# generated using pymatgen
data_Tb2Ho4FeCo15(TcP6)2
_symmetry_space_group_name_H-M   'P 1'
_cell_length_a   3.70610600
_cell_length_b   10.50324100
_cell_length_c   12.20068600
_cell_angle_alpha   90.00000000
_cell_angle_beta   90.00000000
_cell_angle_gamma   90.00000000
_symmetry_Int_Tables_number   1
_chemical_formula_structural   Tb2Ho4FeCo15(TcP6)2
_chemical_formula_sum   'Tb2 Ho4 Fe1 Co15 Tc2 P12'
_cell_volume   474.92542209
_cell_formula_units_Z   1
loop_
 _symmetry_equiv_pos_site_id
 _symmetry_equiv_pos_as_xyz
  1  'x, y, z'
loop_
 _atom_site_type_symbol
 _atom_site_label
 _atom_site_symmetry_multiplicity
 _atom_site_fract_x
 _atom_site_fract_y
 _atom_site_fract_z
 _atom_site_occupancy
  Tb  Tb0  1  0.000000  0.500000  0.524615  1
  Tb  Tb1  1  0.500000  0.000000  0.475129  1
  Ho  Ho2  1  0.500000  0.817336  0.205022  1
  Ho  Ho3  1  0.500000  0.182664  0.205022  1
  Ho  Ho4  1  0.000000  0.680986  0.795422  1
  Ho  Ho5  1  0.000000  0.319014  0.795422  1
  Fe  Fe6  1  0.000000  0.500000  0.987742  1
  Co  Co7  1  0.500000  0.000000  0.012850  1
  Co  Co8  1  0.500000  0.296375  0.431078  1
  Co  Co9  1  0.500000  0.703625  0.431078  1
  Co  Co10  1  0.000000  0.203624  0.569173  1
  Co  Co11  1  0.000000  0.796376  0.569173  1
  Co  Co12  1  0.500000  0.879016  0.708085  1
  Co  Co13  1  0.500000  0.120984  0.708085  1
  Co  Co14  1  0.000000  0.621402  0.292123  1
  Co  Co15  1  0.000000  0.378598  0.292123  1
  Co  Co16  1  0.500000  0.330823  0.990260  1
  Co  Co17  1  0.500000  0.669177  0.990260  1
  Co  Co18  1  0.000000  0.167438  0.009935  1
  Co  Co19  1  0.000000  0.832562  0.009935  1
  Co  Co20  1  0.500000  0.500000  0.702028  1
  Co  Co21  1  0.000000  0.000000  0.297212  1
  Tc  Tc22  1  0.500000  0.500000  0.155981  1
  Tc  Tc23  1  0.000000  0.000000  0.843603  1
  P  P24  1  0.500000  0.310894  0.616591  1
  P  P25  1  0.500000  0.689106  0.616591  1
  P  P26  1  0.000000  0.188804  0.383274  1
  P  P27  1  0.000000  0.811196  0.383274  1
  P  P28  1  0.500000  0.500000  0.882132  1
  P  P29  1  0.000000  0.000000  0.119396  1
  P  P30  1  0.500000  0.845967  0.892768  1
  P  P31  1  0.500000  0.154033  0.892768  1
  P  P32  1  0.000000  0.653124  0.106185  1
  P  P33  1  0.000000  0.346876  0.106185  1
  P  P34  1  0.500000  0.500000  0.347715  1
  P  P35  1  0.000000  0.000000  0.651765  1
