# generated using pymatgen
data_Sc6Ta3Ti2Al11Os7
_symmetry_space_group_name_H-M   'P 1'
_cell_length_a   8.90060697
_cell_length_b   8.90060776
_cell_length_c   8.86617352
_cell_angle_alpha   59.92427796
_cell_angle_beta   59.92427290
_cell_angle_gamma   60.05787270
_symmetry_Int_Tables_number   1
_chemical_formula_structural   Sc6Ta3Ti2Al11Os7
_chemical_formula_sum   'Sc6 Ta3 Ti2 Al11 Os7'
_cell_volume   496.30841037
_cell_formula_units_Z   1
loop_
 _symmetry_equiv_pos_site_id
 _symmetry_equiv_pos_as_xyz
  1  'x, y, z'
loop_
 _atom_site_type_symbol
 _atom_site_label
 _atom_site_symmetry_multiplicity
 _atom_site_fract_x
 _atom_site_fract_y
 _atom_site_fract_z
 _atom_site_occupancy
  Sc  Sc0  1  0.712018  0.712018  0.287281  1
  Sc  Sc1  1  0.288064  0.709669  0.291536  1
  Sc  Sc2  1  0.709669  0.288064  0.291536  1
  Sc  Sc3  1  0.292034  0.292034  0.712136  1
  Sc  Sc4  1  0.705297  0.287951  0.713379  1
  Sc  Sc5  1  0.287951  0.705297  0.713379  1
  Ta  Ta6  1  0.879567  0.879567  0.359695  1
  Ta  Ta7  1  0.877092  0.364577  0.880586  1
  Ta  Ta8  1  0.364577  0.877092  0.880586  1
  Ti  Ti9  1  0.878351  0.878351  0.881042  1
  Ti  Ti10  1  0.122894  0.122894  0.626746  1
  Al  Al11  1  0.118542  0.639698  0.120245  1
  Al  Al12  1  0.639698  0.118542  0.120245  1
  Al  Al13  1  0.119692  0.119692  0.121094  1
  Al  Al14  1  0.664364  0.664364  0.013081  1
  Al  Al15  1  0.665818  0.009587  0.663941  1
  Al  Al16  1  0.009587  0.665818  0.663941  1
  Al  Al17  1  0.662259  0.662259  0.661213  1
  Al  Al18  1  0.333201  0.333201  0.001603  1
  Al  Al19  1  0.336617  0.994249  0.333500  1
  Al  Al20  1  0.994249  0.336617  0.333500  1
  Al  Al21  1  0.335749  0.335749  0.334388  1
  Os  Os22  1  0.004175  0.004175  0.988029  1
  Os  Os23  1  0.998657  0.998657  0.502895  1
  Os  Os24  1  0.500241  0.997243  0.505660  1
  Os  Os25  1  0.997243  0.500241  0.505660  1
  Os  Os26  1  0.502713  0.502713  0.997966  1
  Os  Os27  1  0.999608  0.500067  0.997566  1
  Os  Os28  1  0.500067  0.999608  0.997566  1
