# generated using pymatgen
data_Dy14Lu2MgIn3Rh4
_symmetry_space_group_name_H-M   'P 1'
_cell_length_a   9.62174697
_cell_length_b   9.63807922
_cell_length_c   9.64110292
_cell_angle_alpha   60.01037470
_cell_angle_beta   60.14877750
_cell_angle_gamma   59.94382692
_symmetry_Int_Tables_number   1
_chemical_formula_structural   Dy14Lu2MgIn3Rh4
_chemical_formula_sum   'Dy14 Lu2 Mg1 In3 Rh4'
_cell_volume   632.69010793
_cell_formula_units_Z   1
loop_
 _symmetry_equiv_pos_site_id
 _symmetry_equiv_pos_as_xyz
  1  'x, y, z'
loop_
 _atom_site_type_symbol
 _atom_site_label
 _atom_site_symmetry_multiplicity
 _atom_site_fract_x
 _atom_site_fract_y
 _atom_site_fract_z
 _atom_site_occupancy
  Dy  Dy0  1  0.314254  0.686928  0.311890  1
  Dy  Dy1  1  0.934245  0.937404  0.563625  1
  Dy  Dy2  1  0.148185  0.151527  0.548761  1
  Dy  Dy3  1  0.561346  0.938985  0.560686  1
  Dy  Dy4  1  0.149812  0.153493  0.151693  1
  Dy  Dy5  1  0.311619  0.308811  0.689925  1
  Dy  Dy6  1  0.934245  0.564725  0.563625  1
  Dy  Dy7  1  0.562407  0.562166  0.937743  1
  Dy  Dy8  1  0.562407  0.937684  0.937743  1
  Dy  Dy9  1  0.935053  0.563944  0.937060  1
  Dy  Dy10  1  0.149812  0.545002  0.151693  1
  Dy  Dy11  1  0.311619  0.689645  0.689925  1
  Dy  Dy12  1  0.689347  0.311108  0.688437  1
  Dy  Dy13  1  0.550990  0.150261  0.148487  1
  Lu  Lu14  1  0.688385  0.311916  0.312818  1
  Lu  Lu15  1  0.688385  0.686881  0.312818  1
  Mg  Mg16  1  0.922698  0.920744  0.235813  1
  In  In17  1  0.247171  0.916788  0.919254  1
  In  In18  1  0.917677  0.247560  0.918504  1
  In  In19  1  0.917677  0.916258  0.918504  1
  Rh  Rh20  1  0.361061  0.355250  0.357818  1
  Rh  Rh21  1  0.922756  0.359758  0.357728  1
  Rh  Rh22  1  0.357785  0.357291  0.927636  1
  Rh  Rh23  1  0.361061  0.925872  0.357818  1
