# generated using pymatgen
data_PrDyAg2(Ir2O7)2
_symmetry_space_group_name_H-M   'P 1'
_cell_length_a   7.27075331
_cell_length_b   7.19377295
_cell_length_c   7.25885472
_cell_angle_alpha   60.29614660
_cell_angle_beta   61.36700971
_cell_angle_gamma   60.34961896
_symmetry_Int_Tables_number   1
_chemical_formula_structural   PrDyAg2(Ir2O7)2
_chemical_formula_sum   'Pr1 Dy1 Ag2 Ir4 O14'
_cell_volume   272.47244269
_cell_formula_units_Z   1
loop_
 _symmetry_equiv_pos_site_id
 _symmetry_equiv_pos_as_xyz
  1  'x, y, z'
loop_
 _atom_site_type_symbol
 _atom_site_label
 _atom_site_symmetry_multiplicity
 _atom_site_fract_x
 _atom_site_fract_y
 _atom_site_fract_z
 _atom_site_occupancy
  Pr  Pr0  1  0.125000  0.125000  0.625000  1
  Dy  Dy1  1  0.625000  0.125000  0.125000  1
  Ag  Ag2  1  0.125000  0.125000  0.125000  1
  Ag  Ag3  1  0.125000  0.625000  0.125000  1
  Ir  Ir4  1  0.625000  0.625000  0.625000  1
  Ir  Ir5  1  0.125000  0.625000  0.625000  1
  Ir  Ir6  1  0.625000  0.125000  0.625000  1
  Ir  Ir7  1  0.625000  0.625000  0.125000  1
  O  O8  1  0.948242  0.547860  0.549779  1
  O  O9  1  0.301758  0.295881  0.700221  1
  O  O10  1  0.939592  0.559356  0.941697  1
  O  O11  1  0.692272  0.295626  0.299247  1
  O  O12  1  0.557728  0.537145  0.950753  1
  O  O13  1  0.545299  0.961927  0.530847  1
  O  O14  1  0.557728  0.954374  0.950753  1
  O  O15  1  0.250574  0.260067  0.229291  1
  O  O16  1  0.301758  0.702140  0.700221  1
  O  O17  1  0.704701  0.288073  0.719153  1
  O  O18  1  0.999426  0.989933  0.020709  1
  O  O19  1  0.948242  0.954119  0.549779  1
  O  O20  1  0.310408  0.690644  0.308303  1
  O  O21  1  0.692272  0.712855  0.299247  1
