# generated using pymatgen
data_Y6Th2Cd2NiOs
_symmetry_space_group_name_H-M   'P 1'
_cell_length_a   9.71440794
_cell_length_b   9.71440767
_cell_length_c   9.78593800
_cell_angle_alpha   59.75612283
_cell_angle_beta   59.75612373
_cell_angle_gamma   59.43482899
_symmetry_Int_Tables_number   1
_chemical_formula_structural   Y6Th2Cd2NiOs
_chemical_formula_sum   'Y12 Th4 Cd4 Ni2 Os2'
_cell_volume   647.78907959
_cell_formula_units_Z   2
loop_
 _symmetry_equiv_pos_site_id
 _symmetry_equiv_pos_as_xyz
  1  'x, y, z'
loop_
 _atom_site_type_symbol
 _atom_site_label
 _atom_site_symmetry_multiplicity
 _atom_site_fract_x
 _atom_site_fract_y
 _atom_site_fract_z
 _atom_site_occupancy
  Y  Y0  1  0.062308  0.435778  0.439309  1
  Y  Y1  1  0.435778  0.062308  0.062604  1
  Y  Y2  1  0.435778  0.062308  0.439309  1
  Y  Y3  1  0.062308  0.435778  0.062604  1
  Y  Y4  1  0.438858  0.438858  0.061142  1
  Y  Y5  1  0.061750  0.061750  0.438250  1
  Y  Y6  1  0.186111  0.809001  0.817737  1
  Y  Y7  1  0.809001  0.186111  0.187151  1
  Y  Y8  1  0.809001  0.186111  0.817737  1
  Y  Y9  1  0.186111  0.809001  0.187151  1
  Y  Y10  1  0.814212  0.814212  0.185788  1
  Y  Y11  1  0.187012  0.187012  0.812988  1
  Th  Th12  1  0.599909  0.599909  0.596514  1
  Th  Th13  1  0.599909  0.599909  0.203666  1
  Th  Th14  1  0.599773  0.206213  0.597007  1
  Th  Th15  1  0.206213  0.599773  0.597007  1
  Cd  Cd16  1  0.830979  0.830979  0.834633  1
  Cd  Cd17  1  0.830979  0.830979  0.503410  1
  Cd  Cd18  1  0.830334  0.503852  0.832906  1
  Cd  Cd19  1  0.503852  0.830334  0.832906  1
  Ni  Ni20  1  0.395419  0.819884  0.392350  1
  Ni  Ni21  1  0.819884  0.395419  0.392350  1
  Os  Os22  1  0.397261  0.397261  0.390413  1
  Os  Os23  1  0.397261  0.397261  0.815068  1
