# generated using pymatgen
data_Tb2Ho5TmAl3Si8Ge
_symmetry_space_group_name_H-M   'P 1'
_cell_length_a   5.58738841
_cell_length_b   5.58738872
_cell_length_c   19.47352830
_cell_angle_alpha   82.16601086
_cell_angle_beta   82.16601125
_cell_angle_gamma   42.50093954
_symmetry_Int_Tables_number   1
_chemical_formula_structural   Tb2Ho5TmAl3Si8Ge
_chemical_formula_sum   'Tb2 Ho5 Tm1 Al3 Si8 Ge1'
_cell_volume   406.31112666
_cell_formula_units_Z   1
loop_
 _symmetry_equiv_pos_site_id
 _symmetry_equiv_pos_as_xyz
  1  'x, y, z'
loop_
 _atom_site_type_symbol
 _atom_site_label
 _atom_site_symmetry_multiplicity
 _atom_site_fract_x
 _atom_site_fract_y
 _atom_site_fract_z
 _atom_site_occupancy
  Tb  Tb0  1  0.461924  0.461924  0.676160  1
  Tb  Tb1  1  0.701866  0.701866  0.929330  1
  Ho  Ho2  1  0.217703  0.217703  0.427434  1
  Ho  Ho3  1  0.783081  0.783081  0.571298  1
  Ho  Ho4  1  0.025024  0.025024  0.820678  1
  Ho  Ho5  1  0.297410  0.297410  0.072141  1
  Ho  Ho6  1  0.538514  0.538514  0.323492  1
  Tm  Tm7  1  0.974836  0.974836  0.179617  1
  Al  Al8  1  0.256057  0.256057  0.252476  1
  Al  Al9  1  0.500435  0.500435  0.499582  1
  Al  Al10  1  0.743891  0.743891  0.747563  1
  Si  Si11  1  0.172046  0.172046  0.675756  1
  Si  Si12  1  0.414978  0.414978  0.923111  1
  Si  Si13  1  0.688479  0.688479  0.180552  1
  Si  Si14  1  0.929039  0.929039  0.427564  1
  Si  Si15  1  0.072022  0.072022  0.571341  1
  Si  Si16  1  0.311528  0.311528  0.819994  1
  Si  Si17  1  0.583807  0.583807  0.078240  1
  Si  Si18  1  0.829000  0.829000  0.323363  1
  Ge  Ge19  1  0.998358  0.998358  0.000308  1
