# generated using pymatgen
data_Nb4SnB4Ru10W
_symmetry_space_group_name_H-M   'P 1'
_cell_length_a   9.52367700
_cell_length_b   9.52367700
_cell_length_c   2.98996500
_cell_angle_alpha   90.00000000
_cell_angle_beta   90.00000000
_cell_angle_gamma   90.00000000
_symmetry_Int_Tables_number   1
_chemical_formula_structural   Nb4SnB4Ru10W
_chemical_formula_sum   'Nb4 Sn1 B4 Ru10 W1'
_cell_volume   271.19109205
_cell_formula_units_Z   1
loop_
 _symmetry_equiv_pos_site_id
 _symmetry_equiv_pos_as_xyz
  1  'x, y, z'
loop_
 _atom_site_type_symbol
 _atom_site_label
 _atom_site_symmetry_multiplicity
 _atom_site_fract_x
 _atom_site_fract_y
 _atom_site_fract_z
 _atom_site_occupancy
  Nb  Nb0  1  0.823434  0.677258  0.000000  1
  Nb  Nb1  1  0.176566  0.322742  0.000000  1
  Nb  Nb2  1  0.322742  0.823434  0.000000  1
  Nb  Nb3  1  0.677258  0.176566  0.000000  1
  Sn  Sn4  1  0.500000  0.500000  0.000000  1
  B  B5  1  0.619042  0.877046  0.000000  1
  B  B6  1  0.380958  0.122954  0.000000  1
  B  B7  1  0.122954  0.619042  0.000000  1
  B  B8  1  0.877046  0.380958  0.000000  1
  Ru  Ru9  1  0.574315  0.722421  0.500000  1
  Ru  Ru10  1  0.425685  0.277579  0.500000  1
  Ru  Ru11  1  0.068145  0.781464  0.500000  1
  Ru  Ru12  1  0.931855  0.218536  0.500000  1
  Ru  Ru13  1  0.277579  0.574315  0.500000  1
  Ru  Ru14  1  0.722421  0.425685  0.500000  1
  Ru  Ru15  1  0.218536  0.068145  0.500000  1
  Ru  Ru16  1  0.781464  0.931855  0.500000  1
  Ru  Ru17  1  0.500000  0.000000  0.500000  1
  Ru  Ru18  1  0.000000  0.500000  0.500000  1
  W  W19  1  0.000000  0.000000  0.000000  1
