# generated using pymatgen
data_Ba6Nb(IrO6)3
_symmetry_space_group_name_H-M   'P 1'
_cell_length_a   7.56859523
_cell_length_b   7.56859353
_cell_length_c   7.56859363
_cell_angle_alpha   84.93997616
_cell_angle_beta   84.93997250
_cell_angle_gamma   84.93998796
_symmetry_Int_Tables_number   1
_chemical_formula_structural   Ba6Nb(IrO6)3
_chemical_formula_sum   'Ba6 Nb1 Ir3 O18'
_cell_volume   428.76845205
_cell_formula_units_Z   1
loop_
 _symmetry_equiv_pos_site_id
 _symmetry_equiv_pos_as_xyz
  1  'x, y, z'
loop_
 _atom_site_type_symbol
 _atom_site_label
 _atom_site_symmetry_multiplicity
 _atom_site_fract_x
 _atom_site_fract_y
 _atom_site_fract_z
 _atom_site_occupancy
  Ba  Ba0  1  0.584598  0.920528  0.250864  1
  Ba  Ba1  1  0.920528  0.250864  0.584598  1
  Ba  Ba2  1  0.250864  0.584598  0.920528  1
  Ba  Ba3  1  0.413169  0.084437  0.745601  1
  Ba  Ba4  1  0.745601  0.413169  0.084437  1
  Ba  Ba5  1  0.084437  0.745601  0.413169  1
  Nb  Nb6  1  0.141409  0.141409  0.141409  1
  Ir  Ir7  1  0.349038  0.349038  0.349038  1
  Ir  Ir8  1  0.847930  0.847930  0.847930  1
  Ir  Ir9  1  0.647676  0.647676  0.647676  1
  O  O10  1  0.261362  0.921250  0.087919  1
  O  O11  1  0.087919  0.261362  0.921250  1
  O  O12  1  0.921250  0.087919  0.261362  1
  O  O13  1  0.254202  0.417901  0.572380  1
  O  O14  1  0.572380  0.254202  0.417901  1
  O  O15  1  0.417901  0.572380  0.254202  1
  O  O16  1  0.747448  0.071964  0.911074  1
  O  O17  1  0.911074  0.747448  0.071964  1
  O  O18  1  0.071964  0.911074  0.747448  1
  O  O19  1  0.746360  0.584168  0.423256  1
  O  O20  1  0.107654  0.407388  0.256416  1
  O  O21  1  0.407388  0.256416  0.107654  1
  O  O22  1  0.256416  0.107654  0.407388  1
  O  O23  1  0.893855  0.603499  0.746653  1
  O  O24  1  0.603499  0.746653  0.893855  1
  O  O25  1  0.746653  0.893855  0.603499  1
  O  O26  1  0.584168  0.423256  0.746360  1
  O  O27  1  0.423256  0.746360  0.584168  1
