# generated using pymatgen
data_LiCa8(Si4Pt)3
_symmetry_space_group_name_H-M   'P 1'
_cell_length_a   8.27019300
_cell_length_b   8.27019391
_cell_length_c   8.67298100
_cell_angle_alpha   90.00000000
_cell_angle_beta   90.00000000
_cell_angle_gamma   120.00000034
_symmetry_Int_Tables_number   1
_chemical_formula_structural   LiCa8(Si4Pt)3
_chemical_formula_sum   'Li1 Ca8 Si12 Pt3'
_cell_volume   513.72460001
_cell_formula_units_Z   1
loop_
 _symmetry_equiv_pos_site_id
 _symmetry_equiv_pos_as_xyz
  1  'x, y, z'
loop_
 _atom_site_type_symbol
 _atom_site_label
 _atom_site_symmetry_multiplicity
 _atom_site_fract_x
 _atom_site_fract_y
 _atom_site_fract_z
 _atom_site_occupancy
  Li  Li0  1  0.666667  0.333333  0.998254  1
  Ca  Ca1  1  0.496889  0.503111  0.746361  1
  Ca  Ca2  1  0.497349  0.502651  0.253567  1
  Ca  Ca3  1  0.006225  0.503111  0.746361  1
  Ca  Ca4  1  0.005302  0.502651  0.253567  1
  Ca  Ca5  1  0.496889  0.993775  0.746361  1
  Ca  Ca6  1  0.497349  0.994698  0.253567  1
  Ca  Ca7  1  0.000000  0.000000  0.751046  1
  Ca  Ca8  1  0.000000  0.000000  0.249010  1
  Si  Si9  1  0.837882  0.162118  0.000205  1
  Si  Si10  1  0.166303  0.833697  0.000006  1
  Si  Si11  1  0.324236  0.162118  0.000205  1
  Si  Si12  1  0.165773  0.834227  0.500005  1
  Si  Si13  1  0.667393  0.833697  0.000006  1
  Si  Si14  1  0.833266  0.166734  0.500077  1
  Si  Si15  1  0.837882  0.675764  0.000205  1
  Si  Si16  1  0.668456  0.834227  0.500005  1
  Si  Si17  1  0.166303  0.332607  0.000006  1
  Si  Si18  1  0.333469  0.166734  0.500077  1
  Si  Si19  1  0.165773  0.331544  0.500005  1
  Si  Si20  1  0.833266  0.666531  0.500077  1
  Pt  Pt21  1  0.333333  0.666667  0.000815  1
  Pt  Pt22  1  0.333333  0.666667  0.499323  1
  Pt  Pt23  1  0.666667  0.333333  0.500895  1
