# generated using pymatgen
data_Er3Tm2In4HgPt
_symmetry_space_group_name_H-M   'P 1'
_cell_length_a   3.65926300
_cell_length_b   8.16941643
_cell_length_c   18.31394358
_cell_angle_alpha   89.86336844
_cell_angle_beta   90.00000000
_cell_angle_gamma   90.00000000
_symmetry_Int_Tables_number   1
_chemical_formula_structural   Er3Tm2In4HgPt
_chemical_formula_sum   'Er6 Tm4 In8 Hg2 Pt2'
_cell_volume   547.47626561
_cell_formula_units_Z   2
loop_
 _symmetry_equiv_pos_site_id
 _symmetry_equiv_pos_as_xyz
  1  'x, y, z'
loop_
 _atom_site_type_symbol
 _atom_site_label
 _atom_site_symmetry_multiplicity
 _atom_site_fract_x
 _atom_site_fract_y
 _atom_site_fract_z
 _atom_site_occupancy
  Er  Er0  1  0.000000  0.259182  0.212435  1
  Er  Er1  1  0.000000  0.740818  0.787565  1
  Er  Er2  1  0.000000  0.287638  0.721401  1
  Er  Er3  1  0.000000  0.712362  0.278599  1
  Er  Er4  1  0.000000  0.000000  0.000000  1
  Er  Er5  1  0.000000  0.500000  0.500000  1
  Tm  Tm6  1  0.000000  0.120336  0.423108  1
  Tm  Tm7  1  0.000000  0.879664  0.576892  1
  Tm  Tm8  1  0.000000  0.384974  0.916513  1
  Tm  Tm9  1  0.000000  0.615026  0.083487  1
  In  In10  1  0.500000  0.415757  0.353139  1
  In  In11  1  0.500000  0.584243  0.646861  1
  In  In12  1  0.500000  0.083854  0.854530  1
  In  In13  1  0.500000  0.916146  0.145470  1
  In  In14  1  0.500000  0.293330  0.062464  1
  In  In15  1  0.500000  0.706670  0.937536  1
  In  In16  1  0.500000  0.213426  0.567422  1
  In  In17  1  0.500000  0.786574  0.432578  1
  Hg  Hg18  1  0.500000  0.024687  0.300890  1
  Hg  Hg19  1  0.500000  0.975313  0.699110  1
  Pt  Pt20  1  0.500000  0.475600  0.805837  1
  Pt  Pt21  1  0.500000  0.524400  0.194163  1
