# generated using pymatgen
data_Yb12CuRu2Rh
_symmetry_space_group_name_H-M   'P 1'
_cell_length_a   6.28014800
_cell_length_b   7.46900186
_cell_length_c   9.45252100
_cell_angle_alpha   90.00000000
_cell_angle_beta   90.00000000
_cell_angle_gamma   90.39429218
_symmetry_Int_Tables_number   1
_chemical_formula_structural   Yb12CuRu2Rh
_chemical_formula_sum   'Yb12 Cu1 Ru2 Rh1'
_cell_volume   443.37358268
_cell_formula_units_Z   1
loop_
 _symmetry_equiv_pos_site_id
 _symmetry_equiv_pos_as_xyz
  1  'x, y, z'
loop_
 _atom_site_type_symbol
 _atom_site_label
 _atom_site_symmetry_multiplicity
 _atom_site_fract_x
 _atom_site_fract_y
 _atom_site_fract_z
 _atom_site_occupancy
  Yb  Yb0  1  0.345344  0.660786  0.063392  1
  Yb  Yb1  1  0.158286  0.178401  0.437969  1
  Yb  Yb2  1  0.660848  0.328473  0.571273  1
  Yb  Yb3  1  0.837249  0.833603  0.926154  1
  Yb  Yb4  1  0.660848  0.328473  0.928727  1
  Yb  Yb5  1  0.837249  0.833603  0.573846  1
  Yb  Yb6  1  0.345344  0.660786  0.436608  1
  Yb  Yb7  1  0.158286  0.178401  0.062031  1
  Yb  Yb8  1  0.858186  0.533643  0.250000  1
  Yb  Yb9  1  0.626432  0.044817  0.250000  1
  Yb  Yb10  1  0.135672  0.461554  0.750000  1
  Yb  Yb11  1  0.361074  0.957294  0.750000  1
  Cu  Cu12  1  0.053396  0.879941  0.250000  1
  Ru  Ru13  1  0.450495  0.379357  0.250000  1
  Ru  Ru14  1  0.962041  0.118887  0.750000  1
  Rh  Rh15  1  0.549250  0.621981  0.750000  1
