# generated using pymatgen
data_Ca2B5OsRu2
_symmetry_space_group_name_H-M   'P 1'
_cell_length_a   5.59499347
_cell_length_b   5.60771010
_cell_length_c   7.95898721
_cell_angle_alpha   58.93594427
_cell_angle_beta   58.98129218
_cell_angle_gamma   42.71057196
_symmetry_Int_Tables_number   1
_chemical_formula_structural   Ca2B5OsRu2
_chemical_formula_sum   'Ca2 B5 Os1 Ru2'
_cell_volume   141.04841501
_cell_formula_units_Z   1
loop_
 _symmetry_equiv_pos_site_id
 _symmetry_equiv_pos_as_xyz
  1  'x, y, z'
loop_
 _atom_site_type_symbol
 _atom_site_label
 _atom_site_symmetry_multiplicity
 _atom_site_fract_x
 _atom_site_fract_y
 _atom_site_fract_z
 _atom_site_occupancy
  Ca  Ca0  1  0.394596  0.917884  0.741888  1
  Ca  Ca1  1  0.081324  0.606819  0.259771  1
  B  B2  1  0.737018  0.261953  0.999940  1
  B  B3  1  0.541186  0.534144  0.378018  1
  B  B4  1  0.467538  0.461393  0.622528  1
  B  B5  1  0.077179  0.625995  0.811199  1
  B  B6  1  0.371470  0.919922  0.187576  1
  Os  Os7  1  0.878215  0.391662  0.096468  1
  Ru  Ru8  1  0.008600  0.993800  0.499845  1
  Ru  Ru9  1  0.609145  0.120157  0.902767  1
