# generated using pymatgen
data_Nd8Tc3OsC8
_symmetry_space_group_name_H-M   'P 1'
_cell_length_a   5.34553400
_cell_length_b   6.69785837
_cell_length_c   10.20655984
_cell_angle_alpha   90.14591913
_cell_angle_beta   90.00000000
_cell_angle_gamma   90.00000000
_symmetry_Int_Tables_number   1
_chemical_formula_structural   Nd8Tc3OsC8
_chemical_formula_sum   'Nd8 Tc3 Os1 C8'
_cell_volume   365.43070298
_cell_formula_units_Z   1
loop_
 _symmetry_equiv_pos_site_id
 _symmetry_equiv_pos_as_xyz
  1  'x, y, z'
loop_
 _atom_site_type_symbol
 _atom_site_label
 _atom_site_symmetry_multiplicity
 _atom_site_fract_x
 _atom_site_fract_y
 _atom_site_fract_z
 _atom_site_occupancy
  Nd  Nd0  1  0.250000  0.475456  0.786086  1
  Nd  Nd1  1  0.750000  0.026596  0.286729  1
  Nd  Nd2  1  0.250000  0.975198  0.714482  1
  Nd  Nd3  1  0.750000  0.525175  0.212230  1
  Nd  Nd4  1  0.250000  0.813626  0.051954  1
  Nd  Nd5  1  0.750000  0.686884  0.551876  1
  Nd  Nd6  1  0.250000  0.313852  0.448477  1
  Nd  Nd7  1  0.750000  0.187374  0.948211  1
  Tc  Tc8  1  0.750000  0.228769  0.641755  1
  Tc  Tc9  1  0.250000  0.770237  0.357131  1
  Tc  Tc10  1  0.750000  0.729342  0.858482  1
  Os  Os11  1  0.250000  0.270395  0.142613  1
  C  C12  1  0.250000  0.686071  0.536262  1
  C  C13  1  0.750000  0.814215  0.038462  1
  C  C14  1  0.250000  0.185815  0.963430  1
  C  C15  1  0.750000  0.313686  0.462373  1
  C  C16  1  0.250000  0.035353  0.256691  1
  C  C17  1  0.750000  0.464682  0.757578  1
  C  C18  1  0.250000  0.532374  0.242226  1
  C  C19  1  0.750000  0.964896  0.742951  1
