# generated using pymatgen
data_Ti4VB2S
_symmetry_space_group_name_H-M   'P 1'
_cell_length_a   5.93464680
_cell_length_b   5.93464739
_cell_length_c   7.01355563
_cell_angle_alpha   115.02945428
_cell_angle_beta   115.02946875
_cell_angle_gamma   89.99998543
_symmetry_Int_Tables_number   1
_chemical_formula_structural   Ti4VB2S
_chemical_formula_sum   'Ti8 V2 B4 S2'
_cell_volume   197.92260972
_cell_formula_units_Z   2
loop_
 _symmetry_equiv_pos_site_id
 _symmetry_equiv_pos_as_xyz
  1  'x, y, z'
loop_
 _atom_site_type_symbol
 _atom_site_label
 _atom_site_symmetry_multiplicity
 _atom_site_fract_x
 _atom_site_fract_y
 _atom_site_fract_z
 _atom_site_occupancy
  Ti  Ti0  1  0.039258  0.539258  0.730532  1
  Ti  Ti1  1  0.691274  0.191274  0.730532  1
  Ti  Ti2  1  0.191274  0.039258  0.730532  1
  Ti  Ti3  1  0.539258  0.691274  0.730532  1
  Ti  Ti4  1  0.960742  0.460742  0.269468  1
  Ti  Ti5  1  0.308726  0.808726  0.269468  1
  Ti  Ti6  1  0.808726  0.960742  0.269468  1
  Ti  Ti7  1  0.460742  0.308726  0.269468  1
  V  V8  1  0.500000  0.500000  0.000000  1
  V  V9  1  0.000000  0.000000  0.000000  1
  B  B10  1  0.613238  0.113238  0.000000  1
  B  B11  1  0.386762  0.886762  0.000000  1
  B  B12  1  0.886762  0.613238  0.000000  1
  B  B13  1  0.113238  0.386762  0.000000  1
  S  S14  1  0.250000  0.250000  0.500000  1
  S  S15  1  0.750000  0.750000  0.500000  1
