# generated using pymatgen
data_Li2Tm3Pa3(Co4P3)4
_symmetry_space_group_name_H-M   'P 1'
_cell_length_a   3.71791000
_cell_length_b   10.49058012
_cell_length_c   12.10961406
_cell_angle_alpha   90.16604834
_cell_angle_beta   90.00000000
_cell_angle_gamma   90.00000000
_symmetry_Int_Tables_number   1
_chemical_formula_structural   Li2Tm3Pa3(Co4P3)4
_chemical_formula_sum   'Li2 Tm3 Pa3 Co16 P12'
_cell_volume   472.30968999
_cell_formula_units_Z   1
loop_
 _symmetry_equiv_pos_site_id
 _symmetry_equiv_pos_as_xyz
  1  'x, y, z'
loop_
 _atom_site_type_symbol
 _atom_site_label
 _atom_site_symmetry_multiplicity
 _atom_site_fract_x
 _atom_site_fract_y
 _atom_site_fract_z
 _atom_site_occupancy
  Li  Li0  1  0.500000  0.499385  0.151121  1
  Li  Li1  1  0.000000  0.998955  0.850719  1
  Tm  Tm2  1  0.500000  0.183900  0.204607  1
  Tm  Tm3  1  0.000000  0.683897  0.796474  1
  Tm  Tm4  1  0.000000  0.316630  0.793455  1
  Pa  Pa5  1  0.000000  0.499301  0.528670  1
  Pa  Pa6  1  0.500000  0.001788  0.474428  1
  Pa  Pa7  1  0.500000  0.819403  0.207323  1
  Co  Co8  1  0.500000  0.498754  0.697308  1
  Co  Co9  1  0.000000  0.995301  0.299162  1
  Co  Co10  1  0.000000  0.499037  0.983883  1
  Co  Co11  1  0.500000  0.001376  0.013914  1
  Co  Co12  1  0.500000  0.333814  0.994637  1
  Co  Co13  1  0.500000  0.666049  0.996040  1
  Co  Co14  1  0.000000  0.168731  0.003323  1
  Co  Co15  1  0.000000  0.832589  0.005121  1
  Co  Co16  1  0.500000  0.299658  0.431900  1
  Co  Co17  1  0.500000  0.698545  0.434140  1
  Co  Co18  1  0.000000  0.198371  0.566100  1
  Co  Co19  1  0.000000  0.800101  0.569803  1
  Co  Co20  1  0.500000  0.878116  0.708718  1
  Co  Co21  1  0.500000  0.122034  0.707038  1
  Co  Co22  1  0.000000  0.626187  0.291181  1
  Co  Co23  1  0.000000  0.379094  0.292384  1
  P  P24  1  0.500000  0.499828  0.879272  1
  P  P25  1  0.000000  0.003217  0.115999  1
  P  P26  1  0.500000  0.498899  0.344403  1
  P  P27  1  0.000000  0.999813  0.658113  1
  P  P28  1  0.500000  0.306606  0.616686  1
  P  P29  1  0.500000  0.692016  0.619761  1
  P  P30  1  0.000000  0.190428  0.380491  1
  P  P31  1  0.000000  0.807837  0.388556  1
  P  P32  1  0.500000  0.843986  0.893688  1
  P  P33  1  0.500000  0.156980  0.892138  1
  P  P34  1  0.000000  0.654968  0.103421  1
  P  P35  1  0.000000  0.344405  0.106023  1
