# generated using pymatgen
data_Sm8Si15Ir
_symmetry_space_group_name_H-M   'P 1'
_cell_length_a   8.18885400
_cell_length_b   8.18885299
_cell_length_c   8.26577600
_cell_angle_alpha   90.00000000
_cell_angle_beta   90.00000000
_cell_angle_gamma   119.99999601
_symmetry_Int_Tables_number   1
_chemical_formula_structural   Sm8Si15Ir
_chemical_formula_sum   'Sm8 Si15 Ir1'
_cell_volume   480.02127208
_cell_formula_units_Z   1
loop_
 _symmetry_equiv_pos_site_id
 _symmetry_equiv_pos_as_xyz
  1  'x, y, z'
loop_
 _atom_site_type_symbol
 _atom_site_label
 _atom_site_symmetry_multiplicity
 _atom_site_fract_x
 _atom_site_fract_y
 _atom_site_fract_z
 _atom_site_occupancy
  Sm  Sm0  1  0.000000  0.000000  0.748654  1
  Sm  Sm1  1  0.000000  0.000000  0.251389  1
  Sm  Sm2  1  0.500020  0.499980  0.745807  1
  Sm  Sm3  1  0.500020  0.000041  0.745807  1
  Sm  Sm4  1  0.999959  0.499980  0.745807  1
  Sm  Sm5  1  0.500547  0.499453  0.254169  1
  Sm  Sm6  1  0.998907  0.499453  0.254169  1
  Sm  Sm7  1  0.500547  0.001093  0.254169  1
  Si  Si8  1  0.666667  0.333333  0.999504  1
  Si  Si9  1  0.666667  0.333333  0.500957  1
  Si  Si10  1  0.333333  0.666667  0.498918  1
  Si  Si11  1  0.836563  0.163437  0.999802  1
  Si  Si12  1  0.836563  0.673126  0.999802  1
  Si  Si13  1  0.326874  0.163437  0.999802  1
  Si  Si14  1  0.832434  0.167566  0.500021  1
  Si  Si15  1  0.832434  0.664870  0.500021  1
  Si  Si16  1  0.335130  0.167566  0.500021  1
  Si  Si17  1  0.166335  0.833665  0.500030  1
  Si  Si18  1  0.667333  0.833665  0.500030  1
  Si  Si19  1  0.166335  0.332667  0.500030  1
  Si  Si20  1  0.170072  0.829928  0.000186  1
  Si  Si21  1  0.659855  0.829928  0.000186  1
  Si  Si22  1  0.170072  0.340145  0.000186  1
  Ir  Ir23  1  0.333333  0.666667  0.000533  1
