# generated using pymatgen
data_Er4Ga4IrPd2Rh
_symmetry_space_group_name_H-M   'P 1'
_cell_length_a   4.38613300
_cell_length_b   6.82315854
_cell_length_c   7.69691159
_cell_angle_alpha   90.04521223
_cell_angle_beta   90.00000000
_cell_angle_gamma   90.00000000
_symmetry_Int_Tables_number   1
_chemical_formula_structural   Er4Ga4IrPd2Rh
_chemical_formula_sum   'Er4 Ga4 Ir1 Pd2 Rh1'
_cell_volume   230.34756298
_cell_formula_units_Z   1
loop_
 _symmetry_equiv_pos_site_id
 _symmetry_equiv_pos_as_xyz
  1  'x, y, z'
loop_
 _atom_site_type_symbol
 _atom_site_label
 _atom_site_symmetry_multiplicity
 _atom_site_fract_x
 _atom_site_fract_y
 _atom_site_fract_z
 _atom_site_occupancy
  Er  Er0  1  0.250000  0.984027  0.307556  1
  Er  Er1  1  0.250000  0.480197  0.193874  1
  Er  Er2  1  0.750000  0.027195  0.685370  1
  Er  Er3  1  0.750000  0.526823  0.813974  1
  Ga  Ga4  1  0.250000  0.337516  0.568556  1
  Ga  Ga5  1  0.250000  0.836873  0.932719  1
  Ga  Ga6  1  0.750000  0.658819  0.429235  1
  Ga  Ga7  1  0.750000  0.157250  0.070816  1
  Ir  Ir8  1  0.750000  0.269908  0.390406  1
  Pd  Pd9  1  0.250000  0.226055  0.892062  1
  Pd  Pd10  1  0.250000  0.727482  0.608393  1
  Rh  Rh11  1  0.750000  0.767858  0.107039  1
