# generated using pymatgen
data_Na4Ac9Pr7Pb16
_symmetry_space_group_name_H-M   'P 1'
_cell_length_a   8.61652338
_cell_length_b   16.61927305
_cell_length_c   8.68101800
_cell_angle_alpha   90.04393214
_cell_angle_beta   90.35498711
_cell_angle_gamma   90.19463170
_symmetry_Int_Tables_number   1
_chemical_formula_structural   Na4Ac9Pr7Pb16
_chemical_formula_sum   'Na4 Ac9 Pr7 Pb16'
_cell_volume   1243.09343942
_cell_formula_units_Z   1
loop_
 _symmetry_equiv_pos_site_id
 _symmetry_equiv_pos_as_xyz
  1  'x, y, z'
loop_
 _atom_site_type_symbol
 _atom_site_label
 _atom_site_symmetry_multiplicity
 _atom_site_fract_x
 _atom_site_fract_y
 _atom_site_fract_z
 _atom_site_occupancy
  Na  Na0  1  0.825659  0.751679  0.502710  1
  Na  Na1  1  0.325958  0.751437  0.998043  1
  Na  Na2  1  0.174915  0.249264  0.499278  1
  Na  Na3  1  0.675239  0.249960  0.002394  1
  Ac  Ac4  1  0.155117  0.622735  0.328888  1
  Ac  Ac5  1  0.503162  0.596206  0.680995  1
  Ac  Ac6  1  0.005020  0.904633  0.816140  1
  Ac  Ac7  1  0.494071  0.096398  0.316187  1
  Ac  Ac8  1  0.993006  0.401397  0.185759  1
  Ac  Ac9  1  0.495984  0.403239  0.318295  1
  Ac  Ac10  1  0.994788  0.097379  0.183221  1
  Ac  Ac11  1  0.506140  0.905215  0.684404  1
  Ac  Ac12  1  0.004833  0.596554  0.813522  1
  Pr  Pr13  1  0.654464  0.626919  0.169381  1
  Pr  Pr14  1  0.156578  0.875508  0.327873  1
  Pr  Pr15  1  0.343440  0.125654  0.829696  1
  Pr  Pr16  1  0.846341  0.374089  0.671286  1
  Pr  Pr17  1  0.347438  0.371702  0.830233  1
  Pr  Pr18  1  0.843892  0.125761  0.672199  1
  Pr  Pr19  1  0.655021  0.875460  0.169415  1
  Pb  Pb20  1  0.680357  0.462398  0.957807  1
  Pb  Pb21  1  0.175706  0.039076  0.540300  1
  Pb  Pb22  1  0.320651  0.962181  0.040916  1
  Pb  Pb23  1  0.808537  0.535549  0.457547  1
  Pb  Pb24  1  0.327863  0.535531  0.034314  1
  Pb  Pb25  1  0.823236  0.962448  0.458080  1
  Pb  Pb26  1  0.679211  0.038968  0.958745  1
  Pb  Pb27  1  0.180713  0.455551  0.545607  1
  Pb  Pb28  1  0.463509  0.753998  0.390602  1
  Pb  Pb29  1  0.955409  0.752032  0.107826  1
  Pb  Pb30  1  0.542669  0.248990  0.614025  1
  Pb  Pb31  1  0.041006  0.250610  0.890601  1
  Pb  Pb32  1  0.698741  0.750266  0.861590  1
  Pb  Pb33  1  0.202150  0.752661  0.639789  1
  Pb  Pb34  1  0.300314  0.249616  0.137192  1
  Pb  Pb35  1  0.798868  0.248939  0.365139  1
