# generated using pymatgen
data_Cu(PdCl4)3
_symmetry_space_group_name_H-M   'P 1'
_cell_length_a   11.77547271
_cell_length_b   11.07410824
_cell_length_c   6.58355490
_cell_angle_alpha   79.20221049
_cell_angle_beta   67.48622347
_cell_angle_gamma   32.88560760
_symmetry_Int_Tables_number   1
_chemical_formula_structural   Cu(PdCl4)3
_chemical_formula_sum   'Cu1 Pd3 Cl12'
_cell_volume   414.91629946
_cell_formula_units_Z   1
loop_
 _symmetry_equiv_pos_site_id
 _symmetry_equiv_pos_as_xyz
  1  'x, y, z'
loop_
 _atom_site_type_symbol
 _atom_site_label
 _atom_site_symmetry_multiplicity
 _atom_site_fract_x
 _atom_site_fract_y
 _atom_site_fract_z
 _atom_site_occupancy
  Cu  Cu0  1  0.583414  0.583414  0.416586  1
  Pd  Pd1  1  0.418155  0.418155  0.581845  1
  Pd  Pd2  1  0.832623  0.832623  0.667377  1
  Pd  Pd3  1  0.664148  0.664148  0.835852  1
  Cl  Cl4  1  0.719864  0.283599  0.286274  1
  Cl  Cl5  1  0.853566  0.467567  0.082168  1
  Cl  Cl6  1  0.349028  0.828694  0.133221  1
  Cl  Cl7  1  0.467567  0.853566  0.596698  1
  Cl  Cl8  1  0.150881  0.669904  0.372142  1
  Cl  Cl9  1  0.283599  0.719864  0.710263  1
  Cl  Cl10  1  0.520178  0.977946  0.963783  1
  Cl  Cl11  1  0.977946  0.520178  0.538094  1
  Cl  Cl12  1  0.098342  0.582093  0.882073  1
  Cl  Cl13  1  0.828694  0.349028  0.689058  1
  Cl  Cl14  1  0.669904  0.150881  0.807075  1
  Cl  Cl15  1  0.582093  0.098342  0.437492  1
