# generated using pymatgen
data_HfZr2PaRh4
_symmetry_space_group_name_H-M   'P 1'
_cell_length_a   4.43864300
_cell_length_b   5.39717000
_cell_length_c   6.37601436
_cell_angle_alpha   90.28414757
_cell_angle_beta   90.00000000
_cell_angle_gamma   90.00000000
_symmetry_Int_Tables_number   1
_chemical_formula_structural   HfZr2PaRh4
_chemical_formula_sum   'Hf1 Zr2 Pa1 Rh4'
_cell_volume   152.74262844
_cell_formula_units_Z   1
loop_
 _symmetry_equiv_pos_site_id
 _symmetry_equiv_pos_as_xyz
  1  'x, y, z'
loop_
 _atom_site_type_symbol
 _atom_site_label
 _atom_site_symmetry_multiplicity
 _atom_site_fract_x
 _atom_site_fract_y
 _atom_site_fract_z
 _atom_site_occupancy
  Hf  Hf0  1  0.250000  0.356910  0.670216  1
  Zr  Zr1  1  0.750000  0.634437  0.322318  1
  Zr  Zr2  1  0.250000  0.146792  0.186515  1
  Pa  Pa3  1  0.750000  0.860122  0.821406  1
  Rh  Rh4  1  0.750000  0.166221  0.466386  1
  Rh  Rh5  1  0.250000  0.829899  0.546792  1
  Rh  Rh6  1  0.250000  0.666563  0.046115  1
  Rh  Rh7  1  0.750000  0.339056  0.940251  1
