# generated using pymatgen
data_LiCa2ReH6
_symmetry_space_group_name_H-M   'P 1'
_cell_length_a   5.20494930
_cell_length_b   5.20496184
_cell_length_c   5.20496400
_cell_angle_alpha   59.99951256
_cell_angle_beta   60.00020219
_cell_angle_gamma   89.99967359
_symmetry_Int_Tables_number   1
_chemical_formula_structural   LiCa2ReH6
_chemical_formula_sum   'Li1 Ca2 Re1 H6'
_cell_volume   99.70941072
_cell_formula_units_Z   1
loop_
 _symmetry_equiv_pos_site_id
 _symmetry_equiv_pos_as_xyz
  1  'x, y, z'
loop_
 _atom_site_type_symbol
 _atom_site_label
 _atom_site_symmetry_multiplicity
 _atom_site_fract_x
 _atom_site_fract_y
 _atom_site_fract_z
 _atom_site_occupancy
  Li  Li0  1  0.500003  0.500002  0.999997  1
  Ca  Ca1  1  0.250001  0.750000  0.500001  1
  Ca  Ca2  1  0.750003  0.250000  0.499999  1
  Re  Re3  1  0.000005  0.000002  0.000000  1
  H  H4  1  0.242840  0.242840  0.000002  1
  H  H5  1  0.757157  0.242842  0.000002  1
  H  H6  1  0.242841  0.757161  0.000001  1
  H  H7  1  0.757157  0.757158  0.000001  1
  H  H8  1  0.757161  0.757161  0.485679  1
  H  H9  1  0.242843  0.242843  0.514313  1
