# generated using pymatgen
data_Ti5Cr(SiOs2)6
_symmetry_space_group_name_H-M   'P 1'
_cell_length_a   4.26310300
_cell_length_b   6.03074800
_cell_length_c   12.77731100
_cell_angle_alpha   90.00006939
_cell_angle_beta   90.00053337
_cell_angle_gamma   90.00016614
_symmetry_Int_Tables_number   1
_chemical_formula_structural   Ti5Cr(SiOs2)6
_chemical_formula_sum   'Ti5 Cr1 Si6 Os12'
_cell_volume   328.50083122
_cell_formula_units_Z   1
loop_
 _symmetry_equiv_pos_site_id
 _symmetry_equiv_pos_as_xyz
  1  'x, y, z'
loop_
 _atom_site_type_symbol
 _atom_site_label
 _atom_site_symmetry_multiplicity
 _atom_site_fract_x
 _atom_site_fract_y
 _atom_site_fract_z
 _atom_site_occupancy
  Ti  Ti0  1  0.499811  0.000001  0.165457  1
  Ti  Ti1  1  0.999816  0.500003  0.332478  1
  Ti  Ti2  1  0.499996  0.000003  0.500001  1
  Ti  Ti3  1  0.000176  0.500002  0.667524  1
  Ti  Ti4  1  0.500182  0.000002  0.834542  1
  Cr  Cr5  1  0.000104  0.499940  0.999994  1
  Si  Si6  1  0.999997  0.000002  0.999999  1
  Si  Si7  1  0.499777  0.500002  0.166306  1
  Si  Si8  1  0.999781  0.000002  0.333038  1
  Si  Si9  1  0.499996  0.500002  0.500000  1
  Si  Si10  1  0.000211  0.000002  0.666963  1
  Si  Si11  1  0.500217  0.500003  0.833695  1
  Os  Os12  1  0.499995  0.255488  0.999996  1
  Os  Os13  1  0.499991  0.744514  0.999996  1
  Os  Os14  1  0.999836  0.251755  0.164735  1
  Os  Os15  1  0.999837  0.748255  0.164735  1
  Os  Os16  1  0.499834  0.249697  0.333063  1
  Os  Os17  1  0.499833  0.750311  0.333062  1
  Os  Os18  1  0.999996  0.250155  0.499999  1
  Os  Os19  1  0.999996  0.749852  0.500002  1
  Os  Os20  1  0.500156  0.249694  0.666941  1
  Os  Os21  1  0.500155  0.750312  0.666942  1
  Os  Os22  1  0.000155  0.251740  0.835265  1
  Os  Os23  1  0.000158  0.748266  0.835266  1
