# generated using pymatgen
data_BaGaSbO
_symmetry_space_group_name_H-M   'P 1'
_cell_length_a   4.39362000
_cell_length_b   4.39362040
_cell_length_c   6.45741900
_cell_angle_alpha   90.00000000
_cell_angle_beta   90.00000000
_cell_angle_gamma   119.99999697
_symmetry_Int_Tables_number   1
_chemical_formula_structural   BaGaSbO
_chemical_formula_sum   'Ba1 Ga1 Sb1 O1'
_cell_volume   107.95298041
_cell_formula_units_Z   1
loop_
 _symmetry_equiv_pos_site_id
 _symmetry_equiv_pos_as_xyz
  1  'x, y, z'
loop_
 _atom_site_type_symbol
 _atom_site_label
 _atom_site_symmetry_multiplicity
 _atom_site_fract_x
 _atom_site_fract_y
 _atom_site_fract_z
 _atom_site_occupancy
  Ba  Ba0  1  0.000000  0.000000  0.985759  1
  Ga  Ga1  1  0.333333  0.666667  0.581726  1
  Sb  Sb2  1  0.666667  0.333332  0.428184  1
  O  O3  1  0.333333  0.666667  0.874831  1
