# generated using pymatgen
data_Pr8Zr7Sc5Ga16
_symmetry_space_group_name_H-M   'P 1'
_cell_length_a   7.38721587
_cell_length_b   7.72076212
_cell_length_c   14.65031757
_cell_angle_alpha   90.00803507
_cell_angle_beta   89.94758456
_cell_angle_gamma   90.01875026
_symmetry_Int_Tables_number   1
_chemical_formula_structural   Pr8Zr7Sc5Ga16
_chemical_formula_sum   'Pr8 Zr7 Sc5 Ga16'
_cell_volume   835.57952953
_cell_formula_units_Z   1
loop_
 _symmetry_equiv_pos_site_id
 _symmetry_equiv_pos_as_xyz
  1  'x, y, z'
loop_
 _atom_site_type_symbol
 _atom_site_label
 _atom_site_symmetry_multiplicity
 _atom_site_fract_x
 _atom_site_fract_y
 _atom_site_fract_z
 _atom_site_occupancy
  Pr  Pr0  1  0.009447  0.172528  0.405093  1
  Pr  Pr1  1  0.509428  0.326651  0.405465  1
  Pr  Pr2  1  0.490365  0.673841  0.905767  1
  Pr  Pr3  1  0.490469  0.672826  0.594691  1
  Pr  Pr4  1  0.990724  0.827308  0.594763  1
  Pr  Pr5  1  0.990869  0.827276  0.904600  1
  Pr  Pr6  1  0.509723  0.326469  0.094322  1
  Pr  Pr7  1  0.009502  0.173532  0.094633  1
  Zr  Zr8  1  0.327429  0.176299  0.623855  1
  Zr  Zr9  1  0.672077  0.823492  0.375930  1
  Zr  Zr10  1  0.172594  0.677071  0.375751  1
  Zr  Zr11  1  0.826847  0.324701  0.876164  1
  Zr  Zr12  1  0.827086  0.323863  0.624042  1
  Zr  Zr13  1  0.328135  0.174756  0.876461  1
  Zr  Zr14  1  0.172068  0.673957  0.124824  1
  Sc  Sc15  1  0.660983  0.999369  0.750018  1
  Sc  Sc16  1  0.838700  0.499951  0.249413  1
  Sc  Sc17  1  0.339307  0.000772  0.249620  1
  Sc  Sc18  1  0.673058  0.825525  0.123394  1
  Sc  Sc19  1  0.160472  0.500342  0.750264  1
  Ga  Ga20  1  0.288769  0.884075  0.749659  1
  Ga  Ga21  1  0.468358  0.625748  0.251127  1
  Ga  Ga22  1  0.031326  0.127611  0.749890  1
  Ga  Ga23  1  0.530841  0.372484  0.750099  1
  Ga  Ga24  1  0.155969  0.457836  0.540172  1
  Ga  Ga25  1  0.969433  0.873499  0.250842  1
  Ga  Ga26  1  0.712391  0.117743  0.251354  1
  Ga  Ga27  1  0.845945  0.538537  0.040202  1
  Ga  Ga28  1  0.341401  0.959191  0.039950  1
  Ga  Ga29  1  0.156334  0.458467  0.959514  1
  Ga  Ga30  1  0.655997  0.041918  0.540289  1
  Ga  Ga31  1  0.343212  0.957843  0.460190  1
  Ga  Ga32  1  0.844250  0.541430  0.459888  1
  Ga  Ga33  1  0.789013  0.615995  0.749897  1
  Ga  Ga34  1  0.212420  0.383690  0.250245  1
  Ga  Ga35  1  0.655057  0.043402  0.957610  1
