# generated using pymatgen
data_Sc24CoTc7
_symmetry_space_group_name_H-M   'P 1'
_cell_length_a   5.82710234
_cell_length_b   8.55043500
_cell_length_c   13.70036979
_cell_angle_alpha   90.00000000
_cell_angle_beta   90.40703468
_cell_angle_gamma   90.00000000
_symmetry_Int_Tables_number   1
_chemical_formula_structural   Sc24CoTc7
_chemical_formula_sum   'Sc24 Co1 Tc7'
_cell_volume   682.59355889
_cell_formula_units_Z   1
loop_
 _symmetry_equiv_pos_site_id
 _symmetry_equiv_pos_as_xyz
  1  'x, y, z'
loop_
 _atom_site_type_symbol
 _atom_site_label
 _atom_site_symmetry_multiplicity
 _atom_site_fract_x
 _atom_site_fract_y
 _atom_site_fract_z
 _atom_site_occupancy
  Sc  Sc0  1  0.535061  0.750000  0.354553  1
  Sc  Sc1  1  0.032972  0.250000  0.145277  1
  Sc  Sc2  1  0.467132  0.250000  0.646360  1
  Sc  Sc3  1  0.970732  0.750000  0.848871  1
  Sc  Sc4  1  0.796259  0.750000  0.109705  1
  Sc  Sc5  1  0.293115  0.250000  0.390739  1
  Sc  Sc6  1  0.204879  0.250000  0.887917  1
  Sc  Sc7  1  0.714651  0.750000  0.612886  1
  Sc  Sc8  1  0.424919  0.935820  0.786167  1
  Sc  Sc9  1  0.925039  0.063311  0.710786  1
  Sc  Sc10  1  0.567321  0.437819  0.209766  1
  Sc  Sc11  1  0.067875  0.563474  0.289945  1
  Sc  Sc12  1  0.567321  0.062181  0.209766  1
  Sc  Sc13  1  0.067875  0.936526  0.289945  1
  Sc  Sc14  1  0.424919  0.564180  0.786167  1
  Sc  Sc15  1  0.925039  0.436689  0.710786  1
  Sc  Sc16  1  0.247481  0.938607  0.539610  1
  Sc  Sc17  1  0.746100  0.058065  0.964824  1
  Sc  Sc18  1  0.754977  0.441477  0.466812  1
  Sc  Sc19  1  0.254823  0.560143  0.032243  1
  Sc  Sc20  1  0.754977  0.058523  0.466812  1
  Sc  Sc21  1  0.254823  0.939857  0.032243  1
  Sc  Sc22  1  0.247481  0.561393  0.539610  1
  Sc  Sc23  1  0.746100  0.441935  0.964824  1
  Co  Co24  1  0.139906  0.750000  0.680797  1
  Tc  Tc25  1  0.934841  0.750000  0.446922  1
  Tc  Tc26  1  0.431529  0.250000  0.057248  1
  Tc  Tc27  1  0.070329  0.250000  0.559946  1
  Tc  Tc28  1  0.572755  0.750000  0.938450  1
  Tc  Tc29  1  0.356678  0.750000  0.180166  1
  Tc  Tc30  1  0.858183  0.250000  0.320396  1
  Tc  Tc31  1  0.643907  0.250000  0.819459  1
