# generated using pymatgen
data_Tb3Y13Cd2(Ni2Ag)2
_symmetry_space_group_name_H-M   'P 1'
_cell_length_a   9.53271534
_cell_length_b   9.53776663
_cell_length_c   9.53433900
_cell_angle_alpha   60.01189075
_cell_angle_beta   59.99436901
_cell_angle_gamma   59.97925589
_symmetry_Int_Tables_number   1
_chemical_formula_structural   Tb3Y13Cd2(Ni2Ag)2
_chemical_formula_sum   'Tb3 Y13 Cd2 Ni4 Ag2'
_cell_volume   612.90235941
_cell_formula_units_Z   1
loop_
 _symmetry_equiv_pos_site_id
 _symmetry_equiv_pos_as_xyz
  1  'x, y, z'
loop_
 _atom_site_type_symbol
 _atom_site_label
 _atom_site_symmetry_multiplicity
 _atom_site_fract_x
 _atom_site_fract_y
 _atom_site_fract_z
 _atom_site_occupancy
  Tb  Tb0  1  0.598667  0.598871  0.598159  1
  Tb  Tb1  1  0.598667  0.598871  0.204303  1
  Tb  Tb2  1  0.600654  0.200053  0.599647  1
  Y  Y3  1  0.198241  0.601351  0.600204  1
  Y  Y4  1  0.061107  0.439095  0.439883  1
  Y  Y5  1  0.439180  0.061274  0.059820  1
  Y  Y6  1  0.439180  0.061274  0.439725  1
  Y  Y7  1  0.061107  0.439095  0.059915  1
  Y  Y8  1  0.440088  0.439824  0.060044  1
  Y  Y9  1  0.061017  0.061182  0.438901  1
  Y  Y10  1  0.183669  0.813526  0.814605  1
  Y  Y11  1  0.813260  0.183586  0.188744  1
  Y  Y12  1  0.813260  0.183586  0.814411  1
  Y  Y13  1  0.183669  0.813526  0.188200  1
  Y  Y14  1  0.812993  0.812940  0.187034  1
  Y  Y15  1  0.186212  0.185754  0.814017  1
  Cd  Cd16  1  0.831878  0.509407  0.829357  1
  Cd  Cd17  1  0.509238  0.831509  0.829626  1
  Ni  Ni18  1  0.393994  0.392955  0.393321  1
  Ni  Ni19  1  0.393994  0.392955  0.819731  1
  Ni  Ni20  1  0.392919  0.821103  0.392989  1
  Ni  Ni21  1  0.820485  0.392451  0.393532  1
  Ag  Ag22  1  0.833261  0.832904  0.831312  1
  Ag  Ag23  1  0.833261  0.832904  0.502521  1
