# generated using pymatgen
data_Tm10Si5Pb
_symmetry_space_group_name_H-M   'P 1'
_cell_length_a   8.43484568
_cell_length_b   8.43484498
_cell_length_c   6.29527600
_cell_angle_alpha   90.00000000
_cell_angle_beta   90.00000000
_cell_angle_gamma   120.19866832
_symmetry_Int_Tables_number   1
_chemical_formula_structural   Tm10Si5Pb
_chemical_formula_sum   'Tm10 Si5 Pb1'
_cell_volume   387.10318790
_cell_formula_units_Z   1
loop_
 _symmetry_equiv_pos_site_id
 _symmetry_equiv_pos_as_xyz
  1  'x, y, z'
loop_
 _atom_site_type_symbol
 _atom_site_label
 _atom_site_symmetry_multiplicity
 _atom_site_fract_x
 _atom_site_fract_y
 _atom_site_fract_z
 _atom_site_occupancy
  Tm  Tm0  1  0.675055  0.331421  0.503947  1
  Tm  Tm1  1  0.331421  0.675055  0.503947  1
  Tm  Tm2  1  0.331421  0.675055  0.996053  1
  Tm  Tm3  1  0.675055  0.331421  0.996053  1
  Tm  Tm4  1  0.767470  0.767470  0.250000  1
  Tm  Tm5  1  0.239421  0.987177  0.250000  1
  Tm  Tm6  1  0.987177  0.239421  0.250000  1
  Tm  Tm7  1  0.239605  0.239605  0.750000  1
  Tm  Tm8  1  0.756581  0.998701  0.750000  1
  Tm  Tm9  1  0.998701  0.756581  0.750000  1
  Si  Si10  1  0.604002  0.998546  0.250000  1
  Si  Si11  1  0.998546  0.604002  0.250000  1
  Si  Si12  1  0.606197  0.606197  0.750000  1
  Si  Si13  1  0.393778  0.001404  0.750000  1
  Si  Si14  1  0.001404  0.393778  0.750000  1
  Pb  Pb15  1  0.394165  0.394165  0.250000  1
