# generated using pymatgen
data_Tb4Re2(OsRu)3
_symmetry_space_group_name_H-M   'P 1'
_cell_length_a   5.21242399
_cell_length_b   5.16863742
_cell_length_c   9.13244100
_cell_angle_alpha   90.00000000
_cell_angle_beta   90.00000000
_cell_angle_gamma   116.23523982
_symmetry_Int_Tables_number   1
_chemical_formula_structural   Tb4Re2(OsRu)3
_chemical_formula_sum   'Tb4 Re2 Os3 Ru3'
_cell_volume   220.69305042
_cell_formula_units_Z   1
loop_
 _symmetry_equiv_pos_site_id
 _symmetry_equiv_pos_as_xyz
  1  'x, y, z'
loop_
 _atom_site_type_symbol
 _atom_site_label
 _atom_site_symmetry_multiplicity
 _atom_site_fract_x
 _atom_site_fract_y
 _atom_site_fract_z
 _atom_site_occupancy
  Tb  Tb0  1  0.330949  0.667131  0.434531  1
  Tb  Tb1  1  0.670482  0.333024  0.565470  1
  Tb  Tb2  1  0.670482  0.333024  0.934530  1
  Tb  Tb3  1  0.330949  0.667131  0.065469  1
  Re  Re4  1  0.830940  0.165212  0.250000  1
  Re  Re5  1  0.162949  0.833257  0.750000  1
  Os  Os6  1  0.831251  0.658311  0.250000  1
  Os  Os7  1  0.343654  0.169138  0.250000  1
  Os  Os8  1  0.164550  0.340173  0.750000  1
  Ru  Ru9  1  0.007214  0.003386  0.500745  1
  Ru  Ru10  1  0.007214  0.003386  0.999255  1
  Ru  Ru11  1  0.649363  0.826828  0.750000  1
