# generated using pymatgen
data_ErTm3Pd2(PtO7)2
_symmetry_space_group_name_H-M   'P 1'
_cell_length_a   7.20972676
_cell_length_b   7.20139944
_cell_length_c   7.20236126
_cell_angle_alpha   59.89543866
_cell_angle_beta   59.96617135
_cell_angle_gamma   59.96175041
_symmetry_Int_Tables_number   1
_chemical_formula_structural   ErTm3Pd2(PtO7)2
_chemical_formula_sum   'Er1 Tm3 Pd2 Pt2 O14'
_cell_volume   264.06742371
_cell_formula_units_Z   1
loop_
 _symmetry_equiv_pos_site_id
 _symmetry_equiv_pos_as_xyz
  1  'x, y, z'
loop_
 _atom_site_type_symbol
 _atom_site_label
 _atom_site_symmetry_multiplicity
 _atom_site_fract_x
 _atom_site_fract_y
 _atom_site_fract_z
 _atom_site_occupancy
  Er  Er0  1  0.625000  0.625000  0.125000  1
  Tm  Tm1  1  0.625000  0.625000  0.625000  1
  Tm  Tm2  1  0.625000  0.125000  0.625000  1
  Tm  Tm3  1  0.125000  0.625000  0.625000  1
  Pd  Pd4  1  0.125000  0.125000  0.125000  1
  Pd  Pd5  1  0.625000  0.125000  0.125000  1
  Pt  Pt6  1  0.125000  0.625000  0.125000  1
  Pt  Pt7  1  0.125000  0.125000  0.625000  1
  O  O8  1  0.031580  0.468424  0.468416  1
  O  O9  1  0.783539  0.781315  0.218315  1
  O  O10  1  0.782831  0.216541  0.217797  1
  O  O11  1  0.466656  0.032090  0.468932  1
  O  O12  1  0.032322  0.032090  0.468932  1
  O  O13  1  0.033170  0.468685  0.031685  1
  O  O14  1  0.750729  0.750405  0.748138  1
  O  O15  1  0.499271  0.499595  0.501862  1
  O  O16  1  0.783344  0.217910  0.781068  1
  O  O17  1  0.216830  0.781315  0.218315  1
  O  O18  1  0.217678  0.217910  0.781068  1
  O  O19  1  0.467169  0.033459  0.032203  1
  O  O20  1  0.466461  0.468685  0.031685  1
  O  O21  1  0.218420  0.781576  0.781584  1
