# generated using pymatgen
data_La8Zn8NiRh7
_symmetry_space_group_name_H-M   'P 1'
_cell_length_a   7.50934143
_cell_length_b   4.03508800
_cell_length_c   16.63590933
_cell_angle_alpha   90.00000000
_cell_angle_beta   89.54544729
_cell_angle_gamma   90.00000000
_symmetry_Int_Tables_number   1
_chemical_formula_structural   La8Zn8NiRh7
_chemical_formula_sum   'La8 Zn8 Ni1 Rh7'
_cell_volume   504.06638800
_cell_formula_units_Z   1
loop_
 _symmetry_equiv_pos_site_id
 _symmetry_equiv_pos_as_xyz
  1  'x, y, z'
loop_
 _atom_site_type_symbol
 _atom_site_label
 _atom_site_symmetry_multiplicity
 _atom_site_fract_x
 _atom_site_fract_y
 _atom_site_fract_z
 _atom_site_occupancy
  La  La0  1  0.048477  0.250001  0.283253  1
  La  La1  1  0.453091  0.750000  0.782914  1
  La  La2  1  0.547188  0.250001  0.217766  1
  La  La3  1  0.952591  0.750000  0.716648  1
  La  La4  1  0.170987  0.250001  0.059796  1
  La  La5  1  0.328603  0.750000  0.559850  1
  La  La6  1  0.672623  0.250001  0.440508  1
  La  La7  1  0.828650  0.750000  0.940228  1
  Zn  Zn8  1  0.126850  0.250001  0.849773  1
  Zn  Zn9  1  0.366400  0.750000  0.353296  1
  Zn  Zn10  1  0.625788  0.250001  0.649732  1
  Zn  Zn11  1  0.873475  0.750000  0.150463  1
  Zn  Zn12  1  0.999696  0.250001  0.558360  1
  Zn  Zn13  1  0.501251  0.750000  0.059624  1
  Zn  Zn14  1  0.498974  0.250001  0.940574  1
  Zn  Zn15  1  0.006050  0.750000  0.440073  1
  Ni  Ni16  1  0.238333  0.250001  0.433086  1
  Rh  Rh17  1  0.259048  0.750000  0.934424  1
  Rh  Rh18  1  0.741881  0.250001  0.065957  1
  Rh  Rh19  1  0.760147  0.750000  0.564760  1
  Rh  Rh20  1  0.246059  0.250001  0.682362  1
  Rh  Rh21  1  0.253001  0.750000  0.186625  1
  Rh  Rh22  1  0.747489  0.250001  0.814561  1
  Rh  Rh23  1  0.753352  0.750000  0.315365  1
