# generated using pymatgen
data_Dy17Er3Ir7Ru5
_symmetry_space_group_name_H-M   'P 1'
_cell_length_a   10.82388397
_cell_length_b   10.82281710
_cell_length_c   6.40410202
_cell_angle_alpha   89.96087964
_cell_angle_beta   89.97351328
_cell_angle_gamma   90.07314263
_symmetry_Int_Tables_number   1
_chemical_formula_structural   Dy17Er3Ir7Ru5
_chemical_formula_sum   'Dy17 Er3 Ir7 Ru5'
_cell_volume   750.20713014
_cell_formula_units_Z   1
loop_
 _symmetry_equiv_pos_site_id
 _symmetry_equiv_pos_as_xyz
  1  'x, y, z'
loop_
 _atom_site_type_symbol
 _atom_site_label
 _atom_site_symmetry_multiplicity
 _atom_site_fract_x
 _atom_site_fract_y
 _atom_site_fract_z
 _atom_site_occupancy
  Dy  Dy0  1  0.293352  0.086236  0.377553  1
  Dy  Dy1  1  0.292609  0.913556  0.877534  1
  Dy  Dy2  1  0.707497  0.086548  0.877869  1
  Dy  Dy3  1  0.707125  0.913852  0.376454  1
  Dy  Dy4  1  0.586207  0.793222  0.877480  1
  Dy  Dy5  1  0.587003  0.207014  0.377652  1
  Dy  Dy6  1  0.413585  0.792898  0.377496  1
  Dy  Dy7  1  0.413489  0.206735  0.876758  1
  Dy  Dy8  1  0.206868  0.413760  0.622594  1
  Dy  Dy9  1  0.207020  0.586466  0.122486  1
  Dy  Dy10  1  0.792957  0.413003  0.122335  1
  Dy  Dy11  1  0.793159  0.586508  0.623290  1
  Dy  Dy12  1  0.913834  0.706761  0.122330  1
  Dy  Dy13  1  0.913446  0.292638  0.622342  1
  Dy  Dy14  1  0.086527  0.707388  0.622620  1
  Dy  Dy15  1  0.086183  0.292708  0.123372  1
  Dy  Dy16  1  0.999597  0.001007  0.499623  1
  Er  Er17  1  0.999132  0.000350  0.000154  1
  Er  Er18  1  0.500118  0.500187  0.000330  1
  Er  Er19  1  0.499756  0.499826  0.499725  1
  Ir  Ir20  1  0.847171  0.846822  0.750294  1
  Ir  Ir21  1  0.153063  0.152899  0.750639  1
  Ir  Ir22  1  0.152784  0.847153  0.249453  1
  Ir  Ir23  1  0.651519  0.348575  0.749959  1
  Ir  Ir24  1  0.652553  0.652129  0.249740  1
  Ir  Ir25  1  0.347886  0.347496  0.250236  1
  Ir  Ir26  1  0.347955  0.651995  0.750050  1
  Ru  Ru27  1  0.847837  0.152103  0.249752  1
  Ru  Ru28  1  0.500236  0.000207  0.121835  1
  Ru  Ru29  1  0.499868  0.000071  0.621907  1
  Ru  Ru30  1  0.999941  0.500156  0.878159  1
  Ru  Ru31  1  0.999728  0.499732  0.377980  1
