# generated using pymatgen
data_TbTm4(Cd2Ni)2
_symmetry_space_group_name_H-M   'P 1'
_cell_length_a   3.52617000
_cell_length_b   7.81323800
_cell_length_c   18.12159900
_cell_angle_alpha   90.00000000
_cell_angle_beta   90.00000000
_cell_angle_gamma   90.00000000
_symmetry_Int_Tables_number   1
_chemical_formula_structural   TbTm4(Cd2Ni)2
_chemical_formula_sum   'Tb2 Tm8 Cd8 Ni4'
_cell_volume   499.26464828
_cell_formula_units_Z   2
loop_
 _symmetry_equiv_pos_site_id
 _symmetry_equiv_pos_as_xyz
  1  'x, y, z'
loop_
 _atom_site_type_symbol
 _atom_site_label
 _atom_site_symmetry_multiplicity
 _atom_site_fract_x
 _atom_site_fract_y
 _atom_site_fract_z
 _atom_site_occupancy
  Tb  Tb0  1  0.000000  0.500000  0.500000  1
  Tb  Tb1  1  0.000000  0.000000  0.000000  1
  Tm  Tm2  1  0.000000  0.749309  0.278843  1
  Tm  Tm3  1  0.000000  0.250691  0.721157  1
  Tm  Tm4  1  0.000000  0.750691  0.778843  1
  Tm  Tm5  1  0.000000  0.249309  0.221157  1
  Tm  Tm6  1  0.000000  0.615102  0.088830  1
  Tm  Tm7  1  0.000000  0.384898  0.911170  1
  Tm  Tm8  1  0.000000  0.884898  0.588830  1
  Tm  Tm9  1  0.000000  0.115102  0.411170  1
  Cd  Cd10  1  0.500000  0.708205  0.929963  1
  Cd  Cd11  1  0.500000  0.291795  0.070037  1
  Cd  Cd12  1  0.500000  0.791795  0.429963  1
  Cd  Cd13  1  0.500000  0.208205  0.570037  1
  Cd  Cd14  1  0.500000  0.569428  0.652111  1
  Cd  Cd15  1  0.500000  0.430572  0.347889  1
  Cd  Cd16  1  0.500000  0.930572  0.152111  1
  Cd  Cd17  1  0.500000  0.069428  0.847889  1
  Ni  Ni18  1  0.500000  0.530038  0.196196  1
  Ni  Ni19  1  0.500000  0.469962  0.803804  1
  Ni  Ni20  1  0.500000  0.969962  0.696196  1
  Ni  Ni21  1  0.500000  0.030038  0.303804  1
