# generated using pymatgen
data_TlSnAuSe3
_symmetry_space_group_name_H-M   'P 1'
_cell_length_a   8.70785300
_cell_length_b   8.70785300
_cell_length_c   20.53188700
_cell_angle_alpha   90.00000000
_cell_angle_beta   90.00000000
_cell_angle_gamma   90.00000000
_symmetry_Int_Tables_number   1
_chemical_formula_structural   TlSnAuSe3
_chemical_formula_sum   'Tl8 Sn8 Au8 Se24'
_cell_volume   1556.86531543
_cell_formula_units_Z   8
loop_
 _symmetry_equiv_pos_site_id
 _symmetry_equiv_pos_as_xyz
  1  'x, y, z'
loop_
 _atom_site_type_symbol
 _atom_site_label
 _atom_site_symmetry_multiplicity
 _atom_site_fract_x
 _atom_site_fract_y
 _atom_site_fract_z
 _atom_site_occupancy
  Tl  Tl0  1  0.000000  0.000000  0.401302  1
  Tl  Tl1  1  0.000000  0.000000  0.901302  1
  Tl  Tl2  1  0.000000  0.000000  0.598686  1
  Tl  Tl3  1  0.000000  0.000000  0.098686  1
  Tl  Tl4  1  0.500000  0.500000  0.241067  1
  Tl  Tl5  1  0.500000  0.500000  0.741067  1
  Tl  Tl6  1  0.500000  0.500000  0.452161  1
  Tl  Tl7  1  0.500000  0.500000  0.952161  1
  Sn  Sn8  1  0.000000  0.500000  0.088270  1
  Sn  Sn9  1  0.500000  0.000000  0.088270  1
  Sn  Sn10  1  0.000000  0.500000  0.588270  1
  Sn  Sn11  1  0.500000  0.000000  0.588270  1
  Sn  Sn12  1  0.000000  0.500000  0.912456  1
  Sn  Sn13  1  0.500000  0.000000  0.912456  1
  Sn  Sn14  1  0.000000  0.500000  0.412456  1
  Sn  Sn15  1  0.500000  0.000000  0.412456  1
  Au  Au16  1  0.003398  0.679262  0.250223  1
  Au  Au17  1  0.996602  0.320738  0.250223  1
  Au  Au18  1  0.320738  0.003398  0.250223  1
  Au  Au19  1  0.679262  0.996602  0.250223  1
  Au  Au20  1  0.996602  0.679262  0.750223  1
  Au  Au21  1  0.003398  0.320738  0.750223  1
  Au  Au22  1  0.679262  0.003398  0.750223  1
  Au  Au23  1  0.320738  0.996602  0.750223  1
  Se  Se24  1  0.156454  0.656094  0.999920  1
  Se  Se25  1  0.843546  0.343906  0.999920  1
  Se  Se26  1  0.343906  0.156454  0.999920  1
  Se  Se27  1  0.656094  0.843546  0.999920  1
  Se  Se28  1  0.843546  0.656094  0.499920  1
  Se  Se29  1  0.156454  0.343906  0.499920  1
  Se  Se30  1  0.656094  0.156454  0.499920  1
  Se  Se31  1  0.343906  0.843546  0.499920  1
  Se  Se32  1  0.171507  0.319445  0.156074  1
  Se  Se33  1  0.828493  0.680555  0.156074  1
  Se  Se34  1  0.680555  0.171507  0.156074  1
  Se  Se35  1  0.319445  0.828493  0.156074  1
  Se  Se36  1  0.828493  0.319445  0.656074  1
  Se  Se37  1  0.171507  0.680555  0.656074  1
  Se  Se38  1  0.319445  0.171507  0.656074  1
  Se  Se39  1  0.680555  0.828493  0.656074  1
  Se  Se40  1  0.824120  0.678015  0.845141  1
  Se  Se41  1  0.175880  0.321985  0.845141  1
  Se  Se42  1  0.321985  0.824120  0.845141  1
  Se  Se43  1  0.678015  0.175880  0.845141  1
  Se  Se44  1  0.175880  0.678015  0.345141  1
  Se  Se45  1  0.824120  0.321985  0.345141  1
  Se  Se46  1  0.678015  0.824120  0.345141  1
  Se  Se47  1  0.321985  0.175880  0.345141  1
