# generated using pymatgen
data_NaTh(BIr)4
_symmetry_space_group_name_H-M   'P 1'
_cell_length_a   7.10679583
_cell_length_b   6.14394531
_cell_length_c   5.53434984
_cell_angle_alpha   74.76484987
_cell_angle_beta   56.52575902
_cell_angle_gamma   48.70936693
_symmetry_Int_Tables_number   1
_chemical_formula_structural   NaTh(BIr)4
_chemical_formula_sum   'Na1 Th1 B4 Ir4'
_cell_volume   149.46650643
_cell_formula_units_Z   1
loop_
 _symmetry_equiv_pos_site_id
 _symmetry_equiv_pos_as_xyz
  1  'x, y, z'
loop_
 _atom_site_type_symbol
 _atom_site_label
 _atom_site_symmetry_multiplicity
 _atom_site_fract_x
 _atom_site_fract_y
 _atom_site_fract_z
 _atom_site_occupancy
  Na  Na0  1  0.750000  0.750000  0.750000  1
  Th  Th1  1  0.500000  0.500000  0.500000  1
  B  B2  1  0.067139  0.432861  0.067139  1
  B  B3  1  0.825157  0.174843  0.825157  1
  B  B4  1  0.432861  0.067139  0.432861  1
  B  B5  1  0.174843  0.825157  0.174843  1
  Ir  Ir6  1  0.378326  0.378326  0.121674  1
  Ir  Ir7  1  0.131972  0.131972  0.868028  1
  Ir  Ir8  1  0.868028  0.868028  0.131972  1
  Ir  Ir9  1  0.121674  0.121674  0.378326  1
