# generated using pymatgen
data_CeDy3(CI)2
_symmetry_space_group_name_H-M   'P 1'
_cell_length_a   3.75263400
_cell_length_b   3.75263454
_cell_length_c   14.96619300
_cell_angle_alpha   90.00000000
_cell_angle_beta   90.00000000
_cell_angle_gamma   119.99999523
_symmetry_Int_Tables_number   1
_chemical_formula_structural   CeDy3(CI)2
_chemical_formula_sum   'Ce1 Dy3 C2 I2'
_cell_volume   182.52168728
_cell_formula_units_Z   1
loop_
 _symmetry_equiv_pos_site_id
 _symmetry_equiv_pos_as_xyz
  1  'x, y, z'
loop_
 _atom_site_type_symbol
 _atom_site_label
 _atom_site_symmetry_multiplicity
 _atom_site_fract_x
 _atom_site_fract_y
 _atom_site_fract_z
 _atom_site_occupancy
  Ce  Ce0  1  0.333333  0.666667  0.914853  1
  Dy  Dy1  1  0.333333  0.666667  0.582544  1
  Dy  Dy2  1  0.666667  0.333333  0.413516  1
  Dy  Dy3  1  0.666667  0.333333  0.090158  1
  C  C4  1  0.000000  0.000000  0.007587  1
  C  C5  1  0.000000  0.000000  0.497302  1
  I  I6  1  0.333333  0.666667  0.252779  1
  I  I7  1  0.666667  0.333333  0.741259  1
