# generated using pymatgen
data_Y3Cd5Sn
_symmetry_space_group_name_H-M   'P 1'
_cell_length_a   7.70010400
_cell_length_b   7.70010478
_cell_length_c   4.40843000
_cell_angle_alpha   90.00000000
_cell_angle_beta   90.00000000
_cell_angle_gamma   120.00000524
_symmetry_Int_Tables_number   1
_chemical_formula_structural   Y3Cd5Sn
_chemical_formula_sum   'Y3 Cd5 Sn1'
_cell_volume   226.36422112
_cell_formula_units_Z   1
loop_
 _symmetry_equiv_pos_site_id
 _symmetry_equiv_pos_as_xyz
  1  'x, y, z'
loop_
 _atom_site_type_symbol
 _atom_site_label
 _atom_site_symmetry_multiplicity
 _atom_site_fract_x
 _atom_site_fract_y
 _atom_site_fract_z
 _atom_site_occupancy
  Y  Y0  1  0.579176  0.002197  0.000000  1
  Y  Y1  1  0.997803  0.576979  0.000000  1
  Y  Y2  1  0.423021  0.420824  0.000000  1
  Cd  Cd3  1  0.256146  0.013793  0.500000  1
  Cd  Cd4  1  0.986207  0.242354  0.500000  1
  Cd  Cd5  1  0.757646  0.743854  0.500000  1
  Cd  Cd6  1  0.666667  0.333333  0.500000  1
  Cd  Cd7  1  0.000000  0.000000  0.000000  1
  Sn  Sn8  1  0.333333  0.666667  0.500000  1
