# generated using pymatgen
data_La5RuPt2
_symmetry_space_group_name_H-M   'P 1'
_cell_length_a   11.53911000
_cell_length_b   11.53911000
_cell_length_c   6.67670700
_cell_angle_alpha   90.00000000
_cell_angle_beta   90.00000000
_cell_angle_gamma   90.00000000
_symmetry_Int_Tables_number   1
_chemical_formula_structural   La5RuPt2
_chemical_formula_sum   'La20 Ru4 Pt8'
_cell_volume   889.01061164
_cell_formula_units_Z   4
loop_
 _symmetry_equiv_pos_site_id
 _symmetry_equiv_pos_as_xyz
  1  'x, y, z'
loop_
 _atom_site_type_symbol
 _atom_site_label
 _atom_site_symmetry_multiplicity
 _atom_site_fract_x
 _atom_site_fract_y
 _atom_site_fract_z
 _atom_site_occupancy
  La  La0  1  0.296999  0.088386  0.376111  1
  La  La1  1  0.296999  0.911614  0.876111  1
  La  La2  1  0.703001  0.088386  0.876111  1
  La  La3  1  0.703001  0.911614  0.376111  1
  La  La4  1  0.588386  0.796999  0.876111  1
  La  La5  1  0.588386  0.203001  0.376111  1
  La  La6  1  0.411614  0.796999  0.376111  1
  La  La7  1  0.411614  0.203001  0.876111  1
  La  La8  1  0.203001  0.411614  0.623889  1
  La  La9  1  0.203001  0.588386  0.123889  1
  La  La10  1  0.796999  0.411614  0.123889  1
  La  La11  1  0.796999  0.588386  0.623889  1
  La  La12  1  0.911614  0.703001  0.123889  1
  La  La13  1  0.911614  0.296999  0.623889  1
  La  La14  1  0.088386  0.703001  0.623889  1
  La  La15  1  0.088386  0.296999  0.123889  1
  La  La16  1  0.000000  0.000000  0.500000  1
  La  La17  1  0.000000  0.000000  0.000000  1
  La  La18  1  0.500000  0.500000  0.000000  1
  La  La19  1  0.500000  0.500000  0.500000  1
  Ru  Ru20  1  0.500000  0.000000  0.114745  1
  Ru  Ru21  1  0.500000  0.000000  0.614745  1
  Ru  Ru22  1  0.000000  0.500000  0.885255  1
  Ru  Ru23  1  0.000000  0.500000  0.385255  1
  Pt  Pt24  1  0.845918  0.154082  0.250000  1
  Pt  Pt25  1  0.845918  0.845918  0.750000  1
  Pt  Pt26  1  0.154082  0.154082  0.750000  1
  Pt  Pt27  1  0.154082  0.845918  0.250000  1
  Pt  Pt28  1  0.654082  0.345918  0.750000  1
  Pt  Pt29  1  0.654082  0.654082  0.250000  1
  Pt  Pt30  1  0.345918  0.345918  0.250000  1
  Pt  Pt31  1  0.345918  0.654082  0.750000  1
