# generated using pymatgen
data_Al4OsRu
_symmetry_space_group_name_H-M   'P 1'
_cell_length_a   5.99562397
_cell_length_b   5.02150410
_cell_length_c   4.67667746
_cell_angle_alpha   76.28051299
_cell_angle_beta   54.45235632
_cell_angle_gamma   49.26712725
_symmetry_Int_Tables_number   1
_chemical_formula_structural   Al4OsRu
_chemical_formula_sum   'Al4 Os1 Ru1'
_cell_volume   84.46862311
_cell_formula_units_Z   1
loop_
 _symmetry_equiv_pos_site_id
 _symmetry_equiv_pos_as_xyz
  1  'x, y, z'
loop_
 _atom_site_type_symbol
 _atom_site_label
 _atom_site_symmetry_multiplicity
 _atom_site_fract_x
 _atom_site_fract_y
 _atom_site_fract_z
 _atom_site_occupancy
  Al  Al0  1  0.579579  0.920421  0.579579  1
  Al  Al1  1  0.920421  0.579579  0.920421  1
  Al  Al2  1  0.670539  0.329461  0.670539  1
  Al  Al3  1  0.329461  0.670539  0.329461  1
  Os  Os4  1  0.250000  0.250000  0.250000  1
  Ru  Ru5  1  0.000000  0.000000  0.000000  1
