# generated using pymatgen
data_LaNdBi2(Mo2O7)2
_symmetry_space_group_name_H-M   'P 1'
_cell_length_a   7.53721661
_cell_length_b   7.54149159
_cell_length_c   7.60912405
_cell_angle_alpha   120.40063506
_cell_angle_beta   120.14065101
_cell_angle_gamma   89.96496455
_symmetry_Int_Tables_number   1
_chemical_formula_structural   LaNdBi2(Mo2O7)2
_chemical_formula_sum   'La1 Nd1 Bi2 Mo4 O14'
_cell_volume   303.41028294
_cell_formula_units_Z   1
loop_
 _symmetry_equiv_pos_site_id
 _symmetry_equiv_pos_as_xyz
  1  'x, y, z'
loop_
 _atom_site_type_symbol
 _atom_site_label
 _atom_site_symmetry_multiplicity
 _atom_site_fract_x
 _atom_site_fract_y
 _atom_site_fract_z
 _atom_site_occupancy
  La  La0  1  0.375000  0.625000  0.750000  1
  Nd  Nd1  1  0.375000  0.625000  0.250000  1
  Bi  Bi2  1  0.875000  0.625000  0.250000  1
  Bi  Bi3  1  0.375000  0.125000  0.750000  1
  Mo  Mo4  1  0.875000  0.625000  0.750000  1
  Mo  Mo5  1  0.375000  0.125000  0.250000  1
  Mo  Mo6  1  0.875000  0.125000  0.250000  1
  Mo  Mo7  1  0.875000  0.125000  0.750000  1
  O  O8  1  0.785502  0.197949  0.996657  1
  O  O9  1  0.545558  0.461166  0.493660  1
  O  O10  1  0.204774  0.208750  0.998845  1
  O  O11  1  0.955260  0.455820  0.500860  1
  O  O12  1  0.801358  0.794557  0.583804  1
  O  O13  1  0.538280  0.042501  0.088836  1
  O  O14  1  0.250361  0.748306  0.498500  1
  O  O15  1  0.948642  0.455443  0.916196  1
  O  O16  1  0.964498  0.052051  0.503343  1
  O  O17  1  0.545226  0.041250  0.501155  1
  O  O18  1  0.211720  0.207499  0.411164  1
  O  O19  1  0.499639  0.501694  0.001500  1
  O  O20  1  0.794740  0.794180  0.999140  1
  O  O21  1  0.204442  0.788834  0.006340  1
