# generated using pymatgen
data_V5Mo(PbS6)2
_symmetry_space_group_name_H-M   'P 1'
_cell_length_a   5.58521900
_cell_length_b   5.58521865
_cell_length_c   14.93055100
_cell_angle_alpha   90.00000000
_cell_angle_beta   90.00000000
_cell_angle_gamma   119.99998431
_symmetry_Int_Tables_number   1
_chemical_formula_structural   V5Mo(PbS6)2
_chemical_formula_sum   'V5 Mo1 Pb2 S12'
_cell_volume   403.35451425
_cell_formula_units_Z   1
loop_
 _symmetry_equiv_pos_site_id
 _symmetry_equiv_pos_as_xyz
  1  'x, y, z'
loop_
 _atom_site_type_symbol
 _atom_site_label
 _atom_site_symmetry_multiplicity
 _atom_site_fract_x
 _atom_site_fract_y
 _atom_site_fract_z
 _atom_site_occupancy
  V  V0  1  0.000000  0.000000  0.750000  1
  V  V1  1  0.333333  0.666667  0.250000  1
  V  V2  1  0.666667  0.333333  0.750000  1
  V  V3  1  0.666667  0.333333  0.250000  1
  V  V4  1  0.333333  0.666667  0.750000  1
  Mo  Mo5  1  0.000000  0.000000  0.250000  1
  Pb  Pb6  1  0.000000  0.000000  0.502168  1
  Pb  Pb7  1  0.000000  0.000000  0.997832  1
  S  S8  1  0.343809  0.000000  0.149880  1
  S  S9  1  0.000000  0.343809  0.149880  1
  S  S10  1  0.656191  0.656191  0.149880  1
  S  S11  1  0.335991  0.335991  0.652618  1
  S  S12  1  0.656191  0.656191  0.350120  1
  S  S13  1  0.664009  0.000000  0.652618  1
  S  S14  1  0.000000  0.664009  0.652618  1
  S  S15  1  0.000000  0.664009  0.847382  1
  S  S16  1  0.335991  0.335991  0.847382  1
  S  S17  1  0.000000  0.343809  0.350120  1
  S  S18  1  0.343809  0.000000  0.350120  1
  S  S19  1  0.664009  0.000000  0.847382  1
