# generated using pymatgen
data_Pr20Ga5Si6Ge
_symmetry_space_group_name_H-M   'P 1'
_cell_length_a   7.89968488
_cell_length_b   7.89968394
_cell_length_c   14.45296107
_cell_angle_alpha   89.96425563
_cell_angle_beta   90.03574362
_cell_angle_gamma   89.96533682
_symmetry_Int_Tables_number   1
_chemical_formula_structural   Pr20Ga5Si6Ge
_chemical_formula_sum   'Pr20 Ga5 Si6 Ge1'
_cell_volume   901.93671780
_cell_formula_units_Z   1
loop_
 _symmetry_equiv_pos_site_id
 _symmetry_equiv_pos_as_xyz
  1  'x, y, z'
loop_
 _atom_site_type_symbol
 _atom_site_label
 _atom_site_symmetry_multiplicity
 _atom_site_fract_x
 _atom_site_fract_y
 _atom_site_fract_z
 _atom_site_occupancy
  Pr  Pr0  1  0.814925  0.833973  0.608016  1
  Pr  Pr1  1  0.187184  0.834382  0.106154  1
  Pr  Pr2  1  0.165648  0.811560  0.393215  1
  Pr  Pr3  1  0.001029  0.499442  0.723433  1
  Pr  Pr4  1  0.834382  0.187184  0.393846  1
  Pr  Pr5  1  0.683784  0.662996  0.393666  1
  Pr  Pr6  1  0.664460  0.314031  0.607744  1
  Pr  Pr7  1  0.334558  0.685640  0.607639  1
  Pr  Pr8  1  0.998936  0.502234  0.221278  1
  Pr  Pr9  1  0.662996  0.683784  0.106334  1
  Pr  Pr10  1  0.685640  0.334558  0.892361  1
  Pr  Pr11  1  0.833973  0.814925  0.891984  1
  Pr  Pr12  1  0.317208  0.339318  0.394806  1
  Pr  Pr13  1  0.184941  0.165005  0.607335  1
  Pr  Pr14  1  0.811560  0.165648  0.106785  1
  Pr  Pr15  1  0.314031  0.664460  0.892256  1
  Pr  Pr16  1  0.339318  0.317208  0.105194  1
  Pr  Pr17  1  0.502234  0.998936  0.278722  1
  Pr  Pr18  1  0.165005  0.184941  0.892665  1
  Pr  Pr19  1  0.499442  0.001029  0.776567  1
  Ga  Ga20  1  0.998497  0.499715  0.504312  1
  Ga  Ga21  1  0.499358  0.999264  0.496838  1
  Ga  Ga22  1  0.499715  0.998497  0.995688  1
  Ga  Ga23  1  0.120858  0.120858  0.250000  1
  Ga  Ga24  1  0.999264  0.499358  0.003162  1
  Si  Si25  1  0.615100  0.385284  0.250405  1
  Si  Si26  1  0.114398  0.885404  0.749961  1
  Si  Si27  1  0.385331  0.385331  0.750000  1
  Si  Si28  1  0.385284  0.615100  0.249595  1
  Si  Si29  1  0.614512  0.614512  0.750000  1
  Si  Si30  1  0.885404  0.114398  0.750039  1
  Ge  Ge31  1  0.881026  0.881026  0.250000  1
