# generated using pymatgen
data_HoCu2Pt2Au
_symmetry_space_group_name_H-M   'P 1'
_cell_length_a   5.18871298
_cell_length_b   5.18871271
_cell_length_c   5.49280200
_cell_angle_alpha   58.04162924
_cell_angle_beta   58.04163109
_cell_angle_gamma   58.37344067
_symmetry_Int_Tables_number   1
_chemical_formula_structural   HoCu2Pt2Au
_chemical_formula_sum   'Ho1 Cu2 Pt2 Au1'
_cell_volume   100.13696514
_cell_formula_units_Z   1
loop_
 _symmetry_equiv_pos_site_id
 _symmetry_equiv_pos_as_xyz
  1  'x, y, z'
loop_
 _atom_site_type_symbol
 _atom_site_label
 _atom_site_symmetry_multiplicity
 _atom_site_fract_x
 _atom_site_fract_y
 _atom_site_fract_z
 _atom_site_occupancy
  Ho  Ho0  1  0.254905  0.254905  0.245095  1
  Cu  Cu1  1  0.618656  0.120802  0.630271  1
  Cu  Cu2  1  0.120802  0.618656  0.630271  1
  Pt  Pt3  1  0.623054  0.623054  0.626315  1
  Pt  Pt4  1  0.623054  0.623054  0.127576  1
  Au  Au5  1  0.009528  0.009528  0.990472  1
