# generated using pymatgen
data_Er10In8Pd3Ru
_symmetry_space_group_name_H-M   'P 1'
_cell_length_a   3.59891300
_cell_length_b   8.08481407
_cell_length_c   18.19903617
_cell_angle_alpha   90.01558832
_cell_angle_beta   90.00000000
_cell_angle_gamma   90.00000000
_symmetry_Int_Tables_number   1
_chemical_formula_structural   Er10In8Pd3Ru
_chemical_formula_sum   'Er10 In8 Pd3 Ru1'
_cell_volume   529.52900931
_cell_formula_units_Z   1
loop_
 _symmetry_equiv_pos_site_id
 _symmetry_equiv_pos_as_xyz
  1  'x, y, z'
loop_
 _atom_site_type_symbol
 _atom_site_label
 _atom_site_symmetry_multiplicity
 _atom_site_fract_x
 _atom_site_fract_y
 _atom_site_fract_z
 _atom_site_occupancy
  Er  Er0  1  0.000000  0.499782  0.499610  1
  Er  Er1  1  0.000000  0.999500  0.000622  1
  Er  Er2  1  0.000000  0.727156  0.277008  1
  Er  Er3  1  0.000000  0.259687  0.720580  1
  Er  Er4  1  0.000000  0.759505  0.779459  1
  Er  Er5  1  0.000000  0.253057  0.220425  1
  Er  Er6  1  0.000000  0.614111  0.087117  1
  Er  Er7  1  0.000000  0.384796  0.916178  1
  Er  Er8  1  0.000000  0.884226  0.583982  1
  Er  Er9  1  0.000000  0.117528  0.414901  1
  In  In10  1  0.500000  0.711089  0.931469  1
  In  In11  1  0.500000  0.291017  0.069295  1
  In  In12  1  0.500000  0.790024  0.432103  1
  In  In13  1  0.500000  0.210297  0.568122  1
  In  In14  1  0.500000  0.580582  0.648968  1
  In  In15  1  0.500000  0.424632  0.349941  1
  In  In16  1  0.500000  0.919730  0.149856  1
  In  In17  1  0.500000  0.079619  0.851253  1
  Pd  Pd18  1  0.500000  0.477311  0.804152  1
  Pd  Pd19  1  0.500000  0.977465  0.695539  1
  Pd  Pd20  1  0.500000  0.019963  0.304225  1
  Ru  Ru21  1  0.500000  0.518924  0.195194  1
