# generated using pymatgen
data_Hf3GaAs2Ru3
_symmetry_space_group_name_H-M   'P 1'
_cell_length_a   7.67522631
_cell_length_b   7.67522588
_cell_length_c   7.67522705
_cell_angle_alpha   128.40242424
_cell_angle_beta   119.84573578
_cell_angle_gamma   83.17441326
_symmetry_Int_Tables_number   1
_chemical_formula_structural   Hf3GaAs2Ru3
_chemical_formula_sum   'Hf6 Ga2 As4 Ru6'
_cell_volume   295.04346445
_cell_formula_units_Z   2
loop_
 _symmetry_equiv_pos_site_id
 _symmetry_equiv_pos_as_xyz
  1  'x, y, z'
loop_
 _atom_site_type_symbol
 _atom_site_label
 _atom_site_symmetry_multiplicity
 _atom_site_fract_x
 _atom_site_fract_y
 _atom_site_fract_z
 _atom_site_occupancy
  Hf  Hf0  1  0.477419  0.714817  0.737398  1
  Hf  Hf1  1  0.522581  0.259979  0.237398  1
  Hf  Hf2  1  0.749474  0.831681  0.582207  1
  Hf  Hf3  1  0.250526  0.832734  0.082207  1
  Hf  Hf4  1  0.053880  0.253969  0.700089  1
  Hf  Hf5  1  0.946120  0.646209  0.200089  1
  Ga  Ga6  1  0.280046  0.279184  0.499139  1
  Ga  Ga7  1  0.719954  0.219092  0.999139  1
  As  As8  1  0.327673  0.586246  0.247726  1
  As  As9  1  0.672327  0.920053  0.258573  1
  As  As10  1  0.161480  0.920053  0.747726  1
  As  As11  1  0.838520  0.586246  0.758573  1
  Ru  Ru12  1  0.500000  0.498768  0.998768  1
  Ru  Ru13  1  0.000000  0.498768  0.498768  1
  Ru  Ru14  1  0.093712  0.251632  0.097981  1
  Ru  Ru15  1  0.906288  0.004269  0.157920  1
  Ru  Ru16  1  0.346349  0.004269  0.597981  1
  Ru  Ru17  1  0.653651  0.251632  0.657920  1
