# generated using pymatgen
data_Nb2Bi4O11
_symmetry_space_group_name_H-M   'P 1'
_cell_length_a   6.68553122
_cell_length_b   7.75862819
_cell_length_c   10.07867261
_cell_angle_alpha   101.12864274
_cell_angle_beta   90.38940194
_cell_angle_gamma   89.89719162
_symmetry_Int_Tables_number   1
_chemical_formula_structural   Nb2Bi4O11
_chemical_formula_sum   'Nb4 Bi8 O22'
_cell_volume   512.94407462
_cell_formula_units_Z   2
loop_
 _symmetry_equiv_pos_site_id
 _symmetry_equiv_pos_as_xyz
  1  'x, y, z'
loop_
 _atom_site_type_symbol
 _atom_site_label
 _atom_site_symmetry_multiplicity
 _atom_site_fract_x
 _atom_site_fract_y
 _atom_site_fract_z
 _atom_site_occupancy
  Nb  Nb0  1  0.910021  0.704498  0.816574  1
  Nb  Nb1  1  0.089979  0.295502  0.183426  1
  Nb  Nb2  1  0.905050  0.202855  0.807193  1
  Nb  Nb3  1  0.094950  0.797145  0.192807  1
  Bi  Bi4  1  0.764259  0.374530  0.477525  1
  Bi  Bi5  1  0.235741  0.625470  0.522475  1
  Bi  Bi6  1  0.751403  0.870569  0.478328  1
  Bi  Bi7  1  0.248597  0.129431  0.521672  1
  Bi  Bi8  1  0.434342  0.951722  0.813451  1
  Bi  Bi9  1  0.565658  0.048278  0.186549  1
  Bi  Bi10  1  0.376210  0.454407  0.828657  1
  Bi  Bi11  1  0.623790  0.545593  0.171343  1
  O  O12  1  0.222120  0.726919  0.762280  1
  O  O13  1  0.777880  0.273081  0.237720  1
  O  O14  1  0.632271  0.655856  0.834912  1
  O  O15  1  0.367729  0.344144  0.165088  1
  O  O16  1  0.631817  0.261060  0.848672  1
  O  O17  1  0.368183  0.738940  0.151328  1
  O  O18  1  0.890180  0.167527  0.603412  1
  O  O19  1  0.109820  0.832473  0.396588  1
  O  O20  1  0.220361  0.150748  0.763069  1
  O  O21  1  0.779639  0.849252  0.236931  1
  O  O22  1  0.909074  0.637986  0.597769  1
  O  O23  1  0.090926  0.362014  0.402231  1
  O  O24  1  0.014422  0.547332  0.188212  1
  O  O25  1  0.985578  0.452668  0.811788  1
  O  O26  1  0.995666  0.782686  0.000207  1
  O  O27  1  0.004334  0.217314  0.999793  1
  O  O28  1  0.592748  0.606710  0.385574  1
  O  O29  1  0.407252  0.393290  0.614426  1
  O  O30  1  0.162357  0.053594  0.212579  1
  O  O31  1  0.837643  0.946406  0.787421  1
  O  O32  1  0.543112  0.093541  0.399135  1
  O  O33  1  0.456888  0.906459  0.600865  1
