# generated using pymatgen
data_Er16Cd4IrPd3
_symmetry_space_group_name_H-M   'P 1'
_cell_length_a   9.61184279
_cell_length_b   9.58530296
_cell_length_c   9.58530400
_cell_angle_alpha   59.99999642
_cell_angle_beta   60.09129289
_cell_angle_gamma   60.09129513
_symmetry_Int_Tables_number   1
_chemical_formula_structural   Er16Cd4IrPd3
_chemical_formula_sum   'Er16 Cd4 Ir1 Pd3'
_cell_volume   625.31852551
_cell_formula_units_Z   1
loop_
 _symmetry_equiv_pos_site_id
 _symmetry_equiv_pos_as_xyz
  1  'x, y, z'
loop_
 _atom_site_type_symbol
 _atom_site_label
 _atom_site_symmetry_multiplicity
 _atom_site_fract_x
 _atom_site_fract_y
 _atom_site_fract_z
 _atom_site_occupancy
  Er  Er0  1  0.606179  0.599838  0.599838  1
  Er  Er1  1  0.606179  0.599838  0.194144  1
  Er  Er2  1  0.606179  0.194144  0.599838  1
  Er  Er3  1  0.188255  0.603915  0.603915  1
  Er  Er4  1  0.058157  0.437754  0.437754  1
  Er  Er5  1  0.438814  0.061345  0.061345  1
  Er  Er6  1  0.438814  0.061345  0.438496  1
  Er  Er7  1  0.058157  0.437754  0.066336  1
  Er  Er8  1  0.438814  0.438496  0.061345  1
  Er  Er9  1  0.058157  0.066336  0.437754  1
  Er  Er10  1  0.182661  0.817128  0.817128  1
  Er  Er11  1  0.817987  0.184148  0.184148  1
  Er  Er12  1  0.817987  0.184148  0.813717  1
  Er  Er13  1  0.182661  0.817128  0.183084  1
  Er  Er14  1  0.817987  0.813717  0.184148  1
  Er  Er15  1  0.182661  0.183084  0.817128  1
  Cd  Cd16  1  0.832264  0.831877  0.831877  1
  Cd  Cd17  1  0.832264  0.831877  0.503981  1
  Cd  Cd18  1  0.832264  0.503981  0.831877  1
  Cd  Cd19  1  0.504666  0.831778  0.831778  1
  Ir  Ir20  1  0.820202  0.393266  0.393266  1
  Pd  Pd21  1  0.392897  0.394311  0.394311  1
  Pd  Pd22  1  0.392897  0.394311  0.818480  1
  Pd  Pd23  1  0.392897  0.818480  0.394311  1
