# generated using pymatgen
data_CaNdGaRh2
_symmetry_space_group_name_H-M   'P 1'
_cell_length_a   5.70168876
_cell_length_b   5.70168765
_cell_length_c   5.70168831
_cell_angle_alpha   138.11134205
_cell_angle_beta   117.15647929
_cell_angle_gamma   78.41239313
_symmetry_Int_Tables_number   1
_chemical_formula_structural   CaNdGaRh2
_chemical_formula_sum   'Ca1 Nd1 Ga1 Rh2'
_cell_volume   107.06482150
_cell_formula_units_Z   1
loop_
 _symmetry_equiv_pos_site_id
 _symmetry_equiv_pos_as_xyz
  1  'x, y, z'
loop_
 _atom_site_type_symbol
 _atom_site_label
 _atom_site_symmetry_multiplicity
 _atom_site_fract_x
 _atom_site_fract_y
 _atom_site_fract_z
 _atom_site_occupancy
  Ca  Ca0  1  0.297004  0.797004  0.499999  1
  Nd  Nd1  1  0.698662  0.198662  0.500000  1
  Ga  Ga2  1  0.999889  0.999889  0.000000  1
  Rh  Rh3  1  0.743353  0.502223  0.241130  1
  Rh  Rh4  1  0.261094  0.502222  0.758870  1
