# generated using pymatgen
data_LiTb8Hf10Si16Hg
_symmetry_space_group_name_H-M   'P 1'
_cell_length_a   7.32523434
_cell_length_b   7.32523550
_cell_length_c   13.26089704
_cell_angle_alpha   89.89516525
_cell_angle_beta   90.10483489
_cell_angle_gamma   89.69870221
_symmetry_Int_Tables_number   1
_chemical_formula_structural   LiTb8Hf10Si16Hg
_chemical_formula_sum   'Li1 Tb8 Hf10 Si16 Hg1'
_cell_volume   711.55512512
_cell_formula_units_Z   1
loop_
 _symmetry_equiv_pos_site_id
 _symmetry_equiv_pos_as_xyz
  1  'x, y, z'
loop_
 _atom_site_type_symbol
 _atom_site_label
 _atom_site_symmetry_multiplicity
 _atom_site_fract_x
 _atom_site_fract_y
 _atom_site_fract_z
 _atom_site_occupancy
  Li  Li0  1  0.821746  0.821746  0.500000  1
  Tb  Tb1  1  0.997016  0.347267  0.212217  1
  Tb  Tb2  1  0.002686  0.655418  0.712278  1
  Tb  Tb3  1  0.149698  0.501757  0.465790  1
  Tb  Tb4  1  0.498145  0.849388  0.033584  1
  Tb  Tb5  1  0.849388  0.498145  0.966416  1
  Tb  Tb6  1  0.501757  0.149698  0.534210  1
  Tb  Tb7  1  0.347267  0.997016  0.787783  1
  Tb  Tb8  1  0.655418  0.002686  0.287722  1
  Hf  Hf9  1  0.321194  0.678086  0.250021  1
  Hf  Hf10  1  0.678086  0.321194  0.749979  1
  Hf  Hf11  1  0.140209  0.999021  0.379239  1
  Hf  Hf12  1  0.858790  0.000545  0.879724  1
  Hf  Hf13  1  0.510035  0.645263  0.623756  1
  Hf  Hf14  1  0.356572  0.490574  0.876088  1
  Hf  Hf15  1  0.490574  0.356572  0.123912  1
  Hf  Hf16  1  0.645263  0.510035  0.376244  1
  Hf  Hf17  1  0.999021  0.140209  0.620761  1
  Hf  Hf18  1  0.000545  0.858790  0.120276  1
  Si  Si19  1  0.359633  0.296994  0.318749  1
  Si  Si20  1  0.641957  0.702644  0.818159  1
  Si  Si21  1  0.223190  0.865486  0.572501  1
  Si  Si22  1  0.132270  0.769194  0.924230  1
  Si  Si23  1  0.769194  0.132270  0.075770  1
  Si  Si24  1  0.865486  0.223190  0.427499  1
  Si  Si25  1  0.296994  0.359633  0.681251  1
  Si  Si26  1  0.702644  0.641957  0.181841  1
  Si  Si27  1  0.296468  0.048375  0.194175  1
  Si  Si28  1  0.706784  0.948743  0.690315  1
  Si  Si29  1  0.436447  0.789972  0.435667  1
  Si  Si30  1  0.211514  0.570981  0.064712  1
  Si  Si31  1  0.570981  0.211514  0.935288  1
  Si  Si32  1  0.789972  0.436447  0.564333  1
  Si  Si33  1  0.048375  0.296468  0.805825  1
  Si  Si34  1  0.948743  0.706784  0.309685  1
  Hg  Hg35  1  0.175939  0.175939  0.000000  1
