# generated using pymatgen
data_YHo3Al18PdRh5
_symmetry_space_group_name_H-M   'P 1'
_cell_length_a   7.57243864
_cell_length_b   7.57368701
_cell_length_c   9.46452418
_cell_angle_alpha   90.02088131
_cell_angle_beta   90.01577921
_cell_angle_gamma   119.49072456
_symmetry_Int_Tables_number   1
_chemical_formula_structural   YHo3Al18PdRh5
_chemical_formula_sum   'Y1 Ho3 Al18 Pd1 Rh5'
_cell_volume   472.47448419
_cell_formula_units_Z   1
loop_
 _symmetry_equiv_pos_site_id
 _symmetry_equiv_pos_as_xyz
  1  'x, y, z'
loop_
 _atom_site_type_symbol
 _atom_site_label
 _atom_site_symmetry_multiplicity
 _atom_site_fract_x
 _atom_site_fract_y
 _atom_site_fract_z
 _atom_site_occupancy
  Y  Y0  1  0.993691  0.670115  0.249472  1
  Ho  Ho1  1  0.004256  0.328251  0.750378  1
  Ho  Ho2  1  0.671666  0.995778  0.249643  1
  Ho  Ho3  1  0.329670  0.006049  0.750599  1
  Al  Al4  1  0.127485  0.126783  0.249479  1
  Al  Al5  1  0.873488  0.872546  0.750517  1
  Al  Al6  1  0.000482  0.334751  0.075705  1
  Al  Al7  1  0.000704  0.664849  0.924511  1
  Al  Al8  1  0.002926  0.668394  0.577064  1
  Al  Al9  1  0.331964  0.997435  0.423298  1
  Al  Al10  1  0.004675  0.335395  0.423060  1
  Al  Al11  1  0.664276  0.995333  0.577071  1
  Al  Al12  1  0.664911  0.999519  0.924166  1
  Al  Al13  1  0.335475  0.999628  0.075110  1
  Al  Al14  1  0.329997  0.333192  0.553483  1
  Al  Al15  1  0.666522  0.669995  0.446670  1
  Al  Al16  1  0.667548  0.667825  0.049248  1
  Al  Al17  1  0.332167  0.332164  0.950592  1
  Al  Al18  1  0.341201  0.551325  0.249339  1
  Al  Al19  1  0.659622  0.452504  0.753366  1
  Al  Al20  1  0.547233  0.340021  0.246644  1
  Al  Al21  1  0.448695  0.659124  0.750658  1
  Pd  Pd22  1  0.672525  0.327383  0.500135  1
  Rh  Rh23  1  0.672269  0.327534  0.999815  1
  Rh  Rh24  1  0.328208  0.671853  0.999836  1
  Rh  Rh25  1  0.328179  0.671916  0.500156  1
  Rh  Rh26  1  0.000223  0.000053  0.999798  1
  Rh  Rh27  1  0.999942  0.000287  0.500185  1
