# generated using pymatgen
data_Y2Co9Tc3Ge3As4
_symmetry_space_group_name_H-M   'P 1'
_cell_length_a   3.82050500
_cell_length_b   9.38440532
_cell_length_c   9.39031340
_cell_angle_alpha   119.92322982
_cell_angle_beta   90.00000000
_cell_angle_gamma   90.00000000
_symmetry_Int_Tables_number   1
_chemical_formula_structural   Y2Co9Tc3Ge3As4
_chemical_formula_sum   'Y2 Co9 Tc3 Ge3 As4'
_cell_volume   291.79221015
_cell_formula_units_Z   1
loop_
 _symmetry_equiv_pos_site_id
 _symmetry_equiv_pos_as_xyz
  1  'x, y, z'
loop_
 _atom_site_type_symbol
 _atom_site_label
 _atom_site_symmetry_multiplicity
 _atom_site_fract_x
 _atom_site_fract_y
 _atom_site_fract_z
 _atom_site_occupancy
  Y  Y0  1  0.000000  0.667342  0.334124  1
  Y  Y1  1  0.500000  0.333193  0.665847  1
  Co  Co2  1  0.000000  0.567752  0.945200  1
  Co  Co3  1  0.000000  0.374964  0.428270  1
  Co  Co4  1  0.000000  0.058623  0.629627  1
  Co  Co5  1  0.000000  0.872119  0.156943  1
  Co  Co6  1  0.000000  0.283942  0.124181  1
  Co  Co7  1  0.000000  0.843573  0.716582  1
  Co  Co8  1  0.500000  0.946731  0.382415  1
  Co  Co9  1  0.500000  0.434456  0.052414  1
  Co  Co10  1  0.500000  0.618741  0.565208  1
  Tc  Tc11  1  0.500000  0.781829  0.899810  1
  Tc  Tc12  1  0.500000  0.118268  0.217329  1
  Tc  Tc13  1  0.500000  0.098400  0.880906  1
  Ge  Ge14  1  0.000000  0.999609  0.000585  1
  Ge  Ge15  1  0.000000  0.588750  0.703386  1
  Ge  Ge16  1  0.000000  0.114257  0.410610  1
  As  As17  1  0.500000  0.707735  0.116779  1
  As  As18  1  0.500000  0.409539  0.293708  1
  As  As19  1  0.500000  0.883050  0.590069  1
  As  As20  1  0.000000  0.297126  0.886011  1
