# generated using pymatgen
data_Hf3Zr2SiSn3
_symmetry_space_group_name_H-M   'P 1'
_cell_length_a   8.63790638
_cell_length_b   8.64234721
_cell_length_c   5.87324800
_cell_angle_alpha   90.00000000
_cell_angle_beta   90.00000000
_cell_angle_gamma   120.01701021
_symmetry_Int_Tables_number   1
_chemical_formula_structural   Hf3Zr2SiSn3
_chemical_formula_sum   'Hf6 Zr4 Si2 Sn6'
_cell_volume   379.64239784
_cell_formula_units_Z   2
loop_
 _symmetry_equiv_pos_site_id
 _symmetry_equiv_pos_as_xyz
  1  'x, y, z'
loop_
 _atom_site_type_symbol
 _atom_site_label
 _atom_site_symmetry_multiplicity
 _atom_site_fract_x
 _atom_site_fract_y
 _atom_site_fract_z
 _atom_site_occupancy
  Hf  Hf0  1  0.666699  0.333634  0.998630  1
  Hf  Hf1  1  0.333301  0.666935  0.998630  1
  Hf  Hf2  1  0.333301  0.666935  0.501370  1
  Hf  Hf3  1  0.666699  0.333634  0.501370  1
  Hf  Hf4  1  0.738122  0.739746  0.750000  1
  Hf  Hf5  1  0.261878  0.001624  0.750000  1
  Zr  Zr6  1  0.000000  0.261008  0.750000  1
  Zr  Zr7  1  0.255541  0.254215  0.250000  1
  Zr  Zr8  1  0.744459  0.998674  0.250000  1
  Zr  Zr9  1  0.000000  0.744262  0.250000  1
  Si  Si10  1  0.000000  0.998956  0.992667  1
  Si  Si11  1  0.000000  0.998956  0.507333  1
  Sn  Sn12  1  0.394452  0.394200  0.750000  1
  Sn  Sn13  1  0.605548  0.999748  0.750000  1
  Sn  Sn14  1  0.000000  0.608709  0.750000  1
  Sn  Sn15  1  0.603416  0.603478  0.250000  1
  Sn  Sn16  1  0.396584  0.000063  0.250000  1
  Sn  Sn17  1  0.000000  0.395223  0.250000  1
