# generated using pymatgen
data_RbLi(NbBr3)3
_symmetry_space_group_name_H-M   'P 1'
_cell_length_a   10.00476963
_cell_length_b   10.05378795
_cell_length_c   10.07997844
_cell_angle_alpha   119.37688108
_cell_angle_beta   104.93193634
_cell_angle_gamma   96.77860896
_symmetry_Int_Tables_number   1
_chemical_formula_structural   RbLi(NbBr3)3
_chemical_formula_sum   'Rb2 Li2 Nb6 Br18'
_cell_volume   816.92719013
_cell_formula_units_Z   2
loop_
 _symmetry_equiv_pos_site_id
 _symmetry_equiv_pos_as_xyz
  1  'x, y, z'
loop_
 _atom_site_type_symbol
 _atom_site_label
 _atom_site_symmetry_multiplicity
 _atom_site_fract_x
 _atom_site_fract_y
 _atom_site_fract_z
 _atom_site_occupancy
  Rb  Rb0  1  0.338995  0.267562  0.482100  1
  Rb  Rb1  1  0.661005  0.732438  0.517900  1
  Li  Li2  1  0.616962  0.046543  0.187580  1
  Li  Li3  1  0.383038  0.953457  0.812420  1
  Nb  Nb4  1  0.133505  0.567981  0.234764  1
  Nb  Nb5  1  0.866495  0.432019  0.765236  1
  Nb  Nb6  1  0.125009  0.351951  0.896632  1
  Nb  Nb7  1  0.865092  0.308979  0.979620  1
  Nb  Nb8  1  0.874991  0.648049  0.103368  1
  Nb  Nb9  1  0.134908  0.691021  0.020380  1
  Br  Br10  1  0.002964  0.650232  0.736974  1
  Br  Br11  1  0.683678  0.598815  0.837755  1
  Br  Br12  1  0.329698  0.960370  0.055531  1
  Br  Br13  1  0.988395  0.085161  0.851468  1
  Br  Br14  1  0.011063  0.762936  0.412873  1
  Br  Br15  1  0.677012  0.337389  0.441843  1
  Br  Br16  1  0.319095  0.555689  0.903538  1
  Br  Br17  1  0.316322  0.401185  0.162245  1
  Br  Br18  1  0.295868  0.154925  0.754832  1
  Br  Br19  1  0.997036  0.349768  0.263026  1
  Br  Br20  1  0.680905  0.444311  0.096462  1
  Br  Br21  1  0.671538  0.179766  0.685403  1
  Br  Br22  1  0.704132  0.845075  0.245168  1
  Br  Br23  1  0.011605  0.914839  0.148532  1
  Br  Br24  1  0.988937  0.237064  0.587127  1
  Br  Br25  1  0.322988  0.662611  0.558157  1
  Br  Br26  1  0.670302  0.039630  0.944469  1
  Br  Br27  1  0.328462  0.820234  0.314597  1
