# generated using pymatgen
data_Ac2La(PIr)6
_symmetry_space_group_name_H-M   'P 1'
_cell_length_a   6.96308293
_cell_length_b   6.96308368
_cell_length_c   7.17592959
_cell_angle_alpha   87.01632315
_cell_angle_beta   92.98367851
_cell_angle_gamma   122.91135073
_symmetry_Int_Tables_number   1
_chemical_formula_structural   Ac2La(PIr)6
_chemical_formula_sum   'Ac2 La1 P6 Ir6'
_cell_volume   291.57120524
_cell_formula_units_Z   1
loop_
 _symmetry_equiv_pos_site_id
 _symmetry_equiv_pos_as_xyz
  1  'x, y, z'
loop_
 _atom_site_type_symbol
 _atom_site_label
 _atom_site_symmetry_multiplicity
 _atom_site_fract_x
 _atom_site_fract_y
 _atom_site_fract_z
 _atom_site_occupancy
  Ac  Ac0  1  0.595285  0.977778  0.169545  1
  Ac  Ac1  1  0.977778  0.595285  0.830455  1
  La  La2  1  0.387482  0.387482  0.500000  1
  P  P3  1  0.872690  0.213118  0.538615  1
  P  P4  1  0.213118  0.872690  0.461385  1
  P  P5  1  0.131923  0.339653  0.115291  1
  P  P6  1  0.785488  0.647802  0.229190  1
  P  P7  1  0.339653  0.131923  0.884709  1
  P  P8  1  0.647802  0.785488  0.770810  1
  Ir  Ir9  1  0.871395  0.871395  0.500000  1
  Ir  Ir10  1  0.134118  0.000710  0.171387  1
  Ir  Ir11  1  0.501111  0.501111  0.000000  1
  Ir  Ir12  1  0.030645  0.510804  0.319877  1
  Ir  Ir13  1  0.510804  0.030645  0.680123  1
  Ir  Ir14  1  0.000710  0.134118  0.828613  1
