# generated using pymatgen
data_KCoAs2Ru
_symmetry_space_group_name_H-M   'P 1'
_cell_length_a   7.44393390
_cell_length_b   7.44393370
_cell_length_c   7.44393455
_cell_angle_alpha   149.31487651
_cell_angle_beta   149.31487209
_cell_angle_gamma   43.94803406
_symmetry_Int_Tables_number   1
_chemical_formula_structural   KCoAs2Ru
_chemical_formula_sum   'K1 Co1 As2 Ru1'
_cell_volume   107.11694216
_cell_formula_units_Z   1
loop_
 _symmetry_equiv_pos_site_id
 _symmetry_equiv_pos_as_xyz
  1  'x, y, z'
loop_
 _atom_site_type_symbol
 _atom_site_label
 _atom_site_symmetry_multiplicity
 _atom_site_fract_x
 _atom_site_fract_y
 _atom_site_fract_z
 _atom_site_occupancy
  K  K0  1  0.000000  0.000000  0.000000  1
  Co  Co1  1  0.250000  0.750000  0.500000  1
  As  As2  1  0.347556  0.347556  0.000000  1
  As  As3  1  0.652444  0.652444  0.000000  1
  Ru  Ru4  1  0.750000  0.250000  0.500000  1
