# generated using pymatgen
data_Dy3Be2Ni7
_symmetry_space_group_name_H-M   'P 1'
_cell_length_a   5.01800000
_cell_length_b   5.02068377
_cell_length_c   15.13812200
_cell_angle_alpha   90.00000000
_cell_angle_beta   90.00000000
_cell_angle_gamma   119.98185436
_symmetry_Int_Tables_number   1
_chemical_formula_structural   Dy3Be2Ni7
_chemical_formula_sum   'Dy6 Be4 Ni14'
_cell_volume   330.35093378
_cell_formula_units_Z   2
loop_
 _symmetry_equiv_pos_site_id
 _symmetry_equiv_pos_as_xyz
  1  'x, y, z'
loop_
 _atom_site_type_symbol
 _atom_site_label
 _atom_site_symmetry_multiplicity
 _atom_site_fract_x
 _atom_site_fract_y
 _atom_site_fract_z
 _atom_site_occupancy
  Dy  Dy0  1  0.666651  0.333326  0.038938  1
  Dy  Dy1  1  0.333349  0.666674  0.961062  1
  Dy  Dy2  1  0.333349  0.666674  0.538938  1
  Dy  Dy3  1  0.666651  0.333326  0.461062  1
  Dy  Dy4  1  0.666666  0.333345  0.250000  1
  Dy  Dy5  1  0.333334  0.666655  0.750000  1
  Be  Be6  1  0.666603  0.333310  0.750000  1
  Be  Be7  1  0.333397  0.666690  0.250000  1
  Be  Be8  1  0.000040  0.000034  0.750000  1
  Be  Be9  1  0.999960  0.999966  0.250000  1
  Ni  Ni10  1  0.833552  0.667043  0.636740  1
  Ni  Ni11  1  0.833392  0.166529  0.636728  1
  Ni  Ni12  1  0.333195  0.166530  0.636644  1
  Ni  Ni13  1  0.166448  0.332957  0.363260  1
  Ni  Ni14  1  0.166608  0.833471  0.363272  1
  Ni  Ni15  1  0.666805  0.833470  0.363356  1
  Ni  Ni16  1  0.166448  0.332957  0.136740  1
  Ni  Ni17  1  0.166608  0.833471  0.136728  1
  Ni  Ni18  1  0.666805  0.833470  0.136644  1
  Ni  Ni19  1  0.833552  0.667043  0.863260  1
  Ni  Ni20  1  0.833392  0.166529  0.863272  1
  Ni  Ni21  1  0.333195  0.166530  0.863356  1
  Ni  Ni22  1  0.000000  0.000000  0.500000  1
  Ni  Ni23  1  0.000000  0.000000  0.000000  1
