# generated using pymatgen
data_La12PrNdPt6
_symmetry_space_group_name_H-M   'P 1'
_cell_length_a   10.36346100
_cell_length_b   10.36346169
_cell_length_c   6.57389400
_cell_angle_alpha   90.00000000
_cell_angle_beta   90.00000000
_cell_angle_gamma   120.00000100
_symmetry_Int_Tables_number   1
_chemical_formula_structural   La12PrNdPt6
_chemical_formula_sum   'La12 Pr1 Nd1 Pt6'
_cell_volume   611.45287013
_cell_formula_units_Z   1
loop_
 _symmetry_equiv_pos_site_id
 _symmetry_equiv_pos_as_xyz
  1  'x, y, z'
loop_
 _atom_site_type_symbol
 _atom_site_label
 _atom_site_symmetry_multiplicity
 _atom_site_fract_x
 _atom_site_fract_y
 _atom_site_fract_z
 _atom_site_occupancy
  La  La0  1  0.872215  0.744430  0.751222  1
  La  La1  1  0.255570  0.127785  0.751222  1
  La  La2  1  0.872215  0.127785  0.751222  1
  La  La3  1  0.127921  0.255842  0.250971  1
  La  La4  1  0.744158  0.872079  0.250971  1
  La  La5  1  0.127921  0.872079  0.250971  1
  La  La6  1  0.461789  0.923579  0.562380  1
  La  La7  1  0.076421  0.538211  0.562380  1
  La  La8  1  0.461789  0.538211  0.562380  1
  La  La9  1  0.538049  0.076098  0.062510  1
  La  La10  1  0.923902  0.461951  0.062510  1
  La  La11  1  0.538049  0.461951  0.062510  1
  Pr  Pr12  1  0.666667  0.333333  0.541822  1
  Nd  Nd13  1  0.333333  0.666667  0.040580  1
  Pt  Pt14  1  0.188205  0.376412  0.808744  1
  Pt  Pt15  1  0.623588  0.811795  0.808744  1
  Pt  Pt16  1  0.188205  0.811795  0.808744  1
  Pt  Pt17  1  0.812095  0.624190  0.308214  1
  Pt  Pt18  1  0.375810  0.187905  0.308214  1
  Pt  Pt19  1  0.812095  0.187905  0.308214  1
