# generated using pymatgen
data_Zr8Tc4Os3Pt
_symmetry_space_group_name_H-M   'P 1'
_cell_length_a   6.58176000
_cell_length_b   4.67586700
_cell_length_c   9.34434500
_cell_angle_alpha   90.00000000
_cell_angle_beta   89.99980871
_cell_angle_gamma   90.00000000
_symmetry_Int_Tables_number   1
_chemical_formula_structural   Zr8Tc4Os3Pt
_chemical_formula_sum   'Zr8 Tc4 Os3 Pt1'
_cell_volume   287.57627643
_cell_formula_units_Z   1
loop_
 _symmetry_equiv_pos_site_id
 _symmetry_equiv_pos_as_xyz
  1  'x, y, z'
loop_
 _atom_site_type_symbol
 _atom_site_label
 _atom_site_symmetry_multiplicity
 _atom_site_fract_x
 _atom_site_fract_y
 _atom_site_fract_z
 _atom_site_occupancy
  Zr  Zr0  1  0.994393  0.749999  0.125003  1
  Zr  Zr1  1  0.505699  0.749999  0.125009  1
  Zr  Zr2  1  0.997270  0.249999  0.378733  1
  Zr  Zr3  1  0.502854  0.249999  0.378734  1
  Zr  Zr4  1  0.499559  0.749999  0.625009  1
  Zr  Zr5  1  0.000314  0.749999  0.625015  1
  Zr  Zr6  1  0.502731  0.249999  0.871251  1
  Zr  Zr7  1  0.997174  0.249999  0.871262  1
  Tc  Tc8  1  0.750051  0.249999  0.125001  1
  Tc  Tc9  1  0.250052  0.749999  0.373749  1
  Tc  Tc10  1  0.749950  0.249999  0.625004  1
  Tc  Tc11  1  0.249951  0.749999  0.876246  1
  Os  Os12  1  0.750049  0.749999  0.374395  1
  Os  Os13  1  0.249951  0.249999  0.624992  1
  Os  Os14  1  0.749947  0.749999  0.875597  1
  Pt  Pt15  1  0.250057  0.249999  0.125000  1
