# generated using pymatgen
data_Hf16Ni4Mo2PdPt
_symmetry_space_group_name_H-M   'P 1'
_cell_length_a   8.68804981
_cell_length_b   8.68804860
_cell_length_c   8.64894101
_cell_angle_alpha   60.13687849
_cell_angle_beta   60.13688269
_cell_angle_gamma   60.16666660
_symmetry_Int_Tables_number   1
_chemical_formula_structural   Hf16Ni4Mo2PdPt
_chemical_formula_sum   'Hf16 Ni4 Mo2 Pd1 Pt1'
_cell_volume   463.16339307
_cell_formula_units_Z   1
loop_
 _symmetry_equiv_pos_site_id
 _symmetry_equiv_pos_as_xyz
  1  'x, y, z'
loop_
 _atom_site_type_symbol
 _atom_site_label
 _atom_site_symmetry_multiplicity
 _atom_site_fract_x
 _atom_site_fract_y
 _atom_site_fract_z
 _atom_site_occupancy
  Hf  Hf0  1  0.684114  0.105598  0.105006  1
  Hf  Hf1  1  0.105598  0.684114  0.105006  1
  Hf  Hf2  1  0.100914  0.100914  0.695033  1
  Hf  Hf3  1  0.101939  0.101939  0.102638  1
  Hf  Hf4  1  0.315486  0.315486  0.684101  1
  Hf  Hf5  1  0.687626  0.687626  0.312263  1
  Hf  Hf6  1  0.316192  0.693710  0.314897  1
  Hf  Hf7  1  0.691984  0.315950  0.676898  1
  Hf  Hf8  1  0.693710  0.316192  0.314897  1
  Hf  Hf9  1  0.315950  0.691984  0.676898  1
  Hf  Hf10  1  0.953407  0.953407  0.546476  1
  Hf  Hf11  1  0.550782  0.550782  0.948849  1
  Hf  Hf12  1  0.945120  0.551757  0.950712  1
  Hf  Hf13  1  0.552971  0.942547  0.553699  1
  Hf  Hf14  1  0.551757  0.945120  0.950712  1
  Hf  Hf15  1  0.942547  0.552971  0.553699  1
  Ni  Ni16  1  0.324636  0.886367  0.894485  1
  Ni  Ni17  1  0.886367  0.324636  0.894485  1
  Ni  Ni18  1  0.891401  0.891401  0.320851  1
  Ni  Ni19  1  0.891180  0.891180  0.896323  1
  Mo  Mo20  1  0.997806  0.332556  0.334928  1
  Mo  Mo21  1  0.332556  0.997806  0.334928  1
  Pd  Pd22  1  0.332576  0.332576  0.338035  1
  Pt  Pt23  1  0.333377  0.333377  0.994176  1
