# generated using pymatgen
data_NdU3(Si5Pt3)2
_symmetry_space_group_name_H-M   'P 1'
_cell_length_a   8.18204881
_cell_length_b   8.19278942
_cell_length_c   8.19279023
_cell_angle_alpha   135.97620895
_cell_angle_beta   104.85083440
_cell_angle_gamma   91.43336140
_symmetry_Int_Tables_number   1
_chemical_formula_structural   NdU3(Si5Pt3)2
_chemical_formula_sum   'Nd1 U3 Si10 Pt6'
_cell_volume   350.55095238
_cell_formula_units_Z   1
loop_
 _symmetry_equiv_pos_site_id
 _symmetry_equiv_pos_as_xyz
  1  'x, y, z'
loop_
 _atom_site_type_symbol
 _atom_site_label
 _atom_site_symmetry_multiplicity
 _atom_site_fract_x
 _atom_site_fract_y
 _atom_site_fract_z
 _atom_site_occupancy
  Nd  Nd0  1  0.358430  0.628912  0.729519  1
  U  U1  1  0.098352  0.868223  0.230128  1
  U  U2  1  0.900539  0.130848  0.769690  1
  U  U3  1  0.640648  0.370435  0.270214  1
  Si  Si4  1  0.997919  0.749629  0.749714  1
  Si  Si5  1  0.997919  0.248205  0.248291  1
  Si  Si6  1  0.273331  0.025588  0.750841  1
  Si  Si7  1  0.728357  0.478504  0.751010  1
  Si  Si8  1  0.728357  0.977347  0.249854  1
  Si  Si9  1  0.273331  0.522489  0.247743  1
  Si  Si10  1  0.761722  0.610982  0.150740  1
  Si  Si11  1  0.235116  0.385110  0.850006  1
  Si  Si12  1  0.461908  0.112335  0.349573  1
  Si  Si13  1  0.542069  0.890429  0.651641  1
  Pt  Pt14  1  0.499755  0.752018  0.250877  1
  Pt  Pt15  1  0.499755  0.248878  0.747737  1
  Pt  Pt16  1  0.028823  0.638110  0.390712  1
  Pt  Pt17  1  0.972945  0.361929  0.611015  1
  Pt  Pt18  1  0.248138  0.137383  0.110754  1
  Pt  Pt19  1  0.752583  0.862644  0.889940  1
