# generated using pymatgen
data_Ac3AuO6
_symmetry_space_group_name_H-M   'P 1'
_cell_length_a   4.11371206
_cell_length_b   5.93694607
_cell_length_c   7.39602330
_cell_angle_alpha   91.83574846
_cell_angle_beta   102.75828449
_cell_angle_gamma   90.43034821
_symmetry_Int_Tables_number   1
_chemical_formula_structural   Ac3AuO6
_chemical_formula_sum   'Ac3 Au1 O6'
_cell_volume   176.06237262
_cell_formula_units_Z   1
loop_
 _symmetry_equiv_pos_site_id
 _symmetry_equiv_pos_as_xyz
  1  'x, y, z'
loop_
 _atom_site_type_symbol
 _atom_site_label
 _atom_site_symmetry_multiplicity
 _atom_site_fract_x
 _atom_site_fract_y
 _atom_site_fract_z
 _atom_site_occupancy
  Ac  Ac0  1  0.604754  0.521210  0.772504  1
  Ac  Ac1  1  0.395246  0.478790  0.227496  1
  Ac  Ac2  1  0.000000  0.000000  0.500000  1
  Au  Au3  1  0.000000  0.000000  0.000000  1
  O  O4  1  0.134286  0.273556  0.865126  1
  O  O5  1  0.881898  0.220603  0.192909  1
  O  O6  1  0.118102  0.779397  0.807091  1
  O  O7  1  0.492256  0.744165  0.490836  1
  O  O8  1  0.865714  0.726444  0.134874  1
  O  O9  1  0.507744  0.255835  0.509164  1
