# generated using pymatgen
data_NdPRuN
_symmetry_space_group_name_H-M   'P 1'
_cell_length_a   3.97365800
_cell_length_b   3.97365800
_cell_length_c   7.93833900
_cell_angle_alpha   90.00000000
_cell_angle_beta   90.00000000
_cell_angle_gamma   90.00000000
_symmetry_Int_Tables_number   1
_chemical_formula_structural   NdPRuN
_chemical_formula_sum   'Nd2 P2 Ru2 N2'
_cell_volume   125.34603861
_cell_formula_units_Z   2
loop_
 _symmetry_equiv_pos_site_id
 _symmetry_equiv_pos_as_xyz
  1  'x, y, z'
loop_
 _atom_site_type_symbol
 _atom_site_label
 _atom_site_symmetry_multiplicity
 _atom_site_fract_x
 _atom_site_fract_y
 _atom_site_fract_z
 _atom_site_occupancy
  Nd  Nd0  1  0.499999  0.000000  0.167194  1
  Nd  Nd1  1  0.000000  0.499999  0.832806  1
  P  P2  1  0.000000  0.499999  0.349281  1
  P  P3  1  0.499999  0.000000  0.650719  1
  Ru  Ru4  1  0.000000  0.000000  0.500000  1
  Ru  Ru5  1  0.499999  0.499999  0.500000  1
  N  N6  1  0.000000  0.499999  0.136208  1
  N  N7  1  0.499999  0.000000  0.863792  1
