# generated using pymatgen
data_Cs12V3Se17
_symmetry_space_group_name_H-M   'P 1'
_cell_length_a   10.26955000
_cell_length_b   10.36560627
_cell_length_c   12.13643600
_cell_angle_alpha   90.00000000
_cell_angle_beta   90.00000000
_cell_angle_gamma   90.52386959
_symmetry_Int_Tables_number   1
_chemical_formula_structural   Cs12V3Se17
_chemical_formula_sum   'Cs12 V3 Se17'
_cell_volume   1291.87096898
_cell_formula_units_Z   1
loop_
 _symmetry_equiv_pos_site_id
 _symmetry_equiv_pos_as_xyz
  1  'x, y, z'
loop_
 _atom_site_type_symbol
 _atom_site_label
 _atom_site_symmetry_multiplicity
 _atom_site_fract_x
 _atom_site_fract_y
 _atom_site_fract_z
 _atom_site_occupancy
  Cs  Cs0  1  0.545571  0.704936  0.042435  1
  Cs  Cs1  1  0.042602  0.797555  0.459868  1
  Cs  Cs2  1  0.456275  0.292554  0.544598  1
  Cs  Cs3  1  0.951514  0.200984  0.956693  1
  Cs  Cs4  1  0.456275  0.292554  0.955402  1
  Cs  Cs5  1  0.951514  0.200984  0.543307  1
  Cs  Cs6  1  0.545571  0.704936  0.457565  1
  Cs  Cs7  1  0.042602  0.797555  0.040132  1
  Cs  Cs8  1  0.355112  0.089994  0.250000  1
  Cs  Cs9  1  0.854006  0.411666  0.250000  1
  Cs  Cs10  1  0.647307  0.911582  0.750000  1
  Cs  Cs11  1  0.149798  0.590207  0.750000  1
  V  V12  1  0.776122  0.980179  0.250000  1
  V  V13  1  0.725763  0.480442  0.750000  1
  V  V14  1  0.224639  0.020213  0.750000  1
  Se  Se15  1  0.273399  0.518468  0.250000  1
  Se  Se16  1  0.292283  0.752021  0.250000  1
  Se  Se17  1  0.790603  0.759265  0.250000  1
  Se  Se18  1  0.709403  0.259162  0.750000  1
  Se  Se19  1  0.208933  0.241192  0.750000  1
  Se  Se20  1  0.492926  0.422572  0.250000  1
  Se  Se21  1  0.983215  0.068372  0.250000  1
  Se  Se22  1  0.519563  0.567143  0.750000  1
  Se  Se23  1  0.017295  0.931621  0.750000  1
  Se  Se24  1  0.159090  0.458513  0.080030  1
  Se  Se25  1  0.667460  0.043131  0.406040  1
  Se  Se26  1  0.834240  0.543305  0.593314  1
  Se  Se27  1  0.333061  0.956974  0.905865  1
  Se  Se28  1  0.834240  0.543305  0.906686  1
  Se  Se29  1  0.333061  0.956974  0.594135  1
  Se  Se30  1  0.159090  0.458513  0.419970  1
  Se  Se31  1  0.667460  0.043131  0.093960  1
