# generated using pymatgen
data_Tm12ZnCo2Ni2Bi
_symmetry_space_group_name_H-M   'P 1'
_cell_length_a   8.22609635
_cell_length_b   8.22609649
_cell_length_c   8.22609624
_cell_angle_alpha   109.37584102
_cell_angle_beta   111.23147593
_cell_angle_gamma   107.82435000
_symmetry_Int_Tables_number   1
_chemical_formula_structural   Tm12ZnCo2Ni2Bi
_chemical_formula_sum   'Tm12 Zn1 Co2 Ni2 Bi1'
_cell_volume   428.12815199
_cell_formula_units_Z   1
loop_
 _symmetry_equiv_pos_site_id
 _symmetry_equiv_pos_as_xyz
  1  'x, y, z'
loop_
 _atom_site_type_symbol
 _atom_site_label
 _atom_site_symmetry_multiplicity
 _atom_site_fract_x
 _atom_site_fract_y
 _atom_site_fract_z
 _atom_site_occupancy
  Tm  Tm0  1  0.284561  0.180388  0.464949  1
  Tm  Tm1  1  0.715439  0.819612  0.535051  1
  Tm  Tm2  1  0.284561  0.819612  0.104174  1
  Tm  Tm3  1  0.715439  0.180388  0.895826  1
  Tm  Tm4  1  0.622503  0.315803  0.306701  1
  Tm  Tm5  1  0.377497  0.684197  0.693299  1
  Tm  Tm6  1  0.009102  0.315803  0.693299  1
  Tm  Tm7  1  0.990898  0.684197  0.306701  1
  Tm  Tm8  1  0.224354  0.430484  0.206130  1
  Tm  Tm9  1  0.775646  0.569516  0.793870  1
  Tm  Tm10  1  0.224354  0.018224  0.793870  1
  Tm  Tm11  1  0.775646  0.981776  0.206130  1
  Zn  Zn12  1  0.000000  0.000000  0.000000  1
  Co  Co13  1  0.384914  0.884914  0.500000  1
  Co  Co14  1  0.615086  0.115086  0.500000  1
  Ni  Ni15  1  0.000000  0.363171  0.363171  1
  Ni  Ni16  1  0.000000  0.636829  0.636829  1
  Bi  Bi17  1  0.500000  0.500000  0.000000  1
