# generated using pymatgen
data_HoLu4Fe3(Co4P3)4
_symmetry_space_group_name_H-M   'P 1'
_cell_length_a   11.93209200
_cell_length_b   11.93209268
_cell_length_c   3.64484000
_cell_angle_alpha   90.00000000
_cell_angle_beta   90.00000000
_cell_angle_gamma   120.00000366
_symmetry_Int_Tables_number   1
_chemical_formula_structural   HoLu4Fe3(Co4P3)4
_chemical_formula_sum   'Ho1 Lu4 Fe3 Co16 P12'
_cell_volume   449.40954843
_cell_formula_units_Z   1
loop_
 _symmetry_equiv_pos_site_id
 _symmetry_equiv_pos_as_xyz
  1  'x, y, z'
loop_
 _atom_site_type_symbol
 _atom_site_label
 _atom_site_symmetry_multiplicity
 _atom_site_fract_x
 _atom_site_fract_y
 _atom_site_fract_z
 _atom_site_occupancy
  Ho  Ho0  1  0.333333  0.666667  0.000000  1
  Lu  Lu1  1  0.666667  0.333333  0.000000  1
  Lu  Lu2  1  0.812764  0.812759  0.500000  1
  Lu  Lu3  1  0.187241  0.000005  0.500000  1
  Lu  Lu4  1  0.999995  0.187236  0.500000  1
  Fe  Fe5  1  0.446923  0.446916  0.000000  1
  Fe  Fe6  1  0.553084  0.000007  0.000000  1
  Fe  Fe7  1  0.999993  0.553077  0.000000  1
  Co  Co8  1  0.872778  0.356526  0.500000  1
  Co  Co9  1  0.643474  0.516251  0.500000  1
  Co  Co10  1  0.483749  0.127222  0.500000  1
  Co  Co11  1  0.356564  0.874285  0.500000  1
  Co  Co12  1  0.517721  0.643436  0.500000  1
  Co  Co13  1  0.125715  0.482279  0.500000  1
  Co  Co14  1  0.801129  0.178144  0.000000  1
  Co  Co15  1  0.821856  0.622984  0.000000  1
  Co  Co16  1  0.377016  0.198871  0.000000  1
  Co  Co17  1  0.177567  0.801589  0.000000  1
  Co  Co18  1  0.624021  0.822433  0.000000  1
  Co  Co19  1  0.198411  0.375979  0.000000  1
  Co  Co20  1  0.282784  0.282220  0.500000  1
  Co  Co21  1  0.717780  0.000565  0.500000  1
  Co  Co22  1  0.999435  0.717216  0.500000  1
  Co  Co23  1  0.000000  0.000000  0.000000  1
  P  P24  1  0.683996  0.165492  0.500000  1
  P  P25  1  0.834508  0.518504  0.500000  1
  P  P26  1  0.481496  0.316004  0.500000  1
  P  P27  1  0.163972  0.683958  0.500000  1
  P  P28  1  0.519986  0.836028  0.500000  1
  P  P29  1  0.316042  0.480014  0.500000  1
  P  P30  1  0.179286  0.179070  0.000000  1
  P  P31  1  0.820930  0.000216  0.000000  1
  P  P32  1  0.999784  0.820714  0.000000  1
  P  P33  1  0.633338  0.633391  0.000000  1
  P  P34  1  0.366609  0.999947  0.000000  1
  P  P35  1  0.000053  0.366662  0.000000  1
