# generated using pymatgen
data_Tm12Mn2Tl3
_symmetry_space_group_name_H-M   'P 1'
_cell_length_a   8.35215406
_cell_length_b   8.35216346
_cell_length_c   8.35215300
_cell_angle_alpha   110.08159314
_cell_angle_beta   110.09239057
_cell_angle_gamma   108.24653403
_symmetry_Int_Tables_number   1
_chemical_formula_structural   Tm12Mn2Tl3
_chemical_formula_sum   'Tm12 Mn2 Tl3'
_cell_volume   448.35890686
_cell_formula_units_Z   1
loop_
 _symmetry_equiv_pos_site_id
 _symmetry_equiv_pos_as_xyz
  1  'x, y, z'
loop_
 _atom_site_type_symbol
 _atom_site_label
 _atom_site_symmetry_multiplicity
 _atom_site_fract_x
 _atom_site_fract_y
 _atom_site_fract_z
 _atom_site_occupancy
  Tm  Tm0  1  0.304598  0.304571  0.609181  1
  Tm  Tm1  1  0.695402  0.695429  0.390819  1
  Tm  Tm2  1  0.304610  0.695429  0.000027  1
  Tm  Tm3  1  0.695390  0.304571  0.999973  1
  Tm  Tm4  1  0.457065  0.210568  0.246483  1
  Tm  Tm5  1  0.542935  0.789432  0.753517  1
  Tm  Tm6  1  0.964084  0.210568  0.753504  1
  Tm  Tm7  1  0.210547  0.964098  0.753552  1
  Tm  Tm8  1  0.035916  0.789432  0.246496  1
  Tm  Tm9  1  0.789453  0.035902  0.246448  1
  Tm  Tm10  1  0.210547  0.457004  0.246458  1
  Tm  Tm11  1  0.789453  0.542996  0.753542  1
  Mn  Mn12  1  0.392667  0.392670  0.000003  1
  Mn  Mn13  1  0.607333  0.607330  0.999997  1
  Tl  Tl14  1  0.000000  0.000000  0.000000  1
  Tl  Tl15  1  0.500000  0.000000  0.500000  1
  Tl  Tl16  1  0.000000  0.500000  0.500000  1
