# generated using pymatgen
data_PaMnAl10Os
_symmetry_space_group_name_H-M   'P 1'
_cell_length_a   6.81471813
_cell_length_b   6.82606438
_cell_length_c   9.08111100
_cell_angle_alpha   90.00000000
_cell_angle_beta   90.00000000
_cell_angle_gamma   97.63837677
_symmetry_Int_Tables_number   1
_chemical_formula_structural   PaMnAl10Os
_chemical_formula_sum   'Pa2 Mn2 Al20 Os2'
_cell_volume   418.68408335
_cell_formula_units_Z   2
loop_
 _symmetry_equiv_pos_site_id
 _symmetry_equiv_pos_as_xyz
  1  'x, y, z'
loop_
 _atom_site_type_symbol
 _atom_site_label
 _atom_site_symmetry_multiplicity
 _atom_site_fract_x
 _atom_site_fract_y
 _atom_site_fract_z
 _atom_site_occupancy
  Pa  Pa0  1  0.866129  0.124725  0.750000  1
  Pa  Pa1  1  0.133871  0.875275  0.250000  1
  Mn  Mn2  1  0.500000  0.000000  0.000000  1
  Mn  Mn3  1  0.500000  0.000000  0.500000  1
  Al  Al4  1  0.517089  0.783925  0.750000  1
  Al  Al5  1  0.781798  0.519893  0.250000  1
  Al  Al6  1  0.482911  0.216075  0.250000  1
  Al  Al7  1  0.218202  0.480107  0.750000  1
  Al  Al8  1  0.620751  0.371950  0.954967  1
  Al  Al9  1  0.379249  0.628050  0.045033  1
  Al  Al10  1  0.620751  0.371950  0.545033  1
  Al  Al11  1  0.379249  0.628050  0.454967  1
  Al  Al12  1  0.412586  0.141136  0.750000  1
  Al  Al13  1  0.145364  0.408265  0.250000  1
  Al  Al14  1  0.587414  0.858864  0.250000  1
  Al  Al15  1  0.854636  0.591735  0.750000  1
  Al  Al16  1  0.840912  0.153272  0.398753  1
  Al  Al17  1  0.159088  0.846728  0.601247  1
  Al  Al18  1  0.840912  0.153272  0.101247  1
  Al  Al19  1  0.159088  0.846728  0.898753  1
  Al  Al20  1  0.773657  0.780630  0.999277  1
  Al  Al21  1  0.773657  0.780630  0.500723  1
  Al  Al22  1  0.226343  0.219370  0.000723  1
  Al  Al23  1  0.226343  0.219370  0.499277  1
  Os  Os24  1  0.000000  0.500000  0.000000  1
  Os  Os25  1  0.000000  0.500000  0.500000  1
