# generated using pymatgen
data_PrDy(IrO4)2
_symmetry_space_group_name_H-M   'P 1'
_cell_length_a   5.45533487
_cell_length_b   7.49427935
_cell_length_c   7.70142285
_cell_angle_alpha   80.25068847
_cell_angle_beta   93.17436009
_cell_angle_gamma   90.66469380
_symmetry_Int_Tables_number   1
_chemical_formula_structural   PrDy(IrO4)2
_chemical_formula_sum   'Pr2 Dy2 Ir4 O16'
_cell_volume   309.83930259
_cell_formula_units_Z   2
loop_
 _symmetry_equiv_pos_site_id
 _symmetry_equiv_pos_as_xyz
  1  'x, y, z'
loop_
 _atom_site_type_symbol
 _atom_site_label
 _atom_site_symmetry_multiplicity
 _atom_site_fract_x
 _atom_site_fract_y
 _atom_site_fract_z
 _atom_site_occupancy
  Pr  Pr0  1  0.738345  0.890562  0.364834  1
  Pr  Pr1  1  0.261655  0.109438  0.635166  1
  Dy  Dy2  1  0.803644  0.397709  0.329794  1
  Dy  Dy3  1  0.196356  0.602291  0.670206  1
  Ir  Ir4  1  0.759905  0.297691  0.841917  1
  Ir  Ir5  1  0.240095  0.702309  0.158083  1
  Ir  Ir6  1  0.283142  0.203577  0.160691  1
  Ir  Ir7  1  0.716858  0.796423  0.839309  1
  O  O8  1  0.924318  0.805358  0.051560  1
  O  O9  1  0.075682  0.194642  0.948440  1
  O  O10  1  0.375228  0.948744  0.167476  1
  O  O11  1  0.624772  0.051256  0.832524  1
  O  O12  1  0.141944  0.446735  0.163133  1
  O  O13  1  0.858056  0.553265  0.836867  1
  O  O14  1  0.598693  0.303004  0.062370  1
  O  O15  1  0.401307  0.696996  0.937630  1
  O  O16  1  0.942067  0.336023  0.614046  1
  O  O17  1  0.057933  0.663977  0.385954  1
  O  O18  1  0.504353  0.184495  0.385097  1
  O  O19  1  0.495647  0.815505  0.614903  1
  O  O20  1  0.540855  0.620326  0.291389  1
  O  O21  1  0.459145  0.379674  0.708611  1
  O  O22  1  0.024332  0.129106  0.329979  1
  O  O23  1  0.975668  0.870894  0.670021  1
