# generated using pymatgen
data_YbDy3Ga18(RuPt2)2
_symmetry_space_group_name_H-M   'P 1'
_cell_length_a   7.66370148
_cell_length_b   7.65506602
_cell_length_c   9.55489768
_cell_angle_alpha   90.04269888
_cell_angle_beta   90.00835972
_cell_angle_gamma   119.88719376
_symmetry_Int_Tables_number   1
_chemical_formula_structural   YbDy3Ga18(RuPt2)2
_chemical_formula_sum   'Yb1 Dy3 Ga18 Ru2 Pt4'
_cell_volume   486.00030330
_cell_formula_units_Z   1
loop_
 _symmetry_equiv_pos_site_id
 _symmetry_equiv_pos_as_xyz
  1  'x, y, z'
loop_
 _atom_site_type_symbol
 _atom_site_label
 _atom_site_symmetry_multiplicity
 _atom_site_fract_x
 _atom_site_fract_y
 _atom_site_fract_z
 _atom_site_occupancy
  Yb  Yb0  1  0.328063  0.003178  0.749902  1
  Dy  Dy1  1  0.670408  0.996853  0.250196  1
  Dy  Dy2  1  0.004420  0.329424  0.749702  1
  Dy  Dy3  1  0.997446  0.672347  0.249521  1
  Ga  Ga4  1  0.866136  0.866045  0.750252  1
  Ga  Ga5  1  0.134189  0.133464  0.250176  1
  Ga  Ga6  1  0.662051  0.667825  0.432971  1
  Ga  Ga7  1  0.339022  0.330179  0.932582  1
  Ga  Ga8  1  0.667534  0.661832  0.067249  1
  Ga  Ga9  1  0.332926  0.337566  0.566448  1
  Ga  Ga10  1  0.450799  0.660955  0.746463  1
  Ga  Ga11  1  0.548797  0.338004  0.246846  1
  Ga  Ga12  1  0.661442  0.450240  0.753455  1
  Ga  Ga13  1  0.338063  0.548123  0.253113  1
  Ga  Ga14  1  0.993501  0.334525  0.082369  1
  Ga  Ga15  1  0.009082  0.667509  0.582613  1
  Ga  Ga16  1  0.334547  0.994384  0.419942  1
  Ga  Ga17  1  0.663748  0.006757  0.917652  1
  Ga  Ga18  1  0.996871  0.660233  0.919178  1
  Ga  Ga19  1  0.003788  0.341025  0.418537  1
  Ga  Ga20  1  0.656707  0.995204  0.581713  1
  Ga  Ga21  1  0.340541  0.004248  0.078762  1
  Ru  Ru22  1  0.328356  0.670678  0.498598  1
  Ru  Ru23  1  0.672824  0.329518  0.000832  1
  Pt  Pt24  1  0.998952  0.000177  0.499822  1
  Pt  Pt25  1  0.998704  0.000175  0.000747  1
  Pt  Pt26  1  0.672240  0.329640  0.499852  1
  Pt  Pt27  1  0.328846  0.669891  0.000510  1
