# generated using pymatgen
data_Ca3In(SiRh3)2
_symmetry_space_group_name_H-M   'P 1'
_cell_length_a   5.71120900
_cell_length_b   5.71121091
_cell_length_c   15.47334300
_cell_angle_alpha   90.00000000
_cell_angle_beta   90.00000000
_cell_angle_gamma   119.99999471
_symmetry_Int_Tables_number   1
_chemical_formula_structural   Ca3In(SiRh3)2
_chemical_formula_sum   'Ca6 In2 Si4 Rh12'
_cell_volume   437.09019030
_cell_formula_units_Z   2
loop_
 _symmetry_equiv_pos_site_id
 _symmetry_equiv_pos_as_xyz
  1  'x, y, z'
loop_
 _atom_site_type_symbol
 _atom_site_label
 _atom_site_symmetry_multiplicity
 _atom_site_fract_x
 _atom_site_fract_y
 _atom_site_fract_z
 _atom_site_occupancy
  Ca  Ca0  1  0.333333  0.666667  0.041332  1
  Ca  Ca1  1  0.333333  0.666667  0.250000  1
  Ca  Ca2  1  0.333333  0.666667  0.458668  1
  Ca  Ca3  1  0.666667  0.333334  0.541332  1
  Ca  Ca4  1  0.666667  0.333334  0.750000  1
  Ca  Ca5  1  0.666667  0.333334  0.958668  1
  In  In6  1  0.000000  0.000000  0.000000  1
  In  In7  1  0.000000  0.000000  0.500000  1
  Si  Si8  1  0.000000  0.000000  0.250000  1
  Si  Si9  1  0.666667  0.333334  0.250000  1
  Si  Si10  1  0.000000  0.000000  0.750000  1
  Si  Si11  1  0.333333  0.666667  0.750000  1
  Rh  Rh12  1  0.335786  0.167893  0.140970  1
  Rh  Rh13  1  0.832107  0.167893  0.140970  1
  Rh  Rh14  1  0.832107  0.664214  0.140970  1
  Rh  Rh15  1  0.335786  0.167893  0.359030  1
  Rh  Rh16  1  0.832107  0.167893  0.359030  1
  Rh  Rh17  1  0.832107  0.664214  0.359030  1
  Rh  Rh18  1  0.167893  0.335787  0.640971  1
  Rh  Rh19  1  0.167893  0.832107  0.640971  1
  Rh  Rh20  1  0.664214  0.832107  0.640971  1
  Rh  Rh21  1  0.167893  0.335787  0.859030  1
  Rh  Rh22  1  0.167893  0.832107  0.859030  1
  Rh  Rh23  1  0.664214  0.832107  0.859030  1
