# generated using pymatgen
data_Y5Sc3(P3Ir4)4
_symmetry_space_group_name_H-M   'P 1'
_cell_length_a   12.85380400
_cell_length_b   12.85380467
_cell_length_c   3.96513600
_cell_angle_alpha   90.00000000
_cell_angle_beta   90.00000000
_cell_angle_gamma   120.00000341
_symmetry_Int_Tables_number   1
_chemical_formula_structural   Y5Sc3(P3Ir4)4
_chemical_formula_sum   'Y5 Sc3 P12 Ir16'
_cell_volume   567.35132562
_cell_formula_units_Z   1
loop_
 _symmetry_equiv_pos_site_id
 _symmetry_equiv_pos_as_xyz
  1  'x, y, z'
loop_
 _atom_site_type_symbol
 _atom_site_label
 _atom_site_symmetry_multiplicity
 _atom_site_fract_x
 _atom_site_fract_y
 _atom_site_fract_z
 _atom_site_occupancy
  Y  Y0  1  0.333333  0.666667  0.500000  1
  Y  Y1  1  0.666667  0.333333  0.500000  1
  Y  Y2  1  0.000000  0.811788  0.000000  1
  Y  Y3  1  0.188212  0.188212  0.000000  1
  Y  Y4  1  0.811788  0.000000  0.000000  1
  Sc  Sc5  1  0.000000  0.444866  0.500000  1
  Sc  Sc6  1  0.555134  0.555134  0.500000  1
  Sc  Sc7  1  0.444866  0.000000  0.500000  1
  P  P8  1  0.000000  0.645406  0.500000  1
  P  P9  1  0.354594  0.354594  0.500000  1
  P  P10  1  0.645406  0.000000  0.500000  1
  P  P11  1  0.517095  0.686689  0.000000  1
  P  P12  1  0.313311  0.830405  0.000000  1
  P  P13  1  0.169595  0.482905  0.000000  1
  P  P14  1  0.482905  0.169595  0.000000  1
  P  P15  1  0.686689  0.517095  0.000000  1
  P  P16  1  0.830405  0.313311  0.000000  1
  P  P17  1  0.000000  0.176968  0.500000  1
  P  P18  1  0.823032  0.823032  0.500000  1
  P  P19  1  0.176968  0.000000  0.500000  1
  Ir  Ir20  1  0.509992  0.867832  0.000000  1
  Ir  Ir21  1  0.132168  0.642161  0.000000  1
  Ir  Ir22  1  0.357839  0.490008  0.000000  1
  Ir  Ir23  1  0.490008  0.357839  0.000000  1
  Ir  Ir24  1  0.867832  0.509992  0.000000  1
  Ir  Ir25  1  0.642161  0.132168  0.000000  1
  Ir  Ir26  1  0.000000  0.277913  0.000000  1
  Ir  Ir27  1  0.722087  0.722087  0.000000  1
  Ir  Ir28  1  0.277913  0.000000  0.000000  1
  Ir  Ir29  1  0.627847  0.806701  0.500000  1
  Ir  Ir30  1  0.193299  0.821146  0.500000  1
  Ir  Ir31  1  0.178854  0.372153  0.500000  1
  Ir  Ir32  1  0.372153  0.178854  0.500000  1
  Ir  Ir33  1  0.806701  0.627847  0.500000  1
  Ir  Ir34  1  0.821146  0.193299  0.500000  1
  Ir  Ir35  1  0.000000  0.000000  0.500000  1
