# generated using pymatgen
data_Tm4ZrIr3
_symmetry_space_group_name_H-M   'P 1'
_cell_length_a   10.73090200
_cell_length_b   10.73090200
_cell_length_c   6.20021700
_cell_angle_alpha   90.00000000
_cell_angle_beta   90.00000000
_cell_angle_gamma   90.00000000
_symmetry_Int_Tables_number   1
_chemical_formula_structural   Tm4ZrIr3
_chemical_formula_sum   'Tm16 Zr4 Ir12'
_cell_volume   713.96898599
_cell_formula_units_Z   4
loop_
 _symmetry_equiv_pos_site_id
 _symmetry_equiv_pos_as_xyz
  1  'x, y, z'
loop_
 _atom_site_type_symbol
 _atom_site_label
 _atom_site_symmetry_multiplicity
 _atom_site_fract_x
 _atom_site_fract_y
 _atom_site_fract_z
 _atom_site_occupancy
  Tm  Tm0  1  0.290424  0.086505  0.371326  1
  Tm  Tm1  1  0.290424  0.913495  0.871326  1
  Tm  Tm2  1  0.709576  0.086505  0.871326  1
  Tm  Tm3  1  0.709576  0.913495  0.371326  1
  Tm  Tm4  1  0.586505  0.790424  0.871326  1
  Tm  Tm5  1  0.586505  0.209576  0.371326  1
  Tm  Tm6  1  0.413495  0.790424  0.371326  1
  Tm  Tm7  1  0.413495  0.209576  0.871326  1
  Tm  Tm8  1  0.209576  0.413495  0.628674  1
  Tm  Tm9  1  0.209576  0.586505  0.128674  1
  Tm  Tm10  1  0.790424  0.413495  0.128674  1
  Tm  Tm11  1  0.790424  0.586505  0.628674  1
  Tm  Tm12  1  0.913495  0.709576  0.128674  1
  Tm  Tm13  1  0.913495  0.290424  0.628674  1
  Tm  Tm14  1  0.086505  0.709576  0.628674  1
  Tm  Tm15  1  0.086505  0.290424  0.128674  1
  Zr  Zr16  1  0.000000  0.000000  0.500000  1
  Zr  Zr17  1  0.000000  0.000000  0.000000  1
  Zr  Zr18  1  0.500000  0.500000  0.000000  1
  Zr  Zr19  1  0.500000  0.500000  0.500000  1
  Ir  Ir20  1  0.852865  0.147135  0.250000  1
  Ir  Ir21  1  0.852865  0.852865  0.750000  1
  Ir  Ir22  1  0.147135  0.147135  0.750000  1
  Ir  Ir23  1  0.147135  0.852865  0.250000  1
  Ir  Ir24  1  0.647135  0.352865  0.750000  1
  Ir  Ir25  1  0.647135  0.647135  0.250000  1
  Ir  Ir26  1  0.352865  0.352865  0.250000  1
  Ir  Ir27  1  0.352865  0.647135  0.750000  1
  Ir  Ir28  1  0.500000  0.000000  0.116307  1
  Ir  Ir29  1  0.500000  0.000000  0.616307  1
  Ir  Ir30  1  0.000000  0.500000  0.883693  1
  Ir  Ir31  1  0.000000  0.500000  0.383693  1
