# generated using pymatgen
data_Tb7LuMg2(SiB4)4
_symmetry_space_group_name_H-M   'P 1'
_cell_length_a   7.17388203
_cell_length_b   7.17388203
_cell_length_c   7.87646301
_cell_angle_alpha   89.99696934
_cell_angle_beta   89.99696934
_cell_angle_gamma   89.99043187
_symmetry_Int_Tables_number   1
_chemical_formula_structural   Tb7LuMg2(SiB4)4
_chemical_formula_sum   'Tb7 Lu1 Mg2 Si4 B16'
_cell_volume   405.35888002
_cell_formula_units_Z   1
loop_
 _symmetry_equiv_pos_site_id
 _symmetry_equiv_pos_as_xyz
  1  'x, y, z'
loop_
 _atom_site_type_symbol
 _atom_site_label
 _atom_site_symmetry_multiplicity
 _atom_site_fract_x
 _atom_site_fract_y
 _atom_site_fract_z
 _atom_site_occupancy
  Tb  Tb0  1  0.316958  0.816958  0.765857  1
  Tb  Tb1  1  0.317087  0.817087  0.233950  1
  Tb  Tb2  1  0.816685  0.683207  0.233783  1
  Tb  Tb3  1  0.816621  0.683091  0.765858  1
  Tb  Tb4  1  0.683329  0.183329  0.766231  1
  Tb  Tb5  1  0.183091  0.316621  0.765858  1
  Tb  Tb6  1  0.183207  0.316685  0.233783  1
  Lu  Lu7  1  0.682940  0.182940  0.229345  1
  Mg  Mg8  1  0.999118  0.000421  0.499161  1
  Mg  Mg9  1  0.500421  0.499118  0.499161  1
  Si  Si10  1  0.114262  0.614262  0.499499  1
  Si  Si11  1  0.882994  0.382994  0.497262  1
  Si  Si12  1  0.386899  0.116479  0.497956  1
  Si  Si13  1  0.616479  0.886899  0.497956  1
  B  B14  1  0.173003  0.040398  0.000833  1
  B  B15  1  0.826035  0.961058  0.001090  1
  B  B16  1  0.959177  0.173860  0.000733  1
  B  B17  1  0.327015  0.539525  0.000724  1
  B  B18  1  0.039525  0.827015  0.000724  1
  B  B19  1  0.673860  0.459177  0.000733  1
  B  B20  1  0.540398  0.673003  0.000833  1
  B  B21  1  0.461058  0.326035  0.001090  1
  B  B22  1  0.089838  0.589838  0.000515  1
  B  B23  1  0.910070  0.410070  0.000240  1
  B  B24  1  0.410577  0.089901  0.001595  1
  B  B25  1  0.589901  0.910577  0.001595  1
  B  B26  1  0.998351  0.000888  0.162364  1
  B  B27  1  0.999828  0.000385  0.839454  1
  B  B28  1  0.500385  0.499828  0.839454  1
  B  B29  1  0.500888  0.498351  0.162364  1
