# generated using pymatgen
data_TbNd2Ga3(Ni3Sn)3
_symmetry_space_group_name_H-M   'P 1'
_cell_length_a   9.20826000
_cell_length_b   9.20825993
_cell_length_c   4.10278700
_cell_angle_alpha   90.00000000
_cell_angle_beta   90.00000000
_cell_angle_gamma   120.00000026
_symmetry_Int_Tables_number   1
_chemical_formula_structural   TbNd2Ga3(Ni3Sn)3
_chemical_formula_sum   'Tb1 Nd2 Ga3 Ni9 Sn3'
_cell_volume   301.27614418
_cell_formula_units_Z   1
loop_
 _symmetry_equiv_pos_site_id
 _symmetry_equiv_pos_as_xyz
  1  'x, y, z'
loop_
 _atom_site_type_symbol
 _atom_site_label
 _atom_site_symmetry_multiplicity
 _atom_site_fract_x
 _atom_site_fract_y
 _atom_site_fract_z
 _atom_site_occupancy
  Tb  Tb0  1  0.000000  0.000000  0.000000  1
  Nd  Nd1  1  0.333333  0.666667  0.500000  1
  Nd  Nd2  1  0.666667  0.333333  0.500000  1
  Ga  Ga3  1  0.742682  0.000000  0.500000  1
  Ga  Ga4  1  0.000000  0.742682  0.500000  1
  Ga  Ga5  1  0.257318  0.257318  0.500000  1
  Ni  Ni6  1  0.207820  0.364720  0.000000  1
  Ni  Ni7  1  0.635280  0.843100  0.000000  1
  Ni  Ni8  1  0.156900  0.792180  0.000000  1
  Ni  Ni9  1  0.843100  0.635280  0.000000  1
  Ni  Ni10  1  0.792180  0.156900  0.000000  1
  Ni  Ni11  1  0.364720  0.207820  0.000000  1
  Ni  Ni12  1  0.275940  0.000000  0.500000  1
  Ni  Ni13  1  0.000000  0.275940  0.500000  1
  Ni  Ni14  1  0.724060  0.724060  0.500000  1
  Sn  Sn15  1  0.465850  0.000000  0.000000  1
  Sn  Sn16  1  0.000000  0.465850  0.000000  1
  Sn  Sn17  1  0.534150  0.534150  0.000000  1
