# generated using pymatgen
data_YTmZn5Sn
_symmetry_space_group_name_H-M   'P 1'
_cell_length_a   8.32534379
_cell_length_b   8.32534346
_cell_length_c   8.96434400
_cell_angle_alpha   90.00000000
_cell_angle_beta   90.00000000
_cell_angle_gamma   149.79216991
_symmetry_Int_Tables_number   1
_chemical_formula_structural   YTmZn5Sn
_chemical_formula_sum   'Y2 Tm2 Zn10 Sn2'
_cell_volume   312.61514590
_cell_formula_units_Z   2
loop_
 _symmetry_equiv_pos_site_id
 _symmetry_equiv_pos_as_xyz
  1  'x, y, z'
loop_
 _atom_site_type_symbol
 _atom_site_label
 _atom_site_symmetry_multiplicity
 _atom_site_fract_x
 _atom_site_fract_y
 _atom_site_fract_z
 _atom_site_occupancy
  Y  Y0  1  0.000000  0.000000  0.500000  1
  Y  Y1  1  0.000000  0.000000  0.000000  1
  Tm  Tm2  1  0.203115  0.796885  0.250000  1
  Tm  Tm3  1  0.796885  0.203115  0.750000  1
  Zn  Zn4  1  0.812841  0.187159  0.390868  1
  Zn  Zn5  1  0.187159  0.812841  0.609132  1
  Zn  Zn6  1  0.812841  0.187159  0.109132  1
  Zn  Zn7  1  0.187159  0.812841  0.890868  1
  Zn  Zn8  1  0.656850  0.343150  0.480857  1
  Zn  Zn9  1  0.343150  0.656850  0.519143  1
  Zn  Zn10  1  0.656850  0.343150  0.019143  1
  Zn  Zn11  1  0.343150  0.656850  0.980857  1
  Zn  Zn12  1  0.391769  0.608231  0.250000  1
  Zn  Zn13  1  0.608231  0.391769  0.750000  1
  Sn  Sn14  1  0.553791  0.446209  0.250000  1
  Sn  Sn15  1  0.446209  0.553791  0.750000  1
