# generated using pymatgen
data_Zr7ScTi8(Si4Mo)4
_symmetry_space_group_name_H-M   'P 1'
_cell_length_a   6.59971609
_cell_length_b   6.76385125
_cell_length_c   12.99622926
_cell_angle_alpha   90.01576184
_cell_angle_beta   89.91659511
_cell_angle_gamma   89.99924228
_symmetry_Int_Tables_number   1
_chemical_formula_structural   Zr7ScTi8(Si4Mo)4
_chemical_formula_sum   'Zr7 Sc1 Ti8 Si16 Mo4'
_cell_volume   580.14451200
_cell_formula_units_Z   1
loop_
 _symmetry_equiv_pos_site_id
 _symmetry_equiv_pos_as_xyz
  1  'x, y, z'
loop_
 _atom_site_type_symbol
 _atom_site_label
 _atom_site_symmetry_multiplicity
 _atom_site_fract_x
 _atom_site_fract_y
 _atom_site_fract_z
 _atom_site_occupancy
  Zr  Zr0  1  0.498768  0.327966  0.094292  1
  Zr  Zr1  1  0.997625  0.172531  0.406151  1
  Zr  Zr2  1  0.503399  0.672334  0.593538  1
  Zr  Zr3  1  0.002626  0.826491  0.905925  1
  Zr  Zr4  1  0.502267  0.672882  0.906054  1
  Zr  Zr5  1  0.003516  0.827884  0.593821  1
  Zr  Zr6  1  0.496665  0.327879  0.405967  1
  Sc  Sc7  1  0.997218  0.172310  0.093956  1
  Ti  Ti8  1  0.833725  0.331130  0.625151  1
  Ti  Ti9  1  0.333813  0.168957  0.874838  1
  Ti  Ti10  1  0.168024  0.669208  0.125301  1
  Ti  Ti11  1  0.666282  0.830725  0.374721  1
  Ti  Ti12  1  0.165993  0.669116  0.374984  1
  Ti  Ti13  1  0.665671  0.829942  0.125238  1
  Ti  Ti14  1  0.832800  0.331639  0.874793  1
  Ti  Ti15  1  0.333585  0.169410  0.625002  1
  Si  Si16  1  0.668975  0.039761  0.539117  1
  Si  Si17  1  0.168564  0.459811  0.961123  1
  Si  Si18  1  0.330190  0.962150  0.039556  1
  Si  Si19  1  0.830924  0.539564  0.461008  1
  Si  Si20  1  0.330566  0.960016  0.461056  1
  Si  Si21  1  0.832707  0.538047  0.039683  1
  Si  Si22  1  0.667239  0.038571  0.960482  1
  Si  Si23  1  0.169337  0.460448  0.538972  1
  Si  Si24  1  0.534373  0.382026  0.749970  1
  Si  Si25  1  0.034683  0.118297  0.750305  1
  Si  Si26  1  0.464806  0.617823  0.250293  1
  Si  Si27  1  0.965826  0.882494  0.249342  1
  Si  Si28  1  0.796613  0.637620  0.750004  1
  Si  Si29  1  0.296777  0.862767  0.749968  1
  Si  Si30  1  0.201727  0.361373  0.248923  1
  Si  Si31  1  0.704965  0.137584  0.249275  1
  Mo  Mo32  1  0.660742  0.007109  0.750211  1
  Mo  Mo33  1  0.160828  0.493434  0.750163  1
  Mo  Mo34  1  0.339505  0.992868  0.250178  1
  Mo  Mo35  1  0.838678  0.507832  0.250639  1
