# generated using pymatgen
data_Hf18MnCr(Re3Rh)2
_symmetry_space_group_name_H-M   'P 1'
_cell_length_a   8.60421200
_cell_length_b   8.60421135
_cell_length_c   8.45043100
_cell_angle_alpha   90.00000000
_cell_angle_beta   90.00000000
_cell_angle_gamma   119.99999480
_symmetry_Int_Tables_number   1
_chemical_formula_structural   Hf18MnCr(Re3Rh)2
_chemical_formula_sum   'Hf18 Mn1 Cr1 Re6 Rh2'
_cell_volume   541.79087546
_cell_formula_units_Z   1
loop_
 _symmetry_equiv_pos_site_id
 _symmetry_equiv_pos_as_xyz
  1  'x, y, z'
loop_
 _atom_site_type_symbol
 _atom_site_label
 _atom_site_symmetry_multiplicity
 _atom_site_fract_x
 _atom_site_fract_y
 _atom_site_fract_z
 _atom_site_occupancy
  Hf  Hf0  1  0.193793  0.806207  0.444708  1
  Hf  Hf1  1  0.193793  0.387589  0.444708  1
  Hf  Hf2  1  0.612411  0.806207  0.444708  1
  Hf  Hf3  1  0.806207  0.193793  0.555292  1
  Hf  Hf4  1  0.806207  0.612411  0.555292  1
  Hf  Hf5  1  0.387589  0.193793  0.555292  1
  Hf  Hf6  1  0.805198  0.194802  0.945024  1
  Hf  Hf7  1  0.805198  0.610395  0.945024  1
  Hf  Hf8  1  0.389605  0.194802  0.945024  1
  Hf  Hf9  1  0.194802  0.805198  0.054976  1
  Hf  Hf10  1  0.194802  0.389605  0.054976  1
  Hf  Hf11  1  0.610395  0.805198  0.054976  1
  Hf  Hf12  1  0.543206  0.456794  0.250532  1
  Hf  Hf13  1  0.543206  0.086413  0.250532  1
  Hf  Hf14  1  0.913587  0.456794  0.250532  1
  Hf  Hf15  1  0.456794  0.543206  0.749468  1
  Hf  Hf16  1  0.456794  0.913587  0.749468  1
  Hf  Hf17  1  0.086413  0.543206  0.749468  1
  Mn  Mn18  1  0.000000  0.000000  0.500000  1
  Cr  Cr19  1  0.000000  0.000000  0.000000  1
  Re  Re20  1  0.891626  0.108374  0.249393  1
  Re  Re21  1  0.891626  0.783254  0.249393  1
  Re  Re22  1  0.216746  0.108374  0.249393  1
  Re  Re23  1  0.108374  0.891626  0.750607  1
  Re  Re24  1  0.108374  0.216746  0.750607  1
  Re  Re25  1  0.783254  0.891626  0.750607  1
  Rh  Rh26  1  0.333333  0.666667  0.251388  1
  Rh  Rh27  1  0.666667  0.333333  0.748612  1
