# generated using pymatgen
data_LaPr(ZnIr)2
_symmetry_space_group_name_H-M   'P 1'
_cell_length_a   4.09422900
_cell_length_b   7.36525263
_cell_length_c   16.66838595
_cell_angle_alpha   89.99575712
_cell_angle_beta   90.00000000
_cell_angle_gamma   90.00000000
_symmetry_Int_Tables_number   1
_chemical_formula_structural   LaPr(ZnIr)2
_chemical_formula_sum   'La4 Pr4 Zn8 Ir8'
_cell_volume   502.63569207
_cell_formula_units_Z   4
loop_
 _symmetry_equiv_pos_site_id
 _symmetry_equiv_pos_as_xyz
  1  'x, y, z'
loop_
 _atom_site_type_symbol
 _atom_site_label
 _atom_site_symmetry_multiplicity
 _atom_site_fract_x
 _atom_site_fract_y
 _atom_site_fract_z
 _atom_site_occupancy
  La  La0  1  0.750000  0.453724  0.217444  1
  La  La1  1  0.750000  0.953550  0.283518  1
  La  La2  1  0.750000  0.831618  0.059338  1
  La  La3  1  0.250000  0.045923  0.717079  1
  Pr  Pr4  1  0.250000  0.167923  0.939686  1
  Pr  Pr5  1  0.250000  0.546319  0.783042  1
  Pr  Pr6  1  0.750000  0.332924  0.440772  1
  Pr  Pr7  1  0.250000  0.667118  0.559821  1
  Zn  Zn8  1  0.250000  0.999329  0.441166  1
  Zn  Zn9  1  0.750000  0.500017  0.938995  1
  Zn  Zn10  1  0.750000  0.000827  0.559337  1
  Zn  Zn11  1  0.250000  0.625479  0.351810  1
  Zn  Zn12  1  0.750000  0.375738  0.649782  1
  Zn  Zn13  1  0.750000  0.872424  0.850845  1
  Zn  Zn14  1  0.250000  0.496077  0.059325  1
  Zn  Zn15  1  0.250000  0.127324  0.149446  1
  Ir  Ir16  1  0.250000  0.242631  0.566006  1
  Ir  Ir17  1  0.750000  0.259445  0.065853  1
  Ir  Ir18  1  0.250000  0.244519  0.312552  1
  Ir  Ir19  1  0.750000  0.253799  0.812283  1
  Ir  Ir20  1  0.250000  0.742366  0.935871  1
  Ir  Ir21  1  0.750000  0.757420  0.686517  1
  Ir  Ir22  1  0.750000  0.758706  0.433841  1
  Ir  Ir23  1  0.250000  0.744797  0.185673  1
