# generated using pymatgen
data_DyHo3FeSi4Rh
_symmetry_space_group_name_H-M   'P 1'
_cell_length_a   5.65260979
_cell_length_b   5.65260926
_cell_length_c   10.04488890
_cell_angle_alpha   63.25221875
_cell_angle_beta   63.25221967
_cell_angle_gamma   43.36847874
_symmetry_Int_Tables_number   1
_chemical_formula_structural   DyHo3FeSi4Rh
_chemical_formula_sum   'Dy1 Ho3 Fe1 Si4 Rh1'
_cell_volume   192.81961707
_cell_formula_units_Z   1
loop_
 _symmetry_equiv_pos_site_id
 _symmetry_equiv_pos_as_xyz
  1  'x, y, z'
loop_
 _atom_site_type_symbol
 _atom_site_label
 _atom_site_symmetry_multiplicity
 _atom_site_fract_x
 _atom_site_fract_y
 _atom_site_fract_z
 _atom_site_occupancy
  Dy  Dy0  1  0.186270  0.186270  0.890202  1
  Ho  Ho1  1  0.002696  0.002696  0.324562  1
  Ho  Ho2  1  0.999280  0.999280  0.672875  1
  Ho  Ho3  1  0.813167  0.813167  0.108364  1
  Fe  Fe4  1  0.273423  0.273423  0.377124  1
  Si  Si5  1  0.652370  0.652370  0.430390  1
  Si  Si6  1  0.359241  0.359241  0.558440  1
  Si  Si7  1  0.500103  0.500103  0.128164  1
  Si  Si8  1  0.487133  0.487133  0.881447  1
  Rh  Rh9  1  0.726317  0.726317  0.628431  1
