# generated using pymatgen
data_Ti3MnTc2P3
_symmetry_space_group_name_H-M   'P 1'
_cell_length_a   6.52722969
_cell_length_b   6.52722923
_cell_length_c   3.30821000
_cell_angle_alpha   90.00000000
_cell_angle_beta   90.00000000
_cell_angle_gamma   120.63964937
_symmetry_Int_Tables_number   1
_chemical_formula_structural   Ti3MnTc2P3
_chemical_formula_sum   'Ti3 Mn1 Tc2 P3'
_cell_volume   121.26792927
_cell_formula_units_Z   1
loop_
 _symmetry_equiv_pos_site_id
 _symmetry_equiv_pos_as_xyz
  1  'x, y, z'
loop_
 _atom_site_type_symbol
 _atom_site_label
 _atom_site_symmetry_multiplicity
 _atom_site_fract_x
 _atom_site_fract_y
 _atom_site_fract_z
 _atom_site_occupancy
  Ti  Ti0  1  0.594740  0.998745  0.000000  1
  Ti  Ti1  1  0.998745  0.594740  0.000000  1
  Ti  Ti2  1  0.410482  0.410482  0.000000  1
  Mn  Mn3  1  0.746028  0.746028  0.500000  1
  Tc  Tc4  1  0.254333  0.001911  0.500000  1
  Tc  Tc5  1  0.001911  0.254333  0.500000  1
  P  P6  1  0.345468  0.671353  0.500000  1
  P  P7  1  0.671353  0.345468  0.500000  1
  P  P8  1  0.976940  0.976940  0.000000  1
