# generated using pymatgen
data_RbNaTa3Cl9
_symmetry_space_group_name_H-M   'P 1'
_cell_length_a   9.64762055
_cell_length_b   9.80290904
_cell_length_c   9.81888388
_cell_angle_alpha   118.84400856
_cell_angle_beta   98.25636404
_cell_angle_gamma   105.01984287
_symmetry_Int_Tables_number   1
_chemical_formula_structural   RbNaTa3Cl9
_chemical_formula_sum   'Rb2 Na2 Ta6 Cl18'
_cell_volume   744.96686346
_cell_formula_units_Z   2
loop_
 _symmetry_equiv_pos_site_id
 _symmetry_equiv_pos_as_xyz
  1  'x, y, z'
loop_
 _atom_site_type_symbol
 _atom_site_label
 _atom_site_symmetry_multiplicity
 _atom_site_fract_x
 _atom_site_fract_y
 _atom_site_fract_z
 _atom_site_occupancy
  Rb  Rb0  1  0.328183  0.478552  0.267023  1
  Rb  Rb1  1  0.671817  0.521448  0.732977  1
  Na  Na2  1  0.643955  0.204477  0.055804  1
  Na  Na3  1  0.356045  0.795523  0.944196  1
  Ta  Ta4  1  0.124870  0.894179  0.357035  1
  Ta  Ta5  1  0.863607  0.766501  0.436924  1
  Ta  Ta6  1  0.859558  0.972805  0.303354  1
  Ta  Ta7  1  0.875130  0.105821  0.642965  1
  Ta  Ta8  1  0.136393  0.233499  0.563076  1
  Ta  Ta9  1  0.140442  0.027195  0.696646  1
  Cl  Cl10  1  0.681130  0.468049  0.357907  1
  Cl  Cl11  1  0.674403  0.930522  0.045796  1
  Cl  Cl12  1  0.329619  0.314137  0.813506  1
  Cl  Cl13  1  0.670381  0.685863  0.186494  1
  Cl  Cl14  1  0.282312  0.756351  0.178830  1
  Cl  Cl15  1  0.683954  0.091337  0.434181  1
  Cl  Cl16  1  0.318870  0.531951  0.642093  1
  Cl  Cl17  1  0.985378  0.594971  0.255523  1
  Cl  Cl18  1  0.688347  0.846207  0.595104  1
  Cl  Cl19  1  0.717688  0.243649  0.821170  1
  Cl  Cl20  1  0.004929  0.753249  0.659572  1
  Cl  Cl21  1  0.017795  0.155843  0.905229  1
  Cl  Cl22  1  0.995071  0.246751  0.340428  1
  Cl  Cl23  1  0.311653  0.153793  0.404896  1
  Cl  Cl24  1  0.325597  0.069478  0.954204  1
  Cl  Cl25  1  0.014622  0.405029  0.744477  1
  Cl  Cl26  1  0.982205  0.844157  0.094771  1
  Cl  Cl27  1  0.316046  0.908663  0.565819  1
