# generated using pymatgen
data_Tb3YPd2(PtO7)2
_symmetry_space_group_name_H-M   'P 1'
_cell_length_a   7.28364820
_cell_length_b   7.27417643
_cell_length_c   7.27950441
_cell_angle_alpha   60.02420626
_cell_angle_beta   60.03295309
_cell_angle_gamma   60.04300508
_symmetry_Int_Tables_number   1
_chemical_formula_structural   Tb3YPd2(PtO7)2
_chemical_formula_sum   'Tb3 Y1 Pd2 Pt2 O14'
_cell_volume   272.92803493
_cell_formula_units_Z   1
loop_
 _symmetry_equiv_pos_site_id
 _symmetry_equiv_pos_as_xyz
  1  'x, y, z'
loop_
 _atom_site_type_symbol
 _atom_site_label
 _atom_site_symmetry_multiplicity
 _atom_site_fract_x
 _atom_site_fract_y
 _atom_site_fract_z
 _atom_site_occupancy
  Tb  Tb0  1  0.125000  0.625000  0.125000  1
  Tb  Tb1  1  0.625000  0.125000  0.125000  1
  Tb  Tb2  1  0.125000  0.125000  0.125000  1
  Y  Y3  1  0.125000  0.125000  0.625000  1
  Pd  Pd4  1  0.125000  0.625000  0.625000  1
  Pd  Pd5  1  0.625000  0.625000  0.125000  1
  Pt  Pt6  1  0.625000  0.625000  0.625000  1
  Pt  Pt7  1  0.625000  0.125000  0.625000  1
  O  O8  1  0.286134  0.715372  0.714760  1
  O  O9  1  0.535082  0.966230  0.963941  1
  O  O10  1  0.714918  0.715254  0.286059  1
  O  O11  1  0.286134  0.283734  0.714760  1
  O  O12  1  0.000188  0.000506  0.998800  1
  O  O13  1  0.285262  0.714775  0.285189  1
  O  O14  1  0.715780  0.284377  0.715466  1
  O  O15  1  0.964738  0.535225  0.964811  1
  O  O16  1  0.535082  0.534746  0.963941  1
  O  O17  1  0.963866  0.966266  0.535240  1
  O  O18  1  0.249812  0.249494  0.251200  1
  O  O19  1  0.534220  0.965623  0.534534  1
  O  O20  1  0.714918  0.283770  0.286059  1
  O  O21  1  0.963866  0.534628  0.535240  1
