# generated using pymatgen
data_Cs2Ti(SiO3)3
_symmetry_space_group_name_H-M   'P 1'
_cell_length_a   7.15441300
_cell_length_b   7.15441326
_cell_length_c   10.16192700
_cell_angle_alpha   90.00000000
_cell_angle_beta   90.00000000
_cell_angle_gamma   119.99999416
_symmetry_Int_Tables_number   1
_chemical_formula_structural   Cs2Ti(SiO3)3
_chemical_formula_sum   'Cs4 Ti2 Si6 O18'
_cell_volume   450.45847039
_cell_formula_units_Z   2
loop_
 _symmetry_equiv_pos_site_id
 _symmetry_equiv_pos_as_xyz
  1  'x, y, z'
loop_
 _atom_site_type_symbol
 _atom_site_label
 _atom_site_symmetry_multiplicity
 _atom_site_fract_x
 _atom_site_fract_y
 _atom_site_fract_z
 _atom_site_occupancy
  Cs  Cs0  1  0.333333  0.666667  0.436879  1
  Cs  Cs1  1  0.666667  0.333333  0.936879  1
  Cs  Cs2  1  0.666667  0.333333  0.563121  1
  Cs  Cs3  1  0.333333  0.666667  0.063121  1
  Ti  Ti4  1  0.000000  0.000000  0.500000  1
  Ti  Ti5  1  0.000000  0.000000  0.000000  1
  Si  Si6  1  0.619289  0.774417  0.750000  1
  Si  Si7  1  0.844871  0.619289  0.250000  1
  Si  Si8  1  0.774417  0.155129  0.250000  1
  Si  Si9  1  0.225583  0.844871  0.750000  1
  Si  Si10  1  0.155129  0.380711  0.750000  1
  Si  Si11  1  0.380711  0.225583  0.250000  1
  O  O12  1  0.249876  0.185807  0.386424  1
  O  O13  1  0.064069  0.249876  0.886424  1
  O  O14  1  0.185807  0.935931  0.886424  1
  O  O15  1  0.814193  0.064069  0.386424  1
  O  O16  1  0.935931  0.750124  0.386424  1
  O  O17  1  0.750124  0.814193  0.886424  1
  O  O18  1  0.750124  0.814193  0.613576  1
  O  O19  1  0.935931  0.750124  0.113576  1
  O  O20  1  0.814193  0.064069  0.113576  1
  O  O21  1  0.185807  0.935931  0.613576  1
  O  O22  1  0.064069  0.249876  0.613576  1
  O  O23  1  0.249876  0.185807  0.113576  1
  O  O24  1  0.513203  0.088512  0.250000  1
  O  O25  1  0.424692  0.513203  0.750000  1
  O  O26  1  0.088512  0.575308  0.750000  1
  O  O27  1  0.911488  0.424692  0.250000  1
  O  O28  1  0.575308  0.486797  0.250000  1
  O  O29  1  0.486797  0.911488  0.750000  1
