# generated using pymatgen
data_Nd4Ga24CoPt
_symmetry_space_group_name_H-M   'P 1'
_cell_length_a   6.12215100
_cell_length_b   6.12215100
_cell_length_c   15.53403400
_cell_angle_alpha   90.00000000
_cell_angle_beta   90.00000000
_cell_angle_gamma   90.00000000
_symmetry_Int_Tables_number   1
_chemical_formula_structural   Nd4Ga24CoPt
_chemical_formula_sum   'Nd4 Ga24 Co1 Pt1'
_cell_volume   582.22697870
_cell_formula_units_Z   1
loop_
 _symmetry_equiv_pos_site_id
 _symmetry_equiv_pos_as_xyz
  1  'x, y, z'
loop_
 _atom_site_type_symbol
 _atom_site_label
 _atom_site_symmetry_multiplicity
 _atom_site_fract_x
 _atom_site_fract_y
 _atom_site_fract_z
 _atom_site_occupancy
  Nd  Nd0  1  0.750000  0.250000  0.245150  1
  Nd  Nd1  1  0.250000  0.750000  0.240043  1
  Nd  Nd2  1  0.250000  0.750000  0.759957  1
  Nd  Nd3  1  0.750000  0.250000  0.754850  1
  Ga  Ga4  1  0.250000  0.250000  0.185871  1
  Ga  Ga5  1  0.750000  0.750000  0.185871  1
  Ga  Ga6  1  0.750000  0.750000  0.814129  1
  Ga  Ga7  1  0.250000  0.250000  0.814129  1
  Ga  Ga8  1  0.250000  0.250000  0.345084  1
  Ga  Ga9  1  0.750000  0.750000  0.345084  1
  Ga  Ga10  1  0.750000  0.750000  0.654916  1
  Ga  Ga11  1  0.250000  0.250000  0.654916  1
  Ga  Ga12  1  0.510083  0.010083  0.914736  1
  Ga  Ga13  1  0.990017  0.009983  0.915013  1
  Ga  Ga14  1  0.509983  0.490017  0.915013  1
  Ga  Ga15  1  0.989917  0.489917  0.914736  1
  Ga  Ga16  1  0.509983  0.009983  0.084987  1
  Ga  Ga17  1  0.989917  0.010083  0.085264  1
  Ga  Ga18  1  0.510083  0.489917  0.085264  1
  Ga  Ga19  1  0.990017  0.490017  0.084987  1
  Ga  Ga20  1  0.581156  0.081156  0.431985  1
  Ga  Ga21  1  0.083540  0.916460  0.430449  1
  Ga  Ga22  1  0.416460  0.583540  0.430449  1
  Ga  Ga23  1  0.918844  0.418844  0.431985  1
  Ga  Ga24  1  0.416460  0.916460  0.569551  1
  Ga  Ga25  1  0.918844  0.081156  0.568015  1
  Ga  Ga26  1  0.581156  0.418844  0.568015  1
  Ga  Ga27  1  0.083540  0.583540  0.569551  1
  Co  Co28  1  0.750000  0.250000  0.000000  1
  Pt  Pt29  1  0.250000  0.750000  0.000000  1
