# generated using pymatgen
data_Tb3Sm6Tm11Pb16
_symmetry_space_group_name_H-M   'P 1'
_cell_length_a   8.20196045
_cell_length_b   8.31819377
_cell_length_c   15.65660700
_cell_angle_alpha   90.14004710
_cell_angle_beta   89.98096418
_cell_angle_gamma   90.15114202
_symmetry_Int_Tables_number   1
_chemical_formula_structural   Tb3Sm6Tm11Pb16
_chemical_formula_sum   'Tb3 Sm6 Tm11 Pb16'
_cell_volume   1068.17281974
_cell_formula_units_Z   1
loop_
 _symmetry_equiv_pos_site_id
 _symmetry_equiv_pos_as_xyz
  1  'x, y, z'
loop_
 _atom_site_type_symbol
 _atom_site_label
 _atom_site_symmetry_multiplicity
 _atom_site_fract_x
 _atom_site_fract_y
 _atom_site_fract_z
 _atom_site_occupancy
  Tb  Tb0  1  0.131841  0.341933  0.622148  1
  Tb  Tb1  1  0.471793  0.678768  0.598069  1
  Tb  Tb2  1  0.972390  0.822081  0.902112  1
  Sm  Sm3  1  0.525951  0.321399  0.096814  1
  Sm  Sm4  1  0.026675  0.177572  0.401932  1
  Sm  Sm5  1  0.525618  0.322804  0.402958  1
  Sm  Sm6  1  0.025778  0.177189  0.097064  1
  Sm  Sm7  1  0.475633  0.678863  0.903458  1
  Sm  Sm8  1  0.974472  0.821946  0.597301  1
  Tm  Tm9  1  0.634244  0.158201  0.622768  1
  Tm  Tm10  1  0.134070  0.342109  0.877344  1
  Tm  Tm11  1  0.366677  0.842200  0.122462  1
  Tm  Tm12  1  0.867495  0.657541  0.377578  1
  Tm  Tm13  1  0.367665  0.842122  0.376979  1
  Tm  Tm14  1  0.867405  0.658065  0.122630  1
  Tm  Tm15  1  0.632850  0.157073  0.877696  1
  Tm  Tm16  1  0.799594  0.495159  0.750347  1
  Tm  Tm17  1  0.300422  0.004850  0.750419  1
  Tm  Tm18  1  0.200273  0.505571  0.249780  1
  Tm  Tm19  1  0.700105  0.994679  0.249823  1
  Pb  Pb20  1  0.708311  0.960300  0.456886  1
  Pb  Pb21  1  0.207589  0.539803  0.043038  1
  Pb  Pb22  1  0.289677  0.038086  0.956636  1
  Pb  Pb23  1  0.786923  0.463883  0.543547  1
  Pb  Pb24  1  0.294326  0.037566  0.542889  1
  Pb  Pb25  1  0.793983  0.460435  0.956869  1
  Pb  Pb26  1  0.709145  0.957878  0.042178  1
  Pb  Pb27  1  0.209304  0.542077  0.456706  1
  Pb  Pb28  1  0.438948  0.373650  0.750415  1
  Pb  Pb29  1  0.937171  0.125512  0.751019  1
  Pb  Pb30  1  0.562290  0.627339  0.249786  1
  Pb  Pb31  1  0.062032  0.872564  0.250119  1
  Pb  Pb32  1  0.661740  0.846081  0.749381  1
  Pb  Pb33  1  0.162021  0.654560  0.751243  1
  Pb  Pb34  1  0.337977  0.153313  0.249811  1
  Pb  Pb35  1  0.837614  0.346824  0.249795  1
