# generated using pymatgen
data_Y11Zr(Si3Os)4
_symmetry_space_group_name_H-M   'P 1'
_cell_length_a   4.22018500
_cell_length_b   10.82566364
_cell_length_c   12.26059000
_cell_angle_alpha   90.04698231
_cell_angle_beta   90.00000000
_cell_angle_gamma   90.00000000
_symmetry_Int_Tables_number   1
_chemical_formula_structural   Y11Zr(Si3Os)4
_chemical_formula_sum   'Y11 Zr1 Si12 Os4'
_cell_volume   560.14084514
_cell_formula_units_Z   1
loop_
 _symmetry_equiv_pos_site_id
 _symmetry_equiv_pos_as_xyz
  1  'x, y, z'
loop_
 _atom_site_type_symbol
 _atom_site_label
 _atom_site_symmetry_multiplicity
 _atom_site_fract_x
 _atom_site_fract_y
 _atom_site_fract_z
 _atom_site_occupancy
  Y  Y0  1  0.250000  0.620470  0.521074  1
  Y  Y1  1  0.750000  0.119785  0.979966  1
  Y  Y2  1  0.750000  0.379897  0.478569  1
  Y  Y3  1  0.250000  0.920091  0.606373  1
  Y  Y4  1  0.250000  0.583508  0.103904  1
  Y  Y5  1  0.750000  0.078730  0.392310  1
  Y  Y6  1  0.750000  0.419799  0.895533  1
  Y  Y7  1  0.250000  0.660635  0.802394  1
  Y  Y8  1  0.250000  0.838166  0.299785  1
  Y  Y9  1  0.750000  0.340478  0.199346  1
  Y  Y10  1  0.750000  0.158772  0.700536  1
  Zr  Zr11  1  0.250000  0.879262  0.021034  1
  Si  Si12  1  0.250000  0.004859  0.826873  1
  Si  Si13  1  0.250000  0.493608  0.319283  1
  Si  Si14  1  0.750000  0.986655  0.175227  1
  Si  Si15  1  0.750000  0.508359  0.679666  1
  Si  Si16  1  0.250000  0.249315  0.840459  1
  Si  Si17  1  0.250000  0.248789  0.338164  1
  Si  Si18  1  0.750000  0.755384  0.157515  1
  Si  Si19  1  0.750000  0.750061  0.661448  1
  Si  Si20  1  0.250000  0.203650  0.544707  1
  Si  Si21  1  0.250000  0.296437  0.044814  1
  Si  Si22  1  0.750000  0.796352  0.455669  1
  Si  Si23  1  0.750000  0.711585  0.957752  1
  Os  Os24  1  0.250000  0.389760  0.680645  1
  Os  Os25  1  0.250000  0.104735  0.176836  1
  Os  Os26  1  0.750000  0.611780  0.316398  1
  Os  Os27  1  0.750000  0.889078  0.823719  1
