# generated using pymatgen
data_Nb4Al2(VZn)3
_symmetry_space_group_name_H-M   'P 1'
_cell_length_a   5.00572300
_cell_length_b   5.00572301
_cell_length_c   8.52595900
_cell_angle_alpha   90.00000000
_cell_angle_beta   90.00000000
_cell_angle_gamma   120.00000657
_symmetry_Int_Tables_number   1
_chemical_formula_structural   Nb4Al2(VZn)3
_chemical_formula_sum   'Nb4 Al2 V3 Zn3'
_cell_volume   185.01522591
_cell_formula_units_Z   1
loop_
 _symmetry_equiv_pos_site_id
 _symmetry_equiv_pos_as_xyz
  1  'x, y, z'
loop_
 _atom_site_type_symbol
 _atom_site_label
 _atom_site_symmetry_multiplicity
 _atom_site_fract_x
 _atom_site_fract_y
 _atom_site_fract_z
 _atom_site_occupancy
  Nb  Nb0  1  0.333333  0.666667  0.436062  1
  Nb  Nb1  1  0.666667  0.333333  0.553067  1
  Nb  Nb2  1  0.666667  0.333333  0.946933  1
  Nb  Nb3  1  0.333333  0.666667  0.063938  1
  Al  Al4  1  0.000000  0.000000  0.503161  1
  Al  Al5  1  0.000000  0.000000  0.996839  1
  V  V6  1  0.828025  0.171975  0.250000  1
  V  V7  1  0.828025  0.656049  0.250000  1
  V  V8  1  0.343951  0.171975  0.250000  1
  Zn  Zn9  1  0.171468  0.828532  0.750000  1
  Zn  Zn10  1  0.171468  0.342936  0.750000  1
  Zn  Zn11  1  0.657064  0.828532  0.750000  1
