# generated using pymatgen
data_LiCe5Se8
_symmetry_space_group_name_H-M   'P 1'
_cell_length_a   7.69232361
_cell_length_b   7.69700879
_cell_length_c   7.70613174
_cell_angle_alpha   109.90989862
_cell_angle_beta   108.61450619
_cell_angle_gamma   109.88152494
_symmetry_Int_Tables_number   1
_chemical_formula_structural   LiCe5Se8
_chemical_formula_sum   'Li1 Ce5 Se8'
_cell_volume   351.22173084
_cell_formula_units_Z   1
loop_
 _symmetry_equiv_pos_site_id
 _symmetry_equiv_pos_as_xyz
  1  'x, y, z'
loop_
 _atom_site_type_symbol
 _atom_site_label
 _atom_site_symmetry_multiplicity
 _atom_site_fract_x
 _atom_site_fract_y
 _atom_site_fract_z
 _atom_site_occupancy
  Li  Li0  1  0.874825  0.749907  0.124561  1
  Ce  Ce1  1  0.121257  0.372306  0.246325  1
  Ce  Ce2  1  0.624031  0.249385  0.375333  1
  Ce  Ce3  1  0.754341  0.875172  0.626533  1
  Ce  Ce4  1  0.374055  0.127645  0.748456  1
  Ce  Ce5  1  0.251268  0.624862  0.878775  1
  Se  Se6  1  0.148722  0.997489  0.005901  1
  Se  Se7  1  0.644344  0.006336  0.996397  1
  Se  Se8  1  0.508182  0.501822  0.150063  1
  Se  Se9  1  0.361714  0.852048  0.356019  1
  Se  Se10  1  0.994009  0.142325  0.491635  1
  Se  Se11  1  0.003895  0.648037  0.510010  1
  Se  Se12  1  0.489937  0.494683  0.638401  1
  Se  Se13  1  0.849420  0.357985  0.851590  1
