# generated using pymatgen
data_Nd2Er4Al24Os5Pd3
_symmetry_space_group_name_H-M   'P 1'
_cell_length_a   8.87121119
_cell_length_b   8.86251104
_cell_length_c   9.56421651
_cell_angle_alpha   89.85100186
_cell_angle_beta   89.77184982
_cell_angle_gamma   119.60861403
_symmetry_Int_Tables_number   1
_chemical_formula_structural   Nd2Er4Al24Os5Pd3
_chemical_formula_sum   'Nd2 Er4 Al24 Os5 Pd3'
_cell_volume   653.74687223
_cell_formula_units_Z   1
loop_
 _symmetry_equiv_pos_site_id
 _symmetry_equiv_pos_as_xyz
  1  'x, y, z'
loop_
 _atom_site_type_symbol
 _atom_site_label
 _atom_site_symmetry_multiplicity
 _atom_site_fract_x
 _atom_site_fract_y
 _atom_site_fract_z
 _atom_site_occupancy
  Nd  Nd0  1  0.185130  0.375685  0.250799  1
  Nd  Nd1  1  0.814870  0.624315  0.749201  1
  Er  Er2  1  0.613291  0.815682  0.252491  1
  Er  Er3  1  0.386709  0.184318  0.747509  1
  Er  Er4  1  0.195713  0.810162  0.251587  1
  Er  Er5  1  0.804287  0.189838  0.748413  1
  Al  Al6  1  0.336220  0.672142  0.027589  1
  Al  Al7  1  0.663780  0.327858  0.972411  1
  Al  Al8  1  0.670266  0.331646  0.525159  1
  Al  Al9  1  0.329734  0.668354  0.474841  1
  Al  Al10  1  0.156934  0.324484  0.577339  1
  Al  Al11  1  0.843066  0.675516  0.422661  1
  Al  Al12  1  0.675046  0.843157  0.575387  1
  Al  Al13  1  0.837228  0.677958  0.081235  1
  Al  Al14  1  0.324954  0.156843  0.424613  1
  Al  Al15  1  0.162772  0.322042  0.918765  1
  Al  Al16  1  0.165633  0.836356  0.573938  1
  Al  Al17  1  0.325422  0.157248  0.074953  1
  Al  Al18  1  0.834367  0.163644  0.426062  1
  Al  Al19  1  0.674578  0.842752  0.925047  1
  Al  Al20  1  0.830521  0.157549  0.076315  1
  Al  Al21  1  0.169479  0.842451  0.923685  1
  Al  Al22  1  0.560388  0.124100  0.249257  1
  Al  Al23  1  0.439612  0.875900  0.750743  1
  Al  Al24  1  0.873637  0.438750  0.253102  1
  Al  Al25  1  0.126363  0.561250  0.746898  1
  Al  Al26  1  0.563981  0.438552  0.249520  1
  Al  Al27  1  0.436019  0.561448  0.750480  1
  Al  Al28  1  0.994384  0.994370  0.250346  1
  Al  Al29  1  0.005616  0.005630  0.749654  1
  Os  Os30  1  0.500000  0.000000  0.000000  1
  Os  Os31  1  0.500000  0.000000  0.500000  1
  Os  Os32  1  0.000000  0.500000  0.500000  1
  Os  Os33  1  0.000000  0.000000  0.000000  1
  Os  Os34  1  0.000000  0.000000  0.500000  1
  Pd  Pd35  1  0.000000  0.500000  0.000000  1
  Pd  Pd36  1  0.500000  0.500000  0.000000  1
  Pd  Pd37  1  0.500000  0.500000  0.500000  1
