# generated using pymatgen
data_NaB12PC
_symmetry_space_group_name_H-M   'P 1'
_cell_length_a   7.18799625
_cell_length_b   7.18799680
_cell_length_c   7.18799602
_cell_angle_alpha   132.68740052
_cell_angle_beta   110.19869008
_cell_angle_gamma   88.66633351
_symmetry_Int_Tables_number   1
_chemical_formula_structural   NaB12PC
_chemical_formula_sum   'Na2 B24 P2 C2'
_cell_volume   243.94550236
_cell_formula_units_Z   2
loop_
 _symmetry_equiv_pos_site_id
 _symmetry_equiv_pos_as_xyz
  1  'x, y, z'
loop_
 _atom_site_type_symbol
 _atom_site_label
 _atom_site_symmetry_multiplicity
 _atom_site_fract_x
 _atom_site_fract_y
 _atom_site_fract_z
 _atom_site_occupancy
  Na  Na0  1  0.080074  0.743654  0.836421  1
  Na  Na1  1  0.907234  0.243654  0.163579  1
  B  B2  1  0.867391  0.832752  0.534639  1
  B  B3  1  0.298114  0.332752  0.465361  1
  B  B4  1  0.142471  0.166469  0.476001  1
  B  B5  1  0.690467  0.666469  0.523999  1
  B  B6  1  0.268778  0.090341  0.678437  1
  B  B7  1  0.411903  0.590341  0.321563  1
  B  B8  1  0.754896  0.911509  0.343387  1
  B  B9  1  0.568122  0.411509  0.656613  1
  B  B10  1  0.107055  0.781661  0.506916  1
  B  B11  1  0.274745  0.600139  0.493084  1
  B  B12  1  0.274745  0.281661  0.174607  1
  B  B13  1  0.107055  0.100139  0.825393  1
  B  B14  1  0.899732  0.220996  0.504661  1
  B  B15  1  0.716336  0.395071  0.495339  1
  B  B16  1  0.716336  0.720996  0.821265  1
  B  B17  1  0.899732  0.895071  0.178735  1
  B  B18  1  0.135048  0.825086  0.296500  1
  B  B19  1  0.528585  0.838547  0.703500  1
  B  B20  1  0.528585  0.325086  0.190038  1
  B  B21  1  0.135048  0.338547  0.809962  1
  B  B22  1  0.883541  0.163935  0.706269  1
  B  B23  1  0.457666  0.177272  0.293731  1
  B  B24  1  0.457666  0.663935  0.780394  1
  B  B25  1  0.883541  0.677272  0.219606  1
  P  P26  1  0.464887  0.829733  0.135154  1
  P  P27  1  0.694579  0.329733  0.864846  1
  C  C28  1  0.515485  0.145764  0.869721  1
  C  C29  1  0.276043  0.645764  0.130279  1
