# generated using pymatgen
data_Zr3PRu3Pt2
_symmetry_space_group_name_H-M   'P 1'
_cell_length_a   7.28374900
_cell_length_b   7.28374780
_cell_length_c   3.27448400
_cell_angle_alpha   90.00000000
_cell_angle_beta   90.00000000
_cell_angle_gamma   120.00000997
_symmetry_Int_Tables_number   1
_chemical_formula_structural   Zr3PRu3Pt2
_chemical_formula_sum   'Zr3 P1 Ru3 Pt2'
_cell_volume   150.44693084
_cell_formula_units_Z   1
loop_
 _symmetry_equiv_pos_site_id
 _symmetry_equiv_pos_as_xyz
  1  'x, y, z'
loop_
 _atom_site_type_symbol
 _atom_site_label
 _atom_site_symmetry_multiplicity
 _atom_site_fract_x
 _atom_site_fract_y
 _atom_site_fract_z
 _atom_site_occupancy
  Zr  Zr0  1  0.392473  0.392473  0.500000  1
  Zr  Zr1  1  0.607527  0.000000  0.500000  1
  Zr  Zr2  1  0.000000  0.607527  0.500000  1
  P  P3  1  0.000000  0.000000  0.500000  1
  Ru  Ru4  1  0.766982  0.766982  0.000000  1
  Ru  Ru5  1  0.233018  0.000000  0.000000  1
  Ru  Ru6  1  0.000000  0.233018  0.000000  1
  Pt  Pt7  1  0.666667  0.333333  0.000000  1
  Pt  Pt8  1  0.333333  0.666667  0.000000  1
