# generated using pymatgen
data_ErUBIr6
_symmetry_space_group_name_H-M   'P 1'
_cell_length_a   5.82759138
_cell_length_b   5.82759179
_cell_length_c   5.82759200
_cell_angle_alpha   59.99999878
_cell_angle_beta   59.99999649
_cell_angle_gamma   60.00000651
_symmetry_Int_Tables_number   1
_chemical_formula_structural   ErUBIr6
_chemical_formula_sum   'Er1 U1 B1 Ir6'
_cell_volume   139.94338068
_cell_formula_units_Z   1
loop_
 _symmetry_equiv_pos_site_id
 _symmetry_equiv_pos_as_xyz
  1  'x, y, z'
loop_
 _atom_site_type_symbol
 _atom_site_label
 _atom_site_symmetry_multiplicity
 _atom_site_fract_x
 _atom_site_fract_y
 _atom_site_fract_z
 _atom_site_occupancy
  Er  Er0  1  0.750000  0.750000  0.750000  1
  U  U1  1  0.250000  0.250000  0.250000  1
  B  B2  1  0.000000  0.000000  0.000000  1
  Ir  Ir3  1  0.742096  0.742096  0.257904  1
  Ir  Ir4  1  0.257904  0.742096  0.257904  1
  Ir  Ir5  1  0.742096  0.257904  0.257904  1
  Ir  Ir6  1  0.257904  0.257904  0.742096  1
  Ir  Ir7  1  0.742096  0.257904  0.742096  1
  Ir  Ir8  1  0.257904  0.742096  0.742096  1
