# generated using pymatgen
data_Nd7Er13Si16
_symmetry_space_group_name_H-M   'P 1'
_cell_length_a   7.70799624
_cell_length_b   7.71312050
_cell_length_c   14.25882181
_cell_angle_alpha   90.00777203
_cell_angle_beta   89.86931761
_cell_angle_gamma   90.07128009
_symmetry_Int_Tables_number   1
_chemical_formula_structural   Nd7Er13Si16
_chemical_formula_sum   'Nd7 Er13 Si16'
_cell_volume   847.72264206
_cell_formula_units_Z   1
loop_
 _symmetry_equiv_pos_site_id
 _symmetry_equiv_pos_as_xyz
  1  'x, y, z'
loop_
 _atom_site_type_symbol
 _atom_site_label
 _atom_site_symmetry_multiplicity
 _atom_site_fract_x
 _atom_site_fract_y
 _atom_site_fract_z
 _atom_site_occupancy
  Nd  Nd0  1  0.358753  0.007425  0.958106  1
  Nd  Nd1  1  0.992348  0.642892  0.540817  1
  Nd  Nd2  1  0.490532  0.858558  0.209451  1
  Nd  Nd3  1  0.509363  0.139588  0.707031  1
  Nd  Nd4  1  0.859702  0.490354  0.791629  1
  Nd  Nd5  1  0.139701  0.508714  0.292958  1
  Nd  Nd6  1  0.007736  0.358162  0.042685  1
  Er  Er7  1  0.491048  0.360852  0.124895  1
  Er  Er8  1  0.991778  0.136651  0.624250  1
  Er  Er9  1  0.861992  0.008364  0.874603  1
  Er  Er10  1  0.137335  0.993036  0.375200  1
  Er  Er11  1  0.511164  0.639692  0.622886  1
  Er  Er12  1  0.361249  0.491152  0.875218  1
  Er  Er13  1  0.639702  0.510053  0.376316  1
  Er  Er14  1  0.006706  0.861355  0.126523  1
  Er  Er15  1  0.636123  0.995839  0.456000  1
  Er  Er16  1  0.318075  0.316867  0.499841  1
  Er  Er17  1  0.184427  0.816397  0.749097  1
  Er  Er18  1  0.814978  0.182946  0.250562  1
  Er  Er19  1  0.682662  0.681932  0.000299  1
  Si  Si20  1  0.293985  0.938669  0.560215  1
  Si  Si21  1  0.709478  0.063175  0.061853  1
  Si  Si22  1  0.933667  0.287982  0.438171  1
  Si  Si23  1  0.438078  0.209211  0.312987  1
  Si  Si24  1  0.564606  0.788337  0.811639  1
  Si  Si25  1  0.211781  0.436232  0.687671  1
  Si  Si26  1  0.788222  0.564979  0.189007  1
  Si  Si27  1  0.064343  0.710280  0.938621  1
  Si  Si28  1  0.799295  0.844852  0.690659  1
  Si  Si29  1  0.202447  0.153175  0.189949  1
  Si  Si30  1  0.843159  0.801606  0.314128  1
  Si  Si31  1  0.350515  0.706841  0.437975  1
  Si  Si32  1  0.653186  0.296204  0.939757  1
  Si  Si33  1  0.701506  0.342453  0.558816  1
  Si  Si34  1  0.296144  0.653230  0.060709  1
  Si  Si35  1  0.154213  0.201946  0.809474  1
