# generated using pymatgen
data_Pr10BCBr15
_symmetry_space_group_name_H-M   'P 1'
_cell_length_a   9.47504462
_cell_length_b   10.22258487
_cell_length_c   11.06326191
_cell_angle_alpha   91.47381710
_cell_angle_beta   114.42636648
_cell_angle_gamma   110.64616302
_symmetry_Int_Tables_number   1
_chemical_formula_structural   Pr10BCBr15
_chemical_formula_sum   'Pr10 B1 C1 Br15'
_cell_volume   894.31336019
_cell_formula_units_Z   1
loop_
 _symmetry_equiv_pos_site_id
 _symmetry_equiv_pos_as_xyz
  1  'x, y, z'
loop_
 _atom_site_type_symbol
 _atom_site_label
 _atom_site_symmetry_multiplicity
 _atom_site_fract_x
 _atom_site_fract_y
 _atom_site_fract_z
 _atom_site_occupancy
  Pr  Pr0  1  0.803163  0.409899  0.277097  1
  Pr  Pr1  1  0.200897  0.594906  0.726995  1
  Pr  Pr2  1  0.673892  0.749897  0.824443  1
  Pr  Pr3  1  0.324226  0.254041  0.180061  1
  Pr  Pr4  1  0.524280  0.706679  0.091443  1
  Pr  Pr5  1  0.473801  0.295280  0.902039  1
  Pr  Pr6  1  0.586841  0.038292  0.326730  1
  Pr  Pr7  1  0.414895  0.958039  0.678961  1
  Pr  Pr8  1  0.721848  0.069033  0.044642  1
  Pr  Pr9  1  0.276925  0.920754  0.948639  1
  B  B10  1  0.533166  0.181172  0.124413  1
  C  C11  1  0.465963  0.818300  0.874751  1
  Br  Br12  1  0.001128  0.999837  0.999481  1
  Br  Br13  1  0.636500  0.881042  0.585450  1
  Br  Br14  1  0.362724  0.117191  0.417092  1
  Br  Br15  1  0.885169  0.300165  0.529904  1
  Br  Br16  1  0.118641  0.702364  0.473607  1
  Br  Br17  1  0.289624  0.761386  0.178823  1
  Br  Br18  1  0.710669  0.237130  0.819996  1
  Br  Br19  1  0.054088  0.341136  0.225259  1
  Br  Br20  1  0.163594  0.056245  0.702335  1
  Br  Br21  1  0.835517  0.941660  0.296203  1
  Br  Br22  1  0.231211  0.411766  0.943080  1
  Br  Br23  1  0.768401  0.591146  0.055827  1
  Br  Br24  1  0.408391  0.466813  0.660197  1
  Br  Br25  1  0.591828  0.538387  0.339384  1
  Br  Br26  1  0.942618  0.657438  0.773149  1
