# generated using pymatgen
data_Ca3DyBi6Rh7
_symmetry_space_group_name_H-M   'P 1'
_cell_length_a   7.84622245
_cell_length_b   7.80582647
_cell_length_c   7.80582600
_cell_angle_alpha   109.36613517
_cell_angle_beta   109.57609127
_cell_angle_gamma   109.57609726
_symmetry_Int_Tables_number   1
_chemical_formula_structural   Ca3DyBi6Rh7
_chemical_formula_sum   'Ca3 Dy1 Bi6 Rh7'
_cell_volume   367.54692498
_cell_formula_units_Z   1
loop_
 _symmetry_equiv_pos_site_id
 _symmetry_equiv_pos_as_xyz
  1  'x, y, z'
loop_
 _atom_site_type_symbol
 _atom_site_label
 _atom_site_symmetry_multiplicity
 _atom_site_fract_x
 _atom_site_fract_y
 _atom_site_fract_z
 _atom_site_occupancy
  Ca  Ca0  1  0.000000  0.500000  0.000000  1
  Ca  Ca1  1  0.000000  0.000000  0.500000  1
  Ca  Ca2  1  0.500000  0.500000  0.500000  1
  Dy  Dy3  1  0.500000  0.000000  0.000000  1
  Bi  Bi4  1  0.313614  0.000000  0.317319  1
  Bi  Bi5  1  0.996296  0.682681  0.682681  1
  Bi  Bi6  1  0.686386  0.682681  0.000000  1
  Bi  Bi7  1  0.686386  0.000000  0.682681  1
  Bi  Bi8  1  0.003704  0.317319  0.317319  1
  Bi  Bi9  1  0.313614  0.317319  0.000000  1
  Rh  Rh10  1  0.253508  0.507014  0.753508  1
  Rh  Rh11  1  0.500000  0.246492  0.753508  1
  Rh  Rh12  1  0.746492  0.246492  0.492986  1
  Rh  Rh13  1  0.500000  0.753508  0.246492  1
  Rh  Rh14  1  0.000000  0.000000  0.000000  1
  Rh  Rh15  1  0.253508  0.753508  0.507014  1
  Rh  Rh16  1  0.746492  0.492986  0.246492  1
