# generated using pymatgen
data_TmLu2Ga5Co
_symmetry_space_group_name_H-M   'P 1'
_cell_length_a   6.79515600
_cell_length_b   6.81297865
_cell_length_c   4.16024800
_cell_angle_alpha   90.00000000
_cell_angle_beta   90.00000000
_cell_angle_gamma   119.91351129
_symmetry_Int_Tables_number   1
_chemical_formula_structural   TmLu2Ga5Co
_chemical_formula_sum   'Tm1 Lu2 Ga5 Co1'
_cell_volume   166.94143700
_cell_formula_units_Z   1
loop_
 _symmetry_equiv_pos_site_id
 _symmetry_equiv_pos_as_xyz
  1  'x, y, z'
loop_
 _atom_site_type_symbol
 _atom_site_label
 _atom_site_symmetry_multiplicity
 _atom_site_fract_x
 _atom_site_fract_y
 _atom_site_fract_z
 _atom_site_occupancy
  Tm  Tm0  1  0.596215  0.000000  0.000000  1
  Lu  Lu1  1  0.999720  0.597707  0.000000  1
  Lu  Lu2  1  0.402013  0.402293  0.000000  1
  Ga  Ga3  1  0.232102  0.000000  0.500000  1
  Ga  Ga4  1  0.000424  0.232338  0.500000  1
  Ga  Ga5  1  0.768086  0.767662  0.500000  1
  Ga  Ga6  1  0.332444  0.665184  0.500000  1
  Ga  Ga7  1  0.667261  0.334816  0.500000  1
  Co  Co8  1  0.001733  0.000000  0.000000  1
