# generated using pymatgen
data_EuYCo2F14
_symmetry_space_group_name_H-M   'P 1'
_cell_length_a   5.45114600
_cell_length_b   8.76048070
_cell_length_c   11.69096600
_cell_angle_alpha   62.03078452
_cell_angle_beta   90.00000000
_cell_angle_gamma   90.00000000
_symmetry_Int_Tables_number   1
_chemical_formula_structural   EuYCo2F14
_chemical_formula_sum   'Eu2 Y2 Co4 F28'
_cell_volume   493.08871783
_cell_formula_units_Z   2
loop_
 _symmetry_equiv_pos_site_id
 _symmetry_equiv_pos_as_xyz
  1  'x, y, z'
loop_
 _atom_site_type_symbol
 _atom_site_label
 _atom_site_symmetry_multiplicity
 _atom_site_fract_x
 _atom_site_fract_y
 _atom_site_fract_z
 _atom_site_occupancy
  Eu  Eu0  1  0.264057  0.194141  0.733146  1
  Eu  Eu1  1  0.764057  0.805859  0.766854  1
  Y  Y2  1  0.732635  0.811106  0.263694  1
  Y  Y3  1  0.232635  0.188894  0.236306  1
  Co  Co4  1  0.739952  0.277329  0.451731  1
  Co  Co5  1  0.239952  0.722671  0.048269  1
  Co  Co6  1  0.258545  0.727905  0.540295  1
  Co  Co7  1  0.758545  0.272095  0.959705  1
  F  F8  1  0.425976  0.704193  0.927574  1
  F  F9  1  0.925976  0.295807  0.572426  1
  F  F10  1  0.576264  0.293569  0.079324  1
  F  F11  1  0.076264  0.706431  0.420676  1
  F  F12  1  0.459922  0.287088  0.532114  1
  F  F13  1  0.959922  0.712912  0.967886  1
  F  F14  1  0.540603  0.716175  0.459820  1
  F  F15  1  0.040603  0.283825  0.040180  1
  F  F16  1  0.769632  0.504370  0.864742  1
  F  F17  1  0.269632  0.495630  0.635258  1
  F  F18  1  0.232947  0.489611  0.140612  1
  F  F19  1  0.732947  0.510389  0.359388  1
  F  F20  1  0.758175  0.039950  0.046397  1
  F  F21  1  0.258175  0.960050  0.453603  1
  F  F22  1  0.240012  0.953653  0.958496  1
  F  F23  1  0.740012  0.046347  0.541504  1
  F  F24  1  0.982667  0.731148  0.625530  1
  F  F25  1  0.482667  0.268852  0.874470  1
  F  F26  1  0.017319  0.273480  0.366932  1
  F  F27  1  0.517319  0.726520  0.133068  1
  F  F28  1  0.053865  0.739215  0.171616  1
  F  F29  1  0.553865  0.260785  0.328384  1
  F  F30  1  0.939893  0.258547  0.834328  1
  F  F31  1  0.439893  0.741453  0.665672  1
  F  F32  1  0.402707  0.971632  0.225918  1
  F  F33  1  0.902707  0.028368  0.274082  1
  F  F34  1  0.604828  0.034945  0.771319  1
  F  F35  1  0.104828  0.965055  0.728681  1
