# generated using pymatgen
data_NaDy6BCl12
_symmetry_space_group_name_H-M   'P 1'
_cell_length_a   8.64249314
_cell_length_b   8.64258306
_cell_length_c   8.64248928
_cell_angle_alpha   106.52448138
_cell_angle_beta   106.52846350
_cell_angle_gamma   106.52770833
_symmetry_Int_Tables_number   1
_chemical_formula_structural   NaDy6BCl12
_chemical_formula_sum   'Na1 Dy6 B1 Cl12'
_cell_volume   544.39921063
_cell_formula_units_Z   1
loop_
 _symmetry_equiv_pos_site_id
 _symmetry_equiv_pos_as_xyz
  1  'x, y, z'
loop_
 _atom_site_type_symbol
 _atom_site_label
 _atom_site_symmetry_multiplicity
 _atom_site_fract_x
 _atom_site_fract_y
 _atom_site_fract_z
 _atom_site_occupancy
  Na  Na0  1  0.500000  0.500000  0.500000  1
  Dy  Dy1  1  0.317690  0.107250  0.025801  1
  Dy  Dy2  1  0.025774  0.317703  0.107182  1
  Dy  Dy3  1  0.107240  0.025803  0.317730  1
  Dy  Dy4  1  0.892759  0.974197  0.682270  1
  Dy  Dy5  1  0.974226  0.682297  0.892817  1
  Dy  Dy6  1  0.682310  0.892750  0.974198  1
  B  B7  1  0.000000  0.000000  0.000000  1
  Cl  Cl8  1  0.683733  0.222926  0.075117  1
  Cl  Cl9  1  0.364051  0.447445  0.145866  1
  Cl  Cl10  1  0.075038  0.683660  0.222961  1
  Cl  Cl11  1  0.777025  0.925063  0.316343  1
  Cl  Cl12  1  0.447463  0.146011  0.364094  1
  Cl  Cl13  1  0.145890  0.364043  0.447380  1
  Cl  Cl14  1  0.854111  0.635957  0.552621  1
  Cl  Cl15  1  0.552537  0.853990  0.635906  1
  Cl  Cl16  1  0.222974  0.074937  0.683657  1
  Cl  Cl17  1  0.924962  0.316340  0.777038  1
  Cl  Cl18  1  0.635950  0.552556  0.854134  1
  Cl  Cl19  1  0.316267  0.777073  0.924883  1
