# generated using pymatgen
data_TbMnF7
_symmetry_space_group_name_H-M   'P 1'
_cell_length_a   5.43567800
_cell_length_b   8.75711517
_cell_length_c   11.75484925
_cell_angle_alpha   62.25777361
_cell_angle_beta   90.00000000
_cell_angle_gamma   90.00000000
_symmetry_Int_Tables_number   1
_chemical_formula_structural   TbMnF7
_chemical_formula_sum   'Tb4 Mn4 F28'
_cell_volume   495.22213358
_cell_formula_units_Z   4
loop_
 _symmetry_equiv_pos_site_id
 _symmetry_equiv_pos_as_xyz
  1  'x, y, z'
loop_
 _atom_site_type_symbol
 _atom_site_label
 _atom_site_symmetry_multiplicity
 _atom_site_fract_x
 _atom_site_fract_y
 _atom_site_fract_z
 _atom_site_occupancy
  Tb  Tb0  1  0.261031  0.810448  0.263972  1
  Tb  Tb1  1  0.738969  0.189552  0.736028  1
  Tb  Tb2  1  0.761031  0.189552  0.236028  1
  Tb  Tb3  1  0.238969  0.810448  0.763972  1
  Mn  Mn4  1  0.758521  0.726233  0.042572  1
  Mn  Mn5  1  0.241479  0.273767  0.957428  1
  Mn  Mn6  1  0.258521  0.273767  0.457428  1
  Mn  Mn7  1  0.741479  0.726233  0.542572  1
  F  F8  1  0.929766  0.708167  0.419878  1
  F  F9  1  0.070234  0.291833  0.580122  1
  F  F10  1  0.429766  0.291833  0.080122  1
  F  F11  1  0.570234  0.708167  0.919878  1
  F  F12  1  0.478454  0.728527  0.130227  1
  F  F13  1  0.521546  0.271473  0.869773  1
  F  F14  1  0.978454  0.271473  0.369773  1
  F  F15  1  0.021546  0.728527  0.630227  1
  F  F16  1  0.944776  0.740178  0.169599  1
  F  F17  1  0.055224  0.259822  0.830401  1
  F  F18  1  0.444776  0.259822  0.330401  1
  F  F19  1  0.555224  0.740178  0.669599  1
  F  F20  1  0.769251  0.488610  0.136380  1
  F  F21  1  0.230749  0.511390  0.863620  1
  F  F22  1  0.269251  0.511390  0.363620  1
  F  F23  1  0.730749  0.488610  0.636380  1
  F  F24  1  0.954426  0.281493  0.039607  1
  F  F25  1  0.045574  0.718507  0.960393  1
  F  F26  1  0.454426  0.718507  0.460393  1
  F  F27  1  0.545574  0.281493  0.539607  1
  F  F28  1  0.739139  0.962323  0.452897  1
  F  F29  1  0.260861  0.037677  0.547103  1
  F  F30  1  0.239139  0.037677  0.047103  1
  F  F31  1  0.760861  0.962323  0.952897  1
  F  F32  1  0.596359  0.967428  0.228215  1
  F  F33  1  0.403641  0.032572  0.771785  1
  F  F34  1  0.096359  0.032572  0.271785  1
  F  F35  1  0.903641  0.967428  0.728215  1
