# generated using pymatgen
data_Hf2UTaTc4
_symmetry_space_group_name_H-M   'P 1'
_cell_length_a   6.53733200
_cell_length_b   6.54751900
_cell_length_c   6.54352900
_cell_angle_alpha   90.00112044
_cell_angle_beta   89.99908893
_cell_angle_gamma   90.00057800
_symmetry_Int_Tables_number   1
_chemical_formula_structural   Hf2UTaTc4
_chemical_formula_sum   'Hf4 U2 Ta2 Tc8'
_cell_volume   280.08467065
_cell_formula_units_Z   2
loop_
 _symmetry_equiv_pos_site_id
 _symmetry_equiv_pos_as_xyz
  1  'x, y, z'
loop_
 _atom_site_type_symbol
 _atom_site_label
 _atom_site_symmetry_multiplicity
 _atom_site_fract_x
 _atom_site_fract_y
 _atom_site_fract_z
 _atom_site_occupancy
  Hf  Hf0  1  0.749961  0.250000  0.999976  1
  Hf  Hf1  1  0.250036  0.749999  0.999985  1
  Hf  Hf2  1  0.750034  0.250000  0.499957  1
  Hf  Hf3  1  0.249963  0.749999  0.500080  1
  U  U4  1  0.750106  0.749999  0.000638  1
  U  U5  1  0.250111  0.250001  0.499368  1
  Ta  Ta6  1  0.749900  0.749999  0.500620  1
  Ta  Ta7  1  0.249900  0.250000  0.999374  1
  Tc  Tc8  1  0.499961  0.999993  0.249902  1
  Tc  Tc9  1  0.499961  0.500022  0.249903  1
  Tc  Tc10  1  0.999992  0.999994  0.250089  1
  Tc  Tc11  1  0.999994  0.499991  0.250087  1
  Tc  Tc12  1  0.999993  0.000000  0.749911  1
  Tc  Tc13  1  0.999993  0.500015  0.749913  1
  Tc  Tc14  1  0.500047  0.999991  0.750099  1
  Tc  Tc15  1  0.500046  0.499994  0.750099  1
