# generated using pymatgen
data_KAc3Au8
_symmetry_space_group_name_H-M   'P 1'
_cell_length_a   6.12911800
_cell_length_b   6.19909872
_cell_length_c   9.13340600
_cell_angle_alpha   108.09171692
_cell_angle_beta   71.03100831
_cell_angle_gamma   97.10800656
_symmetry_Int_Tables_number   1
_chemical_formula_structural   KAc3Au8
_chemical_formula_sum   'K1 Ac3 Au8'
_cell_volume   311.85330113
_cell_formula_units_Z   1
loop_
 _symmetry_equiv_pos_site_id
 _symmetry_equiv_pos_as_xyz
  1  'x, y, z'
loop_
 _atom_site_type_symbol
 _atom_site_label
 _atom_site_symmetry_multiplicity
 _atom_site_fract_x
 _atom_site_fract_y
 _atom_site_fract_z
 _atom_site_occupancy
  K  K0  1  0.664774  0.690250  0.841735  1
  Ac  Ac1  1  0.420162  0.942182  0.596513  1
  Ac  Ac2  1  0.917817  0.444047  0.085803  1
  Ac  Ac3  1  0.163982  0.187912  0.340803  1
  Au  Au4  1  0.612055  0.405283  0.452480  1
  Au  Au5  1  0.459838  0.239045  0.966906  1
  Au  Au6  1  0.382547  0.633083  0.228710  1
  Au  Au7  1  0.115828  0.901691  0.965371  1
  Au  Au8  1  0.212878  0.487066  0.716862  1
  Au  Au9  1  0.953272  0.743206  0.455663  1
  Au  Au10  1  0.714588  0.979767  0.228019  1
  Au  Au11  1  0.880426  0.138825  0.715887  1
