# generated using pymatgen
data_Ho5ErBiO12
_symmetry_space_group_name_H-M   'P 1'
_cell_length_a   6.54330224
_cell_length_b   6.52426289
_cell_length_c   6.53021571
_cell_angle_alpha   99.02542520
_cell_angle_beta   99.24804796
_cell_angle_gamma   98.97916190
_symmetry_Int_Tables_number   1
_chemical_formula_structural   Ho5ErBiO12
_chemical_formula_sum   'Ho5 Er1 Bi1 O12'
_cell_volume   267.00526768
_cell_formula_units_Z   1
loop_
 _symmetry_equiv_pos_site_id
 _symmetry_equiv_pos_as_xyz
  1  'x, y, z'
loop_
 _atom_site_type_symbol
 _atom_site_label
 _atom_site_symmetry_multiplicity
 _atom_site_fract_x
 _atom_site_fract_y
 _atom_site_fract_z
 _atom_site_occupancy
  Ho  Ho0  1  0.390824  0.859545  0.691518  1
  Ho  Ho1  1  0.691898  0.390440  0.858485  1
  Ho  Ho2  1  0.308275  0.609042  0.141428  1
  Ho  Ho3  1  0.609270  0.141070  0.308793  1
  Ho  Ho4  1  0.858588  0.691717  0.391164  1
  Er  Er5  1  0.140757  0.308023  0.608856  1
  Bi  Bi6  1  0.000285  0.000336  0.000150  1
  O  O7  1  0.071727  0.317043  0.947850  1
  O  O8  1  0.051013  0.928759  0.682561  1
  O  O9  1  0.414367  0.566370  0.820750  1
  O  O10  1  0.178408  0.583349  0.433686  1
  O  O11  1  0.682989  0.051141  0.928372  1
  O  O12  1  0.431765  0.179191  0.584732  1
  O  O13  1  0.567083  0.821549  0.415298  1
  O  O14  1  0.317293  0.948638  0.071758  1
  O  O15  1  0.822566  0.415126  0.566913  1
  O  O16  1  0.584804  0.433054  0.178465  1
  O  O17  1  0.949759  0.072549  0.317815  1
  O  O18  1  0.928329  0.683057  0.051405  1
