# generated using pymatgen
data_Tb3TmPd3RuO14
_symmetry_space_group_name_H-M   'P 1'
_cell_length_a   7.21907359
_cell_length_b   7.27317709
_cell_length_c   7.21907300
_cell_angle_alpha   60.24576712
_cell_angle_beta   59.99999811
_cell_angle_gamma   60.24576774
_symmetry_Int_Tables_number   1
_chemical_formula_structural   Tb3TmPd3RuO14
_chemical_formula_sum   'Tb3 Tm1 Pd3 Ru1 O14'
_cell_volume   269.01433106
_cell_formula_units_Z   1
loop_
 _symmetry_equiv_pos_site_id
 _symmetry_equiv_pos_as_xyz
  1  'x, y, z'
loop_
 _atom_site_type_symbol
 _atom_site_label
 _atom_site_symmetry_multiplicity
 _atom_site_fract_x
 _atom_site_fract_y
 _atom_site_fract_z
 _atom_site_occupancy
  Tb  Tb0  1  0.125000  0.125000  0.625000  1
  Tb  Tb1  1  0.125000  0.125000  0.125000  1
  Tb  Tb2  1  0.625000  0.125000  0.125000  1
  Tm  Tm3  1  0.125000  0.625000  0.125000  1
  Pd  Pd4  1  0.625000  0.625000  0.625000  1
  Pd  Pd5  1  0.125000  0.625000  0.625000  1
  Pd  Pd6  1  0.625000  0.625000  0.125000  1
  Ru  Ru7  1  0.625000  0.125000  0.625000  1
  O  O8  1  0.532617  0.532850  0.967266  1
  O  O9  1  0.967266  0.532850  0.967266  1
  O  O10  1  0.291171  0.286287  0.711271  1
  O  O11  1  0.001924  0.994227  0.001924  1
  O  O12  1  0.282734  0.717150  0.717383  1
  O  O13  1  0.717383  0.717150  0.282734  1
  O  O14  1  0.711271  0.286287  0.291171  1
  O  O15  1  0.538729  0.963713  0.538729  1
  O  O16  1  0.711271  0.286287  0.711271  1
  O  O17  1  0.538729  0.963713  0.958829  1
  O  O18  1  0.958829  0.963713  0.538729  1
  O  O19  1  0.248076  0.255773  0.248076  1
  O  O20  1  0.282734  0.717150  0.282734  1
  O  O21  1  0.967266  0.532850  0.532617  1
