# generated using pymatgen
data_Er9Tm7(Ga3Fe)2
_symmetry_space_group_name_H-M   'P 1'
_cell_length_a   9.87827800
_cell_length_b   9.87827863
_cell_length_c   6.91188400
_cell_angle_alpha   90.00000000
_cell_angle_beta   90.00000000
_cell_angle_gamma   119.99999119
_symmetry_Int_Tables_number   1
_chemical_formula_structural   Er9Tm7(Ga3Fe)2
_chemical_formula_sum   'Er9 Tm7 Ga6 Fe2'
_cell_volume   584.10325609
_cell_formula_units_Z   1
loop_
 _symmetry_equiv_pos_site_id
 _symmetry_equiv_pos_as_xyz
  1  'x, y, z'
loop_
 _atom_site_type_symbol
 _atom_site_label
 _atom_site_symmetry_multiplicity
 _atom_site_fract_x
 _atom_site_fract_y
 _atom_site_fract_z
 _atom_site_occupancy
  Er  Er0  1  0.666667  0.333333  0.327830  1
  Er  Er1  1  0.463247  0.536753  0.207303  1
  Er  Er2  1  0.073505  0.536753  0.207303  1
  Er  Er3  1  0.463247  0.926495  0.207303  1
  Er  Er4  1  0.536475  0.463525  0.708060  1
  Er  Er5  1  0.927050  0.463525  0.708060  1
  Er  Er6  1  0.536475  0.072950  0.708060  1
  Er  Er7  1  0.000000  0.000000  0.232567  1
  Er  Er8  1  0.000000  0.000000  0.731715  1
  Tm  Tm9  1  0.173618  0.826382  0.511965  1
  Tm  Tm10  1  0.652764  0.826382  0.511965  1
  Tm  Tm11  1  0.173618  0.347236  0.511965  1
  Tm  Tm12  1  0.826818  0.173182  0.011193  1
  Tm  Tm13  1  0.346363  0.173182  0.011193  1
  Tm  Tm14  1  0.826818  0.653637  0.011193  1
  Tm  Tm15  1  0.333333  0.666667  0.826612  1
  Ga  Ga16  1  0.163818  0.836182  0.957620  1
  Ga  Ga17  1  0.672366  0.836182  0.957620  1
  Ga  Ga18  1  0.163818  0.327634  0.957620  1
  Ga  Ga19  1  0.836832  0.163168  0.458407  1
  Ga  Ga20  1  0.326334  0.163168  0.458407  1
  Ga  Ga21  1  0.836832  0.673666  0.458407  1
  Fe  Fe22  1  0.333333  0.666667  0.445861  1
  Fe  Fe23  1  0.666667  0.333333  0.946607  1
