# generated using pymatgen
data_Mn(WO3)2
_symmetry_space_group_name_H-M   'P 1'
_cell_length_a   4.74578100
_cell_length_b   10.83517607
_cell_length_c   9.49308100
_cell_angle_alpha   64.02020950
_cell_angle_beta   89.99986118
_cell_angle_gamma   89.99994266
_symmetry_Int_Tables_number   1
_chemical_formula_structural   Mn(WO3)2
_chemical_formula_sum   'Mn4 W8 O24'
_cell_volume   438.81929934
_cell_formula_units_Z   4
loop_
 _symmetry_equiv_pos_site_id
 _symmetry_equiv_pos_as_xyz
  1  'x, y, z'
loop_
 _atom_site_type_symbol
 _atom_site_label
 _atom_site_symmetry_multiplicity
 _atom_site_fract_x
 _atom_site_fract_y
 _atom_site_fract_z
 _atom_site_occupancy
  Mn  Mn0  1  0.999979  0.333377  0.333374  1
  Mn  Mn1  1  0.500072  0.833399  0.833333  1
  Mn  Mn2  1  0.000105  0.333271  0.833261  1
  Mn  Mn3  1  0.500055  0.833366  0.333329  1
  W  W4  1  0.999941  0.996766  0.501622  1
  W  W5  1  0.999966  0.996773  0.001594  1
  W  W6  1  0.000016  0.669895  0.165064  1
  W  W7  1  0.000038  0.669902  0.665049  1
  W  W8  1  0.499941  0.169879  0.165063  1
  W  W9  1  0.499976  0.169894  0.665087  1
  W  W10  1  0.500051  0.496768  0.001639  1
  W  W11  1  0.500014  0.496750  0.501612  1
  O  O12  1  0.186764  0.833330  0.676717  1
  O  O13  1  0.186774  0.833333  0.176721  1
  O  O14  1  0.313222  0.333339  0.176712  1
  O  O15  1  0.313198  0.333341  0.676726  1
  O  O16  1  0.686742  0.333327  0.989959  1
  O  O17  1  0.686771  0.333328  0.489945  1
  O  O18  1  0.813218  0.833318  0.989949  1
  O  O19  1  0.813229  0.833319  0.489955  1
  O  O20  1  0.211445  0.155070  0.028187  1
  O  O21  1  0.211414  0.155068  0.528186  1
  O  O22  1  0.211444  0.511591  0.849929  1
  O  O23  1  0.211467  0.511595  0.349925  1
  O  O24  1  0.288538  0.011601  0.349926  1
  O  O25  1  0.288538  0.011588  0.849928  1
  O  O26  1  0.288560  0.655067  0.028177  1
  O  O27  1  0.288559  0.655074  0.528183  1
  O  O28  1  0.711468  0.655068  0.816740  1
  O  O29  1  0.711463  0.655075  0.316734  1
  O  O30  1  0.711426  0.011605  0.138468  1
  O  O31  1  0.711442  0.011592  0.638478  1
  O  O32  1  0.788551  0.511594  0.138472  1
  O  O33  1  0.788559  0.511597  0.638487  1
  O  O34  1  0.788524  0.155069  0.316739  1
  O  O35  1  0.788531  0.155070  0.816733  1
