# generated using pymatgen
data_Yb7Hf(Si4Tc3)4
_symmetry_space_group_name_H-M   'P 1'
_cell_length_a   6.77410434
_cell_length_b   6.77756684
_cell_length_c   12.52309011
_cell_angle_alpha   89.79051648
_cell_angle_beta   90.04917926
_cell_angle_gamma   89.92441994
_symmetry_Int_Tables_number   1
_chemical_formula_structural   Yb7Hf(Si4Tc3)4
_chemical_formula_sum   'Yb7 Hf1 Si16 Tc12'
_cell_volume   574.95486599
_cell_formula_units_Z   1
loop_
 _symmetry_equiv_pos_site_id
 _symmetry_equiv_pos_as_xyz
  1  'x, y, z'
loop_
 _atom_site_type_symbol
 _atom_site_label
 _atom_site_symmetry_multiplicity
 _atom_site_fract_x
 _atom_site_fract_y
 _atom_site_fract_z
 _atom_site_occupancy
  Yb  Yb0  1  0.990280  0.156228  0.089468  1
  Yb  Yb1  1  0.007448  0.842493  0.911372  1
  Yb  Yb2  1  0.511255  0.655866  0.910917  1
  Yb  Yb3  1  0.008827  0.841850  0.588103  1
  Yb  Yb4  1  0.489578  0.341079  0.089155  1
  Yb  Yb5  1  0.992233  0.160372  0.411510  1
  Yb  Yb6  1  0.491855  0.340532  0.410154  1
  Hf  Hf7  1  0.507585  0.668983  0.599287  1
  Si  Si8  1  0.026571  0.146925  0.749292  1
  Si  Si9  1  0.969980  0.853405  0.253242  1
  Si  Si10  1  0.470752  0.644467  0.248932  1
  Si  Si11  1  0.530699  0.354264  0.746335  1
  Si  Si12  1  0.308661  0.860520  0.751733  1
  Si  Si13  1  0.686336  0.137517  0.250474  1
  Si  Si14  1  0.186837  0.359251  0.250120  1
  Si  Si15  1  0.812580  0.639080  0.750143  1
  Si  Si16  1  0.163773  0.454534  0.548705  1
  Si  Si17  1  0.843352  0.549745  0.450835  1
  Si  Si18  1  0.348658  0.947432  0.450919  1
  Si  Si19  1  0.848454  0.546563  0.051393  1
  Si  Si20  1  0.651943  0.050714  0.549972  1
  Si  Si21  1  0.152862  0.451521  0.947595  1
  Si  Si22  1  0.650100  0.051890  0.947014  1
  Si  Si23  1  0.348446  0.950472  0.051538  1
  Tc  Tc24  1  0.180903  0.508341  0.746957  1
  Tc  Tc25  1  0.826516  0.495826  0.250919  1
  Tc  Tc26  1  0.326690  0.001028  0.250214  1
  Tc  Tc27  1  0.669749  0.990671  0.746175  1
  Tc  Tc28  1  0.318287  0.148702  0.625422  1
  Tc  Tc29  1  0.672182  0.844525  0.376809  1
  Tc  Tc30  1  0.177417  0.649140  0.374639  1
  Tc  Tc31  1  0.676880  0.846494  0.126885  1
  Tc  Tc32  1  0.829732  0.356953  0.623948  1
  Tc  Tc33  1  0.322734  0.152765  0.871267  1
  Tc  Tc34  1  0.828301  0.347907  0.871481  1
  Tc  Tc35  1  0.171544  0.651945  0.127077  1
