# generated using pymatgen
data_Hf4TiSi(GeMo)3
_symmetry_space_group_name_H-M   'P 1'
_cell_length_a   3.54649800
_cell_length_b   6.99843511
_cell_length_c   8.34520737
_cell_angle_alpha   90.60582862
_cell_angle_beta   90.00000000
_cell_angle_gamma   90.00000000
_symmetry_Int_Tables_number   1
_chemical_formula_structural   Hf4TiSi(GeMo)3
_chemical_formula_sum   'Hf4 Ti1 Si1 Ge3 Mo3'
_cell_volume   207.11593496
_cell_formula_units_Z   1
loop_
 _symmetry_equiv_pos_site_id
 _symmetry_equiv_pos_as_xyz
  1  'x, y, z'
loop_
 _atom_site_type_symbol
 _atom_site_label
 _atom_site_symmetry_multiplicity
 _atom_site_fract_x
 _atom_site_fract_y
 _atom_site_fract_z
 _atom_site_occupancy
  Hf  Hf0  1  0.250000  0.042049  0.330882  1
  Hf  Hf1  1  0.750000  0.949506  0.667752  1
  Hf  Hf2  1  0.250000  0.549271  0.161749  1
  Hf  Hf3  1  0.750000  0.455405  0.834390  1
  Ti  Ti4  1  0.750000  0.376095  0.440673  1
  Si  Si5  1  0.250000  0.755593  0.861521  1
  Ge  Ge6  1  0.250000  0.252303  0.638359  1
  Ge  Ge7  1  0.750000  0.746498  0.361836  1
  Ge  Ge8  1  0.750000  0.247225  0.141534  1
  Mo  Mo9  1  0.250000  0.632548  0.565185  1
  Mo  Mo10  1  0.750000  0.866765  0.057965  1
  Mo  Mo11  1  0.250000  0.126742  0.938156  1
