# generated using pymatgen
data_YEr7(WC2)4
_symmetry_space_group_name_H-M   'P 1'
_cell_length_a   5.71435814
_cell_length_b   5.71435773
_cell_length_c   9.79339194
_cell_angle_alpha   89.91525574
_cell_angle_beta   89.91525271
_cell_angle_gamma   89.97242271
_symmetry_Int_Tables_number   1
_chemical_formula_structural   YEr7(WC2)4
_chemical_formula_sum   'Y1 Er7 W4 C8'
_cell_volume   319.79157376
_cell_formula_units_Z   1
loop_
 _symmetry_equiv_pos_site_id
 _symmetry_equiv_pos_as_xyz
  1  'x, y, z'
loop_
 _atom_site_type_symbol
 _atom_site_label
 _atom_site_symmetry_multiplicity
 _atom_site_fract_x
 _atom_site_fract_y
 _atom_site_fract_z
 _atom_site_occupancy
  Y  Y0  1  0.799405  0.799405  0.658048  1
  Er  Er1  1  0.200240  0.200240  0.341669  1
  Er  Er2  1  0.300674  0.701220  0.842882  1
  Er  Er3  1  0.701220  0.300674  0.842882  1
  Er  Er4  1  0.701499  0.300385  0.158101  1
  Er  Er5  1  0.300385  0.701499  0.158101  1
  Er  Er6  1  0.199787  0.199787  0.657360  1
  Er  Er7  1  0.798673  0.798673  0.341897  1
  W  W8  1  0.320586  0.676524  0.498976  1
  W  W9  1  0.823235  0.823235  0.001206  1
  W  W10  1  0.179610  0.179610  0.001065  1
  W  W11  1  0.676524  0.320586  0.498976  1
  C  C12  1  0.000603  0.000603  0.156598  1
  C  C13  1  0.497201  0.497201  0.655537  1
  C  C14  1  0.496605  0.999231  0.497666  1
  C  C15  1  0.499402  0.499402  0.343446  1
  C  C16  1  0.002102  0.002102  0.845623  1
  C  C17  1  0.501340  0.001678  0.001153  1
  C  C18  1  0.001678  0.501340  0.001153  1
  C  C19  1  0.999231  0.496605  0.497666  1
