# generated using pymatgen
data_Nd2Dy3Y3(Si3Rh)4
_symmetry_space_group_name_H-M   'P 1'
_cell_length_a   8.20264700
_cell_length_b   8.20264739
_cell_length_c   8.04605700
_cell_angle_alpha   90.00000000
_cell_angle_beta   90.00000000
_cell_angle_gamma   119.99998632
_symmetry_Int_Tables_number   1
_chemical_formula_structural   Nd2Dy3Y3(Si3Rh)4
_chemical_formula_sum   'Nd2 Dy3 Y3 Si12 Rh4'
_cell_volume   468.83698189
_cell_formula_units_Z   1
loop_
 _symmetry_equiv_pos_site_id
 _symmetry_equiv_pos_as_xyz
  1  'x, y, z'
loop_
 _atom_site_type_symbol
 _atom_site_label
 _atom_site_symmetry_multiplicity
 _atom_site_fract_x
 _atom_site_fract_y
 _atom_site_fract_z
 _atom_site_occupancy
  Nd  Nd0  1  0.000000  0.000000  0.250000  1
  Nd  Nd1  1  0.000000  0.000000  0.750000  1
  Dy  Dy2  1  0.491536  0.508464  0.750000  1
  Dy  Dy3  1  0.491536  0.983071  0.750000  1
  Dy  Dy4  1  0.016929  0.508464  0.750000  1
  Y  Y5  1  0.508574  0.491426  0.250000  1
  Y  Y6  1  0.508574  0.017149  0.250000  1
  Y  Y7  1  0.982851  0.491426  0.250000  1
  Si  Si8  1  0.168211  0.831789  0.501049  1
  Si  Si9  1  0.168211  0.336424  0.501049  1
  Si  Si10  1  0.663576  0.831789  0.501049  1
  Si  Si11  1  0.831798  0.168202  0.499499  1
  Si  Si12  1  0.831798  0.663594  0.499499  1
  Si  Si13  1  0.336406  0.168202  0.499499  1
  Si  Si14  1  0.831798  0.168202  0.000501  1
  Si  Si15  1  0.831798  0.663594  0.000501  1
  Si  Si16  1  0.336406  0.168202  0.000501  1
  Si  Si17  1  0.168211  0.831789  0.998951  1
  Si  Si18  1  0.168211  0.336424  0.998951  1
  Si  Si19  1  0.663576  0.831789  0.998951  1
  Rh  Rh20  1  0.333333  0.666667  0.467038  1
  Rh  Rh21  1  0.666667  0.333333  0.534520  1
  Rh  Rh22  1  0.666667  0.333333  0.965480  1
  Rh  Rh23  1  0.333333  0.666667  0.032962  1
