# generated using pymatgen
data_Pr8InCo2Ag
_symmetry_space_group_name_H-M   'P 1'
_cell_length_a   9.85133077
_cell_length_b   9.87498704
_cell_length_c   9.85132928
_cell_angle_alpha   59.92053596
_cell_angle_beta   60.08633240
_cell_angle_gamma   59.92054090
_symmetry_Int_Tables_number   1
_chemical_formula_structural   Pr8InCo2Ag
_chemical_formula_sum   'Pr16 In2 Co4 Ag2'
_cell_volume   677.28348717
_cell_formula_units_Z   2
loop_
 _symmetry_equiv_pos_site_id
 _symmetry_equiv_pos_as_xyz
  1  'x, y, z'
loop_
 _atom_site_type_symbol
 _atom_site_label
 _atom_site_symmetry_multiplicity
 _atom_site_fract_x
 _atom_site_fract_y
 _atom_site_fract_z
 _atom_site_occupancy
  Pr  Pr0  1  0.292557  0.902994  0.901454  1
  Pr  Pr1  1  0.689839  0.688285  0.314025  1
  Pr  Pr2  1  0.901454  0.902994  0.292557  1
  Pr  Pr3  1  0.310153  0.689847  0.310153  1
  Pr  Pr4  1  0.689839  0.307851  0.314025  1
  Pr  Pr5  1  0.060167  0.441281  0.439777  1
  Pr  Pr6  1  0.439777  0.058775  0.060167  1
  Pr  Pr7  1  0.060167  0.058775  0.439777  1
  Pr  Pr8  1  0.314025  0.307851  0.689839  1
  Pr  Pr9  1  0.439917  0.060083  0.439917  1
  Pr  Pr10  1  0.903283  0.902856  0.903283  1
  Pr  Pr11  1  0.439777  0.441281  0.060167  1
  Pr  Pr12  1  0.314025  0.688285  0.689839  1
  Pr  Pr13  1  0.690256  0.309744  0.690256  1
  Pr  Pr14  1  0.057683  0.442317  0.057683  1
  Pr  Pr15  1  0.903283  0.290577  0.903283  1
  In  In16  1  0.668970  0.671984  0.987065  1
  In  In17  1  0.987065  0.671984  0.668970  1
  Co  Co18  1  0.108515  0.110347  0.108515  1
  Co  Co19  1  0.108703  0.110315  0.670666  1
  Co  Co20  1  0.670666  0.110315  0.108703  1
  Co  Co21  1  0.108515  0.672622  0.108515  1
  Ag  Ag22  1  0.670683  0.988938  0.670683  1
  Ag  Ag23  1  0.670683  0.669697  0.670683  1
