# generated using pymatgen
data_La3ReH12Ir
_symmetry_space_group_name_H-M   'P 1'
_cell_length_a   4.99803200
_cell_length_b   4.99803091
_cell_length_c   8.82398600
_cell_angle_alpha   90.00000000
_cell_angle_beta   90.00000000
_cell_angle_gamma   119.99999398
_symmetry_Int_Tables_number   1
_chemical_formula_structural   La3ReH12Ir
_chemical_formula_sum   'La3 Re1 H12 Ir1'
_cell_volume   190.89450999
_cell_formula_units_Z   1
loop_
 _symmetry_equiv_pos_site_id
 _symmetry_equiv_pos_as_xyz
  1  'x, y, z'
loop_
 _atom_site_type_symbol
 _atom_site_label
 _atom_site_symmetry_multiplicity
 _atom_site_fract_x
 _atom_site_fract_y
 _atom_site_fract_z
 _atom_site_occupancy
  La  La0  1  0.000000  0.000000  0.955959  1
  La  La1  1  0.666667  0.333333  0.364152  1
  La  La2  1  0.333333  0.666667  0.638250  1
  Re  Re3  1  0.666667  0.333333  0.764708  1
  H  H4  1  0.172830  0.827170  0.359814  1
  H  H5  1  0.654338  0.827170  0.359814  1
  H  H6  1  0.172830  0.345662  0.359814  1
  H  H7  1  0.830589  0.169411  0.641877  1
  H  H8  1  0.338823  0.169411  0.641877  1
  H  H9  1  0.830589  0.661177  0.641877  1
  H  H10  1  0.497832  0.995664  0.879753  1
  H  H11  1  0.497832  0.502168  0.879753  1
  H  H12  1  0.004336  0.502168  0.879753  1
  H  H13  1  0.488643  0.977287  0.129626  1
  H  H14  1  0.488643  0.511357  0.129626  1
  H  H15  1  0.022713  0.511357  0.129626  1
  Ir  Ir16  1  0.333333  0.666667  0.243720  1
