# generated using pymatgen
data_Ac2SiPIr2
_symmetry_space_group_name_H-M   'P 1'
_cell_length_a   6.48780400
_cell_length_b   6.50129249
_cell_length_c   6.49308530
_cell_angle_alpha   91.28796955
_cell_angle_beta   90.00000000
_cell_angle_gamma   90.00000000
_symmetry_Int_Tables_number   1
_chemical_formula_structural   Ac2SiPIr2
_chemical_formula_sum   'Ac4 Si2 P2 Ir4'
_cell_volume   273.80337441
_cell_formula_units_Z   2
loop_
 _symmetry_equiv_pos_site_id
 _symmetry_equiv_pos_as_xyz
  1  'x, y, z'
loop_
 _atom_site_type_symbol
 _atom_site_label
 _atom_site_symmetry_multiplicity
 _atom_site_fract_x
 _atom_site_fract_y
 _atom_site_fract_z
 _atom_site_occupancy
  Ac  Ac0  1  0.381383  0.875760  0.620855  1
  Ac  Ac1  1  0.881383  0.624240  0.379145  1
  Ac  Ac2  1  0.623883  0.382476  0.878228  1
  Ac  Ac3  1  0.123883  0.117524  0.121772  1
  Si  Si4  1  0.659935  0.161065  0.340468  1
  Si  Si5  1  0.159935  0.338935  0.659532  1
  P  P6  1  0.336543  0.662170  0.163291  1
  P  P7  1  0.836543  0.837830  0.836709  1
  Ir  Ir8  1  0.082119  0.591180  0.918590  1
  Ir  Ir9  1  0.582119  0.908820  0.081410  1
  Ir  Ir10  1  0.916136  0.075352  0.585672  1
  Ir  Ir11  1  0.416136  0.424648  0.414328  1
