# generated using pymatgen
data_Yb2SmHo5(B6Os)4
_symmetry_space_group_name_H-M   'P 1'
_cell_length_a   3.64904000
_cell_length_b   9.15524070
_cell_length_c   11.55355534
_cell_angle_alpha   90.00868133
_cell_angle_beta   90.00000000
_cell_angle_gamma   90.00000000
_symmetry_Int_Tables_number   1
_chemical_formula_structural   Yb2SmHo5(B6Os)4
_chemical_formula_sum   'Yb2 Sm1 Ho5 B24 Os4'
_cell_volume   385.97931821
_cell_formula_units_Z   1
loop_
 _symmetry_equiv_pos_site_id
 _symmetry_equiv_pos_as_xyz
  1  'x, y, z'
loop_
 _atom_site_type_symbol
 _atom_site_label
 _atom_site_symmetry_multiplicity
 _atom_site_fract_x
 _atom_site_fract_y
 _atom_site_fract_z
 _atom_site_occupancy
  Yb  Yb0  1  0.000000  0.677449  0.586368  1
  Yb  Yb1  1  0.000000  0.822754  0.085650  1
  Sm  Sm2  1  0.000000  0.323802  0.414303  1
  Ho  Ho3  1  0.000000  0.175779  0.914379  1
  Ho  Ho4  1  0.000000  0.940699  0.369276  1
  Ho  Ho5  1  0.000000  0.055886  0.630085  1
  Ho  Ho6  1  0.000000  0.443775  0.128970  1
  Ho  Ho7  1  0.000000  0.559246  0.870126  1
  B  B8  1  0.500000  0.555399  0.433139  1
  B  B9  1  0.500000  0.446689  0.569272  1
  B  B10  1  0.500000  0.053466  0.067077  1
  B  B11  1  0.500000  0.946398  0.933233  1
  B  B12  1  0.500000  0.748148  0.418038  1
  B  B13  1  0.500000  0.251272  0.583600  1
  B  B14  1  0.500000  0.248379  0.080871  1
  B  B15  1  0.500000  0.752707  0.918078  1
  B  B16  1  0.500000  0.789858  0.264823  1
  B  B17  1  0.500000  0.208696  0.735650  1
  B  B18  1  0.500000  0.290287  0.233058  1
  B  B19  1  0.500000  0.710509  0.765444  1
  B  B20  1  0.500000  0.631212  0.185220  1
  B  B21  1  0.500000  0.369091  0.814800  1
  B  B22  1  0.500000  0.129785  0.312787  1
  B  B23  1  0.500000  0.869170  0.685977  1
  B  B24  1  0.500000  0.982590  0.211075  1
  B  B25  1  0.500000  0.016682  0.788599  1
  B  B26  1  0.500000  0.484863  0.287423  1
  B  B27  1  0.500000  0.517126  0.712621  1
  B  B28  1  0.500000  0.601639  0.027679  1
  B  B29  1  0.500000  0.397790  0.971330  1
  B  B30  1  0.500000  0.099525  0.472120  1
  B  B31  1  0.500000  0.898987  0.527620  1
  Os  Os32  1  0.000000  0.637648  0.320289  1
  Os  Os33  1  0.000000  0.360520  0.681157  1
  Os  Os34  1  0.000000  0.138568  0.178566  1
  Os  Os35  1  0.000000  0.863602  0.821298  1
