# generated using pymatgen
data_YbCeBeSi4Ir
_symmetry_space_group_name_H-M   'P 1'
_cell_length_a   8.67726070
_cell_length_b   8.67726089
_cell_length_c   3.96299300
_cell_angle_alpha   90.00000000
_cell_angle_beta   90.00000000
_cell_angle_gamma   151.83055800
_symmetry_Int_Tables_number   1
_chemical_formula_structural   YbCeBeSi4Ir
_chemical_formula_sum   'Yb1 Ce1 Be1 Si4 Ir1'
_cell_volume   140.86555794
_cell_formula_units_Z   1
loop_
 _symmetry_equiv_pos_site_id
 _symmetry_equiv_pos_as_xyz
  1  'x, y, z'
loop_
 _atom_site_type_symbol
 _atom_site_label
 _atom_site_symmetry_multiplicity
 _atom_site_fract_x
 _atom_site_fract_y
 _atom_site_fract_z
 _atom_site_occupancy
  Yb  Yb0  1  0.898567  0.101433  0.750000  1
  Ce  Ce1  1  0.112076  0.887924  0.250000  1
  Be  Be2  1  0.671855  0.328145  0.750000  1
  Si  Si3  1  0.540794  0.459206  0.750000  1
  Si  Si4  1  0.462482  0.537518  0.250000  1
  Si  Si5  1  0.244241  0.755759  0.750000  1
  Si  Si6  1  0.750336  0.249664  0.250000  1
  Ir  Ir7  1  0.319651  0.680349  0.250000  1
