# generated using pymatgen
data_TbYb3B15C
_symmetry_space_group_name_H-M   'P 1'
_cell_length_a   7.01500312
_cell_length_b   7.01500347
_cell_length_c   4.07097600
_cell_angle_alpha   90.00000000
_cell_angle_beta   90.00000000
_cell_angle_gamma   90.51967963
_symmetry_Int_Tables_number   1
_chemical_formula_structural   TbYb3B15C
_chemical_formula_sum   'Tb1 Yb3 B15 C1'
_cell_volume   200.32559278
_cell_formula_units_Z   1
loop_
 _symmetry_equiv_pos_site_id
 _symmetry_equiv_pos_as_xyz
  1  'x, y, z'
loop_
 _atom_site_type_symbol
 _atom_site_label
 _atom_site_symmetry_multiplicity
 _atom_site_fract_x
 _atom_site_fract_y
 _atom_site_fract_z
 _atom_site_occupancy
  Tb  Tb0  1  0.319160  0.180840  0.000000  1
  Yb  Yb1  1  0.817772  0.316717  0.000000  1
  Yb  Yb2  1  0.183283  0.682228  0.000000  1
  Yb  Yb3  1  0.676615  0.823385  0.000000  1
  B  B4  1  0.506143  0.504458  0.796718  1
  B  B5  1  0.995542  0.993857  0.796718  1
  B  B6  1  0.506143  0.504458  0.203282  1
  B  B7  1  0.995542  0.993857  0.203282  1
  B  B8  1  0.079107  0.420893  0.500000  1
  B  B9  1  0.412512  0.915385  0.500000  1
  B  B10  1  0.584615  0.087488  0.500000  1
  B  B11  1  0.686266  0.540955  0.500000  1
  B  B12  1  0.326416  0.467284  0.500000  1
  B  B13  1  0.173719  0.958601  0.500000  1
  B  B14  1  0.820935  0.032434  0.500000  1
  B  B15  1  0.467566  0.679065  0.500000  1
  B  B16  1  0.541399  0.326281  0.500000  1
  B  B17  1  0.032716  0.173584  0.500000  1
  B  B18  1  0.959045  0.813734  0.500000  1
  C  C19  1  0.915504  0.584496  0.500000  1
