# generated using pymatgen
data_Tb3Dy9Ir3Pt
_symmetry_space_group_name_H-M   'P 1'
_cell_length_a   6.40707808
_cell_length_b   7.20295516
_cell_length_c   9.36782200
_cell_angle_alpha   90.00000000
_cell_angle_beta   90.00000000
_cell_angle_gamma   89.97879576
_symmetry_Int_Tables_number   1
_chemical_formula_structural   Tb3Dy9Ir3Pt
_chemical_formula_sum   'Tb3 Dy9 Ir3 Pt1'
_cell_volume   432.32398260
_cell_formula_units_Z   1
loop_
 _symmetry_equiv_pos_site_id
 _symmetry_equiv_pos_as_xyz
  1  'x, y, z'
loop_
 _atom_site_type_symbol
 _atom_site_label
 _atom_site_symmetry_multiplicity
 _atom_site_fract_x
 _atom_site_fract_y
 _atom_site_fract_z
 _atom_site_occupancy
  Tb  Tb0  1  0.866915  0.528472  0.250000  1
  Tb  Tb1  1  0.627876  0.035359  0.250000  1
  Tb  Tb2  1  0.130508  0.466137  0.750000  1
  Dy  Dy3  1  0.331027  0.676193  0.060973  1
  Dy  Dy4  1  0.173423  0.180935  0.439587  1
  Dy  Dy5  1  0.673402  0.321688  0.563407  1
  Dy  Dy6  1  0.825279  0.822623  0.934758  1
  Dy  Dy7  1  0.673402  0.321688  0.936593  1
  Dy  Dy8  1  0.825279  0.822623  0.565242  1
  Dy  Dy9  1  0.331027  0.676193  0.439027  1
  Dy  Dy10  1  0.173423  0.180935  0.060413  1
  Dy  Dy11  1  0.368373  0.965481  0.750000  1
  Ir  Ir12  1  0.447867  0.383985  0.250000  1
  Ir  Ir13  1  0.952300  0.116106  0.750000  1
  Ir  Ir14  1  0.548148  0.616737  0.750000  1
  Pt  Pt15  1  0.051753  0.884847  0.250000  1
