# generated using pymatgen
data_Ca3Ac(SnIr2)2
_symmetry_space_group_name_H-M   'P 1'
_cell_length_a   5.87254236
_cell_length_b   5.93067979
_cell_length_c   8.12574745
_cell_angle_alpha   101.53375558
_cell_angle_beta   101.78997200
_cell_angle_gamma   59.48575451
_symmetry_Int_Tables_number   1
_chemical_formula_structural   Ca3Ac(SnIr2)2
_chemical_formula_sum   'Ca3 Ac1 Sn2 Ir4'
_cell_volume   237.10809077
_cell_formula_units_Z   1
loop_
 _symmetry_equiv_pos_site_id
 _symmetry_equiv_pos_as_xyz
  1  'x, y, z'
loop_
 _atom_site_type_symbol
 _atom_site_label
 _atom_site_symmetry_multiplicity
 _atom_site_fract_x
 _atom_site_fract_y
 _atom_site_fract_z
 _atom_site_occupancy
  Ca  Ca0  1  0.499684  0.209999  0.362645  1
  Ca  Ca1  1  0.503999  0.790267  0.644579  1
  Ca  Ca2  1  0.208113  0.496128  0.846287  1
  Ac  Ac3  1  0.784600  0.504215  0.144398  1
  Sn  Sn4  1  0.120552  0.881509  0.254468  1
  Sn  Sn5  1  0.885294  0.107789  0.744890  1
  Ir  Ir6  1  0.287503  0.000875  0.007610  1
  Ir  Ir7  1  0.010114  0.703117  0.493318  1
  Ir  Ir8  1  0.992560  0.291027  0.506658  1
  Ir  Ir9  1  0.707580  0.015074  0.995144  1
