# generated using pymatgen
data_Be8VGaRu2
_symmetry_space_group_name_H-M   'P 1'
_cell_length_a   4.35987400
_cell_length_b   4.35987431
_cell_length_c   7.11675100
_cell_angle_alpha   90.00000000
_cell_angle_beta   90.00000000
_cell_angle_gamma   119.99999764
_symmetry_Int_Tables_number   1
_chemical_formula_structural   Be8VGaRu2
_chemical_formula_sum   'Be8 V1 Ga1 Ru2'
_cell_volume   117.15486307
_cell_formula_units_Z   1
loop_
 _symmetry_equiv_pos_site_id
 _symmetry_equiv_pos_as_xyz
  1  'x, y, z'
loop_
 _atom_site_type_symbol
 _atom_site_label
 _atom_site_symmetry_multiplicity
 _atom_site_fract_x
 _atom_site_fract_y
 _atom_site_fract_z
 _atom_site_occupancy
  Be  Be0  1  0.000000  0.000000  0.997663  1
  Be  Be1  1  0.000000  0.000000  0.494835  1
  Be  Be2  1  0.830053  0.660105  0.250108  1
  Be  Be3  1  0.166693  0.833307  0.749053  1
  Be  Be4  1  0.666615  0.833307  0.749053  1
  Be  Be5  1  0.339895  0.169947  0.250108  1
  Be  Be6  1  0.830053  0.169947  0.250108  1
  Be  Be7  1  0.166693  0.333385  0.749053  1
  V  V8  1  0.666667  0.333333  0.563498  1
  Ga  Ga9  1  0.333333  0.666667  0.064863  1
  Ru  Ru10  1  0.666667  0.333333  0.932669  1
  Ru  Ru11  1  0.333333  0.666667  0.448987  1
