# generated using pymatgen
data_Lu12CdCo5
_symmetry_space_group_name_H-M   'P 1'
_cell_length_a   8.07760088
_cell_length_b   8.07760176
_cell_length_c   8.07760092
_cell_angle_alpha   106.24852139
_cell_angle_beta   111.25256592
_cell_angle_gamma   110.95999275
_symmetry_Int_Tables_number   1
_chemical_formula_structural   Lu12CdCo5
_chemical_formula_sum   'Lu12 Cd1 Co5'
_cell_volume   404.76042219
_cell_formula_units_Z   1
loop_
 _symmetry_equiv_pos_site_id
 _symmetry_equiv_pos_as_xyz
  1  'x, y, z'
loop_
 _atom_site_type_symbol
 _atom_site_label
 _atom_site_symmetry_multiplicity
 _atom_site_fract_x
 _atom_site_fract_y
 _atom_site_fract_z
 _atom_site_occupancy
  Lu  Lu0  1  0.471873  0.287016  0.184856  1
  Lu  Lu1  1  0.102161  0.287016  0.815144  1
  Lu  Lu2  1  0.897839  0.712984  0.184856  1
  Lu  Lu3  1  0.528127  0.712984  0.815144  1
  Lu  Lu4  1  0.304403  0.618227  0.313824  1
  Lu  Lu5  1  0.304403  0.990580  0.686176  1
  Lu  Lu6  1  0.695597  0.381773  0.686176  1
  Lu  Lu7  1  0.695597  0.009420  0.313824  1
  Lu  Lu8  1  0.192281  0.214809  0.407090  1
  Lu  Lu9  1  0.807719  0.785191  0.592910  1
  Lu  Lu10  1  0.192281  0.785191  0.977470  1
  Lu  Lu11  1  0.807719  0.214809  0.022530  1
  Cd  Cd12  1  0.000000  0.500000  0.500000  1
  Co  Co13  1  0.500000  0.614538  0.114538  1
  Co  Co14  1  0.500000  0.385462  0.885462  1
  Co  Co15  1  0.375853  0.000000  0.375853  1
  Co  Co16  1  0.624147  0.000000  0.624147  1
  Co  Co17  1  0.000000  0.000000  0.000000  1
