# generated using pymatgen
data_Ho3Tm13In3AgRh4
_symmetry_space_group_name_H-M   'P 1'
_cell_length_a   9.52789946
_cell_length_b   9.51902187
_cell_length_c   9.52531688
_cell_angle_alpha   59.90339286
_cell_angle_beta   59.84120007
_cell_angle_gamma   59.84256769
_symmetry_Int_Tables_number   1
_chemical_formula_structural   Ho3Tm13In3AgRh4
_chemical_formula_sum   'Ho3 Tm13 In3 Ag1 Rh4'
_cell_volume   608.96914109
_cell_formula_units_Z   1
loop_
 _symmetry_equiv_pos_site_id
 _symmetry_equiv_pos_as_xyz
  1  'x, y, z'
loop_
 _atom_site_type_symbol
 _atom_site_label
 _atom_site_symmetry_multiplicity
 _atom_site_fract_x
 _atom_site_fract_y
 _atom_site_fract_z
 _atom_site_occupancy
  Ho  Ho0  1  0.061991  0.061731  0.438455  1
  Ho  Ho1  1  0.436708  0.068188  0.435962  1
  Ho  Ho2  1  0.063072  0.437933  0.062416  1
  Tm  Tm3  1  0.052148  0.648012  0.649097  1
  Tm  Tm4  1  0.437379  0.437462  0.066467  1
  Tm  Tm5  1  0.648283  0.051544  0.648472  1
  Tm  Tm6  1  0.189162  0.811583  0.188866  1
  Tm  Tm7  1  0.188747  0.188607  0.812624  1
  Tm  Tm8  1  0.809429  0.809493  0.191029  1
  Tm  Tm9  1  0.439193  0.061339  0.061112  1
  Tm  Tm10  1  0.812421  0.188714  0.188539  1
  Tm  Tm11  1  0.066010  0.438513  0.437849  1
  Tm  Tm12  1  0.809090  0.191148  0.809815  1
  Tm  Tm13  1  0.191006  0.809241  0.809912  1
  Tm  Tm14  1  0.648843  0.648117  0.051649  1
  Tm  Tm15  1  0.650117  0.650895  0.650748  1
  In  In16  1  0.746334  0.417955  0.417114  1
  In  In17  1  0.417387  0.746491  0.417194  1
  In  In18  1  0.417545  0.416806  0.747570  1
  Ag  Ag19  1  0.415547  0.417239  0.415486  1
  Rh  Rh20  1  0.858426  0.856834  0.427050  1
  Rh  Rh21  1  0.856423  0.857405  0.857031  1
  Rh  Rh22  1  0.427225  0.857427  0.858544  1
  Rh  Rh23  1  0.857513  0.427323  0.857000  1
