# generated using pymatgen
data_Sm2Dy4FeCo15(MoP6)2
_symmetry_space_group_name_H-M   'P 1'
_cell_length_a   3.73929600
_cell_length_b   10.59343500
_cell_length_c   12.29979800
_cell_angle_alpha   90.00000000
_cell_angle_beta   90.00000000
_cell_angle_gamma   90.00000000
_symmetry_Int_Tables_number   1
_chemical_formula_structural   Sm2Dy4FeCo15(MoP6)2
_chemical_formula_sum   'Sm2 Dy4 Fe1 Co15 Mo2 P12'
_cell_volume   487.21946458
_cell_formula_units_Z   1
loop_
 _symmetry_equiv_pos_site_id
 _symmetry_equiv_pos_as_xyz
  1  'x, y, z'
loop_
 _atom_site_type_symbol
 _atom_site_label
 _atom_site_symmetry_multiplicity
 _atom_site_fract_x
 _atom_site_fract_y
 _atom_site_fract_z
 _atom_site_occupancy
  Sm  Sm0  1  0.000000  0.500000  0.524631  1
  Sm  Sm1  1  0.500000  0.000000  0.475236  1
  Dy  Dy2  1  0.500000  0.818192  0.204030  1
  Dy  Dy3  1  0.500000  0.181808  0.204030  1
  Dy  Dy4  1  0.000000  0.680353  0.796303  1
  Dy  Dy5  1  0.000000  0.319647  0.796303  1
  Fe  Fe6  1  0.000000  0.500000  0.987020  1
  Co  Co7  1  0.500000  0.500000  0.702382  1
  Co  Co8  1  0.000000  0.000000  0.296832  1
  Co  Co9  1  0.500000  0.000000  0.013751  1
  Co  Co10  1  0.500000  0.330538  0.991079  1
  Co  Co11  1  0.500000  0.669462  0.991079  1
  Co  Co12  1  0.000000  0.167157  0.009200  1
  Co  Co13  1  0.000000  0.832843  0.009200  1
  Co  Co14  1  0.500000  0.295164  0.430878  1
  Co  Co15  1  0.500000  0.704836  0.430878  1
  Co  Co16  1  0.000000  0.204805  0.569456  1
  Co  Co17  1  0.000000  0.795195  0.569456  1
  Co  Co18  1  0.500000  0.878757  0.708300  1
  Co  Co19  1  0.500000  0.121243  0.708300  1
  Co  Co20  1  0.000000  0.621696  0.291673  1
  Co  Co21  1  0.000000  0.378304  0.291673  1
  Mo  Mo22  1  0.500000  0.500000  0.154882  1
  Mo  Mo23  1  0.000000  0.000000  0.844743  1
  P  P24  1  0.500000  0.500000  0.883493  1
  P  P25  1  0.000000  0.000000  0.118139  1
  P  P26  1  0.500000  0.500000  0.346577  1
  P  P27  1  0.000000  0.000000  0.653165  1
  P  P28  1  0.500000  0.308950  0.616942  1
  P  P29  1  0.500000  0.691050  0.616942  1
  P  P30  1  0.000000  0.191015  0.383174  1
  P  P31  1  0.000000  0.808985  0.383174  1
  P  P32  1  0.500000  0.844747  0.893399  1
  P  P33  1  0.500000  0.155253  0.893399  1
  P  P34  1  0.000000  0.654333  0.105141  1
  P  P35  1  0.000000  0.345667  0.105141  1
