# generated using pymatgen
data_LaHo5Co6(PRu)12
_symmetry_space_group_name_H-M   'P 1'
_cell_length_a   3.88677000
_cell_length_b   10.81506100
_cell_length_c   12.60641800
_cell_angle_alpha   90.00000000
_cell_angle_beta   90.00000000
_cell_angle_gamma   90.00000000
_symmetry_Int_Tables_number   1
_chemical_formula_structural   LaHo5Co6(PRu)12
_chemical_formula_sum   'La1 Ho5 Co6 P12 Ru12'
_cell_volume   529.91903333
_cell_formula_units_Z   1
loop_
 _symmetry_equiv_pos_site_id
 _symmetry_equiv_pos_as_xyz
  1  'x, y, z'
loop_
 _atom_site_type_symbol
 _atom_site_label
 _atom_site_symmetry_multiplicity
 _atom_site_fract_x
 _atom_site_fract_y
 _atom_site_fract_z
 _atom_site_occupancy
  La  La0  1  0.000000  0.500000  0.527822  1
  Ho  Ho1  1  0.500000  0.000000  0.470918  1
  Ho  Ho2  1  0.500000  0.823006  0.202641  1
  Ho  Ho3  1  0.500000  0.176994  0.202641  1
  Ho  Ho4  1  0.000000  0.682620  0.799294  1
  Ho  Ho5  1  0.000000  0.317380  0.799294  1
  Co  Co6  1  0.000000  0.500000  0.984775  1
  Co  Co7  1  0.500000  0.000000  0.016415  1
  Co  Co8  1  0.000000  0.161055  0.013491  1
  Co  Co9  1  0.000000  0.838945  0.013491  1
  Co  Co10  1  0.500000  0.500000  0.701701  1
  Co  Co11  1  0.000000  0.000000  0.299526  1
  P  P12  1  0.500000  0.308323  0.619207  1
  P  P13  1  0.500000  0.691677  0.619207  1
  P  P14  1  0.000000  0.186327  0.381818  1
  P  P15  1  0.000000  0.813673  0.381818  1
  P  P16  1  0.500000  0.500000  0.878695  1
  P  P17  1  0.000000  0.000000  0.121273  1
  P  P18  1  0.500000  0.852865  0.897100  1
  P  P19  1  0.500000  0.147135  0.897100  1
  P  P20  1  0.000000  0.656332  0.099790  1
  P  P21  1  0.000000  0.343668  0.099790  1
  P  P22  1  0.500000  0.500000  0.334257  1
  P  P23  1  0.000000  0.000000  0.662134  1
  Ru  Ru24  1  0.500000  0.293378  0.426634  1
  Ru  Ru25  1  0.500000  0.706622  0.426634  1
  Ru  Ru26  1  0.000000  0.198533  0.572307  1
  Ru  Ru27  1  0.000000  0.801467  0.572307  1
  Ru  Ru28  1  0.500000  0.877421  0.716584  1
  Ru  Ru29  1  0.500000  0.122579  0.716584  1
  Ru  Ru30  1  0.000000  0.625710  0.281040  1
  Ru  Ru31  1  0.000000  0.374290  0.281040  1
  Ru  Ru32  1  0.500000  0.327698  0.989976  1
  Ru  Ru33  1  0.500000  0.672302  0.989976  1
  Ru  Ru34  1  0.500000  0.500000  0.150189  1
  Ru  Ru35  1  0.000000  0.000000  0.852529  1
