# generated using pymatgen
data_Ce12Si5Ru6Pb
_symmetry_space_group_name_H-M   'P 1'
_cell_length_a   7.70521800
_cell_length_b   7.70521704
_cell_length_c   9.86280800
_cell_angle_alpha   90.00000000
_cell_angle_beta   90.00000000
_cell_angle_gamma   119.99999553
_symmetry_Int_Tables_number   1
_chemical_formula_structural   Ce12Si5Ru6Pb
_chemical_formula_sum   'Ce12 Si5 Ru6 Pb1'
_cell_volume   507.10867151
_cell_formula_units_Z   1
loop_
 _symmetry_equiv_pos_site_id
 _symmetry_equiv_pos_as_xyz
  1  'x, y, z'
loop_
 _atom_site_type_symbol
 _atom_site_label
 _atom_site_symmetry_multiplicity
 _atom_site_fract_x
 _atom_site_fract_y
 _atom_site_fract_z
 _atom_site_occupancy
  Ce  Ce0  1  0.000000  0.592652  0.503613  1
  Ce  Ce1  1  0.592652  0.000000  0.503613  1
  Ce  Ce2  1  0.407348  0.407348  0.503613  1
  Ce  Ce3  1  0.000000  0.416791  0.005959  1
  Ce  Ce4  1  0.416791  0.000000  0.005959  1
  Ce  Ce5  1  0.583209  0.583209  0.005959  1
  Ce  Ce6  1  0.000000  0.731220  0.179737  1
  Ce  Ce7  1  0.731220  0.000000  0.179737  1
  Ce  Ce8  1  0.268780  0.268780  0.179737  1
  Ce  Ce9  1  0.000000  0.269006  0.665507  1
  Ce  Ce10  1  0.269006  0.000000  0.665507  1
  Ce  Ce11  1  0.730994  0.730994  0.665507  1
  Si  Si12  1  0.666667  0.333333  0.276609  1
  Si  Si13  1  0.333333  0.666667  0.276609  1
  Si  Si14  1  0.333333  0.666667  0.771885  1
  Si  Si15  1  0.666667  0.333333  0.771885  1
  Si  Si16  1  0.000000  0.000000  0.417784  1
  Ru  Ru17  1  0.000000  0.340960  0.340430  1
  Ru  Ru18  1  0.340960  0.000000  0.340430  1
  Ru  Ru19  1  0.659040  0.659040  0.340430  1
  Ru  Ru20  1  0.000000  0.643431  0.835286  1
  Ru  Ru21  1  0.643431  0.000000  0.835286  1
  Ru  Ru22  1  0.356569  0.356569  0.835286  1
  Pb  Pb23  1  0.000000  0.000000  0.922882  1
