# generated using pymatgen
data_NdY6Sn23Rh6
_symmetry_space_group_name_H-M   'P 1'
_cell_length_a   9.88011400
_cell_length_b   9.88011611
_cell_length_c   10.12835900
_cell_angle_alpha   90.00000000
_cell_angle_beta   90.00000000
_cell_angle_gamma   120.00000632
_symmetry_Int_Tables_number   1
_chemical_formula_structural   NdY6Sn23Rh6
_chemical_formula_sum   'Nd1 Y6 Sn23 Rh6'
_cell_volume   856.23641621
_cell_formula_units_Z   1
loop_
 _symmetry_equiv_pos_site_id
 _symmetry_equiv_pos_as_xyz
  1  'x, y, z'
loop_
 _atom_site_type_symbol
 _atom_site_label
 _atom_site_symmetry_multiplicity
 _atom_site_fract_x
 _atom_site_fract_y
 _atom_site_fract_z
 _atom_site_occupancy
  Nd  Nd0  1  0.000000  0.000000  0.000000  1
  Y  Y1  1  0.043962  0.521981  0.307925  1
  Y  Y2  1  0.478019  0.956038  0.307925  1
  Y  Y3  1  0.478019  0.521981  0.307925  1
  Y  Y4  1  0.956038  0.478019  0.692075  1
  Y  Y5  1  0.521981  0.043962  0.692075  1
  Y  Y6  1  0.521981  0.478019  0.692075  1
  Sn  Sn7  1  0.000000  0.000000  0.500000  1
  Sn  Sn8  1  0.119398  0.880602  0.280368  1
  Sn  Sn9  1  0.761204  0.880602  0.280368  1
  Sn  Sn10  1  0.119398  0.238796  0.280368  1
  Sn  Sn11  1  0.880602  0.119398  0.719632  1
  Sn  Sn12  1  0.238796  0.119398  0.719632  1
  Sn  Sn13  1  0.880602  0.761204  0.719632  1
  Sn  Sn14  1  0.351888  0.000000  0.000000  1
  Sn  Sn15  1  0.648112  0.648112  0.000000  1
  Sn  Sn16  1  0.000000  0.351888  0.000000  1
  Sn  Sn17  1  0.351888  0.351888  0.000000  1
  Sn  Sn18  1  0.000000  0.648112  0.000000  1
  Sn  Sn19  1  0.648112  0.000000  0.000000  1
  Sn  Sn20  1  0.778847  0.557693  0.454443  1
  Sn  Sn21  1  0.778847  0.221153  0.454443  1
  Sn  Sn22  1  0.442307  0.221153  0.454443  1
  Sn  Sn23  1  0.221153  0.442307  0.545557  1
  Sn  Sn24  1  0.221153  0.778847  0.545557  1
  Sn  Sn25  1  0.557693  0.778847  0.545557  1
  Sn  Sn26  1  0.666667  0.333333  0.181069  1
  Sn  Sn27  1  0.333333  0.666667  0.818931  1
  Sn  Sn28  1  0.666667  0.333333  0.882256  1
  Sn  Sn29  1  0.333333  0.666667  0.117744  1
  Rh  Rh30  1  0.168786  0.831214  0.801753  1
  Rh  Rh31  1  0.662428  0.831214  0.801753  1
  Rh  Rh32  1  0.168786  0.337572  0.801753  1
  Rh  Rh33  1  0.831214  0.168786  0.198247  1
  Rh  Rh34  1  0.337572  0.168786  0.198247  1
  Rh  Rh35  1  0.831214  0.662428  0.198247  1
