# generated using pymatgen
data_Ho7In(Sn11Ru3)2
_symmetry_space_group_name_H-M   'P 1'
_cell_length_a   9.83751200
_cell_length_b   9.83751037
_cell_length_c   10.07166800
_cell_angle_alpha   90.00000000
_cell_angle_beta   90.00000000
_cell_angle_gamma   119.99999875
_symmetry_Int_Tables_number   1
_chemical_formula_structural   Ho7In(Sn11Ru3)2
_chemical_formula_sum   'Ho7 In1 Sn22 Ru6'
_cell_volume   844.11674763
_cell_formula_units_Z   1
loop_
 _symmetry_equiv_pos_site_id
 _symmetry_equiv_pos_as_xyz
  1  'x, y, z'
loop_
 _atom_site_type_symbol
 _atom_site_label
 _atom_site_symmetry_multiplicity
 _atom_site_fract_x
 _atom_site_fract_y
 _atom_site_fract_z
 _atom_site_occupancy
  Ho  Ho0  1  0.000000  0.000000  0.000000  1
  Ho  Ho1  1  0.515357  0.484643  0.695556  1
  Ho  Ho2  1  0.515357  0.030712  0.695556  1
  Ho  Ho3  1  0.969288  0.484643  0.695556  1
  Ho  Ho4  1  0.030712  0.515357  0.304444  1
  Ho  Ho5  1  0.484643  0.969288  0.304444  1
  Ho  Ho6  1  0.484643  0.515357  0.304444  1
  In  In7  1  0.000000  0.000000  0.500000  1
  Sn  Sn8  1  0.666667  0.333333  0.177753  1
  Sn  Sn9  1  0.666667  0.333333  0.870963  1
  Sn  Sn10  1  0.333333  0.666667  0.129037  1
  Sn  Sn11  1  0.348685  0.348685  0.000000  1
  Sn  Sn12  1  0.000000  0.651315  0.000000  1
  Sn  Sn13  1  0.651315  0.000000  0.000000  1
  Sn  Sn14  1  0.651315  0.651315  0.000000  1
  Sn  Sn15  1  0.333333  0.666667  0.822247  1
  Sn  Sn16  1  0.439408  0.219705  0.463187  1
  Sn  Sn17  1  0.219705  0.780295  0.536813  1
  Sn  Sn18  1  0.219705  0.439408  0.536813  1
  Sn  Sn19  1  0.560592  0.780295  0.536813  1
  Sn  Sn20  1  0.120174  0.879826  0.270801  1
  Sn  Sn21  1  0.780295  0.560592  0.463187  1
  Sn  Sn22  1  0.780295  0.219705  0.463187  1
  Sn  Sn23  1  0.348685  0.000000  0.000000  1
  Sn  Sn24  1  0.120174  0.240346  0.270801  1
  Sn  Sn25  1  0.759654  0.879826  0.270801  1
  Sn  Sn26  1  0.240346  0.120174  0.729199  1
  Sn  Sn27  1  0.879826  0.759654  0.729199  1
  Sn  Sn28  1  0.879826  0.120174  0.729199  1
  Sn  Sn29  1  0.000000  0.348685  0.000000  1
  Ru  Ru30  1  0.169564  0.830436  0.796772  1
  Ru  Ru31  1  0.169564  0.339126  0.796772  1
  Ru  Ru32  1  0.660874  0.830436  0.796772  1
  Ru  Ru33  1  0.339126  0.169564  0.203228  1
  Ru  Ru34  1  0.830436  0.660874  0.203228  1
  Ru  Ru35  1  0.830436  0.169564  0.203228  1
