# generated using pymatgen
data_Li(MnSe2)8
_symmetry_space_group_name_H-M   'P 1'
_cell_length_a   6.98816500
_cell_length_b   6.98816476
_cell_length_c   12.86385300
_cell_angle_alpha   90.00000000
_cell_angle_beta   90.00000000
_cell_angle_gamma   119.99998695
_symmetry_Int_Tables_number   1
_chemical_formula_structural   Li(MnSe2)8
_chemical_formula_sum   'Li1 Mn8 Se16'
_cell_volume   544.03650709
_cell_formula_units_Z   1
loop_
 _symmetry_equiv_pos_site_id
 _symmetry_equiv_pos_as_xyz
  1  'x, y, z'
loop_
 _atom_site_type_symbol
 _atom_site_label
 _atom_site_symmetry_multiplicity
 _atom_site_fract_x
 _atom_site_fract_y
 _atom_site_fract_z
 _atom_site_occupancy
  Li  Li0  1  0.000000  0.000000  0.000000  1
  Mn  Mn1  1  0.501358  0.498642  0.747205  1
  Mn  Mn2  1  0.498642  0.501358  0.252795  1
  Mn  Mn3  1  0.501358  0.002715  0.747205  1
  Mn  Mn4  1  0.498642  0.997285  0.252795  1
  Mn  Mn5  1  0.997285  0.498642  0.747205  1
  Mn  Mn6  1  0.002715  0.501358  0.252795  1
  Mn  Mn7  1  0.000000  0.000000  0.746281  1
  Mn  Mn8  1  0.000000  0.000000  0.253719  1
  Se  Se9  1  0.832612  0.665227  0.141185  1
  Se  Se10  1  0.832944  0.665888  0.636011  1
  Se  Se11  1  0.832612  0.167388  0.141185  1
  Se  Se12  1  0.832944  0.167056  0.636011  1
  Se  Se13  1  0.333333  0.666667  0.140888  1
  Se  Se14  1  0.333333  0.666667  0.636713  1
  Se  Se15  1  0.334773  0.167388  0.141185  1
  Se  Se16  1  0.334112  0.167056  0.636011  1
  Se  Se17  1  0.665227  0.832612  0.858815  1
  Se  Se18  1  0.665888  0.832944  0.363989  1
  Se  Se19  1  0.666667  0.333333  0.859112  1
  Se  Se20  1  0.666667  0.333333  0.363287  1
  Se  Se21  1  0.167388  0.832612  0.858815  1
  Se  Se22  1  0.167056  0.832944  0.363989  1
  Se  Se23  1  0.167388  0.334773  0.858815  1
  Se  Se24  1  0.167056  0.334112  0.363989  1
