# generated using pymatgen
data_Dy7(TmGa4)5
_symmetry_space_group_name_H-M   'P 1'
_cell_length_a   6.07544402
_cell_length_b   9.59422953
_cell_length_c   11.52352068
_cell_angle_alpha   90.02272560
_cell_angle_beta   89.94198082
_cell_angle_gamma   89.96910475
_symmetry_Int_Tables_number   1
_chemical_formula_structural   Dy7(TmGa4)5
_chemical_formula_sum   'Dy7 Tm5 Ga20'
_cell_volume   671.69635733
_cell_formula_units_Z   1
loop_
 _symmetry_equiv_pos_site_id
 _symmetry_equiv_pos_as_xyz
  1  'x, y, z'
loop_
 _atom_site_type_symbol
 _atom_site_label
 _atom_site_symmetry_multiplicity
 _atom_site_fract_x
 _atom_site_fract_y
 _atom_site_fract_z
 _atom_site_occupancy
  Dy  Dy0  1  0.890909  0.509195  0.351334  1
  Dy  Dy1  1  0.609037  0.990616  0.851247  1
  Dy  Dy2  1  0.108882  0.009165  0.648876  1
  Dy  Dy3  1  0.391160  0.490788  0.148057  1
  Dy  Dy4  1  0.108757  0.490864  0.649062  1
  Dy  Dy5  1  0.391200  0.009286  0.148476  1
  Dy  Dy6  1  0.890958  0.991015  0.351368  1
  Tm  Tm7  1  0.848419  0.749817  0.074612  1
  Tm  Tm8  1  0.651327  0.750019  0.575104  1
  Tm  Tm9  1  0.152252  0.249821  0.925005  1
  Tm  Tm10  1  0.348539  0.250066  0.425314  1
  Tm  Tm11  1  0.608587  0.509342  0.851111  1
  Ga  Ga12  1  0.876130  0.053513  0.089781  1
  Ga  Ga13  1  0.623542  0.447040  0.590785  1
  Ga  Ga14  1  0.125052  0.552950  0.909906  1
  Ga  Ga15  1  0.376286  0.946724  0.410141  1
  Ga  Ga16  1  0.123687  0.946318  0.910016  1
  Ga  Ga17  1  0.376364  0.553295  0.410111  1
  Ga  Ga18  1  0.876394  0.446696  0.089569  1
  Ga  Ga19  1  0.623589  0.053346  0.589838  1
  Ga  Ga20  1  0.170601  0.750018  0.251770  1
  Ga  Ga21  1  0.329542  0.749299  0.752466  1
  Ga  Ga22  1  0.828395  0.250842  0.749011  1
  Ga  Ga23  1  0.670777  0.250125  0.247910  1
  Ga  Ga24  1  0.375496  0.749793  0.003737  1
  Ga  Ga25  1  0.125195  0.749993  0.504017  1
  Ga  Ga26  1  0.625542  0.250847  0.994784  1
  Ga  Ga27  1  0.874575  0.250196  0.496233  1
  Ga  Ga28  1  0.602069  0.750005  0.298812  1
  Ga  Ga29  1  0.896690  0.748885  0.799190  1
  Ga  Ga30  1  0.397914  0.250052  0.701187  1
  Ga  Ga31  1  0.102131  0.250070  0.201171  1
