# generated using pymatgen
data_TiV5Si6BW4
_symmetry_space_group_name_H-M   'P 1'
_cell_length_a   7.29181566
_cell_length_b   7.29614175
_cell_length_c   4.89856102
_cell_angle_alpha   90.05669866
_cell_angle_beta   90.20300615
_cell_angle_gamma   120.05377612
_symmetry_Int_Tables_number   1
_chemical_formula_structural   TiV5Si6BW4
_chemical_formula_sum   'Ti1 V5 Si6 B1 W4'
_cell_volume   225.57323365
_cell_formula_units_Z   1
loop_
 _symmetry_equiv_pos_site_id
 _symmetry_equiv_pos_as_xyz
  1  'x, y, z'
loop_
 _atom_site_type_symbol
 _atom_site_label
 _atom_site_symmetry_multiplicity
 _atom_site_fract_x
 _atom_site_fract_y
 _atom_site_fract_z
 _atom_site_occupancy
  Ti  Ti0  1  0.753983  0.755519  0.759020  1
  V  V1  1  0.246384  0.999790  0.752388  1
  V  V2  1  0.334112  0.667145  0.502586  1
  V  V3  1  0.667723  0.335107  0.502573  1
  V  V4  1  0.667555  0.334008  0.996528  1
  V  V5  1  0.333081  0.665508  0.996741  1
  Si  Si6  1  0.999947  0.402556  0.250439  1
  Si  Si7  1  0.598336  0.598331  0.249696  1
  Si  Si8  1  0.401270  0.999982  0.246363  1
  Si  Si9  1  0.002467  0.602427  0.749167  1
  Si  Si10  1  0.401863  0.399000  0.749340  1
  Si  Si11  1  0.591738  0.999364  0.750169  1
  B  B12  1  0.003921  0.999401  0.503172  1
  W  W13  1  0.000584  0.752426  0.248014  1
  W  W14  1  0.246687  0.245342  0.243434  1
  W  W15  1  0.752495  0.999280  0.247140  1
  W  W16  1  0.997853  0.244810  0.753230  1
