# generated using pymatgen
data_TbYbSiN3
_symmetry_space_group_name_H-M   'P 1'
_cell_length_a   5.83956228
_cell_length_b   5.83956108
_cell_length_c   11.31110900
_cell_angle_alpha   90.00000000
_cell_angle_beta   90.00000000
_cell_angle_gamma   125.59991029
_symmetry_Int_Tables_number   1
_chemical_formula_structural   TbYbSiN3
_chemical_formula_sum   'Tb4 Yb4 Si4 N12'
_cell_volume   313.62490412
_cell_formula_units_Z   4
loop_
 _symmetry_equiv_pos_site_id
 _symmetry_equiv_pos_as_xyz
  1  'x, y, z'
loop_
 _atom_site_type_symbol
 _atom_site_label
 _atom_site_symmetry_multiplicity
 _atom_site_fract_x
 _atom_site_fract_y
 _atom_site_fract_z
 _atom_site_occupancy
  Tb  Tb0  1  0.640987  0.359013  0.078514  1
  Tb  Tb1  1  0.359013  0.640987  0.921486  1
  Tb  Tb2  1  0.859013  0.140987  0.578514  1
  Tb  Tb3  1  0.140987  0.859013  0.421486  1
  Yb  Yb4  1  0.047638  0.952362  0.855957  1
  Yb  Yb5  1  0.952362  0.047638  0.144043  1
  Yb  Yb6  1  0.452362  0.547638  0.355957  1
  Yb  Yb7  1  0.547638  0.452362  0.644043  1
  Si  Si8  1  0.738812  0.261188  0.838296  1
  Si  Si9  1  0.261188  0.738812  0.161704  1
  Si  Si10  1  0.761188  0.238812  0.338296  1
  Si  Si11  1  0.238812  0.761188  0.661704  1
  N  N12  1  0.573792  0.426208  0.870382  1
  N  N13  1  0.426208  0.573792  0.129618  1
  N  N14  1  0.926208  0.073792  0.370382  1
  N  N15  1  0.073792  0.926208  0.629618  1
  N  N16  1  0.531319  0.968681  0.750000  1
  N  N17  1  0.968681  0.531319  0.250000  1
  N  N18  1  0.468681  0.031319  0.250000  1
  N  N19  1  0.031319  0.468681  0.750000  1
  N  N20  1  0.840311  0.159689  0.960826  1
  N  N21  1  0.159689  0.840311  0.039174  1
  N  N22  1  0.659689  0.340311  0.460826  1
  N  N23  1  0.340311  0.659689  0.539174  1
