# generated using pymatgen
data_Ho3ZnIn3AgRh
_symmetry_space_group_name_H-M   'P 1'
_cell_length_a   7.79387900
_cell_length_b   7.79387944
_cell_length_c   3.82733400
_cell_angle_alpha   90.00000000
_cell_angle_beta   90.00000000
_cell_angle_gamma   119.99999391
_symmetry_Int_Tables_number   1
_chemical_formula_structural   Ho3ZnIn3AgRh
_chemical_formula_sum   'Ho3 Zn1 In3 Ag1 Rh1'
_cell_volume   201.34199350
_cell_formula_units_Z   1
loop_
 _symmetry_equiv_pos_site_id
 _symmetry_equiv_pos_as_xyz
  1  'x, y, z'
loop_
 _atom_site_type_symbol
 _atom_site_label
 _atom_site_symmetry_multiplicity
 _atom_site_fract_x
 _atom_site_fract_y
 _atom_site_fract_z
 _atom_site_occupancy
  Ho  Ho0  1  0.973232  0.389287  0.500000  1
  Ho  Ho1  1  0.610713  0.583945  0.500000  1
  Ho  Ho2  1  0.416055  0.026768  0.500000  1
  Zn  Zn3  1  0.000000  0.000000  0.500000  1
  In  In4  1  0.258599  0.263689  0.000000  1
  In  In5  1  0.005090  0.741401  0.000000  1
  In  In6  1  0.736311  0.994910  0.000000  1
  Ag  Ag7  1  0.333333  0.666667  0.000000  1
  Rh  Rh8  1  0.666667  0.333333  0.000000  1
