# generated using pymatgen
data_Ho2Tm8Si16Hg
_symmetry_space_group_name_H-M   'P 1'
_cell_length_a   11.07292828
_cell_length_b   11.07312271
_cell_length_c   11.07309000
_cell_angle_alpha   144.73441093
_cell_angle_beta   136.64190153
_cell_angle_gamma   57.07388700
_symmetry_Int_Tables_number   1
_chemical_formula_structural   Ho2Tm8Si16Hg
_chemical_formula_sum   'Ho2 Tm8 Si16 Hg1'
_cell_volume   533.86844830
_cell_formula_units_Z   1
loop_
 _symmetry_equiv_pos_site_id
 _symmetry_equiv_pos_as_xyz
  1  'x, y, z'
loop_
 _atom_site_type_symbol
 _atom_site_label
 _atom_site_symmetry_multiplicity
 _atom_site_fract_x
 _atom_site_fract_y
 _atom_site_fract_z
 _atom_site_occupancy
  Ho  Ho0  1  0.255053  0.765681  0.014241  1
  Ho  Ho1  1  0.751439  0.765690  0.510624  1
  Tm  Tm2  1  0.054746  0.569099  0.027917  1
  Tm  Tm3  1  0.353931  0.370045  0.521050  1
  Tm  Tm4  1  0.156815  0.164665  0.523155  1
  Tm  Tm5  1  0.449969  0.963168  0.013825  1
  Tm  Tm6  1  0.641494  0.164660  0.007853  1
  Tm  Tm7  1  0.949356  0.963179  0.513216  1
  Tm  Tm8  1  0.848994  0.370052  0.016110  1
  Tm  Tm9  1  0.541178  0.569129  0.514373  1
  Si  Si10  1  0.118971  0.082295  0.963310  1
  Si  Si11  1  0.796874  0.152815  0.355949  1
  Si  Si12  1  0.299986  0.900122  0.600146  1
  Si  Si13  1  0.399286  0.500029  0.100739  1
  Si  Si14  1  0.875562  0.860855  0.985285  1
  Si  Si15  1  0.105596  0.713198  0.607617  1
  Si  Si16  1  0.199472  0.579307  0.379835  1
  Si  Si17  1  0.700602  0.296118  0.595519  1
  Si  Si18  1  0.004495  0.430754  0.426258  1
  Si  Si19  1  0.715805  0.671445  0.955646  1
  Si  Si20  1  0.601734  0.703120  0.101407  1
  Si  Si21  1  0.998455  0.078020  0.079581  1
  Si  Si22  1  0.501099  0.390807  0.889706  1
  Si  Si23  1  0.283843  0.243029  0.959199  1
  Si  Si24  1  0.584882  0.044293  0.459400  1
  Si  Si25  1  0.415762  0.872125  0.456369  1
  Hg  Hg26  1  0.894601  0.505218  0.610584  1
