# generated using pymatgen
data_La3BiPt4F28
_symmetry_space_group_name_H-M   'P 1'
_cell_length_a   5.71900829
_cell_length_b   9.28210948
_cell_length_c   12.40846365
_cell_angle_alpha   61.80516143
_cell_angle_beta   90.11525545
_cell_angle_gamma   89.93296157
_symmetry_Int_Tables_number   1
_chemical_formula_structural   La3BiPt4F28
_chemical_formula_sum   'La3 Bi1 Pt4 F28'
_cell_volume   580.53677470
_cell_formula_units_Z   1
loop_
 _symmetry_equiv_pos_site_id
 _symmetry_equiv_pos_as_xyz
  1  'x, y, z'
loop_
 _atom_site_type_symbol
 _atom_site_label
 _atom_site_symmetry_multiplicity
 _atom_site_fract_x
 _atom_site_fract_y
 _atom_site_fract_z
 _atom_site_occupancy
  La  La0  1  0.260290  0.190539  0.736208  1
  La  La1  1  0.239437  0.189625  0.235247  1
  La  La2  1  0.740298  0.810675  0.264284  1
  Bi  Bi3  1  0.765710  0.816155  0.762202  1
  Pt  Pt4  1  0.756805  0.274860  0.956534  1
  Pt  Pt5  1  0.257651  0.727058  0.544376  1
  Pt  Pt6  1  0.242531  0.727149  0.040591  1
  Pt  Pt7  1  0.743716  0.271727  0.458843  1
  F  F8  1  0.430796  0.707605  0.915394  1
  F  F9  1  0.930306  0.292357  0.584215  1
  F  F10  1  0.571079  0.293434  0.082646  1
  F  F11  1  0.070476  0.707171  0.418235  1
  F  F12  1  0.451712  0.280243  0.539893  1
  F  F13  1  0.947289  0.720300  0.958536  1
  F  F14  1  0.547973  0.717720  0.462182  1
  F  F15  1  0.048967  0.282818  0.037620  1
  F  F16  1  0.765237  0.514506  0.861173  1
  F  F17  1  0.266349  0.486556  0.638662  1
  F  F18  1  0.233001  0.487505  0.136924  1
  F  F19  1  0.733856  0.511058  0.362719  1
  F  F20  1  0.757803  0.033613  0.048031  1
  F  F21  1  0.258025  0.967133  0.452684  1
  F  F22  1  0.243760  0.967607  0.949957  1
  F  F23  1  0.743285  0.029728  0.550680  1
  F  F24  1  0.968584  0.729086  0.630310  1
  F  F25  1  0.469176  0.271750  0.870339  1
  F  F26  1  0.030580  0.271449  0.372177  1
  F  F27  1  0.528617  0.726924  0.128777  1
  F  F28  1  0.060041  0.741315  0.170176  1
  F  F29  1  0.561387  0.257792  0.329588  1
  F  F30  1  0.938964  0.258849  0.827925  1
  F  F31  1  0.441931  0.742634  0.673085  1
  F  F32  1  0.402971  0.966358  0.230291  1
  F  F33  1  0.902889  0.034693  0.269285  1
  F  F34  1  0.602240  0.027292  0.769401  1
  F  F35  1  0.086265  0.964715  0.730812  1
