# generated using pymatgen
data_Sm8AlSiI12
_symmetry_space_group_name_H-M   'P 1'
_cell_length_a   4.27154500
_cell_length_b   14.39355911
_cell_length_c   15.16237711
_cell_angle_alpha   90.01417649
_cell_angle_beta   90.00000000
_cell_angle_gamma   90.00000000
_symmetry_Int_Tables_number   1
_chemical_formula_structural   Sm8AlSiI12
_chemical_formula_sum   'Sm8 Al1 Si1 I12'
_cell_volume   932.22439247
_cell_formula_units_Z   1
loop_
 _symmetry_equiv_pos_site_id
 _symmetry_equiv_pos_as_xyz
  1  'x, y, z'
loop_
 _atom_site_type_symbol
 _atom_site_label
 _atom_site_symmetry_multiplicity
 _atom_site_fract_x
 _atom_site_fract_y
 _atom_site_fract_z
 _atom_site_occupancy
  Sm  Sm0  1  0.500000  0.117660  0.342166  1
  Sm  Sm1  1  0.500000  0.882340  0.657834  1
  Sm  Sm2  1  0.500000  0.613247  0.152216  1
  Sm  Sm3  1  0.500000  0.386753  0.847784  1
  Sm  Sm4  1  0.000000  0.118958  0.579687  1
  Sm  Sm5  1  0.000000  0.881042  0.420313  1
  Sm  Sm6  1  0.000000  0.611598  0.925325  1
  Sm  Sm7  1  0.000000  0.388402  0.074675  1
  Al  Al8  1  0.500000  0.000000  0.500000  1
  Si  Si9  1  0.500000  0.500000  0.000000  1
  I  I10  1  0.500000  0.247409  0.161752  1
  I  I11  1  0.500000  0.752591  0.838248  1
  I  I12  1  0.500000  0.742966  0.334287  1
  I  I13  1  0.500000  0.257034  0.665713  1
  I  I14  1  0.000000  0.260601  0.414806  1
  I  I15  1  0.000000  0.739399  0.585194  1
  I  I16  1  0.000000  0.756805  0.084924  1
  I  I17  1  0.000000  0.243195  0.915076  1
  I  I18  1  0.000000  0.997872  0.238316  1
  I  I19  1  0.000000  0.002128  0.761684  1
  I  I20  1  0.000000  0.498258  0.258017  1
  I  I21  1  0.000000  0.501742  0.741983  1
