# generated using pymatgen
data_Yb12TiAl7(SiO4)12
_symmetry_space_group_name_H-M   'P 1'
_cell_length_a   10.26594594
_cell_length_b   10.32364309
_cell_length_c   10.32364314
_cell_angle_alpha   109.58416550
_cell_angle_beta   109.35804003
_cell_angle_gamma   109.35804118
_symmetry_Int_Tables_number   1
_chemical_formula_structural   Yb12TiAl7(SiO4)12
_chemical_formula_sum   'Yb12 Ti1 Al7 Si12 O48'
_cell_volume   843.42748447
_cell_formula_units_Z   1
loop_
 _symmetry_equiv_pos_site_id
 _symmetry_equiv_pos_as_xyz
  1  'x, y, z'
loop_
 _atom_site_type_symbol
 _atom_site_label
 _atom_site_symmetry_multiplicity
 _atom_site_fract_x
 _atom_site_fract_y
 _atom_site_fract_z
 _atom_site_occupancy
  Yb  Yb0  1  0.375160  0.750461  0.126389  1
  Yb  Yb1  1  0.248771  0.373611  0.124074  1
  Yb  Yb2  1  0.373754  0.124154  0.249849  1
  Yb  Yb3  1  0.875303  0.624074  0.250462  1
  Yb  Yb4  1  0.749598  0.125696  0.375846  1
  Yb  Yb5  1  0.123904  0.250151  0.374305  1
  Yb  Yb6  1  0.876096  0.749850  0.625694  1
  Yb  Yb7  1  0.250402  0.874304  0.624155  1
  Yb  Yb8  1  0.124698  0.375927  0.749538  1
  Yb  Yb9  1  0.626247  0.875846  0.750151  1
  Yb  Yb10  1  0.751229  0.626390  0.875927  1
  Yb  Yb11  1  0.624839  0.249538  0.873611  1
  Ti  Ti12  1  0.499999  0.500000  0.000000  1
  Al  Al13  1  0.000000  0.000000  0.000000  1
  Al  Al14  1  0.500000  0.000000  0.000000  1
  Al  Al15  1  0.000000  0.499999  0.000000  1
  Al  Al16  1  0.000000  0.000000  0.500000  1
  Al  Al17  1  0.499999  0.500000  0.500000  1
  Al  Al18  1  0.000000  0.500000  0.500000  1
  Al  Al19  1  0.499999  0.000000  0.500000  1
  Si  Si20  1  0.874911  0.250799  0.124783  1
  Si  Si21  1  0.754344  0.881796  0.127346  1
  Si  Si22  1  0.626997  0.372653  0.254450  1
  Si  Si23  1  0.124114  0.873985  0.249202  1
  Si  Si24  1  0.249871  0.624782  0.373985  1
  Si  Si25  1  0.627453  0.754450  0.381796  1
  Si  Si26  1  0.750130  0.375217  0.626014  1
  Si  Si27  1  0.372546  0.245549  0.618203  1
  Si  Si28  1  0.875887  0.126016  0.750798  1
  Si  Si29  1  0.373003  0.627346  0.745550  1
  Si  Si30  1  0.245657  0.118203  0.872654  1
  Si  Si31  1  0.125089  0.749202  0.875217  1
  O  O32  1  0.197854  0.111795  0.010034  1
  O  O33  1  0.311073  0.893940  0.009025  1
  O  O34  1  0.708324  0.699269  0.090829  1
  O  O35  1  0.885653  0.394902  0.083252  1
  O  O36  1  0.617496  0.409171  0.108441  1
  O  O37  1  0.990752  0.688350  0.105098  1
  O  O38  1  0.009918  0.198830  0.114709  1
  O  O39  1  0.605963  0.918037  0.114511  1
  O  O40  1  0.197600  0.583251  0.188350  1
  O  O41  1  0.490946  0.608441  0.199270  1
  O  O42  1  0.112611  0.007515  0.197280  1
  O  O43  1  0.584133  0.186714  0.201081  1
  O  O44  1  0.311087  0.915877  0.301169  1
  O  O45  1  0.491453  0.385490  0.303527  1
  O  O46  1  0.915331  0.302720  0.310235  1
  O  O47  1  0.897419  0.014366  0.313286  1
  O  O48  1  0.586059  0.898238  0.388203  1
  O  O49  1  0.302050  0.490976  0.384916  1
  O  O50  1  0.812178  0.510034  0.398238  1
  O  O51  1  0.082867  0.884915  0.393941  1
  O  O52  1  0.812074  0.803526  0.418036  1
  O  O53  1  0.104791  0.614709  0.415878  1
  O  O54  1  0.383053  0.298920  0.485634  1
  O  O55  1  0.605095  0.189766  0.492485  1
  O  O56  1  0.394905  0.810235  0.507515  1
  O  O57  1  0.616948  0.701081  0.514368  1
  O  O58  1  0.895208  0.385290  0.584122  1
  O  O59  1  0.187926  0.196474  0.581964  1
  O  O60  1  0.917133  0.115085  0.606060  1
  O  O61  1  0.187822  0.489966  0.601761  1
  O  O62  1  0.413939  0.101761  0.611795  1
  O  O63  1  0.697952  0.509025  0.615086  1
  O  O64  1  0.102581  0.985633  0.686714  1
  O  O65  1  0.084668  0.697280  0.689765  1
  O  O66  1  0.688912  0.084122  0.698831  1
  O  O67  1  0.508548  0.614511  0.696474  1
  O  O68  1  0.415866  0.813285  0.798918  1
  O  O69  1  0.887389  0.992485  0.802721  1
  O  O70  1  0.509054  0.391560  0.800730  1
  O  O71  1  0.802400  0.416748  0.811649  1
  O  O72  1  0.394037  0.081962  0.885489  1
  O  O73  1  0.990082  0.801170  0.885292  1
  O  O74  1  0.382504  0.590828  0.891558  1
  O  O75  1  0.009248  0.311651  0.894902  1
  O  O76  1  0.291677  0.300731  0.909171  1
  O  O77  1  0.114347  0.605098  0.916748  1
  O  O78  1  0.688927  0.106059  0.990974  1
  O  O79  1  0.802146  0.888205  0.989967  1
