# generated using pymatgen
data_TbNdFe7Co5P7
_symmetry_space_group_name_H-M   'P 1'
_cell_length_a   3.62880700
_cell_length_b   9.01578396
_cell_length_c   9.02439508
_cell_angle_alpha   119.99776018
_cell_angle_beta   90.00000000
_cell_angle_gamma   90.00000000
_symmetry_Int_Tables_number   1
_chemical_formula_structural   TbNdFe7Co5P7
_chemical_formula_sum   'Tb1 Nd1 Fe7 Co5 P7'
_cell_volume   255.69715749
_cell_formula_units_Z   1
loop_
 _symmetry_equiv_pos_site_id
 _symmetry_equiv_pos_as_xyz
  1  'x, y, z'
loop_
 _atom_site_type_symbol
 _atom_site_label
 _atom_site_symmetry_multiplicity
 _atom_site_fract_x
 _atom_site_fract_y
 _atom_site_fract_z
 _atom_site_occupancy
  Tb  Tb0  1  0.500000  0.333819  0.666703  1
  Nd  Nd1  1  0.000000  0.666781  0.333601  1
  Fe  Fe2  1  0.000000  0.568452  0.627786  1
  Fe  Fe3  1  0.000000  0.881745  0.728953  1
  Fe  Fe4  1  0.000000  0.271100  0.152501  1
  Fe  Fe5  1  0.000000  0.846917  0.119888  1
  Fe  Fe6  1  0.500000  0.127529  0.896406  1
  Fe  Fe7  1  0.500000  0.102218  0.229938  1
  Fe  Fe8  1  0.500000  0.772517  0.874656  1
  Co  Co9  1  0.000000  0.371938  0.939466  1
  Co  Co10  1  0.000000  0.060297  0.432479  1
  Co  Co11  1  0.500000  0.951390  0.566493  1
  Co  Co12  1  0.500000  0.432806  0.383411  1
  Co  Co13  1  0.500000  0.613885  0.047674  1
  P  P14  1  0.000000  0.110706  0.704597  1
  P  P15  1  0.000000  0.297209  0.407318  1
  P  P16  1  0.000000  0.594592  0.887528  1
  P  P17  1  0.500000  0.709812  0.604797  1
  P  P18  1  0.500000  0.395878  0.108164  1
  P  P19  1  0.500000  0.891212  0.287417  1
  P  P20  1  0.000000  0.999199  0.000223  1
