# generated using pymatgen
data_ThCl13
_symmetry_space_group_name_H-M   'P 1'
_cell_length_a   12.11511038
_cell_length_b   17.06088160
_cell_length_c   9.55840800
_cell_angle_alpha   96.44450405
_cell_angle_beta   109.45680921
_cell_angle_gamma   132.61902145
_symmetry_Int_Tables_number   1
_chemical_formula_structural   ThCl13
_chemical_formula_sum   'Th2 Cl26'
_cell_volume   1197.40282256
_cell_formula_units_Z   2
loop_
 _symmetry_equiv_pos_site_id
 _symmetry_equiv_pos_as_xyz
  1  'x, y, z'
loop_
 _atom_site_type_symbol
 _atom_site_label
 _atom_site_symmetry_multiplicity
 _atom_site_fract_x
 _atom_site_fract_y
 _atom_site_fract_z
 _atom_site_occupancy
  Th  Th0  1  0.865771  0.056890  0.984264  1
  Th  Th1  1  0.384229  0.693110  0.515736  1
  Cl  Cl2  1  0.198029  0.409853  0.699152  1
  Cl  Cl3  1  0.715811  0.356396  0.006253  1
  Cl  Cl4  1  0.941304  0.073592  0.558918  1
  Cl  Cl5  1  0.051971  0.340147  0.800848  1
  Cl  Cl6  1  0.529395  0.125491  0.193048  1
  Cl  Cl7  1  0.720605  0.624509  0.306952  1
  Cl  Cl8  1  0.308696  0.676408  0.941082  1
  Cl  Cl9  1  0.534189  0.393604  0.493747  1
  Cl  Cl10  1  0.023179  0.788122  0.725605  1
  Cl  Cl11  1  0.479725  0.736249  0.306243  1
  Cl  Cl12  1  0.060271  0.112155  0.806094  1
  Cl  Cl13  1  0.722091  0.214361  0.439495  1
  Cl  Cl14  1  0.182933  0.151672  0.149327  1
  Cl  Cl15  1  0.749690  0.543890  0.720868  1
  Cl  Cl16  1  0.221313  0.935614  0.230194  1
  Cl  Cl17  1  0.318391  0.510919  0.464469  1
  Cl  Cl18  1  0.226821  0.961878  0.774395  1
  Cl  Cl19  1  0.770275  0.013751  0.193757  1
  Cl  Cl20  1  0.682706  0.816668  0.837916  1
  Cl  Cl21  1  0.567294  0.933332  0.662084  1
  Cl  Cl22  1  0.028687  0.814386  0.269806  1
  Cl  Cl23  1  0.931609  0.239081  0.035531  1
  Cl  Cl24  1  0.189729  0.637845  0.693906  1
  Cl  Cl25  1  0.500310  0.206110  0.779132  1
  Cl  Cl26  1  0.067067  0.598328  0.350673  1
  Cl  Cl27  1  0.527909  0.535639  0.060505  1
