# generated using pymatgen
data_NaSc3In2(B2Rh5)2
_symmetry_space_group_name_H-M   'P 1'
_cell_length_a   9.70751197
_cell_length_b   9.70751197
_cell_length_c   3.04109500
_cell_angle_alpha   90.00000000
_cell_angle_beta   90.00000000
_cell_angle_gamma   88.51969623
_symmetry_Int_Tables_number   1
_chemical_formula_structural   NaSc3In2(B2Rh5)2
_chemical_formula_sum   'Na1 Sc3 In2 B4 Rh10'
_cell_volume   286.48434373
_cell_formula_units_Z   1
loop_
 _symmetry_equiv_pos_site_id
 _symmetry_equiv_pos_as_xyz
  1  'x, y, z'
loop_
 _atom_site_type_symbol
 _atom_site_label
 _atom_site_symmetry_multiplicity
 _atom_site_fract_x
 _atom_site_fract_y
 _atom_site_fract_z
 _atom_site_occupancy
  Na  Na0  1  0.821618  0.321618  0.000000  1
  Sc  Sc1  1  0.322455  0.175425  0.000000  1
  Sc  Sc2  1  0.675425  0.822455  0.000000  1
  Sc  Sc3  1  0.175265  0.675265  0.000000  1
  In  In4  1  0.996143  0.011699  0.000000  1
  In  In5  1  0.511699  0.496143  0.000000  1
  B  B6  1  0.618087  0.118087  0.000000  1
  B  B7  1  0.130147  0.383400  0.000000  1
  B  B8  1  0.883400  0.630147  0.000000  1
  B  B9  1  0.371685  0.871685  0.000000  1
  Rh  Rh10  1  0.088934  0.228386  0.500000  1
  Rh  Rh11  1  0.220697  0.926662  0.500000  1
  Rh  Rh12  1  0.761913  0.051930  0.500000  1
  Rh  Rh13  1  0.934085  0.782020  0.500000  1
  Rh  Rh14  1  0.426662  0.720697  0.500000  1
  Rh  Rh15  1  0.551930  0.261913  0.500000  1
  Rh  Rh16  1  0.728386  0.588934  0.500000  1
  Rh  Rh17  1  0.282020  0.434085  0.500000  1
  Rh  Rh18  1  0.491823  0.991823  0.500000  1
  Rh  Rh19  1  0.007625  0.507625  0.500000  1
