# generated using pymatgen
data_Tm(HfSe2)8
_symmetry_space_group_name_H-M   'P 1'
_cell_length_a   7.50213500
_cell_length_b   7.50213332
_cell_length_c   13.56738300
_cell_angle_alpha   90.00000000
_cell_angle_beta   90.00000000
_cell_angle_gamma   119.99998535
_symmetry_Int_Tables_number   1
_chemical_formula_structural   Tm(HfSe2)8
_chemical_formula_sum   'Tm1 Hf8 Se16'
_cell_volume   661.29681918
_cell_formula_units_Z   1
loop_
 _symmetry_equiv_pos_site_id
 _symmetry_equiv_pos_as_xyz
  1  'x, y, z'
loop_
 _atom_site_type_symbol
 _atom_site_label
 _atom_site_symmetry_multiplicity
 _atom_site_fract_x
 _atom_site_fract_y
 _atom_site_fract_z
 _atom_site_occupancy
  Tm  Tm0  1  0.000000  0.000000  0.000000  1
  Hf  Hf1  1  0.504036  0.495964  0.746764  1
  Hf  Hf2  1  0.495964  0.504036  0.253236  1
  Hf  Hf3  1  0.504036  0.008070  0.746764  1
  Hf  Hf4  1  0.495964  0.991930  0.253236  1
  Hf  Hf5  1  0.991930  0.495964  0.746764  1
  Hf  Hf6  1  0.008070  0.504036  0.253236  1
  Hf  Hf7  1  0.000000  0.000000  0.741864  1
  Hf  Hf8  1  0.000000  0.000000  0.258136  1
  Se  Se9  1  0.832655  0.665310  0.132628  1
  Se  Se10  1  0.832558  0.665116  0.628910  1
  Se  Se11  1  0.832655  0.167345  0.132628  1
  Se  Se12  1  0.832558  0.167442  0.628910  1
  Se  Se13  1  0.333333  0.666667  0.132559  1
  Se  Se14  1  0.333333  0.666667  0.636426  1
  Se  Se15  1  0.334690  0.167345  0.132628  1
  Se  Se16  1  0.334884  0.167442  0.628910  1
  Se  Se17  1  0.665310  0.832655  0.867372  1
  Se  Se18  1  0.665116  0.832558  0.371090  1
  Se  Se19  1  0.666667  0.333333  0.867441  1
  Se  Se20  1  0.666667  0.333333  0.363574  1
  Se  Se21  1  0.167345  0.832655  0.867372  1
  Se  Se22  1  0.167442  0.832558  0.371090  1
  Se  Se23  1  0.167345  0.334690  0.867372  1
  Se  Se24  1  0.167442  0.334884  0.371090  1
