# generated using pymatgen
data_Cr3Cd2P6WO24
_symmetry_space_group_name_H-M   'P 1'
_cell_length_a   8.82350637
_cell_length_b   8.66049141
_cell_length_c   8.66049203
_cell_angle_alpha   59.99999804
_cell_angle_beta   60.60928642
_cell_angle_gamma   60.60928694
_symmetry_Int_Tables_number   1
_chemical_formula_structural   Cr3Cd2P6WO24
_chemical_formula_sum   'Cr3 Cd2 P6 W1 O24'
_cell_volume   472.22620265
_cell_formula_units_Z   1
loop_
 _symmetry_equiv_pos_site_id
 _symmetry_equiv_pos_as_xyz
  1  'x, y, z'
loop_
 _atom_site_type_symbol
 _atom_site_label
 _atom_site_symmetry_multiplicity
 _atom_site_fract_x
 _atom_site_fract_y
 _atom_site_fract_z
 _atom_site_occupancy
  Cr  Cr0  1  0.067781  0.644073  0.644073  1
  Cr  Cr1  1  0.435670  0.854777  0.854777  1
  Cr  Cr2  1  0.933157  0.355615  0.355615  1
  Cd  Cd3  1  0.008219  0.997260  0.997260  1
  Cd  Cd4  1  0.502713  0.499096  0.499096  1
  P  P5  1  0.243888  0.252346  0.544930  1
  P  P6  1  0.243888  0.958838  0.252346  1
  P  P7  1  0.243888  0.544930  0.958838  1
  P  P8  1  0.750681  0.466849  0.037571  1
  P  P9  1  0.750681  0.037571  0.744900  1
  P  P10  1  0.750681  0.744900  0.466849  1
  W  W11  1  0.564806  0.145065  0.145065  1
  O  O12  1  0.073816  0.120624  0.297824  1
  O  O13  1  0.073816  0.507735  0.120624  1
  O  O14  1  0.073816  0.297824  0.507735  1
  O  O15  1  0.248750  0.083336  0.731579  1
  O  O16  1  0.426300  0.195806  0.383016  1
  O  O17  1  0.255531  0.420481  0.553217  1
  O  O18  1  0.248750  0.936336  0.083336  1
  O  O19  1  0.255531  0.770770  0.420481  1
  O  O20  1  0.572704  0.619970  0.008271  1
  O  O21  1  0.255531  0.553217  0.770770  1
  O  O22  1  0.746844  0.270065  0.065962  1
  O  O23  1  0.572704  0.008271  0.799054  1
  O  O24  1  0.426300  0.994880  0.195806  1
  O  O25  1  0.248750  0.731579  0.936336  1
  O  O26  1  0.749716  0.439634  0.229320  1
  O  O27  1  0.426300  0.383016  0.994880  1
  O  O28  1  0.749716  0.229320  0.581331  1
  O  O29  1  0.746844  0.065962  0.917128  1
  O  O30  1  0.749716  0.581331  0.439634  1
  O  O31  1  0.572704  0.799054  0.619970  1
  O  O32  1  0.746844  0.917128  0.270065  1
  O  O33  1  0.927658  0.709253  0.486773  1
  O  O34  1  0.927658  0.486773  0.876315  1
  O  O35  1  0.927658  0.876315  0.709253  1
