# generated using pymatgen
data_Tb12InSi4Tc
_symmetry_space_group_name_H-M   'P 1'
_cell_length_a   8.53078542
_cell_length_b   8.53078530
_cell_length_c   8.53078400
_cell_angle_alpha   112.03822052
_cell_angle_beta   111.15867988
_cell_angle_gamma   105.29702377
_symmetry_Int_Tables_number   1
_chemical_formula_structural   Tb12InSi4Tc
_chemical_formula_sum   'Tb12 In1 Si4 Tc1'
_cell_volume   475.99416903
_cell_formula_units_Z   1
loop_
 _symmetry_equiv_pos_site_id
 _symmetry_equiv_pos_as_xyz
  1  'x, y, z'
loop_
 _atom_site_type_symbol
 _atom_site_label
 _atom_site_symmetry_multiplicity
 _atom_site_fract_x
 _atom_site_fract_y
 _atom_site_fract_z
 _atom_site_occupancy
  Tb  Tb0  1  0.040445  0.733377  0.307068  1
  Tb  Tb1  1  0.959555  0.266623  0.692932  1
  Tb  Tb2  1  0.573690  0.266623  0.307067  1
  Tb  Tb3  1  0.426310  0.733377  0.692933  1
  Tb  Tb4  1  0.681550  0.884369  0.202819  1
  Tb  Tb5  1  0.318449  0.521268  0.202818  1
  Tb  Tb6  1  0.318450  0.115631  0.797181  1
  Tb  Tb7  1  0.681551  0.478732  0.797182  1
  Tb  Tb8  1  0.174326  0.236199  0.410524  1
  Tb  Tb9  1  0.825674  0.236199  0.061872  1
  Tb  Tb10  1  0.174326  0.763801  0.938128  1
  Tb  Tb11  1  0.825674  0.763801  0.589476  1
  In  In12  1  0.500000  0.000000  0.500000  1
  Si  Si13  1  0.633201  0.500000  0.133201  1
  Si  Si14  1  0.366799  0.500000  0.866799  1
  Si  Si15  1  0.883645  0.883645  0.000000  1
  Si  Si16  1  0.116355  0.116355  0.000000  1
  Tc  Tc17  1  0.000000  0.500000  0.500000  1
