# generated using pymatgen
data_Ta5Co16Si7W
_symmetry_space_group_name_H-M   'P 1'
_cell_length_a   7.87913840
_cell_length_b   7.88543708
_cell_length_c   7.88425684
_cell_angle_alpha   59.95828781
_cell_angle_beta   60.02231598
_cell_angle_gamma   60.02839817
_symmetry_Int_Tables_number   1
_chemical_formula_structural   Ta5Co16Si7W
_chemical_formula_sum   'Ta5 Co16 Si7 W1'
_cell_volume   346.40121863
_cell_formula_units_Z   1
loop_
 _symmetry_equiv_pos_site_id
 _symmetry_equiv_pos_as_xyz
  1  'x, y, z'
loop_
 _atom_site_type_symbol
 _atom_site_label
 _atom_site_symmetry_multiplicity
 _atom_site_fract_x
 _atom_site_fract_y
 _atom_site_fract_z
 _atom_site_occupancy
  Ta  Ta0  1  0.202197  0.797850  0.201276  1
  Ta  Ta1  1  0.796263  0.203755  0.203720  1
  Ta  Ta2  1  0.798721  0.201257  0.797842  1
  Ta  Ta3  1  0.798714  0.797875  0.201225  1
  Ta  Ta4  1  0.202191  0.201308  0.797816  1
  Co  Co5  1  0.380783  0.381181  0.381202  1
  Co  Co6  1  0.496392  0.834245  0.834286  1
  Co  Co7  1  0.618780  0.619214  0.143230  1
  Co  Co8  1  0.165698  0.164818  0.503781  1
  Co  Co9  1  0.834317  0.834243  0.497124  1
  Co  Co10  1  0.165692  0.165605  0.165641  1
  Co  Co11  1  0.835047  0.834232  0.834273  1
  Co  Co12  1  0.380601  0.384298  0.854501  1
  Co  Co13  1  0.834319  0.497060  0.834301  1
  Co  Co14  1  0.615663  0.619404  0.619414  1
  Co  Co15  1  0.380600  0.854513  0.384290  1
  Co  Co16  1  0.145482  0.619419  0.619428  1
  Co  Co17  1  0.618771  0.143249  0.619214  1
  Co  Co18  1  0.165689  0.503739  0.164876  1
  Co  Co19  1  0.856796  0.381195  0.381215  1
  Co  Co20  1  0.503032  0.165611  0.165645  1
  Si  Si21  1  0.001318  0.998369  0.500706  1
  Si  Si22  1  0.499613  0.998492  0.500532  1
  Si  Si23  1  0.501547  0.498432  0.498409  1
  Si  Si24  1  0.001363  0.500735  0.998401  1
  Si  Si25  1  0.499505  0.500563  0.998526  1
  Si  Si26  1  0.500222  0.999853  0.999856  1
  Si  Si27  1  0.999984  0.500082  0.500009  1
  W  W28  1  0.200699  0.799406  0.799263  1
