# generated using pymatgen
data_Er3Tm2Ga2Sb
_symmetry_space_group_name_H-M   'P 1'
_cell_length_a   8.59009003
_cell_length_b   8.60758269
_cell_length_c   6.45307900
_cell_angle_alpha   90.00000000
_cell_angle_beta   90.00000000
_cell_angle_gamma   120.06739265
_symmetry_Int_Tables_number   1
_chemical_formula_structural   Er3Tm2Ga2Sb
_chemical_formula_sum   'Er6 Tm4 Ga4 Sb2'
_cell_volume   412.93453439
_cell_formula_units_Z   2
loop_
 _symmetry_equiv_pos_site_id
 _symmetry_equiv_pos_as_xyz
  1  'x, y, z'
loop_
 _atom_site_type_symbol
 _atom_site_label
 _atom_site_symmetry_multiplicity
 _atom_site_fract_x
 _atom_site_fract_y
 _atom_site_fract_z
 _atom_site_occupancy
  Er  Er0  1  0.986802  0.750368  0.750000  1
  Er  Er1  1  0.986802  0.236435  0.250000  1
  Er  Er2  1  0.765571  0.765860  0.250000  1
  Er  Er3  1  0.765571  0.999712  0.750000  1
  Er  Er4  1  0.236420  0.249244  0.750000  1
  Er  Er5  1  0.236420  0.987175  0.250000  1
  Tm  Tm6  1  0.331852  0.665927  0.500000  1
  Tm  Tm7  1  0.684736  0.342368  0.000000  1
  Tm  Tm8  1  0.684736  0.342368  0.500000  1
  Tm  Tm9  1  0.331852  0.665927  0.000000  1
  Ga  Ga10  1  0.001483  0.601311  0.250000  1
  Ga  Ga11  1  0.001483  0.400172  0.750000  1
  Ga  Ga12  1  0.597918  0.601330  0.750000  1
  Ga  Ga13  1  0.597918  0.996586  0.250000  1
  Sb  Sb14  1  0.395217  0.004269  0.750000  1
  Sb  Sb15  1  0.395217  0.390948  0.250000  1
