# generated using pymatgen
data_Sr7Li12Ca(TaN4)4
_symmetry_space_group_name_H-M   'P 1'
_cell_length_a   8.67703308
_cell_length_b   8.98593908
_cell_length_c   7.01893900
_cell_angle_alpha   90.00000000
_cell_angle_beta   90.00000000
_cell_angle_gamma   89.98443644
_symmetry_Int_Tables_number   1
_chemical_formula_structural   Sr7Li12Ca(TaN4)4
_chemical_formula_sum   'Sr7 Li12 Ca1 Ta4 N16'
_cell_volume   547.27571283
_cell_formula_units_Z   1
loop_
 _symmetry_equiv_pos_site_id
 _symmetry_equiv_pos_as_xyz
  1  'x, y, z'
loop_
 _atom_site_type_symbol
 _atom_site_label
 _atom_site_symmetry_multiplicity
 _atom_site_fract_x
 _atom_site_fract_y
 _atom_site_fract_z
 _atom_site_occupancy
  Sr  Sr0  1  0.756589  0.248159  0.002063  1
  Sr  Sr1  1  0.243411  0.751841  0.002063  1
  Sr  Sr2  1  0.000000  0.000000  0.260122  1
  Sr  Sr3  1  0.259957  0.255051  0.496968  1
  Sr  Sr4  1  0.740043  0.744949  0.496968  1
  Sr  Sr5  1  0.000000  0.000000  0.739530  1
  Sr  Sr6  1  0.500000  0.500000  0.762688  1
  Li  Li7  1  0.208461  0.422465  0.000440  1
  Li  Li8  1  0.791539  0.577534  0.000440  1
  Li  Li9  1  0.019999  0.365433  0.237045  1
  Li  Li10  1  0.980001  0.634567  0.237045  1
  Li  Li11  1  0.519436  0.136106  0.262443  1
  Li  Li12  1  0.480564  0.863894  0.262443  1
  Li  Li13  1  0.704975  0.077569  0.499533  1
  Li  Li14  1  0.295024  0.922431  0.499533  1
  Li  Li15  1  0.519854  0.133549  0.736202  1
  Li  Li16  1  0.480146  0.866451  0.736202  1
  Li  Li17  1  0.019028  0.366056  0.761349  1
  Li  Li18  1  0.980972  0.633944  0.761349  1
  Ca  Ca19  1  0.500000  0.500000  0.239011  1
  Ta  Ta20  1  0.287104  0.138654  0.001170  1
  Ta  Ta21  1  0.712897  0.861345  0.001170  1
  Ta  Ta22  1  0.783042  0.363939  0.498252  1
  Ta  Ta23  1  0.216959  0.636061  0.498252  1
  N  N24  1  0.074391  0.222008  0.000645  1
  N  N25  1  0.452686  0.289179  0.009579  1
  N  N26  1  0.547313  0.710821  0.009579  1
  N  N27  1  0.925609  0.777992  0.000645  1
  N  N28  1  0.302984  0.018768  0.234547  1
  N  N29  1  0.697016  0.981231  0.234547  1
  N  N30  1  0.796229  0.483201  0.263435  1
  N  N31  1  0.203770  0.516799  0.263435  1
  N  N32  1  0.951122  0.217020  0.497904  1
  N  N33  1  0.570709  0.279923  0.498697  1
  N  N34  1  0.429291  0.720077  0.498697  1
  N  N35  1  0.048878  0.782980  0.497904  1
  N  N36  1  0.802166  0.481354  0.733576  1
  N  N37  1  0.197833  0.518646  0.733576  1
  N  N38  1  0.304488  0.020475  0.765476  1
  N  N39  1  0.695512  0.979524  0.765476  1
