# generated using pymatgen
data_PaBe12Rh
_symmetry_space_group_name_H-M   'P 1'
_cell_length_a   7.35114653
_cell_length_b   7.47062879
_cell_length_c   7.31745592
_cell_angle_alpha   59.60582762
_cell_angle_beta   59.73388987
_cell_angle_gamma   59.16108733
_symmetry_Int_Tables_number   1
_chemical_formula_structural   PaBe12Rh
_chemical_formula_sum   'Pa2 Be24 Rh2'
_cell_volume   280.91118066
_cell_formula_units_Z   2
loop_
 _symmetry_equiv_pos_site_id
 _symmetry_equiv_pos_as_xyz
  1  'x, y, z'
loop_
 _atom_site_type_symbol
 _atom_site_label
 _atom_site_symmetry_multiplicity
 _atom_site_fract_x
 _atom_site_fract_y
 _atom_site_fract_z
 _atom_site_occupancy
  Pa  Pa0  1  0.249114  0.250886  0.249114  1
  Pa  Pa1  1  0.750886  0.749114  0.750886  1
  Be  Be2  1  0.500000  0.500000  0.500000  1
  Be  Be3  1  0.000000  0.000000  0.000000  1
  Be  Be4  1  0.566950  0.790497  0.433050  1
  Be  Be5  1  0.433050  0.209503  0.566950  1
  Be  Be6  1  0.294671  0.938167  0.705329  1
  Be  Be7  1  0.705329  0.061833  0.294671  1
  Be  Be8  1  0.931206  0.271650  0.068794  1
  Be  Be9  1  0.068794  0.728350  0.931206  1
  Be  Be10  1  0.203249  0.808577  0.552984  1
  Be  Be11  1  0.796751  0.191423  0.447016  1
  Be  Be12  1  0.447016  0.564811  0.796751  1
  Be  Be13  1  0.552984  0.435189  0.203249  1
  Be  Be14  1  0.710775  0.281438  0.937979  1
  Be  Be15  1  0.289225  0.718562  0.062021  1
  Be  Be16  1  0.062021  0.930193  0.289225  1
  Be  Be17  1  0.937979  0.069807  0.710775  1
  Be  Be18  1  0.564865  0.201266  0.794290  1
  Be  Be19  1  0.435135  0.798734  0.205710  1
  Be  Be20  1  0.794290  0.439579  0.564865  1
  Be  Be21  1  0.205710  0.560421  0.435135  1
  Be  Be22  1  0.939154  0.713902  0.289967  1
  Be  Be23  1  0.060846  0.286098  0.710033  1
  Be  Be24  1  0.289967  0.056976  0.939154  1
  Be  Be25  1  0.710033  0.943024  0.060846  1
  Rh  Rh26  1  0.805545  0.553309  0.194455  1
  Rh  Rh27  1  0.194455  0.446691  0.805545  1
