# generated using pymatgen
data_Y10In6Se
_symmetry_space_group_name_H-M   'P 1'
_cell_length_a   9.07121100
_cell_length_b   9.07121110
_cell_length_c   6.71252300
_cell_angle_alpha   90.00000000
_cell_angle_beta   90.00000000
_cell_angle_gamma   120.00000327
_symmetry_Int_Tables_number   1
_chemical_formula_structural   Y10In6Se
_chemical_formula_sum   'Y10 In6 Se1'
_cell_volume   478.35128724
_cell_formula_units_Z   1
loop_
 _symmetry_equiv_pos_site_id
 _symmetry_equiv_pos_as_xyz
  1  'x, y, z'
loop_
 _atom_site_type_symbol
 _atom_site_label
 _atom_site_symmetry_multiplicity
 _atom_site_fract_x
 _atom_site_fract_y
 _atom_site_fract_z
 _atom_site_occupancy
  Y  Y0  1  0.333333  0.666667  0.500000  1
  Y  Y1  1  0.666667  0.333333  0.500000  1
  Y  Y2  1  0.666667  0.333333  0.000000  1
  Y  Y3  1  0.333333  0.666667  0.000000  1
  Y  Y4  1  0.000000  0.748154  0.247279  1
  Y  Y5  1  0.251846  0.251846  0.247279  1
  Y  Y6  1  0.748154  0.000000  0.247279  1
  Y  Y7  1  0.000000  0.251846  0.752721  1
  Y  Y8  1  0.748154  0.748154  0.752721  1
  Y  Y9  1  0.251846  0.000000  0.752721  1
  In  In10  1  0.000000  0.398474  0.250386  1
  In  In11  1  0.601526  0.601526  0.250386  1
  In  In12  1  0.398474  0.000000  0.250386  1
  In  In13  1  0.000000  0.601526  0.749614  1
  In  In14  1  0.398474  0.398474  0.749614  1
  In  In15  1  0.601526  0.000000  0.749614  1
  Se  Se16  1  0.000000  0.000000  0.500000  1
