# generated using pymatgen
data_TbGdYTaO7
_symmetry_space_group_name_H-M   'P 1'
_cell_length_a   6.49826520
_cell_length_b   6.49826432
_cell_length_c   7.56761800
_cell_angle_alpha   90.00000000
_cell_angle_beta   90.00000000
_cell_angle_gamma   109.38492601
_symmetry_Int_Tables_number   1
_chemical_formula_structural   TbGdYTaO7
_chemical_formula_sum   'Tb2 Gd2 Y2 Ta2 O14'
_cell_volume   301.44525405
_cell_formula_units_Z   2
loop_
 _symmetry_equiv_pos_site_id
 _symmetry_equiv_pos_as_xyz
  1  'x, y, z'
loop_
 _atom_site_type_symbol
 _atom_site_label
 _atom_site_symmetry_multiplicity
 _atom_site_fract_x
 _atom_site_fract_y
 _atom_site_fract_z
 _atom_site_occupancy
  Tb  Tb0  1  0.534489  0.000173  0.750000  1
  Tb  Tb1  1  0.000173  0.534489  0.250000  1
  Gd  Gd2  1  0.499845  0.499845  0.500000  1
  Gd  Gd3  1  0.499845  0.499845  0.000000  1
  Y  Y4  1  0.466291  0.999836  0.250000  1
  Y  Y5  1  0.999836  0.466291  0.750000  1
  Ta  Ta6  1  0.999914  0.999914  0.500000  1
  Ta  Ta7  1  0.999914  0.999914  0.000000  1
  O  O8  1  0.679773  0.929578  0.467963  1
  O  O9  1  0.929578  0.679773  0.532037  1
  O  O10  1  0.679773  0.929578  0.032037  1
  O  O11  1  0.929578  0.679773  0.967963  1
  O  O12  1  0.320369  0.070526  0.531658  1
  O  O13  1  0.070526  0.320369  0.468342  1
  O  O14  1  0.320369  0.070526  0.968342  1
  O  O15  1  0.070526  0.320369  0.031658  1
  O  O16  1  0.935592  0.064338  0.750000  1
  O  O17  1  0.064338  0.935592  0.250000  1
  O  O18  1  0.368383  0.629817  0.750000  1
  O  O19  1  0.629817  0.368383  0.250000  1
  O  O20  1  0.639342  0.361729  0.750000  1
  O  O21  1  0.361729  0.639342  0.250000  1
