# generated using pymatgen
data_Ca4Sb2Te
_symmetry_space_group_name_H-M   'P 1'
_cell_length_a   8.24749653
_cell_length_b   8.24749640
_cell_length_c   8.24749692
_cell_angle_alpha   109.44742602
_cell_angle_beta   109.44742564
_cell_angle_gamma   109.51882070
_symmetry_Int_Tables_number   1
_chemical_formula_structural   Ca4Sb2Te
_chemical_formula_sum   'Ca8 Sb4 Te2'
_cell_volume   431.86133454
_cell_formula_units_Z   2
loop_
 _symmetry_equiv_pos_site_id
 _symmetry_equiv_pos_as_xyz
  1  'x, y, z'
loop_
 _atom_site_type_symbol
 _atom_site_label
 _atom_site_symmetry_multiplicity
 _atom_site_fract_x
 _atom_site_fract_y
 _atom_site_fract_z
 _atom_site_occupancy
  Ca  Ca0  1  0.632876  0.883188  0.897853  1
  Ca  Ca1  1  0.264977  0.367124  0.250311  1
  Ca  Ca2  1  0.116812  0.014665  0.749689  1
  Ca  Ca3  1  0.485023  0.235335  0.602147  1
  Ca  Ca4  1  0.117124  0.514977  0.750311  1
  Ca  Ca5  1  0.764665  0.366812  0.249689  1
  Ca  Ca6  1  0.985335  0.735023  0.102147  1
  Ca  Ca7  1  0.633188  0.882876  0.397853  1
  Sb  Sb8  1  0.375000  0.993741  0.118741  1
  Sb  Sb9  1  0.006259  0.125000  0.381259  1
  Sb  Sb10  1  0.875000  0.256259  0.881259  1
  Sb  Sb11  1  0.743741  0.625000  0.618741  1
  Te  Te12  1  0.500000  0.500000  0.000000  1
  Te  Te13  1  0.250000  0.750000  0.500000  1
