# generated using pymatgen
data_Tb3Ho3Si24Os3Ru5
_symmetry_space_group_name_H-M   'P 1'
_cell_length_a   10.12496339
_cell_length_b   10.12465521
_cell_length_c   8.15659918
_cell_angle_alpha   89.98338864
_cell_angle_beta   90.02027122
_cell_angle_gamma   132.48616899
_symmetry_Int_Tables_number   1
_chemical_formula_structural   Tb3Ho3Si24Os3Ru5
_chemical_formula_sum   'Tb3 Ho3 Si24 Os3 Ru5'
_cell_volume   616.60880779
_cell_formula_units_Z   1
loop_
 _symmetry_equiv_pos_site_id
 _symmetry_equiv_pos_as_xyz
  1  'x, y, z'
loop_
 _atom_site_type_symbol
 _atom_site_label
 _atom_site_symmetry_multiplicity
 _atom_site_fract_x
 _atom_site_fract_y
 _atom_site_fract_z
 _atom_site_occupancy
  Tb  Tb0  1  0.997849  0.497864  0.249821  1
  Tb  Tb1  1  0.497996  0.997725  0.249630  1
  Tb  Tb2  1  0.002266  0.501983  0.750372  1
  Ho  Ho3  1  0.500042  0.499974  0.500041  1
  Ho  Ho4  1  0.000005  0.000003  0.999959  1
  Ho  Ho5  1  0.501962  0.002038  0.750150  1
  Si  Si6  1  0.795533  0.203775  0.500395  1
  Si  Si7  1  0.296054  0.704554  0.999646  1
  Si  Si8  1  0.204538  0.796084  0.500357  1
  Si  Si9  1  0.704438  0.294800  0.999587  1
  Si  Si10  1  0.332240  0.331969  0.833575  1
  Si  Si11  1  0.668051  0.667796  0.166447  1
  Si  Si12  1  0.166648  0.166835  0.332228  1
  Si  Si13  1  0.833172  0.833381  0.667746  1
  Si  Si14  1  0.121269  0.888364  0.728349  1
  Si  Si15  1  0.111763  0.878836  0.271448  1
  Si  Si16  1  0.612901  0.379283  0.227477  1
  Si  Si17  1  0.620634  0.387066  0.772770  1
  Si  Si18  1  0.878442  0.111790  0.270421  1
  Si  Si19  1  0.888169  0.121511  0.729392  1
  Si  Si20  1  0.388331  0.621880  0.772297  1
  Si  Si21  1  0.378205  0.611786  0.227891  1
  Si  Si22  1  0.344662  0.111704  0.505444  1
  Si  Si23  1  0.888052  0.655062  0.494831  1
  Si  Si24  1  0.388319  0.155791  0.003553  1
  Si  Si25  1  0.844506  0.611865  0.996206  1
  Si  Si26  1  0.655602  0.888400  0.494815  1
  Si  Si27  1  0.111773  0.344700  0.505421  1
  Si  Si28  1  0.613059  0.846087  0.994926  1
  Si  Si29  1  0.153717  0.386739  0.004798  1
  Os  Os30  1  0.668927  0.329855  0.500536  1
  Os  Os31  1  0.170115  0.831084  0.999576  1
  Os  Os32  1  0.331102  0.670168  0.500430  1
  Ru  Ru33  1  0.829737  0.168963  0.999469  1
  Ru  Ru34  1  0.127918  0.127771  0.626510  1
  Ru  Ru35  1  0.872285  0.872116  0.373403  1
  Ru  Ru36  1  0.373891  0.374242  0.128143  1
  Ru  Ru37  1  0.625829  0.626157  0.871937  1
