# generated using pymatgen
data_Dy5Er3Sc12Si15Pt
_symmetry_space_group_name_H-M   'P 1'
_cell_length_a   7.07762509
_cell_length_b   7.42653190
_cell_length_c   13.97252243
_cell_angle_alpha   89.97693809
_cell_angle_beta   89.98356647
_cell_angle_gamma   90.22420164
_symmetry_Int_Tables_number   1
_chemical_formula_structural   Dy5Er3Sc12Si15Pt
_chemical_formula_sum   'Dy5 Er3 Sc12 Si15 Pt1'
_cell_volume   734.42092440
_cell_formula_units_Z   1
loop_
 _symmetry_equiv_pos_site_id
 _symmetry_equiv_pos_as_xyz
  1  'x, y, z'
loop_
 _atom_site_type_symbol
 _atom_site_label
 _atom_site_symmetry_multiplicity
 _atom_site_fract_x
 _atom_site_fract_y
 _atom_site_fract_z
 _atom_site_occupancy
  Dy  Dy0  1  0.990348  0.822118  0.594651  1
  Dy  Dy1  1  0.511159  0.323229  0.096694  1
  Dy  Dy2  1  0.011675  0.177858  0.403594  1
  Dy  Dy3  1  0.511030  0.323263  0.403089  1
  Dy  Dy4  1  0.488920  0.676343  0.595221  1
  Er  Er5  1  0.011717  0.178146  0.096555  1
  Er  Er6  1  0.990367  0.821931  0.905093  1
  Er  Er7  1  0.488703  0.676955  0.904613  1
  Sc  Sc8  1  0.158971  0.503074  0.750195  1
  Sc  Sc9  1  0.838415  0.497734  0.249911  1
  Sc  Sc10  1  0.338860  0.004608  0.249900  1
  Sc  Sc11  1  0.665910  0.998896  0.750206  1
  Sc  Sc12  1  0.324045  0.173887  0.625220  1
  Sc  Sc13  1  0.671535  0.825556  0.373429  1
  Sc  Sc14  1  0.170611  0.676958  0.373659  1
  Sc  Sc15  1  0.671470  0.825574  0.126386  1
  Sc  Sc16  1  0.830461  0.323685  0.625226  1
  Sc  Sc17  1  0.323646  0.173801  0.874975  1
  Sc  Sc18  1  0.830673  0.323582  0.874944  1
  Sc  Sc19  1  0.170535  0.677212  0.126135  1
  Si  Si20  1  0.969540  0.885551  0.249807  1
  Si  Si21  1  0.468374  0.615515  0.249928  1
  Si  Si22  1  0.531320  0.387154  0.750179  1
  Si  Si23  1  0.288002  0.868145  0.750464  1
  Si  Si24  1  0.713869  0.130180  0.249734  1
  Si  Si25  1  0.212140  0.371582  0.249734  1
  Si  Si26  1  0.780536  0.626059  0.750482  1
  Si  Si27  1  0.159064  0.466334  0.537886  1
  Si  Si28  1  0.841905  0.535850  0.460588  1
  Si  Si29  1  0.345006  0.965168  0.460522  1
  Si  Si30  1  0.842006  0.535926  0.039349  1
  Si  Si31  1  0.658255  0.034048  0.538543  1
  Si  Si32  1  0.159494  0.466789  0.962008  1
  Si  Si33  1  0.658899  0.033153  0.961263  1
  Si  Si34  1  0.344204  0.965053  0.039421  1
  Pt  Pt35  1  0.028333  0.109082  0.750396  1
