# generated using pymatgen
data_Tb16TlNi2Ag3Rh2
_symmetry_space_group_name_H-M   'P 1'
_cell_length_a   9.54641034
_cell_length_b   9.52599110
_cell_length_c   9.55658505
_cell_angle_alpha   60.10586245
_cell_angle_beta   60.36561332
_cell_angle_gamma   60.07073307
_symmetry_Int_Tables_number   1
_chemical_formula_structural   Tb16TlNi2Ag3Rh2
_chemical_formula_sum   'Tb16 Tl1 Ni2 Ag3 Rh2'
_cell_volume   617.02835474
_cell_formula_units_Z   1
loop_
 _symmetry_equiv_pos_site_id
 _symmetry_equiv_pos_as_xyz
  1  'x, y, z'
loop_
 _atom_site_type_symbol
 _atom_site_label
 _atom_site_symmetry_multiplicity
 _atom_site_fract_x
 _atom_site_fract_y
 _atom_site_fract_z
 _atom_site_occupancy
  Tb  Tb0  1  0.809466  0.809136  0.187753  1
  Tb  Tb1  1  0.812061  0.189993  0.807952  1
  Tb  Tb2  1  0.185826  0.191931  0.811458  1
  Tb  Tb3  1  0.651584  0.051052  0.652875  1
  Tb  Tb4  1  0.070877  0.058271  0.433929  1
  Tb  Tb5  1  0.436754  0.437426  0.062042  1
  Tb  Tb6  1  0.651584  0.644489  0.652875  1
  Tb  Tb7  1  0.809466  0.193645  0.187753  1
  Tb  Tb8  1  0.185826  0.810785  0.811458  1
  Tb  Tb9  1  0.052157  0.647778  0.652288  1
  Tb  Tb10  1  0.436754  0.063778  0.062042  1
  Tb  Tb11  1  0.441185  0.062283  0.434247  1
  Tb  Tb12  1  0.068640  0.434597  0.062166  1
  Tb  Tb13  1  0.651410  0.649042  0.050505  1
  Tb  Tb14  1  0.185187  0.813221  0.188370  1
  Tb  Tb15  1  0.070877  0.436924  0.433929  1
  Tl  Tl16  1  0.745341  0.418100  0.418458  1
  Ni  Ni17  1  0.857604  0.428414  0.857545  1
  Ni  Ni18  1  0.857604  0.856437  0.857545  1
  Ag  Ag19  1  0.412848  0.421235  0.417819  1
  Ag  Ag20  1  0.411828  0.418070  0.752033  1
  Ag  Ag21  1  0.412848  0.748096  0.417819  1
  Rh  Rh22  1  0.854649  0.858435  0.428482  1
  Rh  Rh23  1  0.427625  0.856860  0.858656  1
