# generated using pymatgen
data_Pr(Ti3Bi2)2
_symmetry_space_group_name_H-M   'P 1'
_cell_length_a   8.58396136
_cell_length_b   8.58396138
_cell_length_c   8.58396188
_cell_angle_alpha   40.15180204
_cell_angle_beta   40.15180457
_cell_angle_gamma   40.15179790
_symmetry_Int_Tables_number   1
_chemical_formula_structural   Pr(Ti3Bi2)2
_chemical_formula_sum   'Pr1 Ti6 Bi4'
_cell_volume   237.02721795
_cell_formula_units_Z   1
loop_
 _symmetry_equiv_pos_site_id
 _symmetry_equiv_pos_as_xyz
  1  'x, y, z'
loop_
 _atom_site_type_symbol
 _atom_site_label
 _atom_site_symmetry_multiplicity
 _atom_site_fract_x
 _atom_site_fract_y
 _atom_site_fract_z
 _atom_site_occupancy
  Pr  Pr0  1  0.000000  0.000000  0.000000  1
  Ti  Ti1  1  0.595460  0.595460  0.122057  1
  Ti  Ti2  1  0.877943  0.404542  0.404540  1
  Ti  Ti3  1  0.404542  0.877943  0.404540  1
  Ti  Ti4  1  0.595459  0.122057  0.595461  1
  Ti  Ti5  1  0.122057  0.595459  0.595461  1
  Ti  Ti6  1  0.404541  0.404541  0.877943  1
  Bi  Bi7  1  0.131340  0.131340  0.131340  1
  Bi  Bi8  1  0.331601  0.331601  0.331601  1
  Bi  Bi9  1  0.668399  0.668399  0.668399  1
  Bi  Bi10  1  0.868660  0.868660  0.868660  1
