# generated using pymatgen
data_Th6Al24Ru7Au
_symmetry_space_group_name_H-M   'P 1'
_cell_length_a   8.99648003
_cell_length_b   8.99648184
_cell_length_c   9.58658136
_cell_angle_alpha   90.03396016
_cell_angle_beta   89.96603923
_cell_angle_gamma   119.79952254
_symmetry_Int_Tables_number   1
_chemical_formula_structural   Th6Al24Ru7Au
_chemical_formula_sum   'Th6 Al24 Ru7 Au1'
_cell_volume   673.30744576
_cell_formula_units_Z   1
loop_
 _symmetry_equiv_pos_site_id
 _symmetry_equiv_pos_as_xyz
  1  'x, y, z'
loop_
 _atom_site_type_symbol
 _atom_site_label
 _atom_site_symmetry_multiplicity
 _atom_site_fract_x
 _atom_site_fract_y
 _atom_site_fract_z
 _atom_site_occupancy
  Th  Th0  1  0.191253  0.386455  0.251120  1
  Th  Th1  1  0.808747  0.613545  0.748880  1
  Th  Th2  1  0.613545  0.808747  0.251120  1
  Th  Th3  1  0.386455  0.191253  0.748880  1
  Th  Th4  1  0.194176  0.805824  0.254769  1
  Th  Th5  1  0.805824  0.194176  0.745231  1
  Al  Al6  1  0.328194  0.671806  0.015796  1
  Al  Al7  1  0.671806  0.328194  0.984204  1
  Al  Al8  1  0.666526  0.333474  0.512129  1
  Al  Al9  1  0.333474  0.666526  0.487871  1
  Al  Al10  1  0.162465  0.324887  0.575924  1
  Al  Al11  1  0.837535  0.675113  0.424076  1
  Al  Al12  1  0.675113  0.837535  0.575924  1
  Al  Al13  1  0.849370  0.678709  0.079281  1
  Al  Al14  1  0.324887  0.162465  0.424076  1
  Al  Al15  1  0.150630  0.321291  0.920719  1
  Al  Al16  1  0.162754  0.837246  0.578348  1
  Al  Al17  1  0.321291  0.150630  0.079281  1
  Al  Al18  1  0.837246  0.162754  0.421652  1
  Al  Al19  1  0.678709  0.849370  0.920719  1
  Al  Al20  1  0.837456  0.162544  0.078034  1
  Al  Al21  1  0.162544  0.837456  0.921966  1
  Al  Al22  1  0.563325  0.126170  0.249549  1
  Al  Al23  1  0.436675  0.873830  0.750451  1
  Al  Al24  1  0.873830  0.436675  0.249549  1
  Al  Al25  1  0.126170  0.563325  0.750451  1
  Al  Al26  1  0.565489  0.434511  0.257339  1
  Al  Al27  1  0.434511  0.565489  0.742661  1
  Al  Al28  1  0.999298  0.000702  0.250483  1
  Al  Al29  1  0.000702  0.999298  0.749517  1
  Ru  Ru30  1  0.500000  0.000000  0.000000  1
  Ru  Ru31  1  0.000000  0.500000  0.000000  1
  Ru  Ru32  1  0.500000  0.000000  0.500000  1
  Ru  Ru33  1  0.000000  0.500000  0.500000  1
  Ru  Ru34  1  0.500000  0.500000  0.500000  1
  Ru  Ru35  1  0.000000  0.000000  0.000000  1
  Ru  Ru36  1  0.000000  0.000000  0.500000  1
  Au  Au37  1  0.500000  0.500000  0.000000  1
