# generated using pymatgen
data_Ac7La9(YbPt4)4
_symmetry_space_group_name_H-M   'P 1'
_cell_length_a   7.76335780
_cell_length_b   8.03804347
_cell_length_c   15.42915900
_cell_angle_alpha   90.03540515
_cell_angle_beta   90.05669535
_cell_angle_gamma   89.80003640
_symmetry_Int_Tables_number   1
_chemical_formula_structural   Ac7La9(YbPt4)4
_chemical_formula_sum   'Ac7 La9 Yb4 Pt16'
_cell_volume   962.80706432
_cell_formula_units_Z   1
loop_
 _symmetry_equiv_pos_site_id
 _symmetry_equiv_pos_as_xyz
  1  'x, y, z'
loop_
 _atom_site_type_symbol
 _atom_site_label
 _atom_site_symmetry_multiplicity
 _atom_site_fract_x
 _atom_site_fract_y
 _atom_site_fract_z
 _atom_site_occupancy
  Ac  Ac0  1  0.001846  0.821533  0.900316  1
  Ac  Ac1  1  0.498983  0.321495  0.098974  1
  Ac  Ac2  1  0.998583  0.177663  0.401285  1
  Ac  Ac3  1  0.498869  0.322856  0.402220  1
  Ac  Ac4  1  0.999028  0.178230  0.098812  1
  Ac  Ac5  1  0.501319  0.678427  0.900624  1
  Ac  Ac6  1  0.000958  0.820221  0.598615  1
  La  La7  1  0.654335  0.167943  0.624040  1
  La  La8  1  0.154372  0.331739  0.875149  1
  La  La9  1  0.345740  0.832071  0.124135  1
  La  La10  1  0.845853  0.667736  0.377080  1
  La  La11  1  0.347384  0.831240  0.377319  1
  La  La12  1  0.846084  0.668275  0.123835  1
  La  La13  1  0.653811  0.168208  0.875281  1
  La  La14  1  0.155088  0.333079  0.622738  1
  La  La15  1  0.501968  0.679844  0.600335  1
  Yb  Yb16  1  0.818429  0.508047  0.748529  1
  Yb  Yb17  1  0.320061  0.991073  0.748165  1
  Yb  Yb18  1  0.180312  0.492364  0.250471  1
  Yb  Yb19  1  0.680086  0.007856  0.250488  1
  Pt  Pt20  1  0.684267  0.957935  0.462419  1
  Pt  Pt21  1  0.185726  0.540706  0.038744  1
  Pt  Pt22  1  0.314531  0.040450  0.960704  1
  Pt  Pt23  1  0.807100  0.464604  0.541041  1
  Pt  Pt24  1  0.317422  0.036735  0.540577  1
  Pt  Pt25  1  0.814775  0.459179  0.960707  1
  Pt  Pt26  1  0.685403  0.959938  0.038741  1
  Pt  Pt27  1  0.188013  0.541659  0.462428  1
  Pt  Pt28  1  0.455548  0.382965  0.748791  1
  Pt  Pt29  1  0.955308  0.118618  0.749606  1
  Pt  Pt30  1  0.544938  0.619304  0.250143  1
  Pt  Pt31  1  0.044323  0.880358  0.250654  1
  Pt  Pt32  1  0.688426  0.859170  0.747428  1
  Pt  Pt33  1  0.193053  0.638845  0.748700  1
  Pt  Pt34  1  0.308572  0.138580  0.250443  1
  Pt  Pt35  1  0.809489  0.361055  0.250461  1
