# generated using pymatgen
data_Ti12Zn7GaO4
_symmetry_space_group_name_H-M   'P 1'
_cell_length_a   6.85703242
_cell_length_b   6.85703170
_cell_length_c   6.85703214
_cell_angle_alpha   90.05552573
_cell_angle_beta   89.94447706
_cell_angle_gamma   89.94448172
_symmetry_Int_Tables_number   1
_chemical_formula_structural   Ti12Zn7GaO4
_chemical_formula_sum   'Ti12 Zn7 Ga1 O4'
_cell_volume   322.40957589
_cell_formula_units_Z   1
loop_
 _symmetry_equiv_pos_site_id
 _symmetry_equiv_pos_as_xyz
  1  'x, y, z'
loop_
 _atom_site_type_symbol
 _atom_site_label
 _atom_site_symmetry_multiplicity
 _atom_site_fract_x
 _atom_site_fract_y
 _atom_site_fract_z
 _atom_site_occupancy
  Ti  Ti0  1  0.790048  0.960282  0.374902  1
  Ti  Ti1  1  0.710789  0.039225  0.875396  1
  Ti  Ti2  1  0.210226  0.461284  0.125851  1
  Ti  Ti3  1  0.289409  0.539436  0.624586  1
  Ti  Ti4  1  0.960775  0.375396  0.789211  1
  Ti  Ti5  1  0.039718  0.874902  0.709952  1
  Ti  Ti6  1  0.460564  0.124586  0.210591  1
  Ti  Ti7  1  0.538716  0.625851  0.289774  1
  Ti  Ti8  1  0.374149  0.789774  0.961284  1
  Ti  Ti9  1  0.875414  0.710591  0.039436  1
  Ti  Ti10  1  0.125098  0.209952  0.460282  1
  Ti  Ti11  1  0.624604  0.289211  0.539225  1
  Zn  Zn12  1  0.322560  0.178343  0.822234  1
  Zn  Zn13  1  0.821657  0.322234  0.177440  1
  Zn  Zn14  1  0.677766  0.677440  0.678343  1
  Zn  Zn15  1  0.572153  0.427847  0.927847  1
  Zn  Zn16  1  0.430640  0.928568  0.574527  1
  Zn  Zn17  1  0.925473  0.569360  0.428568  1
  Zn  Zn18  1  0.071432  0.074527  0.069360  1
  Ga  Ga19  1  0.177382  0.822618  0.322618  1
  O  O20  1  0.874674  0.125326  0.625326  1
  O  O21  1  0.625841  0.874741  0.124347  1
  O  O22  1  0.125259  0.624347  0.874159  1
  O  O23  1  0.375653  0.374159  0.374741  1
