# generated using pymatgen
data_SmTm3(Sc4Bi3)4
_symmetry_space_group_name_H-M   'P 1'
_cell_length_a   7.89316013
_cell_length_b   9.07023600
_cell_length_c   11.56739520
_cell_angle_alpha   90.00000000
_cell_angle_beta   89.97887342
_cell_angle_gamma   90.00000000
_symmetry_Int_Tables_number   1
_chemical_formula_structural   SmTm3(Sc4Bi3)4
_chemical_formula_sum   'Sm1 Tm3 Sc16 Bi12'
_cell_volume   828.14244606
_cell_formula_units_Z   1
loop_
 _symmetry_equiv_pos_site_id
 _symmetry_equiv_pos_as_xyz
  1  'x, y, z'
loop_
 _atom_site_type_symbol
 _atom_site_label
 _atom_site_symmetry_multiplicity
 _atom_site_fract_x
 _atom_site_fract_y
 _atom_site_fract_z
 _atom_site_occupancy
  Sm  Sm0  1  0.183505  0.250000  0.780499  1
  Tm  Tm1  1  0.815472  0.750000  0.218287  1
  Tm  Tm2  1  0.315328  0.750000  0.281725  1
  Tm  Tm3  1  0.684412  0.250000  0.718282  1
  Sc  Sc4  1  0.018340  0.250000  0.510852  1
  Sc  Sc5  1  0.980764  0.750000  0.488369  1
  Sc  Sc6  1  0.481622  0.750000  0.011865  1
  Sc  Sc7  1  0.519026  0.250000  0.989351  1
  Sc  Sc8  1  0.350917  0.250000  0.279481  1
  Sc  Sc9  1  0.649859  0.750000  0.719692  1
  Sc  Sc10  1  0.149175  0.750000  0.779775  1
  Sc  Sc11  1  0.850543  0.250000  0.220797  1
  Sc  Sc12  1  0.193487  0.067428  0.062601  1
  Sc  Sc13  1  0.806936  0.932628  0.937887  1
  Sc  Sc14  1  0.306176  0.932608  0.561874  1
  Sc  Sc15  1  0.806936  0.567372  0.937887  1
  Sc  Sc16  1  0.693989  0.067156  0.437731  1
  Sc  Sc17  1  0.193487  0.432572  0.062601  1
  Sc  Sc18  1  0.693989  0.432844  0.437731  1
  Sc  Sc19  1  0.306176  0.567392  0.561874  1
  Bi  Bi20  1  0.404373  0.250000  0.533042  1
  Bi  Bi21  1  0.596897  0.750000  0.465309  1
  Bi  Bi22  1  0.097439  0.750000  0.034565  1
  Bi  Bi23  1  0.899711  0.250000  0.968008  1
  Bi  Bi24  1  0.065056  0.008584  0.328082  1
  Bi  Bi25  1  0.932609  0.989244  0.670970  1
  Bi  Bi26  1  0.438291  0.988803  0.828674  1
  Bi  Bi27  1  0.932609  0.510756  0.670970  1
  Bi  Bi28  1  0.564764  0.008481  0.172230  1
  Bi  Bi29  1  0.065056  0.491416  0.328082  1
  Bi  Bi30  1  0.564764  0.491519  0.172230  1
  Bi  Bi31  1  0.438291  0.511197  0.828674  1
