# generated using pymatgen
data_Y4HoTm5Bi6
_symmetry_space_group_name_H-M   'P 1'
_cell_length_a   8.22887300
_cell_length_b   9.46085300
_cell_length_c   12.04396401
_cell_angle_alpha   89.99630233
_cell_angle_beta   90.00000000
_cell_angle_gamma   90.00000000
_symmetry_Int_Tables_number   1
_chemical_formula_structural   Y4HoTm5Bi6
_chemical_formula_sum   'Y8 Ho2 Tm10 Bi12'
_cell_volume   937.64858499
_cell_formula_units_Z   2
loop_
 _symmetry_equiv_pos_site_id
 _symmetry_equiv_pos_as_xyz
  1  'x, y, z'
loop_
 _atom_site_type_symbol
 _atom_site_label
 _atom_site_symmetry_multiplicity
 _atom_site_fract_x
 _atom_site_fract_y
 _atom_site_fract_z
 _atom_site_occupancy
  Y  Y0  1  0.186406  0.749995  0.718711  1
  Y  Y1  1  0.686406  0.750005  0.781289  1
  Y  Y2  1  0.813538  0.250067  0.281244  1
  Y  Y3  1  0.313538  0.249933  0.218756  1
  Y  Y4  1  0.353562  0.749957  0.216006  1
  Y  Y5  1  0.853562  0.750043  0.283994  1
  Y  Y6  1  0.646341  0.250043  0.784006  1
  Y  Y7  1  0.146341  0.249957  0.715994  1
  Ho  Ho8  1  0.306766  0.434894  0.940488  1
  Ho  Ho9  1  0.806766  0.065106  0.559512  1
  Tm  Tm10  1  0.024954  0.750063  0.989167  1
  Tm  Tm11  1  0.524954  0.749937  0.510833  1
  Tm  Tm12  1  0.974742  0.249897  0.010900  1
  Tm  Tm13  1  0.474742  0.250103  0.489100  1
  Tm  Tm14  1  0.693334  0.934500  0.059522  1
  Tm  Tm15  1  0.193334  0.565500  0.440478  1
  Tm  Tm16  1  0.693273  0.565528  0.059481  1
  Tm  Tm17  1  0.193273  0.934472  0.440519  1
  Tm  Tm18  1  0.306730  0.065348  0.940498  1
  Tm  Tm19  1  0.806730  0.434652  0.559502  1
  Bi  Bi20  1  0.433774  0.003846  0.672445  1
  Bi  Bi21  1  0.933774  0.496154  0.827555  1
  Bi  Bi22  1  0.566167  0.503889  0.327599  1
  Bi  Bi23  1  0.066167  0.996111  0.172401  1
  Bi  Bi24  1  0.566179  0.996154  0.327521  1
  Bi  Bi25  1  0.066179  0.503846  0.172479  1
  Bi  Bi26  1  0.433890  0.496155  0.672393  1
  Bi  Bi27  1  0.933890  0.003845  0.827607  1
  Bi  Bi28  1  0.407072  0.750564  0.958015  1
  Bi  Bi29  1  0.907072  0.749436  0.541985  1
  Bi  Bi30  1  0.593271  0.249802  0.042139  1
  Bi  Bi31  1  0.093271  0.250198  0.457861  1
