# generated using pymatgen
data_Li12Tb11Pr(WO6)8
_symmetry_space_group_name_H-M   'P 1'
_cell_length_a   10.75446012
_cell_length_b   10.73589461
_cell_length_c   10.73590120
_cell_angle_alpha   109.49339540
_cell_angle_beta   109.42528657
_cell_angle_gamma   109.42541034
_symmetry_Int_Tables_number   1
_chemical_formula_structural   Li12Tb11Pr(WO6)8
_chemical_formula_sum   'Li12 Tb11 Pr1 W8 O48'
_cell_volume   955.02696332
_cell_formula_units_Z   1
loop_
 _symmetry_equiv_pos_site_id
 _symmetry_equiv_pos_as_xyz
  1  'x, y, z'
loop_
 _atom_site_type_symbol
 _atom_site_label
 _atom_site_symmetry_multiplicity
 _atom_site_fract_x
 _atom_site_fract_y
 _atom_site_fract_z
 _atom_site_occupancy
  Li  Li0  1  0.875111  0.751247  0.125218  1
  Li  Li1  1  0.250000  0.874849  0.124849  1
  Li  Li2  1  0.875111  0.123862  0.249894  1
  Li  Li3  1  0.375367  0.625251  0.250153  1
  Li  Li4  1  0.624891  0.250109  0.376142  1
  Li  Li5  1  0.749999  0.626526  0.376527  1
  Li  Li6  1  0.249998  0.375151  0.625151  1
  Li  Li7  1  0.375367  0.750118  0.625214  1
  Li  Li8  1  0.124633  0.874785  0.749883  1
  Li  Li9  1  0.624888  0.374781  0.748753  1
  Li  Li10  1  0.124633  0.249847  0.874750  1
  Li  Li11  1  0.750000  0.123474  0.873472  1
  Tb  Tb12  1  0.373144  0.248925  0.124536  1
  Tb  Tb13  1  0.624658  0.874828  0.249577  1
  Tb  Tb14  1  0.126856  0.375464  0.251074  1
  Tb  Tb15  1  0.126858  0.751389  0.375780  1
  Tb  Tb16  1  0.250001  0.125003  0.375003  1
  Tb  Tb17  1  0.750001  0.875003  0.625004  1
  Tb  Tb18  1  0.875348  0.250421  0.625172  1
  Tb  Tb19  1  0.373147  0.124220  0.748609  1
  Tb  Tb20  1  0.875346  0.624921  0.750171  1
  Tb  Tb21  1  0.250000  0.625000  0.874997  1
  Tb  Tb22  1  0.624655  0.749828  0.875079  1
  Pr  Pr23  1  0.750000  0.375001  0.124997  1
  W  W24  1  0.999792  0.999660  0.999799  1
  W  W25  1  0.497052  0.997026  0.998093  1
  W  W26  1  0.497057  0.500035  0.998967  1
  W  W27  1  0.002937  0.501036  0.999968  1
  W  W28  1  0.999792  0.000139  0.499994  1
  W  W29  1  0.002948  0.501910  0.502980  1
  W  W30  1  0.500201  0.000003  0.499858  1
  W  W31  1  0.500210  0.500203  0.500342  1
  O  O32  1  0.119039  0.199588  0.026855  1
  O  O33  1  0.912629  0.325608  0.023868  1
  O  O34  1  0.407352  0.879513  0.080881  1
  O  O35  1  0.672194  0.699363  0.080858  1
  O  O36  1  0.672196  0.972835  0.091341  1
  O  O37  1  0.416937  0.619875  0.090921  1
  O  O38  1  0.199578  0.026465  0.118631  1
  O  O39  1  0.923421  0.595640  0.118815  1
  O  O40  1  0.576580  0.195398  0.172222  1
  O  O41  1  0.587373  0.476132  0.174394  1
  O  O42  1  0.027021  0.118513  0.199966  1
  O  O43  1  0.174306  0.581710  0.200613  1
  O  O44  1  0.923418  0.327777  0.304601  1
  O  O45  1  0.380962  0.473146  0.300413  1
  O  O46  1  0.300422  0.919053  0.326886  1
  O  O47  1  0.027017  0.908506  0.327053  1
  O  O48  1  0.472980  0.300035  0.381489  1
  O  O49  1  0.912628  0.587020  0.388758  1
  O  O50  1  0.527107  0.826700  0.408074  1
  O  O51  1  0.881096  0.081331  0.408285  1
  O  O52  1  0.618906  0.091717  0.418665  1
  O  O53  1  0.800263  0.827335  0.419058  1
  O  O54  1  0.300422  0.381370  0.473536  1
  O  O55  1  0.174303  0.592594  0.473694  1
  O  O56  1  0.699734  0.618794  0.527073  1
  O  O57  1  0.827804  0.408660  0.527165  1
  O  O58  1  0.199575  0.173109  0.580946  1
  O  O59  1  0.380965  0.907819  0.580547  1
  O  O60  1  0.119037  0.919447  0.592183  1
  O  O61  1  0.472983  0.172946  0.591492  1
  O  O62  1  0.527107  0.700408  0.619031  1
  O  O63  1  0.092647  0.419119  0.620485  1
  O  O64  1  0.699734  0.080941  0.672660  1
  O  O65  1  0.972894  0.091924  0.673301  1
  O  O66  1  0.083062  0.673982  0.702938  1
  O  O67  1  0.618904  0.527190  0.700240  1
  O  O68  1  0.972892  0.880968  0.799593  1
  O  O69  1  0.827808  0.419144  0.800638  1
  O  O70  1  0.407350  0.527837  0.826471  1
  O  O71  1  0.416936  0.797060  0.826016  1
  O  O72  1  0.083065  0.409078  0.880123  1
  O  O73  1  0.800268  0.972929  0.881208  1
  O  O74  1  0.576581  0.381184  0.904361  1
  O  O75  1  0.325696  0.026305  0.907406  1
  O  O76  1  0.325697  0.299388  0.918292  1
  O  O77  1  0.587370  0.111240  0.912979  1
  O  O78  1  0.092652  0.673532  0.972163  1
  O  O79  1  0.881096  0.799763  0.972811  1
