# generated using pymatgen
data_Nb3Si2B4Ru10W
_symmetry_space_group_name_H-M   'P 1'
_cell_length_a   9.30558146
_cell_length_b   9.30558146
_cell_length_c   2.93426200
_cell_angle_alpha   90.00000000
_cell_angle_beta   90.00000000
_cell_angle_gamma   90.09888370
_symmetry_Int_Tables_number   1
_chemical_formula_structural   Nb3Si2B4Ru10W
_chemical_formula_sum   'Nb3 Si2 B4 Ru10 W1'
_cell_volume   254.08865450
_cell_formula_units_Z   1
loop_
 _symmetry_equiv_pos_site_id
 _symmetry_equiv_pos_as_xyz
  1  'x, y, z'
loop_
 _atom_site_type_symbol
 _atom_site_label
 _atom_site_symmetry_multiplicity
 _atom_site_fract_x
 _atom_site_fract_y
 _atom_site_fract_z
 _atom_site_occupancy
  Nb  Nb0  1  0.177473  0.322527  0.000000  1
  Nb  Nb1  1  0.321907  0.822393  0.000000  1
  Nb  Nb2  1  0.677607  0.178093  0.000000  1
  Si  Si3  1  0.498646  0.498827  0.000000  1
  Si  Si4  1  0.001173  0.001354  0.000000  1
  B  B5  1  0.624389  0.875611  0.000000  1
  B  B6  1  0.375702  0.124298  0.000000  1
  B  B7  1  0.125751  0.624321  0.000000  1
  B  B8  1  0.875679  0.374249  0.000000  1
  Ru  Ru9  1  0.570904  0.709881  0.500000  1
  Ru  Ru10  1  0.434840  0.288493  0.500000  1
  Ru  Ru11  1  0.060660  0.786983  0.500000  1
  Ru  Ru12  1  0.933128  0.211740  0.500000  1
  Ru  Ru13  1  0.288260  0.566872  0.500000  1
  Ru  Ru14  1  0.713017  0.439340  0.500000  1
  Ru  Ru15  1  0.211507  0.065160  0.500000  1
  Ru  Ru16  1  0.790119  0.929096  0.500000  1
  Ru  Ru17  1  0.500626  0.999374  0.500000  1
  Ru  Ru18  1  0.996937  0.503063  0.500000  1
  W  W19  1  0.821677  0.678323  0.000000  1
