# generated using pymatgen
data_Er5Tm3TcOsBr8
_symmetry_space_group_name_H-M   'P 1'
_cell_length_a   8.90706423
_cell_length_b   8.91802774
_cell_length_c   6.50568247
_cell_angle_alpha   89.46452432
_cell_angle_beta   89.49506647
_cell_angle_gamma   89.17941113
_symmetry_Int_Tables_number   1
_chemical_formula_structural   Er5Tm3TcOsBr8
_chemical_formula_sum   'Er5 Tm3 Tc1 Os1 Br8'
_cell_volume   516.67374677
_cell_formula_units_Z   1
loop_
 _symmetry_equiv_pos_site_id
 _symmetry_equiv_pos_as_xyz
  1  'x, y, z'
loop_
 _atom_site_type_symbol
 _atom_site_label
 _atom_site_symmetry_multiplicity
 _atom_site_fract_x
 _atom_site_fract_y
 _atom_site_fract_z
 _atom_site_occupancy
  Er  Er0  1  0.901155  0.248106  0.510248  1
  Er  Er1  1  0.752916  0.903436  0.506992  1
  Er  Er2  1  0.247319  0.096841  0.491136  1
  Er  Er3  1  0.096832  0.246725  0.992610  1
  Er  Er4  1  0.902948  0.752798  0.008623  1
  Tm  Tm5  1  0.246439  0.901501  0.012297  1
  Tm  Tm6  1  0.753306  0.098090  0.989115  1
  Tm  Tm7  1  0.098243  0.753827  0.487752  1
  Tc  Tc8  1  0.994537  0.005292  0.249761  1
  Os  Os9  1  0.005494  0.994756  0.749945  1
  Br  Br10  1  0.419822  0.815189  0.411783  1
  Br  Br11  1  0.579442  0.183553  0.590550  1
  Br  Br12  1  0.184578  0.580233  0.088308  1
  Br  Br13  1  0.815741  0.420195  0.910729  1
  Br  Br14  1  0.416712  0.188255  0.090791  1
  Br  Br15  1  0.583826  0.810623  0.908124  1
  Br  Br16  1  0.810823  0.584357  0.409570  1
  Br  Br17  1  0.189866  0.416224  0.591668  1
