# generated using pymatgen
data_Nb2Si2IrRh
_symmetry_space_group_name_H-M   'P 1'
_cell_length_a   3.79881300
_cell_length_b   6.45667900
_cell_length_c   7.34306100
_cell_angle_alpha   90.00000000
_cell_angle_beta   90.00000000
_cell_angle_gamma   90.00000000
_symmetry_Int_Tables_number   1
_chemical_formula_structural   Nb2Si2IrRh
_chemical_formula_sum   'Nb4 Si4 Ir2 Rh2'
_cell_volume   180.10851567
_cell_formula_units_Z   2
loop_
 _symmetry_equiv_pos_site_id
 _symmetry_equiv_pos_as_xyz
  1  'x, y, z'
loop_
 _atom_site_type_symbol
 _atom_site_label
 _atom_site_symmetry_multiplicity
 _atom_site_fract_x
 _atom_site_fract_y
 _atom_site_fract_z
 _atom_site_occupancy
  Nb  Nb0  1  0.750000  0.474763  0.327391  1
  Nb  Nb1  1  0.250000  0.025300  0.827156  1
  Nb  Nb2  1  0.750000  0.974763  0.172609  1
  Nb  Nb3  1  0.250000  0.525300  0.672844  1
  Si  Si4  1  0.250000  0.269062  0.123957  1
  Si  Si5  1  0.250000  0.769062  0.376043  1
  Si  Si6  1  0.750000  0.731446  0.874709  1
  Si  Si7  1  0.750000  0.231446  0.625291  1
  Ir  Ir8  1  0.250000  0.645348  0.062710  1
  Ir  Ir9  1  0.250000  0.145348  0.437290  1
  Rh  Rh10  1  0.750000  0.854081  0.563071  1
  Rh  Rh11  1  0.750000  0.354081  0.936929  1
