# generated using pymatgen
data_Th4Re5Os3
_symmetry_space_group_name_H-M   'P 1'
_cell_length_a   5.21121900
_cell_length_b   5.45104739
_cell_length_c   9.45765100
_cell_angle_alpha   90.00000000
_cell_angle_beta   90.00000000
_cell_angle_gamma   118.55497199
_symmetry_Int_Tables_number   1
_chemical_formula_structural   Th4Re5Os3
_chemical_formula_sum   'Th4 Re5 Os3'
_cell_volume   235.97966127
_cell_formula_units_Z   1
loop_
 _symmetry_equiv_pos_site_id
 _symmetry_equiv_pos_as_xyz
  1  'x, y, z'
loop_
 _atom_site_type_symbol
 _atom_site_label
 _atom_site_symmetry_multiplicity
 _atom_site_fract_x
 _atom_site_fract_y
 _atom_site_fract_z
 _atom_site_occupancy
  Th  Th0  1  0.334646  0.669293  0.063525  1
  Th  Th1  1  0.666274  0.332547  0.561946  1
  Th  Th2  1  0.666274  0.332547  0.938054  1
  Th  Th3  1  0.334646  0.669293  0.436475  1
  Re  Re4  1  0.169987  0.834889  0.750000  1
  Re  Re5  1  0.664903  0.834889  0.750000  1
  Re  Re6  1  0.332701  0.161987  0.250000  1
  Re  Re7  1  0.829284  0.161987  0.250000  1
  Re  Re8  1  0.172674  0.345348  0.750000  1
  Os  Os9  1  0.002043  0.004085  0.001615  1
  Os  Os10  1  0.002043  0.004085  0.498385  1
  Os  Os11  1  0.824526  0.649052  0.250000  1
