# generated using pymatgen
data_CaTb2YSb6Rh7
_symmetry_space_group_name_H-M   'P 1'
_cell_length_a   7.63512152
_cell_length_b   7.64124683
_cell_length_c   7.64124618
_cell_angle_alpha   109.67320392
_cell_angle_beta   109.49708869
_cell_angle_gamma   109.49709595
_symmetry_Int_Tables_number   1
_chemical_formula_structural   CaTb2YSb6Rh7
_chemical_formula_sum   'Ca1 Tb2 Y1 Sb6 Rh7'
_cell_volume   342.10076878
_cell_formula_units_Z   1
loop_
 _symmetry_equiv_pos_site_id
 _symmetry_equiv_pos_as_xyz
  1  'x, y, z'
loop_
 _atom_site_type_symbol
 _atom_site_label
 _atom_site_symmetry_multiplicity
 _atom_site_fract_x
 _atom_site_fract_y
 _atom_site_fract_z
 _atom_site_occupancy
  Ca  Ca0  1  0.500000  0.500000  0.500000  1
  Tb  Tb1  1  0.000000  0.500000  0.000000  1
  Tb  Tb2  1  0.000000  0.000000  0.500000  1
  Y  Y3  1  0.500000  0.000000  0.000000  1
  Sb  Sb4  1  0.002304  0.319330  0.319330  1
  Sb  Sb5  1  0.679956  0.996946  0.680511  1
  Sb  Sb6  1  0.679956  0.680511  0.996946  1
  Sb  Sb7  1  0.997696  0.680670  0.680670  1
  Sb  Sb8  1  0.320044  0.003054  0.319489  1
  Sb  Sb9  1  0.320044  0.319489  0.003054  1
  Rh  Rh10  1  0.000000  0.000000  0.000000  1
  Rh  Rh11  1  0.500000  0.753600  0.246400  1
  Rh  Rh12  1  0.753605  0.500054  0.246173  1
  Rh  Rh13  1  0.246395  0.753827  0.499946  1
  Rh  Rh14  1  0.246395  0.499946  0.753827  1
  Rh  Rh15  1  0.500000  0.246400  0.753600  1
  Rh  Rh16  1  0.753605  0.246173  0.500054  1
