# generated using pymatgen
data_CaH5F7
_symmetry_space_group_name_H-M   'P 1'
_cell_length_a   6.21826290
_cell_length_b   6.17976360
_cell_length_c   6.10099197
_cell_angle_alpha   81.78176868
_cell_angle_beta   100.14970647
_cell_angle_gamma   130.26935346
_symmetry_Int_Tables_number   1
_chemical_formula_structural   CaH5F7
_chemical_formula_sum   'Ca1 H5 F7'
_cell_volume   175.95395019
_cell_formula_units_Z   1
loop_
 _symmetry_equiv_pos_site_id
 _symmetry_equiv_pos_as_xyz
  1  'x, y, z'
loop_
 _atom_site_type_symbol
 _atom_site_label
 _atom_site_symmetry_multiplicity
 _atom_site_fract_x
 _atom_site_fract_y
 _atom_site_fract_z
 _atom_site_occupancy
  Ca  Ca0  1  0.316620  0.529916  0.882664  1
  H  H1  1  0.626568  0.117921  0.663629  1
  H  H2  1  0.012909  0.895710  0.954093  1
  H  H3  1  0.799537  0.103396  0.149555  1
  H  H4  1  0.158963  0.353173  0.392021  1
  H  H5  1  0.799256  0.508681  0.806004  1
  F  F6  1  0.608249  0.903266  0.116189  1
  F  F7  1  0.198838  0.086027  0.989137  1
  F  F8  1  0.864483  0.404664  0.729570  1
  F  F9  1  0.472258  0.915740  0.630412  1
  F  F10  1  0.751634  0.628845  0.891442  1
  F  F11  1  0.049290  0.355321  0.182800  1
  F  F12  1  0.234105  0.336766  0.551580  1
