# generated using pymatgen
data_Zr6Ga7Ru4Pt
_symmetry_space_group_name_H-M   'P 1'
_cell_length_a   7.41717400
_cell_length_b   7.41717477
_cell_length_c   6.62118700
_cell_angle_alpha   90.00000000
_cell_angle_beta   90.00000000
_cell_angle_gamma   119.99999656
_symmetry_Int_Tables_number   1
_chemical_formula_structural   Zr6Ga7Ru4Pt
_chemical_formula_sum   'Zr6 Ga7 Ru4 Pt1'
_cell_volume   315.45940528
_cell_formula_units_Z   1
loop_
 _symmetry_equiv_pos_site_id
 _symmetry_equiv_pos_as_xyz
  1  'x, y, z'
loop_
 _atom_site_type_symbol
 _atom_site_label
 _atom_site_symmetry_multiplicity
 _atom_site_fract_x
 _atom_site_fract_y
 _atom_site_fract_z
 _atom_site_occupancy
  Zr  Zr0  1  0.392572  0.378522  0.754794  1
  Zr  Zr1  1  0.985949  0.607428  0.754794  1
  Zr  Zr2  1  0.621478  0.014051  0.754794  1
  Zr  Zr3  1  0.622484  0.015193  0.245186  1
  Zr  Zr4  1  0.984807  0.607291  0.245186  1
  Zr  Zr5  1  0.392709  0.377516  0.245186  1
  Ga  Ga6  1  0.276688  0.997975  0.000040  1
  Ga  Ga7  1  0.721286  0.723312  0.000040  1
  Ga  Ga8  1  0.002025  0.278714  0.000040  1
  Ga  Ga9  1  0.724928  0.724749  0.500079  1
  Ga  Ga10  1  0.275251  0.000180  0.500079  1
  Ga  Ga11  1  0.999820  0.275072  0.500079  1
  Ga  Ga12  1  0.333333  0.666667  0.497957  1
  Ru  Ru13  1  0.666667  0.333333  0.999593  1
  Ru  Ru14  1  0.000000  0.000000  0.749349  1
  Ru  Ru15  1  0.666667  0.333333  0.500425  1
  Ru  Ru16  1  0.000000  0.000000  0.250745  1
  Pt  Pt17  1  0.333333  0.666667  0.001630  1
