# generated using pymatgen
data_Ho4LuSc(Si3Ru)8
_symmetry_space_group_name_H-M   'P 1'
_cell_length_a   10.07763123
_cell_length_b   10.07763198
_cell_length_c   8.10934526
_cell_angle_alpha   89.99385709
_cell_angle_beta   89.99386102
_cell_angle_gamma   132.55799416
_symmetry_Int_Tables_number   1
_chemical_formula_structural   Ho4LuSc(Si3Ru)8
_chemical_formula_sum   'Ho4 Lu1 Sc1 Si24 Ru8'
_cell_volume   606.63910016
_cell_formula_units_Z   1
loop_
 _symmetry_equiv_pos_site_id
 _symmetry_equiv_pos_as_xyz
  1  'x, y, z'
loop_
 _atom_site_type_symbol
 _atom_site_label
 _atom_site_symmetry_multiplicity
 _atom_site_fract_x
 _atom_site_fract_y
 _atom_site_fract_z
 _atom_site_occupancy
  Ho  Ho0  1  0.502491  0.002448  0.749957  1
  Ho  Ho1  1  0.997552  0.497509  0.250043  1
  Ho  Ho2  1  0.497509  0.997552  0.250043  1
  Ho  Ho3  1  0.002448  0.502491  0.749957  1
  Lu  Lu4  1  0.000000  0.000000  0.000000  1
  Sc  Sc5  1  0.500000  0.500000  0.500000  1
  Si  Si6  1  0.794793  0.205207  0.500000  1
  Si  Si7  1  0.295060  0.704940  0.000000  1
  Si  Si8  1  0.205207  0.794793  0.500000  1
  Si  Si9  1  0.704940  0.295060  0.000000  1
  Si  Si10  1  0.333749  0.333749  0.831209  1
  Si  Si11  1  0.666251  0.666251  0.168791  1
  Si  Si12  1  0.169366  0.169366  0.334224  1
  Si  Si13  1  0.830634  0.830634  0.665776  1
  Si  Si14  1  0.122258  0.887934  0.728414  1
  Si  Si15  1  0.112066  0.877742  0.271586  1
  Si  Si16  1  0.611048  0.378540  0.230233  1
  Si  Si17  1  0.621460  0.388952  0.769767  1
  Si  Si18  1  0.877742  0.112066  0.271586  1
  Si  Si19  1  0.887934  0.122258  0.728414  1
  Si  Si20  1  0.388952  0.621460  0.769767  1
  Si  Si21  1  0.378540  0.611048  0.230233  1
  Si  Si22  1  0.346398  0.114469  0.505214  1
  Si  Si23  1  0.885531  0.653602  0.494786  1
  Si  Si24  1  0.388096  0.154558  0.005434  1
  Si  Si25  1  0.845442  0.611904  0.994566  1
  Si  Si26  1  0.653602  0.885531  0.494786  1
  Si  Si27  1  0.114469  0.346398  0.505214  1
  Si  Si28  1  0.611904  0.845442  0.994566  1
  Si  Si29  1  0.154558  0.388096  0.005434  1
  Ru  Ru30  1  0.668649  0.331351  0.500000  1
  Ru  Ru31  1  0.168931  0.831069  0.000000  1
  Ru  Ru32  1  0.331351  0.668649  0.500000  1
  Ru  Ru33  1  0.831069  0.168931  0.000000  1
  Ru  Ru34  1  0.126014  0.126014  0.628359  1
  Ru  Ru35  1  0.873986  0.873986  0.371641  1
  Ru  Ru36  1  0.372448  0.372448  0.126725  1
  Ru  Ru37  1  0.627552  0.627552  0.873275  1
