# generated using pymatgen
data_V4Ge3Mo5
_symmetry_space_group_name_H-M   'P 1'
_cell_length_a   4.89453137
_cell_length_b   4.89490956
_cell_length_c   14.61180400
_cell_angle_alpha   90.03050369
_cell_angle_beta   90.02233520
_cell_angle_gamma   90.22235189
_symmetry_Int_Tables_number   1
_chemical_formula_structural   V4Ge3Mo5
_chemical_formula_sum   'V8 Ge6 Mo10'
_cell_volume   350.07110152
_cell_formula_units_Z   2
loop_
 _symmetry_equiv_pos_site_id
 _symmetry_equiv_pos_as_xyz
  1  'x, y, z'
loop_
 _atom_site_type_symbol
 _atom_site_label
 _atom_site_symmetry_multiplicity
 _atom_site_fract_x
 _atom_site_fract_y
 _atom_site_fract_z
 _atom_site_occupancy
  V  V0  1  0.502639  0.997450  0.418078  1
  V  V1  1  0.502735  0.997704  0.748591  1
  V  V2  1  0.248349  0.501194  0.998974  1
  V  V3  1  0.249211  0.502882  0.333875  1
  V  V4  1  0.249244  0.502351  0.665396  1
  V  V5  1  0.998412  0.251387  0.167697  1
  V  V6  1  0.997782  0.250651  0.501276  1
  V  V7  1  0.997106  0.250682  0.832829  1
  Ge  Ge8  1  0.492186  0.493783  0.166630  1
  Ge  Ge9  1  0.492074  0.492501  0.498111  1
  Ge  Ge10  1  0.491522  0.492744  0.830266  1
  Ge  Ge11  1  0.006054  0.007234  0.999967  1
  Ge  Ge12  1  0.008008  0.008825  0.336439  1
  Ge  Ge13  1  0.007815  0.008254  0.668633  1
  Mo  Mo14  1  0.502285  0.998737  0.253949  1
  Mo  Mo15  1  0.501810  0.998379  0.583356  1
  Mo  Mo16  1  0.501171  0.997883  0.912693  1
  Mo  Mo17  1  0.752258  0.501046  0.999077  1
  Mo  Mo18  1  0.751656  0.502092  0.334105  1
  Mo  Mo19  1  0.751369  0.501544  0.665953  1
  Mo  Mo20  1  0.998560  0.747432  0.167598  1
  Mo  Mo21  1  0.998592  0.748577  0.500729  1
  Mo  Mo22  1  0.997991  0.748160  0.832504  1
  Mo  Mo23  1  0.501171  0.998509  0.083274  1
