# generated using pymatgen
data_CaDy2(B3Rh4)2
_symmetry_space_group_name_H-M   'P 1'
_cell_length_a   9.94260245
_cell_length_b   9.11652413
_cell_length_c   5.56153057
_cell_angle_alpha   81.38694016
_cell_angle_beta   65.03619427
_cell_angle_gamma   33.57687602
_symmetry_Int_Tables_number   1
_chemical_formula_structural   CaDy2(B3Rh4)2
_chemical_formula_sum   'Ca1 Dy2 B6 Rh8'
_cell_volume   231.36236187
_cell_formula_units_Z   1
loop_
 _symmetry_equiv_pos_site_id
 _symmetry_equiv_pos_as_xyz
  1  'x, y, z'
loop_
 _atom_site_type_symbol
 _atom_site_label
 _atom_site_symmetry_multiplicity
 _atom_site_fract_x
 _atom_site_fract_y
 _atom_site_fract_z
 _atom_site_occupancy
  Ca  Ca0  1  0.683340  0.683340  0.316660  1
  Dy  Dy1  1  0.318456  0.318456  0.681544  1
  Dy  Dy2  1  0.502435  0.502435  0.497565  1
  B  B3  1  0.670359  0.983432  0.016568  1
  B  B4  1  0.983432  0.670359  0.329641  1
  B  B5  1  0.327979  0.016896  0.983104  1
  B  B6  1  0.016896  0.327979  0.672021  1
  B  B7  1  0.167944  0.831708  0.168292  1
  B  B8  1  0.831708  0.167944  0.832056  1
  Rh  Rh9  1  0.585766  0.585766  0.914234  1
  Rh  Rh10  1  0.913796  0.913796  0.086204  1
  Rh  Rh11  1  0.414134  0.414134  0.085866  1
  Rh  Rh12  1  0.085766  0.085766  0.414234  1
  Rh  Rh13  1  0.914134  0.914134  0.585866  1
  Rh  Rh14  1  0.249479  0.249479  0.250521  1
  Rh  Rh15  1  0.084897  0.084897  0.915103  1
  Rh  Rh16  1  0.749479  0.749479  0.750521  1
