# generated using pymatgen
data_Pr16MgCd3Os4
_symmetry_space_group_name_H-M   'P 1'
_cell_length_a   10.02864518
_cell_length_b   10.02879129
_cell_length_c   10.02879606
_cell_angle_alpha   60.00122446
_cell_angle_beta   60.00229765
_cell_angle_gamma   60.00235357
_symmetry_Int_Tables_number   1
_chemical_formula_structural   Pr16MgCd3Os4
_chemical_formula_sum   'Pr16 Mg1 Cd3 Os4'
_cell_volume   713.25355579
_cell_formula_units_Z   1
loop_
 _symmetry_equiv_pos_site_id
 _symmetry_equiv_pos_as_xyz
  1  'x, y, z'
loop_
 _atom_site_type_symbol
 _atom_site_label
 _atom_site_symmetry_multiplicity
 _atom_site_fract_x
 _atom_site_fract_y
 _atom_site_fract_z
 _atom_site_occupancy
  Pr  Pr0  1  0.346179  0.346194  0.346194  1
  Pr  Pr1  1  0.344986  0.345035  0.965175  1
  Pr  Pr2  1  0.344986  0.965175  0.345035  1
  Pr  Pr3  1  0.965256  0.345011  0.345011  1
  Pr  Pr4  1  0.809203  0.191011  0.191011  1
  Pr  Pr5  1  0.189352  0.810314  0.810316  1
  Pr  Pr6  1  0.190998  0.809199  0.191026  1
  Pr  Pr7  1  0.810316  0.189352  0.810350  1
  Pr  Pr8  1  0.190997  0.191026  0.809199  1
  Pr  Pr9  1  0.810316  0.810351  0.189351  1
  Pr  Pr10  1  0.941831  0.559424  0.559425  1
  Pr  Pr11  1  0.558643  0.940935  0.940936  1
  Pr  Pr12  1  0.559411  0.941759  0.559390  1
  Pr  Pr13  1  0.940883  0.558729  0.940893  1
  Pr  Pr14  1  0.559411  0.559390  0.941759  1
  Pr  Pr15  1  0.940884  0.940893  0.558729  1
  Mg  Mg16  1  0.574325  0.574284  0.574284  1
  Cd  Cd17  1  0.580059  0.580037  0.260581  1
  Cd  Cd18  1  0.580059  0.260581  0.580037  1
  Cd  Cd19  1  0.260592  0.580050  0.580050  1
  Os  Os20  1  0.138518  0.138491  0.138491  1
  Os  Os21  1  0.138589  0.138552  0.585633  1
  Os  Os22  1  0.138589  0.585633  0.138552  1
  Os  Os23  1  0.585618  0.138570  0.138570  1
