# generated using pymatgen
data_Dy6Tm10Cd4TcRh3
_symmetry_space_group_name_H-M   'P 1'
_cell_length_a   9.60495383
_cell_length_b   9.60495438
_cell_length_c   9.60495419
_cell_angle_alpha   59.15648153
_cell_angle_beta   59.15647646
_cell_angle_gamma   59.15646944
_symmetry_Int_Tables_number   1
_chemical_formula_structural   Dy6Tm10Cd4TcRh3
_chemical_formula_sum   'Dy6 Tm10 Cd4 Tc1 Rh3'
_cell_volume   614.52695451
_cell_formula_units_Z   1
loop_
 _symmetry_equiv_pos_site_id
 _symmetry_equiv_pos_as_xyz
  1  'x, y, z'
loop_
 _atom_site_type_symbol
 _atom_site_label
 _atom_site_symmetry_multiplicity
 _atom_site_fract_x
 _atom_site_fract_y
 _atom_site_fract_z
 _atom_site_occupancy
  Dy  Dy0  1  0.186580  0.812165  0.812165  1
  Dy  Dy1  1  0.804052  0.190646  0.190646  1
  Dy  Dy2  1  0.812165  0.186580  0.812165  1
  Dy  Dy3  1  0.190646  0.804052  0.190646  1
  Dy  Dy4  1  0.812165  0.812165  0.186580  1
  Dy  Dy5  1  0.190646  0.190646  0.804052  1
  Tm  Tm6  1  0.598885  0.598885  0.598885  1
  Tm  Tm7  1  0.599187  0.599187  0.206719  1
  Tm  Tm8  1  0.599187  0.206719  0.599187  1
  Tm  Tm9  1  0.206719  0.599187  0.599187  1
  Tm  Tm10  1  0.063094  0.437257  0.437257  1
  Tm  Tm11  1  0.437641  0.060775  0.060775  1
  Tm  Tm12  1  0.437257  0.063094  0.437257  1
  Tm  Tm13  1  0.060775  0.437641  0.060775  1
  Tm  Tm14  1  0.437257  0.437257  0.063094  1
  Tm  Tm15  1  0.060775  0.060775  0.437641  1
  Cd  Cd16  1  0.829912  0.829912  0.829912  1
  Cd  Cd17  1  0.830149  0.830149  0.506769  1
  Cd  Cd18  1  0.830149  0.506769  0.830149  1
  Cd  Cd19  1  0.506769  0.830149  0.830149  1
  Tc  Tc20  1  0.392192  0.392192  0.392192  1
  Rh  Rh21  1  0.393462  0.393462  0.826877  1
  Rh  Rh22  1  0.393462  0.826877  0.393462  1
  Rh  Rh23  1  0.826877  0.393462  0.393462  1
