# generated using pymatgen
data_Hf5BeSnSb2
_symmetry_space_group_name_H-M   'P 1'
_cell_length_a   8.52581617
_cell_length_b   8.52581752
_cell_length_c   5.72616900
_cell_angle_alpha   90.00000000
_cell_angle_beta   90.00000000
_cell_angle_gamma   119.99813189
_symmetry_Int_Tables_number   1
_chemical_formula_structural   Hf5BeSnSb2
_chemical_formula_sum   'Hf10 Be2 Sn2 Sb4'
_cell_volume   360.47484634
_cell_formula_units_Z   2
loop_
 _symmetry_equiv_pos_site_id
 _symmetry_equiv_pos_as_xyz
  1  'x, y, z'
loop_
 _atom_site_type_symbol
 _atom_site_label
 _atom_site_symmetry_multiplicity
 _atom_site_fract_x
 _atom_site_fract_y
 _atom_site_fract_z
 _atom_site_occupancy
  Hf  Hf0  1  0.748370  0.748370  0.750000  1
  Hf  Hf1  1  0.250059  0.999781  0.750000  1
  Hf  Hf2  1  0.999781  0.250059  0.750000  1
  Hf  Hf3  1  0.255353  0.255353  0.250000  1
  Hf  Hf4  1  0.745731  0.999930  0.250000  1
  Hf  Hf5  1  0.999930  0.745731  0.250000  1
  Hf  Hf6  1  0.666394  0.334109  0.000956  1
  Hf  Hf7  1  0.334109  0.666394  0.000956  1
  Hf  Hf8  1  0.334109  0.666394  0.499044  1
  Hf  Hf9  1  0.666394  0.334109  0.499044  1
  Be  Be10  1  0.000376  0.000376  0.005708  1
  Be  Be11  1  0.000376  0.000376  0.494292  1
  Sn  Sn12  1  0.389634  0.999996  0.250000  1
  Sn  Sn13  1  0.999996  0.389634  0.250000  1
  Sb  Sb14  1  0.390998  0.390998  0.750000  1
  Sb  Sb15  1  0.607413  0.000558  0.750000  1
  Sb  Sb16  1  0.000558  0.607413  0.750000  1
  Sb  Sb17  1  0.610419  0.610419  0.250000  1
