# generated using pymatgen
data_Cs9Rb3(VTe4)4
_symmetry_space_group_name_H-M   'P 1'
_cell_length_a   10.59351428
_cell_length_b   10.59302153
_cell_length_c   12.00774100
_cell_angle_alpha   90.08990549
_cell_angle_beta   90.09406051
_cell_angle_gamma   89.96945486
_symmetry_Int_Tables_number   1
_chemical_formula_structural   Cs9Rb3(VTe4)4
_chemical_formula_sum   'Cs9 Rb3 V4 Te16'
_cell_volume   1347.47290780
_cell_formula_units_Z   1
loop_
 _symmetry_equiv_pos_site_id
 _symmetry_equiv_pos_as_xyz
  1  'x, y, z'
loop_
 _atom_site_type_symbol
 _atom_site_label
 _atom_site_symmetry_multiplicity
 _atom_site_fract_x
 _atom_site_fract_y
 _atom_site_fract_z
 _atom_site_occupancy
  Cs  Cs0  1  0.041533  0.204507  0.037980  1
  Cs  Cs1  1  0.146301  0.398954  0.751702  1
  Cs  Cs2  1  0.356987  0.901929  0.247119  1
  Cs  Cs3  1  0.642394  0.100303  0.746913  1
  Cs  Cs4  1  0.853867  0.599173  0.252136  1
  Cs  Cs5  1  0.957360  0.796306  0.537747  1
  Cs  Cs6  1  0.543300  0.293976  0.460883  1
  Cs  Cs7  1  0.458276  0.703280  0.961689  1
  Cs  Cs8  1  0.545729  0.298088  0.042775  1
  Rb  Rb9  1  0.046098  0.201368  0.457839  1
  Rb  Rb10  1  0.452714  0.703829  0.545070  1
  Rb  Rb11  1  0.954773  0.798052  0.954310  1
  V  V12  1  0.783984  0.018547  0.249703  1
  V  V13  1  0.720991  0.524041  0.748744  1
  V  V14  1  0.278318  0.480383  0.254663  1
  V  V15  1  0.216950  0.977302  0.747267  1
  Te  Te16  1  0.332163  0.048841  0.917379  1
  Te  Te17  1  0.205049  0.742284  0.752703  1
  Te  Te18  1  0.288254  0.244956  0.250714  1
  Te  Te19  1  0.706387  0.758850  0.745043  1
  Te  Te20  1  0.797557  0.253694  0.256436  1
  Te  Te21  1  0.996920  0.067659  0.747302  1
  Te  Te22  1  0.498622  0.569145  0.256617  1
  Te  Te23  1  0.501208  0.434319  0.748109  1
  Te  Te24  1  0.004137  0.929560  0.248023  1
  Te  Te25  1  0.666036  0.945882  0.417853  1
  Te  Te26  1  0.836174  0.449619  0.579611  1
  Te  Te27  1  0.164677  0.553391  0.083961  1
  Te  Te28  1  0.674060  0.956432  0.073532  1
  Te  Te29  1  0.327665  0.040287  0.572304  1
  Te  Te30  1  0.169326  0.543038  0.430218  1
  Te  Te31  1  0.832190  0.462005  0.923651  1
