# generated using pymatgen
data_Y20FeTcHg6
_symmetry_space_group_name_H-M   'P 1'
_cell_length_a   9.62947700
_cell_length_b   9.62947737
_cell_length_c   9.72775600
_cell_angle_alpha   90.00000000
_cell_angle_beta   90.00000000
_cell_angle_gamma   119.99998842
_symmetry_Int_Tables_number   1
_chemical_formula_structural   Y20FeTcHg6
_chemical_formula_sum   'Y20 Fe1 Tc1 Hg6'
_cell_volume   781.17577712
_cell_formula_units_Z   1
loop_
 _symmetry_equiv_pos_site_id
 _symmetry_equiv_pos_as_xyz
  1  'x, y, z'
loop_
 _atom_site_type_symbol
 _atom_site_label
 _atom_site_symmetry_multiplicity
 _atom_site_fract_x
 _atom_site_fract_y
 _atom_site_fract_z
 _atom_site_occupancy
  Y  Y0  1  0.000000  0.000000  0.500330  1
  Y  Y1  1  0.000000  0.000000  0.999670  1
  Y  Y2  1  0.540637  0.459363  0.250000  1
  Y  Y3  1  0.540637  0.081275  0.250000  1
  Y  Y4  1  0.918725  0.459363  0.250000  1
  Y  Y5  1  0.459035  0.540965  0.750000  1
  Y  Y6  1  0.459035  0.918069  0.750000  1
  Y  Y7  1  0.081931  0.540965  0.750000  1
  Y  Y8  1  0.209465  0.790535  0.440421  1
  Y  Y9  1  0.209465  0.418932  0.440421  1
  Y  Y10  1  0.581068  0.790535  0.440421  1
  Y  Y11  1  0.787703  0.212297  0.563948  1
  Y  Y12  1  0.787703  0.575406  0.563948  1
  Y  Y13  1  0.424594  0.212297  0.563948  1
  Y  Y14  1  0.787703  0.212297  0.936052  1
  Y  Y15  1  0.787703  0.575406  0.936052  1
  Y  Y16  1  0.424594  0.212297  0.936052  1
  Y  Y17  1  0.209465  0.790535  0.059579  1
  Y  Y18  1  0.209465  0.418932  0.059579  1
  Y  Y19  1  0.581068  0.790535  0.059579  1
  Fe  Fe20  1  0.666667  0.333333  0.750000  1
  Tc  Tc21  1  0.333333  0.666667  0.250000  1
  Hg  Hg22  1  0.881505  0.118495  0.250000  1
  Hg  Hg23  1  0.881505  0.763011  0.250000  1
  Hg  Hg24  1  0.236989  0.118495  0.250000  1
  Hg  Hg25  1  0.118144  0.881856  0.750000  1
  Hg  Hg26  1  0.118144  0.236287  0.750000  1
  Hg  Hg27  1  0.763713  0.881856  0.750000  1
