# generated using pymatgen
data_LaNd2Co3Si7
_symmetry_space_group_name_H-M   'P 1'
_cell_length_a   13.12825020
_cell_length_b   13.12824996
_cell_length_c   4.14179400
_cell_angle_alpha   90.00000000
_cell_angle_beta   90.00000000
_cell_angle_gamma   161.69959539
_symmetry_Int_Tables_number   1
_chemical_formula_structural   LaNd2Co3Si7
_chemical_formula_sum   'La1 Nd2 Co3 Si7'
_cell_volume   224.14583002
_cell_formula_units_Z   1
loop_
 _symmetry_equiv_pos_site_id
 _symmetry_equiv_pos_as_xyz
  1  'x, y, z'
loop_
 _atom_site_type_symbol
 _atom_site_label
 _atom_site_symmetry_multiplicity
 _atom_site_fract_x
 _atom_site_fract_y
 _atom_site_fract_z
 _atom_site_occupancy
  La  La0  1  0.003274  0.996726  0.000000  1
  Nd  Nd1  1  0.686842  0.313158  0.500000  1
  Nd  Nd2  1  0.317888  0.682112  0.500000  1
  Co  Co3  1  0.865015  0.134985  0.000000  1
  Co  Co4  1  0.134347  0.865653  0.000000  1
  Co  Co5  1  0.449808  0.550192  0.500000  1
  Si  Si6  1  0.594878  0.405122  0.000000  1
  Si  Si7  1  0.407729  0.592271  0.000000  1
  Si  Si8  1  0.776103  0.223897  0.000000  1
  Si  Si9  1  0.225937  0.774063  0.000000  1
  Si  Si10  1  0.907294  0.092706  0.500000  1
  Si  Si11  1  0.094037  0.905963  0.500000  1
  Si  Si12  1  0.536848  0.463152  0.500000  1
