# generated using pymatgen
data_Yb2CrReC3
_symmetry_space_group_name_H-M   'P 1'
_cell_length_a   5.56419616
_cell_length_b   5.56419683
_cell_length_c   5.66414984
_cell_angle_alpha   74.81833273
_cell_angle_beta   74.81833161
_cell_angle_gamma   37.44660562
_symmetry_Int_Tables_number   1
_chemical_formula_structural   Yb2CrReC3
_chemical_formula_sum   'Yb2 Cr1 Re1 C3'
_cell_volume   102.46764138
_cell_formula_units_Z   1
loop_
 _symmetry_equiv_pos_site_id
 _symmetry_equiv_pos_as_xyz
  1  'x, y, z'
loop_
 _atom_site_type_symbol
 _atom_site_label
 _atom_site_symmetry_multiplicity
 _atom_site_fract_x
 _atom_site_fract_y
 _atom_site_fract_z
 _atom_site_occupancy
  Yb  Yb0  1  0.606411  0.606411  0.180666  1
  Yb  Yb1  1  0.409484  0.409484  0.819928  1
  Cr  Cr2  1  0.156395  0.156395  0.599241  1
  Re  Re3  1  0.842482  0.842482  0.402773  1
  C  C4  1  0.002102  0.002102  0.503827  1
  C  C5  1  0.299738  0.299738  0.280955  1
  C  C6  1  0.683388  0.683388  0.712609  1
