# generated using pymatgen
data_La3Cd2Pt3Au
_symmetry_space_group_name_H-M   'P 1'
_cell_length_a   7.75463765
_cell_length_b   7.75463853
_cell_length_c   4.08011100
_cell_angle_alpha   90.00000000
_cell_angle_beta   90.00000000
_cell_angle_gamma   118.74408324
_symmetry_Int_Tables_number   1
_chemical_formula_structural   La3Cd2Pt3Au
_chemical_formula_sum   'La3 Cd2 Pt3 Au1'
_cell_volume   215.12154502
_cell_formula_units_Z   1
loop_
 _symmetry_equiv_pos_site_id
 _symmetry_equiv_pos_as_xyz
  1  'x, y, z'
loop_
 _atom_site_type_symbol
 _atom_site_label
 _atom_site_symmetry_multiplicity
 _atom_site_fract_x
 _atom_site_fract_y
 _atom_site_fract_z
 _atom_site_occupancy
  La  La0  1  0.415154  0.415154  0.500000  1
  La  La1  1  0.603448  0.989747  0.500000  1
  La  La2  1  0.989747  0.603448  0.500000  1
  Cd  Cd3  1  0.255238  0.004353  0.000000  1
  Cd  Cd4  1  0.004353  0.255238  0.000000  1
  Pt  Pt5  1  0.661350  0.320082  0.000000  1
  Pt  Pt6  1  0.320082  0.661350  0.000000  1
  Pt  Pt7  1  0.008088  0.008088  0.500000  1
  Au  Au8  1  0.742539  0.742539  0.000000  1
