# generated using pymatgen
data_Sm8Nb12Si15P
_symmetry_space_group_name_H-M   'P 1'
_cell_length_a   7.12460279
_cell_length_b   7.11940235
_cell_length_c   13.19148583
_cell_angle_alpha   89.92660347
_cell_angle_beta   89.99589364
_cell_angle_gamma   89.97594616
_symmetry_Int_Tables_number   1
_chemical_formula_structural   Sm8Nb12Si15P
_chemical_formula_sum   'Sm8 Nb12 Si15 P1'
_cell_volume   669.10998979
_cell_formula_units_Z   1
loop_
 _symmetry_equiv_pos_site_id
 _symmetry_equiv_pos_as_xyz
  1  'x, y, z'
loop_
 _atom_site_type_symbol
 _atom_site_label
 _atom_site_symmetry_multiplicity
 _atom_site_fract_x
 _atom_site_fract_y
 _atom_site_fract_z
 _atom_site_occupancy
  Sm  Sm0  1  0.001070  0.337118  0.218135  1
  Sm  Sm1  1  0.003006  0.660588  0.717575  1
  Sm  Sm2  1  0.160004  0.498771  0.467642  1
  Sm  Sm3  1  0.500306  0.840778  0.033635  1
  Sm  Sm4  1  0.838671  0.502471  0.968238  1
  Sm  Sm5  1  0.497475  0.161270  0.531867  1
  Sm  Sm6  1  0.339600  0.997633  0.782583  1
  Sm  Sm7  1  0.656226  0.002485  0.281147  1
  Nb  Nb8  1  0.171328  0.168330  0.001451  1
  Nb  Nb9  1  0.829736  0.830284  0.499851  1
  Nb  Nb10  1  0.329616  0.670706  0.249110  1
  Nb  Nb11  1  0.670502  0.329190  0.750199  1
  Nb  Nb12  1  0.156955  0.994267  0.372474  1
  Nb  Nb13  1  0.843802  0.008167  0.875588  1
  Nb  Nb14  1  0.508441  0.656288  0.625103  1
  Nb  Nb15  1  0.344263  0.491772  0.874501  1
  Nb  Nb16  1  0.488507  0.340249  0.126516  1
  Nb  Nb17  1  0.657331  0.510094  0.374493  1
  Nb  Nb18  1  0.991339  0.155811  0.624438  1
  Nb  Nb19  1  0.010545  0.846388  0.125207  1
  Si  Si20  1  0.707935  0.955702  0.686684  1
  Si  Si21  1  0.455633  0.792051  0.436719  1
  Si  Si22  1  0.208111  0.543931  0.062760  1
  Si  Si23  1  0.544145  0.207908  0.936606  1
  Si  Si24  1  0.791791  0.455923  0.563570  1
  Si  Si25  1  0.044750  0.291257  0.814005  1
  Si  Si26  1  0.955773  0.708184  0.313077  1
  Si  Si27  1  0.372643  0.301671  0.318336  1
  Si  Si28  1  0.629816  0.703426  0.815748  1
  Si  Si29  1  0.203138  0.871460  0.564571  1
  Si  Si30  1  0.129216  0.795340  0.934268  1
  Si  Si31  1  0.796418  0.129254  0.065294  1
  Si  Si32  1  0.870437  0.202667  0.433820  1
  Si  Si33  1  0.296875  0.370272  0.684576  1
  Si  Si34  1  0.704293  0.627510  0.183998  1
  P  P35  1  0.290304  0.040783  0.186213  1
