# generated using pymatgen
data_NdTh2(GaPt)3
_symmetry_space_group_name_H-M   'P 1'
_cell_length_a   7.35373655
_cell_length_b   7.35373650
_cell_length_c   4.11036300
_cell_angle_alpha   90.00000000
_cell_angle_beta   90.00000000
_cell_angle_gamma   119.88746986
_symmetry_Int_Tables_number   1
_chemical_formula_structural   NdTh2(GaPt)3
_chemical_formula_sum   'Nd1 Th2 Ga3 Pt3'
_cell_volume   192.71622643
_cell_formula_units_Z   1
loop_
 _symmetry_equiv_pos_site_id
 _symmetry_equiv_pos_as_xyz
  1  'x, y, z'
loop_
 _atom_site_type_symbol
 _atom_site_label
 _atom_site_symmetry_multiplicity
 _atom_site_fract_x
 _atom_site_fract_y
 _atom_site_fract_z
 _atom_site_occupancy
  Nd  Nd0  1  0.411281  0.411281  0.500000  1
  Th  Th1  1  0.585042  0.999587  0.500000  1
  Th  Th2  1  0.999587  0.585042  0.500000  1
  Ga  Ga3  1  0.755556  0.755556  0.000000  1
  Ga  Ga4  1  0.240911  0.004620  0.000000  1
  Ga  Ga5  1  0.004620  0.240911  0.000000  1
  Pt  Pt6  1  0.677242  0.332540  0.000000  1
  Pt  Pt7  1  0.332540  0.677242  0.000000  1
  Pt  Pt8  1  0.993220  0.993220  0.500000  1
