# generated using pymatgen
data_Ca4P3Rh4
_symmetry_space_group_name_H-M   'P 1'
_cell_length_a   10.60431914
_cell_length_b   10.60432051
_cell_length_c   7.60027999
_cell_angle_alpha   71.90928014
_cell_angle_beta   71.90927820
_cell_angle_gamma   30.56562987
_symmetry_Int_Tables_number   1
_chemical_formula_structural   Ca4P3Rh4
_chemical_formula_sum   'Ca8 P6 Rh8'
_cell_volume   411.48378951
_cell_formula_units_Z   2
loop_
 _symmetry_equiv_pos_site_id
 _symmetry_equiv_pos_as_xyz
  1  'x, y, z'
loop_
 _atom_site_type_symbol
 _atom_site_label
 _atom_site_symmetry_multiplicity
 _atom_site_fract_x
 _atom_site_fract_y
 _atom_site_fract_z
 _atom_site_occupancy
  Ca  Ca0  1  0.202236  0.459083  0.412281  1
  Ca  Ca1  1  0.540917  0.797764  0.087719  1
  Ca  Ca2  1  0.459083  0.202236  0.912281  1
  Ca  Ca3  1  0.938730  0.200419  0.320884  1
  Ca  Ca4  1  0.799581  0.061270  0.179116  1
  Ca  Ca5  1  0.061270  0.799581  0.679116  1
  Ca  Ca6  1  0.200419  0.938730  0.820884  1
  Ca  Ca7  1  0.797764  0.540917  0.587719  1
  P  P8  1  0.588059  0.411941  0.750000  1
  P  P9  1  0.411941  0.588059  0.250000  1
  P  P10  1  0.310528  0.033194  0.431657  1
  P  P11  1  0.966806  0.689472  0.068343  1
  P  P12  1  0.689472  0.966806  0.568343  1
  P  P13  1  0.033194  0.310528  0.931657  1
  Rh  Rh14  1  0.299204  0.581995  0.028424  1
  Rh  Rh15  1  0.581995  0.299204  0.528424  1
  Rh  Rh16  1  0.700796  0.418005  0.971576  1
  Rh  Rh17  1  0.088166  0.356780  0.177060  1
  Rh  Rh18  1  0.643220  0.911834  0.322940  1
  Rh  Rh19  1  0.418005  0.700796  0.471576  1
  Rh  Rh20  1  0.911834  0.643220  0.822940  1
  Rh  Rh21  1  0.356780  0.088166  0.677060  1
