# generated using pymatgen
data_Tb2Nd3Th3(ZnRh)8
_symmetry_space_group_name_H-M   'P 1'
_cell_length_a   3.93032900
_cell_length_b   7.48897897
_cell_length_c   16.50642875
_cell_angle_alpha   90.35114897
_cell_angle_beta   90.00000000
_cell_angle_gamma   90.00000000
_symmetry_Int_Tables_number   1
_chemical_formula_structural   Tb2Nd3Th3(ZnRh)8
_chemical_formula_sum   'Tb2 Nd3 Th3 Zn8 Rh8'
_cell_volume   485.84359578
_cell_formula_units_Z   1
loop_
 _symmetry_equiv_pos_site_id
 _symmetry_equiv_pos_as_xyz
  1  'x, y, z'
loop_
 _atom_site_type_symbol
 _atom_site_label
 _atom_site_symmetry_multiplicity
 _atom_site_fract_x
 _atom_site_fract_y
 _atom_site_fract_z
 _atom_site_occupancy
  Tb  Tb0  1  0.750000  0.941272  0.283839  1
  Tb  Tb1  1  0.750000  0.832059  0.062606  1
  Nd  Nd2  1  0.750000  0.449832  0.213528  1
  Nd  Nd3  1  0.250000  0.055387  0.714950  1
  Nd  Nd4  1  0.250000  0.552550  0.787281  1
  Th  Th5  1  0.250000  0.170604  0.941880  1
  Th  Th6  1  0.250000  0.673912  0.561123  1
  Th  Th7  1  0.750000  0.324353  0.436391  1
  Zn  Zn8  1  0.750000  0.007205  0.560154  1
  Zn  Zn9  1  0.250000  0.622472  0.343944  1
  Zn  Zn10  1  0.750000  0.381638  0.654631  1
  Zn  Zn11  1  0.250000  0.508205  0.059852  1
  Zn  Zn12  1  0.750000  0.512372  0.942394  1
  Zn  Zn13  1  0.250000  0.990017  0.435815  1
  Zn  Zn14  1  0.250000  0.109338  0.153813  1
  Zn  Zn15  1  0.750000  0.880072  0.846817  1
  Rh  Rh16  1  0.750000  0.740664  0.439366  1
  Rh  Rh17  1  0.250000  0.240560  0.317604  1
  Rh  Rh18  1  0.750000  0.248549  0.821587  1
  Rh  Rh19  1  0.750000  0.749499  0.679892  1
  Rh  Rh20  1  0.250000  0.258896  0.558610  1
  Rh  Rh21  1  0.250000  0.751009  0.185897  1
  Rh  Rh22  1  0.750000  0.243040  0.060555  1
  Rh  Rh23  1  0.250000  0.756496  0.937472  1
