# generated using pymatgen
data_Dy3ErMoOs7
_symmetry_space_group_name_H-M   'P 1'
_cell_length_a   5.28537116
_cell_length_b   5.28537083
_cell_length_c   8.88709706
_cell_angle_alpha   89.98849735
_cell_angle_beta   90.01149945
_cell_angle_gamma   117.92216662
_symmetry_Int_Tables_number   1
_chemical_formula_structural   Dy3ErMoOs7
_chemical_formula_sum   'Dy3 Er1 Mo1 Os7'
_cell_volume   219.36077382
_cell_formula_units_Z   1
loop_
 _symmetry_equiv_pos_site_id
 _symmetry_equiv_pos_as_xyz
  1  'x, y, z'
loop_
 _atom_site_type_symbol
 _atom_site_label
 _atom_site_symmetry_multiplicity
 _atom_site_fract_x
 _atom_site_fract_y
 _atom_site_fract_z
 _atom_site_occupancy
  Dy  Dy0  1  0.329979  0.670021  0.437795  1
  Dy  Dy1  1  0.666632  0.333368  0.565915  1
  Dy  Dy2  1  0.666656  0.333344  0.934303  1
  Er  Er3  1  0.329760  0.670240  0.062209  1
  Mo  Mo4  1  0.832312  0.167688  0.249456  1
  Os  Os5  1  0.993785  0.006215  0.501557  1
  Os  Os6  1  0.993973  0.006027  0.998693  1
  Os  Os7  1  0.827117  0.653087  0.249168  1
  Os  Os8  1  0.346913  0.172883  0.249168  1
  Os  Os9  1  0.178024  0.821976  0.750674  1
  Os  Os10  1  0.172867  0.338014  0.750530  1
  Os  Os11  1  0.661986  0.827133  0.750530  1
