# generated using pymatgen
data_Hf12Ta3TiMn8
_symmetry_space_group_name_H-M   'P 1'
_cell_length_a   8.41667230
_cell_length_b   8.40817815
_cell_length_c   8.40817700
_cell_angle_alpha   60.00000059
_cell_angle_beta   60.03337923
_cell_angle_gamma   60.03339287
_symmetry_Int_Tables_number   1
_chemical_formula_structural   Hf12Ta3TiMn8
_chemical_formula_sum   'Hf12 Ta3 Ti1 Mn8'
_cell_volume   420.96709145
_cell_formula_units_Z   1
loop_
 _symmetry_equiv_pos_site_id
 _symmetry_equiv_pos_as_xyz
  1  'x, y, z'
loop_
 _atom_site_type_symbol
 _atom_site_label
 _atom_site_symmetry_multiplicity
 _atom_site_fract_x
 _atom_site_fract_y
 _atom_site_fract_z
 _atom_site_occupancy
  Hf  Hf0  1  0.809491  0.808751  0.190879  1
  Hf  Hf1  1  0.190630  0.194085  0.807642  1
  Hf  Hf2  1  0.809491  0.190879  0.808751  1
  Hf  Hf3  1  0.190630  0.807642  0.194085  1
  Hf  Hf4  1  0.190630  0.807642  0.807642  1
  Hf  Hf5  1  0.809491  0.190879  0.190879  1
  Hf  Hf6  1  0.440509  0.441249  0.059121  1
  Hf  Hf7  1  0.059370  0.055915  0.442358  1
  Hf  Hf8  1  0.440509  0.059121  0.441249  1
  Hf  Hf9  1  0.059370  0.442358  0.055915  1
  Hf  Hf10  1  0.059370  0.442358  0.442358  1
  Hf  Hf11  1  0.440509  0.059121  0.059121  1
  Ta  Ta12  1  0.625000  0.125000  0.625000  1
  Ta  Ta13  1  0.625000  0.625000  0.125000  1
  Ta  Ta14  1  0.625000  0.625000  0.625000  1
  Ti  Ti15  1  0.125000  0.625000  0.625000  1
  Mn  Mn16  1  0.750575  0.416474  0.416474  1
  Mn  Mn17  1  0.415715  0.749983  0.417150  1
  Mn  Mn18  1  0.415715  0.417150  0.749983  1
  Mn  Mn19  1  0.415715  0.417150  0.417150  1
  Mn  Mn20  1  0.499425  0.833526  0.833526  1
  Mn  Mn21  1  0.834285  0.500017  0.832850  1
  Mn  Mn22  1  0.834285  0.832850  0.500017  1
  Mn  Mn23  1  0.834285  0.832850  0.832850  1
