# generated using pymatgen
data_K4Ga3FeO8
_symmetry_space_group_name_H-M   'P 1'
_cell_length_a   5.72084692
_cell_length_b   5.77150550
_cell_length_c   7.95492906
_cell_angle_alpha   89.96961991
_cell_angle_beta   89.98668500
_cell_angle_gamma   89.86192738
_symmetry_Int_Tables_number   1
_chemical_formula_structural   K4Ga3FeO8
_chemical_formula_sum   'K4 Ga3 Fe1 O8'
_cell_volume   262.65424152
_cell_formula_units_Z   1
loop_
 _symmetry_equiv_pos_site_id
 _symmetry_equiv_pos_as_xyz
  1  'x, y, z'
loop_
 _atom_site_type_symbol
 _atom_site_label
 _atom_site_symmetry_multiplicity
 _atom_site_fract_x
 _atom_site_fract_y
 _atom_site_fract_z
 _atom_site_occupancy
  K  K0  1  0.517693  0.056429  0.377608  1
  K  K1  1  0.016435  0.943337  0.622959  1
  K  K2  1  0.014778  0.441854  0.877516  1
  K  K3  1  0.516525  0.558830  0.122145  1
  Ga  Ga4  1  0.498665  0.548042  0.629193  1
  Ga  Ga5  1  0.501681  0.047620  0.874054  1
  Ga  Ga6  1  0.001865  0.951616  0.122855  1
  Fe  Fe7  1  0.999289  0.451481  0.374059  1
  O  O8  1  0.681429  0.487741  0.439817  1
  O  O9  1  0.185708  0.514534  0.565420  1
  O  O10  1  0.186529  0.014887  0.935049  1
  O  O11  1  0.686232  0.988327  0.062709  1
  O  O12  1  0.054866  0.136468  0.311643  1
  O  O13  1  0.556859  0.858894  0.686891  1
  O  O14  1  0.556630  0.358546  0.815307  1
  O  O15  1  0.052815  0.641394  0.182776  1
