# generated using pymatgen
data_Tb3Dy5Y2(CoSb2)2
_symmetry_space_group_name_H-M   'P 1'
_cell_length_a   7.91970759
_cell_length_b   8.76874112
_cell_length_c   12.22443893
_cell_angle_alpha   90.01398133
_cell_angle_beta   89.95761924
_cell_angle_gamma   90.01306437
_symmetry_Int_Tables_number   1
_chemical_formula_structural   Tb3Dy5Y2(CoSb2)2
_chemical_formula_sum   'Tb6 Dy10 Y4 Co4 Sb8'
_cell_volume   848.93646379
_cell_formula_units_Z   2
loop_
 _symmetry_equiv_pos_site_id
 _symmetry_equiv_pos_as_xyz
  1  'x, y, z'
loop_
 _atom_site_type_symbol
 _atom_site_label
 _atom_site_symmetry_multiplicity
 _atom_site_fract_x
 _atom_site_fract_y
 _atom_site_fract_z
 _atom_site_occupancy
  Tb  Tb0  1  0.044967  0.750137  0.498187  1
  Tb  Tb1  1  0.622450  0.750138  0.305894  1
  Tb  Tb2  1  0.122090  0.250007  0.193787  1
  Tb  Tb3  1  0.377970  0.249800  0.694135  1
  Tb  Tb4  1  0.877792  0.750010  0.806127  1
  Tb  Tb5  1  0.320830  0.464455  0.435145  1
  Dy  Dy6  1  0.454638  0.749995  0.998208  1
  Dy  Dy7  1  0.954420  0.249883  0.501742  1
  Dy  Dy8  1  0.545392  0.249986  0.001787  1
  Dy  Dy9  1  0.821656  0.964641  0.064761  1
  Dy  Dy10  1  0.321820  0.035519  0.435192  1
  Dy  Dy11  1  0.178308  0.464535  0.935258  1
  Dy  Dy12  1  0.678595  0.535467  0.564954  1
  Dy  Dy13  1  0.178323  0.035457  0.935234  1
  Dy  Dy14  1  0.678261  0.964572  0.564858  1
  Dy  Dy15  1  0.821651  0.535345  0.064758  1
  Y  Y16  1  0.155044  0.750052  0.203798  1
  Y  Y17  1  0.655340  0.249890  0.295837  1
  Y  Y18  1  0.844992  0.249979  0.796062  1
  Y  Y19  1  0.345087  0.750061  0.704298  1
  Co  Co20  1  0.434260  0.750255  0.489708  1
  Co  Co21  1  0.933723  0.250008  0.010312  1
  Co  Co22  1  0.566743  0.249661  0.510409  1
  Co  Co23  1  0.066291  0.749999  0.989691  1
  Sb  Sb24  1  0.927950  0.992026  0.326985  1
  Sb  Sb25  1  0.428223  0.008424  0.172641  1
  Sb  Sb26  1  0.071885  0.491163  0.673096  1
  Sb  Sb27  1  0.571787  0.508405  0.827356  1
  Sb  Sb28  1  0.071805  0.008850  0.673066  1
  Sb  Sb29  1  0.571812  0.991628  0.827387  1
  Sb  Sb30  1  0.927541  0.508042  0.326873  1
  Sb  Sb31  1  0.428354  0.491611  0.172452  1
