# generated using pymatgen
data_Al2Ga2Pd7Au
_symmetry_space_group_name_H-M   'P 1'
_cell_length_a   4.11902500
_cell_length_b   5.59856698
_cell_length_c   7.91681414
_cell_angle_alpha   89.54614271
_cell_angle_beta   90.00000000
_cell_angle_gamma   90.00000000
_symmetry_Int_Tables_number   1
_chemical_formula_structural   Al2Ga2Pd7Au
_chemical_formula_sum   'Al2 Ga2 Pd7 Au1'
_cell_volume   182.56105197
_cell_formula_units_Z   1
loop_
 _symmetry_equiv_pos_site_id
 _symmetry_equiv_pos_as_xyz
  1  'x, y, z'
loop_
 _atom_site_type_symbol
 _atom_site_label
 _atom_site_symmetry_multiplicity
 _atom_site_fract_x
 _atom_site_fract_y
 _atom_site_fract_z
 _atom_site_occupancy
  Al  Al0  1  0.750000  0.290198  0.615763  1
  Al  Al1  1  0.250000  0.719952  0.395493  1
  Ga  Ga2  1  0.750000  0.795374  0.888702  1
  Ga  Ga3  1  0.250000  0.189100  0.101821  1
  Pd  Pd4  1  0.250000  0.543998  0.704624  1
  Pd  Pd5  1  0.750000  0.952500  0.207470  1
  Pd  Pd6  1  0.250000  0.046032  0.789885  1
  Pd  Pd7  1  0.750000  0.338044  0.932878  1
  Pd  Pd8  1  0.250000  0.658508  0.068624  1
  Pd  Pd9  1  0.750000  0.839235  0.565480  1
  Pd  Pd10  1  0.250000  0.170827  0.435009  1
  Au  Au11  1  0.750000  0.456233  0.294252  1
