# generated using pymatgen
data_Li2TmPaPt4
_symmetry_space_group_name_H-M   'P 1'
_cell_length_a   5.75559496
_cell_length_b   5.75559493
_cell_length_c   4.85515400
_cell_angle_alpha   90.00000000
_cell_angle_beta   90.00000000
_cell_angle_gamma   119.54704518
_symmetry_Int_Tables_number   1
_chemical_formula_structural   Li2TmPaPt4
_chemical_formula_sum   'Li2 Tm1 Pa1 Pt4'
_cell_volume   139.91951295
_cell_formula_units_Z   1
loop_
 _symmetry_equiv_pos_site_id
 _symmetry_equiv_pos_as_xyz
  1  'x, y, z'
loop_
 _atom_site_type_symbol
 _atom_site_label
 _atom_site_symmetry_multiplicity
 _atom_site_fract_x
 _atom_site_fract_y
 _atom_site_fract_z
 _atom_site_occupancy
  Li  Li0  1  0.856714  0.143286  0.750000  1
  Li  Li1  1  0.139984  0.860016  0.250000  1
  Tm  Tm2  1  0.657398  0.342602  0.250000  1
  Pa  Pa3  1  0.343927  0.656073  0.750000  1
  Pt  Pt4  1  0.333628  0.145891  0.750000  1
  Pt  Pt5  1  0.854109  0.666372  0.750000  1
  Pt  Pt6  1  0.665429  0.851190  0.250000  1
  Pt  Pt7  1  0.148810  0.334571  0.250000  1
