# generated using pymatgen
data_Ac3Y2Si10P2Ir19
_symmetry_space_group_name_H-M   'P 1'
_cell_length_a   13.00300639
_cell_length_b   13.00300764
_cell_length_c   4.03181800
_cell_angle_alpha   90.00000000
_cell_angle_beta   90.00000000
_cell_angle_gamma   120.06971981
_symmetry_Int_Tables_number   1
_chemical_formula_structural   Ac3Y2Si10P2Ir19
_chemical_formula_sum   'Ac3 Y2 Si10 P2 Ir19'
_cell_volume   589.94782638
_cell_formula_units_Z   1
loop_
 _symmetry_equiv_pos_site_id
 _symmetry_equiv_pos_as_xyz
  1  'x, y, z'
loop_
 _atom_site_type_symbol
 _atom_site_label
 _atom_site_symmetry_multiplicity
 _atom_site_fract_x
 _atom_site_fract_y
 _atom_site_fract_z
 _atom_site_occupancy
  Ac  Ac0  1  0.814083  0.814083  0.500000  1
  Ac  Ac1  1  0.185715  0.000109  0.500000  1
  Ac  Ac2  1  0.000109  0.185715  0.500000  1
  Y  Y3  1  0.666844  0.333773  0.000000  1
  Y  Y4  1  0.333773  0.666844  0.000000  1
  Si  Si5  1  0.688734  0.172061  0.500000  1
  Si  Si6  1  0.827718  0.516293  0.500000  1
  Si  Si7  1  0.482834  0.310599  0.500000  1
  Si  Si8  1  0.172061  0.688734  0.500000  1
  Si  Si9  1  0.516293  0.827718  0.500000  1
  Si  Si10  1  0.310599  0.482834  0.500000  1
  Si  Si11  1  0.626761  0.626761  0.000000  1
  Si  Si12  1  0.373593  0.000174  0.000000  1
  Si  Si13  1  0.000174  0.373593  0.000000  1
  Si  Si14  1  0.188803  0.188803  0.000000  1
  P  P15  1  0.811708  0.999836  0.000000  1
  P  P16  1  0.999836  0.811708  0.000000  1
  Ir  Ir17  1  0.800520  0.181388  0.000000  1
  Ir  Ir18  1  0.818350  0.619329  0.000000  1
  Ir  Ir19  1  0.383006  0.198962  0.000000  1
  Ir  Ir20  1  0.181388  0.800520  0.000000  1
  Ir  Ir21  1  0.619329  0.818350  0.000000  1
  Ir  Ir22  1  0.198962  0.383006  0.000000  1
  Ir  Ir23  1  0.447538  0.447538  0.000000  1
  Ir  Ir24  1  0.552808  0.998657  0.000000  1
  Ir  Ir25  1  0.998657  0.552808  0.000000  1
  Ir  Ir26  1  0.289850  0.289850  0.500000  1
  Ir  Ir27  1  0.712189  0.999854  0.500000  1
  Ir  Ir28  1  0.999854  0.712189  0.500000  1
  Ir  Ir29  1  0.873206  0.362885  0.500000  1
  Ir  Ir30  1  0.637082  0.510012  0.500000  1
  Ir  Ir31  1  0.490260  0.126055  0.500000  1
  Ir  Ir32  1  0.362885  0.873206  0.500000  1
  Ir  Ir33  1  0.510012  0.637082  0.500000  1
  Ir  Ir34  1  0.126055  0.490260  0.500000  1
  Ir  Ir35  1  0.998412  0.998412  0.000000  1
