# generated using pymatgen
data_Ca6AgHg2Pb3
_symmetry_space_group_name_H-M   'P 1'
_cell_length_a   5.46308617
_cell_length_b   7.64349300
_cell_length_c   16.47592807
_cell_angle_alpha   90.00000000
_cell_angle_beta   89.99358577
_cell_angle_gamma   90.00000000
_symmetry_Int_Tables_number   1
_chemical_formula_structural   Ca6AgHg2Pb3
_chemical_formula_sum   'Ca12 Ag2 Hg4 Pb6'
_cell_volume   687.98632727
_cell_formula_units_Z   2
loop_
 _symmetry_equiv_pos_site_id
 _symmetry_equiv_pos_as_xyz
  1  'x, y, z'
loop_
 _atom_site_type_symbol
 _atom_site_label
 _atom_site_symmetry_multiplicity
 _atom_site_fract_x
 _atom_site_fract_y
 _atom_site_fract_z
 _atom_site_occupancy
  Ca  Ca0  1  0.499999  0.248924  0.001299  1
  Ca  Ca1  1  0.499999  0.751075  0.001299  1
  Ca  Ca2  1  0.999974  0.251067  0.165369  1
  Ca  Ca3  1  0.999974  0.748934  0.165369  1
  Ca  Ca4  1  0.499998  0.251594  0.331729  1
  Ca  Ca5  1  0.499998  0.748407  0.331729  1
  Ca  Ca6  1  0.999994  0.250597  0.499821  1
  Ca  Ca7  1  0.999994  0.749403  0.499821  1
  Ca  Ca8  1  0.499993  0.249421  0.666848  1
  Ca  Ca9  1  0.499993  0.750580  0.666848  1
  Ca  Ca10  1  0.000028  0.248411  0.834932  1
  Ca  Ca11  1  0.000028  0.751590  0.834932  1
  Ag  Ag12  1  0.000007  0.000000  0.000423  1
  Ag  Ag13  1  0.499985  0.500000  0.166248  1
  Hg  Hg14  1  0.999992  0.000000  0.331716  1
  Hg  Hg15  1  0.499997  0.500000  0.499456  1
  Hg  Hg16  1  0.999993  0.000000  0.667193  1
  Hg  Hg17  1  0.500072  0.500000  0.834971  1
  Pb  Pb18  1  0.999994  0.500000  0.000663  1
  Pb  Pb19  1  0.499984  0.000000  0.166002  1
  Pb  Pb20  1  0.000000  0.500000  0.332681  1
  Pb  Pb21  1  0.499999  0.000000  0.499876  1
  Pb  Pb22  1  0.999999  0.500000  0.666791  1
  Pb  Pb23  1  0.500009  0.000000  0.833983  1
