# generated using pymatgen
data_Ce2NpIrRu2
_symmetry_space_group_name_H-M   'P 1'
_cell_length_a   5.25100649
_cell_length_b   5.42004618
_cell_length_c   5.25100685
_cell_angle_alpha   65.30242531
_cell_angle_beta   66.74549655
_cell_angle_gamma   65.30242403
_symmetry_Int_Tables_number   1
_chemical_formula_structural   Ce2NpIrRu2
_chemical_formula_sum   'Ce2 Np1 Ir1 Ru2'
_cell_volume   118.88469155
_cell_formula_units_Z   1
loop_
 _symmetry_equiv_pos_site_id
 _symmetry_equiv_pos_as_xyz
  1  'x, y, z'
loop_
 _atom_site_type_symbol
 _atom_site_label
 _atom_site_symmetry_multiplicity
 _atom_site_fract_x
 _atom_site_fract_y
 _atom_site_fract_z
 _atom_site_occupancy
  Ce  Ce0  1  0.616634  0.621936  0.616634  1
  Ce  Ce1  1  0.383366  0.378064  0.383366  1
  Np  Np2  1  0.000000  0.000000  0.000000  1
  Ir  Ir3  1  0.000000  0.500000  0.000000  1
  Ru  Ru4  1  0.500000  0.000000  0.000000  1
  Ru  Ru5  1  0.000000  0.000000  0.500000  1
