# generated using pymatgen
data_SmNbB6Ru
_symmetry_space_group_name_H-M   'P 1'
_cell_length_a   3.52631900
_cell_length_b   9.06067500
_cell_length_c   11.39024900
_cell_angle_alpha   90.00000000
_cell_angle_beta   90.00000000
_cell_angle_gamma   90.00000000
_symmetry_Int_Tables_number   1
_chemical_formula_structural   SmNbB6Ru
_chemical_formula_sum   'Sm4 Nb4 B24 Ru4'
_cell_volume   363.92791407
_cell_formula_units_Z   4
loop_
 _symmetry_equiv_pos_site_id
 _symmetry_equiv_pos_as_xyz
  1  'x, y, z'
loop_
 _atom_site_type_symbol
 _atom_site_label
 _atom_site_symmetry_multiplicity
 _atom_site_fract_x
 _atom_site_fract_y
 _atom_site_fract_z
 _atom_site_occupancy
  Sm  Sm0  1  0.000000  0.323107  0.413486  1
  Sm  Sm1  1  0.000000  0.676893  0.586514  1
  Sm  Sm2  1  0.000000  0.823107  0.086514  1
  Sm  Sm3  1  0.000000  0.176893  0.913486  1
  Nb  Nb4  1  0.000000  0.946320  0.375337  1
  Nb  Nb5  1  0.000000  0.053680  0.624663  1
  Nb  Nb6  1  0.000000  0.446320  0.124663  1
  Nb  Nb7  1  0.000000  0.553680  0.875337  1
  B  B8  1  0.500000  0.555265  0.432580  1
  B  B9  1  0.500000  0.444735  0.567420  1
  B  B10  1  0.500000  0.055265  0.067420  1
  B  B11  1  0.500000  0.944735  0.932580  1
  B  B12  1  0.500000  0.754822  0.417319  1
  B  B13  1  0.500000  0.245178  0.582681  1
  B  B14  1  0.500000  0.254822  0.082681  1
  B  B15  1  0.500000  0.745178  0.917319  1
  B  B16  1  0.500000  0.798009  0.264046  1
  B  B17  1  0.500000  0.201991  0.735954  1
  B  B18  1  0.500000  0.298009  0.235954  1
  B  B19  1  0.500000  0.701991  0.764046  1
  B  B20  1  0.500000  0.628606  0.181733  1
  B  B21  1  0.500000  0.371394  0.818267  1
  B  B22  1  0.500000  0.128606  0.318267  1
  B  B23  1  0.500000  0.871394  0.681733  1
  B  B24  1  0.500000  0.981755  0.214894  1
  B  B25  1  0.500000  0.018245  0.785106  1
  B  B26  1  0.500000  0.481755  0.285106  1
  B  B27  1  0.500000  0.518245  0.714894  1
  B  B28  1  0.500000  0.598606  0.026176  1
  B  B29  1  0.500000  0.401394  0.973824  1
  B  B30  1  0.500000  0.098606  0.473824  1
  B  B31  1  0.500000  0.901394  0.526176  1
  Ru  Ru32  1  0.000000  0.644031  0.316893  1
  Ru  Ru33  1  0.000000  0.355969  0.683107  1
  Ru  Ru34  1  0.000000  0.144031  0.183107  1
  Ru  Ru35  1  0.000000  0.855969  0.816893  1
