# generated using pymatgen
data_HoTcF7
_symmetry_space_group_name_H-M   'P 1'
_cell_length_a   5.55462500
_cell_length_b   8.85930525
_cell_length_c   11.97410457
_cell_angle_alpha   62.67574041
_cell_angle_beta   90.00000000
_cell_angle_gamma   90.00000000
_symmetry_Int_Tables_number   1
_chemical_formula_structural   HoTcF7
_chemical_formula_sum   'Ho4 Tc4 F28'
_cell_volume   523.50065372
_cell_formula_units_Z   4
loop_
 _symmetry_equiv_pos_site_id
 _symmetry_equiv_pos_as_xyz
  1  'x, y, z'
loop_
 _atom_site_type_symbol
 _atom_site_label
 _atom_site_symmetry_multiplicity
 _atom_site_fract_x
 _atom_site_fract_y
 _atom_site_fract_z
 _atom_site_occupancy
  Ho  Ho0  1  0.758926  0.813552  0.764566  1
  Ho  Ho1  1  0.258926  0.186448  0.735434  1
  Ho  Ho2  1  0.241074  0.186448  0.235434  1
  Ho  Ho3  1  0.741074  0.813552  0.264566  1
  Tc  Tc4  1  0.757968  0.272917  0.956873  1
  Tc  Tc5  1  0.257968  0.727083  0.543127  1
  Tc  Tc6  1  0.242032  0.727083  0.043127  1
  Tc  Tc7  1  0.742032  0.272917  0.456873  1
  F  F8  1  0.440481  0.706104  0.916145  1
  F  F9  1  0.940481  0.293896  0.583855  1
  F  F10  1  0.559519  0.293896  0.083855  1
  F  F11  1  0.059519  0.706104  0.416145  1
  F  F12  1  0.442703  0.275871  0.544943  1
  F  F13  1  0.942703  0.724129  0.955057  1
  F  F14  1  0.557297  0.724129  0.455057  1
  F  F15  1  0.057297  0.275871  0.044943  1
  F  F16  1  0.775438  0.521643  0.859005  1
  F  F17  1  0.275438  0.478357  0.640995  1
  F  F18  1  0.224562  0.478357  0.140995  1
  F  F19  1  0.724562  0.521643  0.359005  1
  F  F20  1  0.755114  0.025277  0.052545  1
  F  F21  1  0.255114  0.974723  0.447455  1
  F  F22  1  0.244886  0.974723  0.947455  1
  F  F23  1  0.744886  0.025277  0.552545  1
  F  F24  1  0.969893  0.727376  0.637946  1
  F  F25  1  0.469893  0.272624  0.862054  1
  F  F26  1  0.030107  0.272624  0.362054  1
  F  F27  1  0.530107  0.727376  0.137946  1
  F  F28  1  0.048887  0.746994  0.174012  1
  F  F29  1  0.548887  0.253006  0.325988  1
  F  F30  1  0.951113  0.253006  0.825988  1
  F  F31  1  0.451113  0.746994  0.674012  1
  F  F32  1  0.417922  0.970417  0.232399  1
  F  F33  1  0.917922  0.029583  0.267601  1
  F  F34  1  0.582078  0.029583  0.767601  1
  F  F35  1  0.082078  0.970417  0.732399  1
