# generated using pymatgen
data_Ac4CoTc3I2
_symmetry_space_group_name_H-M   'P 1'
_cell_length_a   4.28962700
_cell_length_b   4.28962729
_cell_length_c   19.32822500
_cell_angle_alpha   90.00000000
_cell_angle_beta   90.00000000
_cell_angle_gamma   120.00000548
_symmetry_Int_Tables_number   1
_chemical_formula_structural   Ac4CoTc3I2
_chemical_formula_sum   'Ac4 Co1 Tc3 I2'
_cell_volume   308.00776827
_cell_formula_units_Z   1
loop_
 _symmetry_equiv_pos_site_id
 _symmetry_equiv_pos_as_xyz
  1  'x, y, z'
loop_
 _atom_site_type_symbol
 _atom_site_label
 _atom_site_symmetry_multiplicity
 _atom_site_fract_x
 _atom_site_fract_y
 _atom_site_fract_z
 _atom_site_occupancy
  Ac  Ac0  1  0.000000  0.000000  0.103091  1
  Ac  Ac1  1  0.000000  0.000000  0.897180  1
  Ac  Ac2  1  0.000000  0.000000  0.613482  1
  Ac  Ac3  1  0.000000  0.000000  0.386208  1
  Co  Co4  1  0.333333  0.666667  0.998079  1
  Tc  Tc5  1  0.333333  0.666667  0.513416  1
  Tc  Tc6  1  0.666667  0.333333  0.486368  1
  Tc  Tc7  1  0.666667  0.333333  0.002068  1
  I  I8  1  0.333333  0.666667  0.246937  1
  I  I9  1  0.666667  0.333333  0.753172  1
