# generated using pymatgen
data_VFe2BrO4
_symmetry_space_group_name_H-M   'P 1'
_cell_length_a   6.87249500
_cell_length_b   5.34011506
_cell_length_c   7.03443759
_cell_angle_alpha   87.47040293
_cell_angle_beta   90.00000000
_cell_angle_gamma   90.00000000
_symmetry_Int_Tables_number   1
_chemical_formula_structural   VFe2BrO4
_chemical_formula_sum   'V2 Fe4 Br2 O8'
_cell_volume   257.91168951
_cell_formula_units_Z   2
loop_
 _symmetry_equiv_pos_site_id
 _symmetry_equiv_pos_as_xyz
  1  'x, y, z'
loop_
 _atom_site_type_symbol
 _atom_site_label
 _atom_site_symmetry_multiplicity
 _atom_site_fract_x
 _atom_site_fract_y
 _atom_site_fract_z
 _atom_site_occupancy
  V  V0  1  0.750000  0.505552  0.771580  1
  V  V1  1  0.250000  0.494448  0.228420  1
  Fe  Fe2  1  0.000000  0.000000  0.000000  1
  Fe  Fe3  1  0.250000  0.354570  0.745409  1
  Fe  Fe4  1  0.500000  0.000000  0.000000  1
  Fe  Fe5  1  0.750000  0.645430  0.254591  1
  Br  Br6  1  0.250000  0.847041  0.731197  1
  Br  Br7  1  0.750000  0.152959  0.268803  1
  O  O8  1  0.041969  0.685765  0.186020  1
  O  O9  1  0.250000  0.380459  0.454349  1
  O  O10  1  0.458031  0.685765  0.186020  1
  O  O11  1  0.958031  0.314235  0.813980  1
  O  O12  1  0.750000  0.619541  0.545651  1
  O  O13  1  0.250000  0.235566  0.073052  1
  O  O14  1  0.541969  0.314235  0.813980  1
  O  O15  1  0.750000  0.764434  0.926948  1
