# generated using pymatgen
data_U2PdSe6
_symmetry_space_group_name_H-M   'P 1'
_cell_length_a   7.44317019
_cell_length_b   7.44317055
_cell_length_c   11.30564820
_cell_angle_alpha   59.08184815
_cell_angle_beta   59.08184736
_cell_angle_gamma   29.76455425
_symmetry_Int_Tables_number   1
_chemical_formula_structural   U2PdSe6
_chemical_formula_sum   'U2 Pd1 Se6'
_cell_volume   263.35501430
_cell_formula_units_Z   1
loop_
 _symmetry_equiv_pos_site_id
 _symmetry_equiv_pos_as_xyz
  1  'x, y, z'
loop_
 _atom_site_type_symbol
 _atom_site_label
 _atom_site_symmetry_multiplicity
 _atom_site_fract_x
 _atom_site_fract_y
 _atom_site_fract_z
 _atom_site_occupancy
  U  U0  1  0.319250  0.319250  0.295093  1
  U  U1  1  0.680750  0.680750  0.704907  1
  Pd  Pd2  1  0.000000  0.000000  0.000000  1
  Se  Se3  1  0.658521  0.658521  0.469034  1
  Se  Se4  1  0.015057  0.015057  0.771083  1
  Se  Se5  1  0.984943  0.984943  0.228917  1
  Se  Se6  1  0.341479  0.341479  0.530966  1
  Se  Se7  1  0.797896  0.797896  0.123411  1
  Se  Se8  1  0.202104  0.202104  0.876589  1
