# generated using pymatgen
data_TaPd3Pt5
_symmetry_space_group_name_H-M   'P 1'
_cell_length_a   6.31813744
_cell_length_b   6.31813643
_cell_length_c   6.28789376
_cell_angle_alpha   95.60269133
_cell_angle_beta   95.60268995
_cell_angle_gamma   143.67555012
_symmetry_Int_Tables_number   1
_chemical_formula_structural   TaPd3Pt5
_chemical_formula_sum   'Ta1 Pd3 Pt5'
_cell_volume   141.20373264
_cell_formula_units_Z   1
loop_
 _symmetry_equiv_pos_site_id
 _symmetry_equiv_pos_as_xyz
  1  'x, y, z'
loop_
 _atom_site_type_symbol
 _atom_site_label
 _atom_site_symmetry_multiplicity
 _atom_site_fract_x
 _atom_site_fract_y
 _atom_site_fract_z
 _atom_site_occupancy
  Ta  Ta0  1  0.003063  0.003063  0.006125  1
  Pd  Pd1  1  0.670157  0.000196  0.670353  1
  Pd  Pd2  1  0.000196  0.670157  0.670353  1
  Pd  Pd3  1  0.336173  0.336173  0.672345  1
  Pt  Pt4  1  0.660236  0.337225  0.997462  1
  Pt  Pt5  1  0.337225  0.660236  0.997462  1
  Pt  Pt6  1  0.663415  0.663415  0.326832  1
  Pt  Pt7  1  0.329886  0.999648  0.329534  1
  Pt  Pt8  1  0.999648  0.329886  0.329534  1
