# generated using pymatgen
data_Tm19Mg(OsPt2)4
_symmetry_space_group_name_H-M   'P 1'
_cell_length_a   10.86317100
_cell_length_b   10.86317100
_cell_length_c   6.27335400
_cell_angle_alpha   90.00000000
_cell_angle_beta   90.00000000
_cell_angle_gamma   90.00000000
_symmetry_Int_Tables_number   1
_chemical_formula_structural   Tm19Mg(OsPt2)4
_chemical_formula_sum   'Tm19 Mg1 Os4 Pt8'
_cell_volume   740.30899623
_cell_formula_units_Z   1
loop_
 _symmetry_equiv_pos_site_id
 _symmetry_equiv_pos_as_xyz
  1  'x, y, z'
loop_
 _atom_site_type_symbol
 _atom_site_label
 _atom_site_symmetry_multiplicity
 _atom_site_fract_x
 _atom_site_fract_y
 _atom_site_fract_z
 _atom_site_occupancy
  Tm  Tm0  1  0.291724  0.081799  0.374458  1
  Tm  Tm1  1  0.297419  0.913012  0.875104  1
  Tm  Tm2  1  0.702581  0.086988  0.875104  1
  Tm  Tm3  1  0.708276  0.918201  0.374458  1
  Tm  Tm4  1  0.587703  0.797533  0.873979  1
  Tm  Tm5  1  0.583685  0.202415  0.372273  1
  Tm  Tm6  1  0.416315  0.797585  0.372273  1
  Tm  Tm7  1  0.412297  0.202467  0.873979  1
  Tm  Tm8  1  0.202415  0.416315  0.627727  1
  Tm  Tm9  1  0.202467  0.587703  0.126021  1
  Tm  Tm10  1  0.797533  0.412297  0.126021  1
  Tm  Tm11  1  0.797585  0.583685  0.627727  1
  Tm  Tm12  1  0.913012  0.702581  0.124896  1
  Tm  Tm13  1  0.918201  0.291724  0.625542  1
  Tm  Tm14  1  0.081799  0.708276  0.625542  1
  Tm  Tm15  1  0.086988  0.297419  0.124896  1
  Tm  Tm16  1  0.000000  0.000000  0.000000  1
  Tm  Tm17  1  0.500000  0.500000  0.000000  1
  Tm  Tm18  1  0.500000  0.500000  0.500000  1
  Mg  Mg19  1  0.000000  0.000000  0.500000  1
  Os  Os20  1  0.500000  0.000000  0.125161  1
  Os  Os21  1  0.500000  0.000000  0.623349  1
  Os  Os22  1  0.000000  0.500000  0.874839  1
  Os  Os23  1  0.000000  0.500000  0.376651  1
  Pt  Pt24  1  0.848182  0.154001  0.248196  1
  Pt  Pt25  1  0.845999  0.848182  0.751804  1
  Pt  Pt26  1  0.154001  0.151818  0.751804  1
  Pt  Pt27  1  0.151818  0.845999  0.248196  1
  Pt  Pt28  1  0.653780  0.346987  0.747371  1
  Pt  Pt29  1  0.653013  0.653780  0.252629  1
  Pt  Pt30  1  0.346987  0.346220  0.252629  1
  Pt  Pt31  1  0.346220  0.653013  0.747371  1
