# generated using pymatgen
data_Er4Ga2(ReRu)3
_symmetry_space_group_name_H-M   'P 1'
_cell_length_a   5.30967336
_cell_length_b   5.30967346
_cell_length_c   8.96687600
_cell_angle_alpha   90.00000000
_cell_angle_beta   90.00000000
_cell_angle_gamma   120.17750974
_symmetry_Int_Tables_number   1
_chemical_formula_structural   Er4Ga2(ReRu)3
_chemical_formula_sum   'Er4 Ga2 Re3 Ru3'
_cell_volume   218.53842381
_cell_formula_units_Z   1
loop_
 _symmetry_equiv_pos_site_id
 _symmetry_equiv_pos_as_xyz
  1  'x, y, z'
loop_
 _atom_site_type_symbol
 _atom_site_label
 _atom_site_symmetry_multiplicity
 _atom_site_fract_x
 _atom_site_fract_y
 _atom_site_fract_z
 _atom_site_occupancy
  Er  Er0  1  0.331168  0.668832  0.441322  1
  Er  Er1  1  0.666719  0.333281  0.562651  1
  Er  Er2  1  0.666719  0.333281  0.937349  1
  Er  Er3  1  0.331168  0.668832  0.058678  1
  Ga  Ga4  1  0.338035  0.163696  0.250000  1
  Ga  Ga5  1  0.836304  0.661965  0.250000  1
  Re  Re6  1  0.168738  0.337827  0.750000  1
  Re  Re7  1  0.172290  0.827710  0.750000  1
  Re  Re8  1  0.662173  0.831262  0.750000  1
  Ru  Ru9  1  0.998521  0.001479  0.004199  1
  Ru  Ru10  1  0.829646  0.170354  0.250000  1
  Ru  Ru11  1  0.998521  0.001479  0.495801  1
