# generated using pymatgen
data_HoPa3TlInPd4
_symmetry_space_group_name_H-M   'P 1'
_cell_length_a   7.83249812
_cell_length_b   7.82235993
_cell_length_c   3.65852500
_cell_angle_alpha   90.00000000
_cell_angle_beta   90.00000000
_cell_angle_gamma   89.16430569
_symmetry_Int_Tables_number   1
_chemical_formula_structural   HoPa3TlInPd4
_chemical_formula_sum   'Ho1 Pa3 Tl1 In1 Pd4'
_cell_volume   224.12893328
_cell_formula_units_Z   1
loop_
 _symmetry_equiv_pos_site_id
 _symmetry_equiv_pos_as_xyz
  1  'x, y, z'
loop_
 _atom_site_type_symbol
 _atom_site_label
 _atom_site_symmetry_multiplicity
 _atom_site_fract_x
 _atom_site_fract_y
 _atom_site_fract_z
 _atom_site_occupancy
  Ho  Ho0  1  0.674101  0.175422  0.500000  1
  Pa  Pa1  1  0.330397  0.828579  0.500000  1
  Pa  Pa2  1  0.824917  0.672207  0.500000  1
  Pa  Pa3  1  0.174192  0.326903  0.500000  1
  Tl  Tl4  1  0.993908  0.002497  0.000000  1
  In  In5  1  0.502340  0.494496  0.000000  1
  Pd  Pd6  1  0.364704  0.124844  0.000000  1
  Pd  Pd7  1  0.879536  0.382155  0.000000  1
  Pd  Pd8  1  0.133941  0.631323  0.000000  1
  Pd  Pd9  1  0.621963  0.861572  0.000000  1
