# generated using pymatgen
data_LuAl7Cu3
_symmetry_space_group_name_H-M   'P 1'
_cell_length_a   8.13957684
_cell_length_b   8.13957655
_cell_length_c   8.13957615
_cell_angle_alpha   56.72919210
_cell_angle_beta   56.72919276
_cell_angle_gamma   56.72919415
_symmetry_Int_Tables_number   1
_chemical_formula_structural   LuAl7Cu3
_chemical_formula_sum   'Lu2 Al14 Cu6'
_cell_volume   352.52446026
_cell_formula_units_Z   2
loop_
 _symmetry_equiv_pos_site_id
 _symmetry_equiv_pos_as_xyz
  1  'x, y, z'
loop_
 _atom_site_type_symbol
 _atom_site_label
 _atom_site_symmetry_multiplicity
 _atom_site_fract_x
 _atom_site_fract_y
 _atom_site_fract_z
 _atom_site_occupancy
  Lu  Lu0  1  0.000000  0.000000  0.000000  1
  Lu  Lu1  1  0.500000  0.500000  0.500000  1
  Al  Al2  1  0.921919  0.148872  0.340309  1
  Al  Al3  1  0.340309  0.921919  0.148872  1
  Al  Al4  1  0.148872  0.340309  0.921919  1
  Al  Al5  1  0.578081  0.159691  0.351128  1
  Al  Al6  1  0.351128  0.578081  0.159691  1
  Al  Al7  1  0.159691  0.351128  0.578081  1
  Al  Al8  1  0.078081  0.851128  0.659691  1
  Al  Al9  1  0.659691  0.078081  0.851128  1
  Al  Al10  1  0.750000  0.750000  0.750000  1
  Al  Al11  1  0.250000  0.250000  0.250000  1
  Al  Al12  1  0.840309  0.648872  0.421919  1
  Al  Al13  1  0.648872  0.421919  0.840309  1
  Al  Al14  1  0.421919  0.840309  0.648872  1
  Al  Al15  1  0.851128  0.659691  0.078081  1
  Cu  Cu16  1  0.250000  0.577070  0.922930  1
  Cu  Cu17  1  0.922930  0.250000  0.577070  1
  Cu  Cu18  1  0.577070  0.922930  0.250000  1
  Cu  Cu19  1  0.750000  0.422930  0.077070  1
  Cu  Cu20  1  0.077070  0.750000  0.422930  1
  Cu  Cu21  1  0.422930  0.077070  0.750000  1
