# generated using pymatgen
data_MgAl(Zn2Pd5)2
_symmetry_space_group_name_H-M   'P 1'
_cell_length_a   4.17675600
_cell_length_b   5.43989946
_cell_length_c   10.53463319
_cell_angle_alpha   90.68903146
_cell_angle_beta   90.00000000
_cell_angle_gamma   90.00000000
_symmetry_Int_Tables_number   1
_chemical_formula_structural   MgAl(Zn2Pd5)2
_chemical_formula_sum   'Mg1 Al1 Zn4 Pd10'
_cell_volume   239.34149071
_cell_formula_units_Z   1
loop_
 _symmetry_equiv_pos_site_id
 _symmetry_equiv_pos_as_xyz
  1  'x, y, z'
loop_
 _atom_site_type_symbol
 _atom_site_label
 _atom_site_symmetry_multiplicity
 _atom_site_fract_x
 _atom_site_fract_y
 _atom_site_fract_z
 _atom_site_occupancy
  Mg  Mg0  1  0.500000  0.157060  0.361184  1
  Al  Al1  1  0.000000  0.497160  0.500124  1
  Zn  Zn2  1  0.000000  0.999064  0.999779  1
  Zn  Zn3  1  0.500000  0.841706  0.639018  1
  Zn  Zn4  1  0.500000  0.667420  0.136226  1
  Zn  Zn5  1  0.500000  0.334174  0.864013  1
  Pd  Pd6  1  0.500000  0.183219  0.107216  1
  Pd  Pd7  1  0.500000  0.818308  0.888896  1
  Pd  Pd8  1  0.500000  0.670226  0.393309  1
  Pd  Pd9  1  0.500000  0.326178  0.610254  1
  Pd  Pd10  1  0.000000  0.994550  0.503572  1
  Pd  Pd11  1  0.000000  0.500250  0.998797  1
  Pd  Pd12  1  0.000000  0.893868  0.236760  1
  Pd  Pd13  1  0.000000  0.109985  0.764232  1
  Pd  Pd14  1  0.000000  0.398675  0.263341  1
  Pd  Pd15  1  0.000000  0.608159  0.733280  1
