# generated using pymatgen
data_SrLi8Ca3(CrN3)4
_symmetry_space_group_name_H-M   'P 1'
_cell_length_a   9.01188054
_cell_length_b   7.13567926
_cell_length_c   10.52125700
_cell_angle_alpha   89.99993526
_cell_angle_beta   89.99994740
_cell_angle_gamma   90.21685618
_symmetry_Int_Tables_number   1
_chemical_formula_structural   SrLi8Ca3(CrN3)4
_chemical_formula_sum   'Sr2 Li16 Ca6 Cr8 N24'
_cell_volume   676.57393932
_cell_formula_units_Z   2
loop_
 _symmetry_equiv_pos_site_id
 _symmetry_equiv_pos_as_xyz
  1  'x, y, z'
loop_
 _atom_site_type_symbol
 _atom_site_label
 _atom_site_symmetry_multiplicity
 _atom_site_fract_x
 _atom_site_fract_y
 _atom_site_fract_z
 _atom_site_occupancy
  Sr  Sr0  1  0.191852  0.585198  0.420807  1
  Sr  Sr1  1  0.308149  0.414808  0.920810  1
  Li  Li2  1  0.882824  0.096106  0.781862  1
  Li  Li3  1  0.617171  0.903971  0.281845  1
  Li  Li4  1  0.383570  0.402172  0.219668  1
  Li  Li5  1  0.116426  0.597825  0.719667  1
  Li  Li6  1  0.115971  0.906469  0.217959  1
  Li  Li7  1  0.384031  0.093527  0.717958  1
  Li  Li8  1  0.618657  0.598023  0.780554  1
  Li  Li9  1  0.881340  0.401974  0.280552  1
  Li  Li10  1  0.119768  0.291073  0.182895  1
  Li  Li11  1  0.380240  0.708916  0.682893  1
  Li  Li12  1  0.623583  0.206327  0.815394  1
  Li  Li13  1  0.876410  0.793670  0.315393  1
  Li  Li14  1  0.877497  0.710414  0.815060  1
  Li  Li15  1  0.622512  0.289585  0.315059  1
  Li  Li16  1  0.378859  0.790213  0.185532  1
  Li  Li17  1  0.121141  0.209771  0.685524  1
  Ca  Ca18  1  0.303082  0.085071  0.410286  1
  Ca  Ca19  1  0.196924  0.914925  0.910283  1
  Ca  Ca20  1  0.801681  0.413137  0.591466  1
  Ca  Ca21  1  0.698318  0.586854  0.091470  1
  Ca  Ca22  1  0.696126  0.914754  0.588952  1
  Ca  Ca23  1  0.803881  0.085241  0.088948  1
  Cr  Cr24  1  0.951227  0.110154  0.418281  1
  Cr  Cr25  1  0.548779  0.889849  0.918289  1
  Cr  Cr26  1  0.457115  0.389020  0.581547  1
  Cr  Cr27  1  0.042879  0.610974  0.081546  1
  Cr  Cr28  1  0.043043  0.893981  0.582814  1
  Cr  Cr29  1  0.456946  0.106016  0.082822  1
  Cr  Cr30  1  0.548113  0.608180  0.417860  1
  Cr  Cr31  1  0.951890  0.391818  0.917858  1
  N  N32  1  0.925302  0.109438  0.596561  1
  N  N33  1  0.574696  0.890565  0.096568  1
  N  N34  1  0.432606  0.389576  0.403942  1
  N  N35  1  0.067394  0.610426  0.903944  1
  N  N36  1  0.069664  0.899966  0.404633  1
  N  N37  1  0.430338  0.100029  0.904638  1
  N  N38  1  0.575042  0.605461  0.595557  1
  N  N39  1  0.924955  0.394530  0.095552  1
  N  N40  1  0.784594  0.078134  0.338371  1
  N  N41  1  0.715416  0.921877  0.838381  1
  N  N42  1  0.287175  0.420165  0.656579  1
  N  N43  1  0.212819  0.579827  0.156579  1
  N  N44  1  0.211843  0.921314  0.661002  1
  N  N45  1  0.288151  0.078681  0.161007  1
  N  N46  1  0.714926  0.578744  0.338171  1
  N  N47  1  0.785072  0.421246  0.838166  1
  N  N48  1  0.055242  0.295002  0.370178  1
  N  N49  1  0.444762  0.704997  0.870184  1
  N  N50  1  0.557960  0.197497  0.624726  1
  N  N51  1  0.942036  0.802495  0.124731  1
  N  N52  1  0.943659  0.697976  0.621295  1
  N  N53  1  0.556331  0.302015  0.121299  1
  N  N54  1  0.446224  0.801050  0.378042  1
  N  N55  1  0.053779  0.198958  0.878040  1
