# generated using pymatgen
data_Sr3Ca(Ga8Pt3)3
_symmetry_space_group_name_H-M   'P 1'
_cell_length_a   7.63177908
_cell_length_b   7.69403825
_cell_length_c   13.55141500
_cell_angle_alpha   84.61065859
_cell_angle_beta   79.33528569
_cell_angle_gamma   60.18500667
_symmetry_Int_Tables_number   1
_chemical_formula_structural   Sr3Ca(Ga8Pt3)3
_chemical_formula_sum   'Sr3 Ca1 Ga24 Pt9'
_cell_volume   678.47492884
_cell_formula_units_Z   1
loop_
 _symmetry_equiv_pos_site_id
 _symmetry_equiv_pos_as_xyz
  1  'x, y, z'
loop_
 _atom_site_type_symbol
 _atom_site_label
 _atom_site_symmetry_multiplicity
 _atom_site_fract_x
 _atom_site_fract_y
 _atom_site_fract_z
 _atom_site_occupancy
  Sr  Sr0  1  0.603806  0.831526  0.191265  1
  Sr  Sr1  1  0.732452  0.499394  0.808181  1
  Sr  Sr2  1  0.267664  0.500652  0.191364  1
  Ca  Ca3  1  0.397241  0.168408  0.806675  1
  Ga  Ga4  1  0.688367  0.835683  0.941253  1
  Ga  Ga5  1  0.310048  0.166768  0.053320  1
  Ga  Ga6  1  0.146565  0.831207  0.559298  1
  Ga  Ga7  1  0.852811  0.168425  0.442274  1
  Ga  Ga8  1  0.478141  0.166558  0.556144  1
  Ga  Ga9  1  0.520941  0.833131  0.445689  1
  Ga  Ga10  1  0.214662  0.164693  0.331809  1
  Ga  Ga11  1  0.782244  0.837020  0.671119  1
  Ga  Ga12  1  0.435296  0.505927  0.668786  1
  Ga  Ga13  1  0.564229  0.491507  0.333795  1
  Ga  Ga14  1  0.110677  0.157633  0.669029  1
  Ga  Ga15  1  0.890487  0.842529  0.334446  1
  Ga  Ga16  1  0.351706  0.499421  0.942877  1
  Ga  Ga17  1  0.650481  0.496664  0.053956  1
  Ga  Ga18  1  0.020989  0.165129  0.947734  1
  Ga  Ga19  1  0.982960  0.836832  0.047186  1
  Ga  Ga20  1  0.185969  0.497425  0.445496  1
  Ga  Ga21  1  0.813524  0.502648  0.555730  1
  Ga  Ga22  1  0.735455  0.166390  0.182595  1
  Ga  Ga23  1  0.263125  0.839931  0.817580  1
  Ga  Ga24  1  0.068981  0.627874  0.815918  1
  Ga  Ga25  1  0.936361  0.367850  0.184005  1
  Ga  Ga26  1  0.856613  0.035075  0.814931  1
  Ga  Ga27  1  0.138780  0.964565  0.184839  1
  Pt  Pt28  1  0.118152  0.493890  0.637549  1
  Pt  Pt29  1  0.881551  0.505278  0.363600  1
  Pt  Pt30  1  0.660757  0.170064  0.998075  1
  Pt  Pt31  1  0.339944  0.829275  0.001600  1
  Pt  Pt32  1  0.540549  0.166299  0.363537  1
  Pt  Pt33  1  0.459146  0.833358  0.637555  1
  Pt  Pt34  1  0.780285  0.172895  0.634361  1
  Pt  Pt35  1  0.219714  0.827260  0.366568  1
  Pt  Pt36  1  0.999328  0.500810  0.999863  1
