# generated using pymatgen
data_LuHf3Si4Mo
_symmetry_space_group_name_H-M   'P 1'
_cell_length_a   7.02956400
_cell_length_b   7.02956400
_cell_length_c   12.81568900
_cell_angle_alpha   90.00000000
_cell_angle_beta   90.00000000
_cell_angle_gamma   90.00000000
_symmetry_Int_Tables_number   1
_chemical_formula_structural   LuHf3Si4Mo
_chemical_formula_sum   'Lu4 Hf12 Si16 Mo4'
_cell_volume   633.28432471
_cell_formula_units_Z   4
loop_
 _symmetry_equiv_pos_site_id
 _symmetry_equiv_pos_as_xyz
  1  'x, y, z'
loop_
 _atom_site_type_symbol
 _atom_site_label
 _atom_site_symmetry_multiplicity
 _atom_site_fract_x
 _atom_site_fract_y
 _atom_site_fract_z
 _atom_site_occupancy
  Lu  Lu0  1  0.495215  0.156695  0.531731  1
  Lu  Lu1  1  0.504785  0.843305  0.031731  1
  Lu  Lu2  1  0.656695  0.004785  0.281731  1
  Lu  Lu3  1  0.343305  0.995215  0.781731  1
  Hf  Hf4  1  0.846428  0.500481  0.969030  1
  Hf  Hf5  1  0.153572  0.499519  0.469030  1
  Hf  Hf6  1  0.000481  0.653572  0.719030  1
  Hf  Hf7  1  0.999519  0.346428  0.219030  1
  Hf  Hf8  1  0.494418  0.356488  0.125267  1
  Hf  Hf9  1  0.505582  0.643512  0.625267  1
  Hf  Hf10  1  0.856488  0.005582  0.875267  1
  Hf  Hf11  1  0.143512  0.994418  0.375267  1
  Hf  Hf12  1  0.644807  0.503171  0.374787  1
  Hf  Hf13  1  0.355193  0.496829  0.874787  1
  Hf  Hf14  1  0.003171  0.855193  0.124787  1
  Hf  Hf15  1  0.996829  0.144807  0.624787  1
  Si  Si16  1  0.801564  0.150157  0.070546  1
  Si  Si17  1  0.198436  0.849843  0.570546  1
  Si  Si18  1  0.650157  0.698436  0.820546  1
  Si  Si19  1  0.349843  0.301564  0.320546  1
  Si  Si20  1  0.860189  0.208068  0.428885  1
  Si  Si21  1  0.139811  0.791932  0.928885  1
  Si  Si22  1  0.708068  0.639811  0.178885  1
  Si  Si23  1  0.291932  0.360189  0.678885  1
  Si  Si24  1  0.551123  0.202719  0.933223  1
  Si  Si25  1  0.448877  0.797281  0.433223  1
  Si  Si26  1  0.702719  0.948877  0.683223  1
  Si  Si27  1  0.297281  0.051123  0.183223  1
  Si  Si28  1  0.804860  0.453965  0.566559  1
  Si  Si29  1  0.195140  0.546035  0.066559  1
  Si  Si30  1  0.953965  0.695140  0.316559  1
  Si  Si31  1  0.046035  0.304860  0.816559  1
  Mo  Mo32  1  0.678834  0.328572  0.749971  1
  Mo  Mo33  1  0.321166  0.671428  0.249971  1
  Mo  Mo34  1  0.828572  0.821166  0.499971  1
  Mo  Mo35  1  0.171428  0.178834  0.999971  1
