# generated using pymatgen
data_YbDyLuNi19B10
_symmetry_space_group_name_H-M   'P 1'
_cell_length_a   7.85117016
_cell_length_b   7.85117150
_cell_length_c   5.74186407
_cell_angle_alpha   88.92148144
_cell_angle_beta   88.92147359
_cell_angle_gamma   67.13654497
_symmetry_Int_Tables_number   1
_chemical_formula_structural   YbDyLuNi19B10
_chemical_formula_sum   'Yb1 Dy1 Lu1 Ni19 B10'
_cell_volume   326.04299742
_cell_formula_units_Z   1
loop_
 _symmetry_equiv_pos_site_id
 _symmetry_equiv_pos_as_xyz
  1  'x, y, z'
loop_
 _atom_site_type_symbol
 _atom_site_label
 _atom_site_symmetry_multiplicity
 _atom_site_fract_x
 _atom_site_fract_y
 _atom_site_fract_z
 _atom_site_occupancy
  Yb  Yb0  1  0.999771  0.999771  0.999915  1
  Dy  Dy1  1  0.625037  0.625037  0.612489  1
  Lu  Lu2  1  0.373213  0.373213  0.386520  1
  Ni  Ni3  1  0.622480  0.622480  0.125593  1
  Ni  Ni4  1  0.377844  0.377844  0.872236  1
  Ni  Ni5  1  0.837508  0.837508  0.703365  1
  Ni  Ni6  1  0.163330  0.163330  0.295337  1
  Ni  Ni7  1  0.819032  0.819032  0.268880  1
  Ni  Ni8  1  0.181485  0.181485  0.729848  1
  Ni  Ni9  1  0.000515  0.000515  0.499984  1
  Ni  Ni10  1  0.622656  0.122905  0.075705  1
  Ni  Ni11  1  0.375665  0.878660  0.926095  1
  Ni  Ni12  1  0.878660  0.375665  0.926095  1
  Ni  Ni13  1  0.122905  0.622656  0.075705  1
  Ni  Ni14  1  0.288931  0.769189  0.301146  1
  Ni  Ni15  1  0.711179  0.229501  0.699304  1
  Ni  Ni16  1  0.229501  0.711179  0.699304  1
  Ni  Ni17  1  0.769189  0.288931  0.301146  1
  Ni  Ni18  1  0.482584  0.954438  0.302238  1
  Ni  Ni19  1  0.516951  0.046577  0.697836  1
  Ni  Ni20  1  0.046577  0.516951  0.697836  1
  Ni  Ni21  1  0.954438  0.482584  0.302238  1
  B  B22  1  0.699588  0.065501  0.430575  1
  B  B23  1  0.298940  0.935581  0.569197  1
  B  B24  1  0.935581  0.298940  0.569197  1
  B  B25  1  0.065501  0.699588  0.430575  1
  B  B26  1  0.349684  0.142647  0.026257  1
  B  B27  1  0.650704  0.858332  0.973545  1
  B  B28  1  0.858332  0.650704  0.973545  1
  B  B29  1  0.142647  0.349684  0.026257  1
  B  B30  1  0.615889  0.383681  0.001022  1
  B  B31  1  0.383681  0.615889  0.001022  1
