# generated using pymatgen
data_Nd2ScCrO6
_symmetry_space_group_name_H-M   'P 1'
_cell_length_a   5.75020900
_cell_length_b   5.53774492
_cell_length_c   9.66289475
_cell_angle_alpha   55.27322421
_cell_angle_beta   90.00000000
_cell_angle_gamma   90.00000000
_symmetry_Int_Tables_number   1
_chemical_formula_structural   Nd2ScCrO6
_chemical_formula_sum   'Nd4 Sc2 Cr2 O12'
_cell_volume   252.88969672
_cell_formula_units_Z   2
loop_
 _symmetry_equiv_pos_site_id
 _symmetry_equiv_pos_as_xyz
  1  'x, y, z'
loop_
 _atom_site_type_symbol
 _atom_site_label
 _atom_site_symmetry_multiplicity
 _atom_site_fract_x
 _atom_site_fract_y
 _atom_site_fract_z
 _atom_site_occupancy
  Nd  Nd0  1  0.056843  0.735452  0.750081  1
  Nd  Nd1  1  0.556843  0.264548  0.749919  1
  Nd  Nd2  1  0.943157  0.264548  0.249919  1
  Nd  Nd3  1  0.443157  0.735452  0.250081  1
  Sc  Sc4  1  0.000000  0.000000  0.000000  1
  Sc  Sc5  1  0.500000  0.000000  0.500000  1
  Cr  Cr6  1  0.500000  0.500000  0.000000  1
  Cr  Cr7  1  0.000000  0.500000  0.500000  1
  O  O8  1  0.301877  0.256840  0.948404  1
  O  O9  1  0.801877  0.743160  0.551596  1
  O  O10  1  0.698123  0.743160  0.051596  1
  O  O11  1  0.198123  0.256840  0.448404  1
  O  O12  1  0.206076  0.643226  0.052211  1
  O  O13  1  0.706076  0.356774  0.447789  1
  O  O14  1  0.793924  0.356774  0.947789  1
  O  O15  1  0.293924  0.643226  0.552211  1
  O  O16  1  0.467423  0.843785  0.755003  1
  O  O17  1  0.967423  0.156215  0.744997  1
  O  O18  1  0.532577  0.156215  0.244997  1
  O  O19  1  0.032577  0.843785  0.255003  1
