# generated using pymatgen
data_Gd6Ga6SiAu5
_symmetry_space_group_name_H-M   'P 1'
_cell_length_a   7.11127300
_cell_length_b   7.11127219
_cell_length_c   8.48647900
_cell_angle_alpha   90.00000000
_cell_angle_beta   90.00000000
_cell_angle_gamma   119.99998982
_symmetry_Int_Tables_number   1
_chemical_formula_structural   Gd6Ga6SiAu5
_chemical_formula_sum   'Gd6 Ga6 Si1 Au5'
_cell_volume   371.66603144
_cell_formula_units_Z   1
loop_
 _symmetry_equiv_pos_site_id
 _symmetry_equiv_pos_as_xyz
  1  'x, y, z'
loop_
 _atom_site_type_symbol
 _atom_site_label
 _atom_site_symmetry_multiplicity
 _atom_site_fract_x
 _atom_site_fract_y
 _atom_site_fract_z
 _atom_site_occupancy
  Gd  Gd0  1  0.582630  0.002401  0.749594  1
  Gd  Gd1  1  0.997599  0.580229  0.749594  1
  Gd  Gd2  1  0.419771  0.417370  0.749594  1
  Gd  Gd3  1  0.996794  0.580039  0.250467  1
  Gd  Gd4  1  0.583245  0.003206  0.250467  1
  Gd  Gd5  1  0.419961  0.416755  0.250467  1
  Ga  Ga6  1  0.749489  0.752138  0.999977  1
  Ga  Ga7  1  0.247862  0.997351  0.999977  1
  Ga  Ga8  1  0.002649  0.250511  0.999977  1
  Ga  Ga9  1  0.756260  0.757917  0.499964  1
  Ga  Ga10  1  0.242083  0.998344  0.499964  1
  Ga  Ga11  1  0.001656  0.243740  0.499964  1
  Si  Si12  1  0.666667  0.333333  0.999787  1
  Au  Au13  1  0.000000  0.000000  0.754030  1
  Au  Au14  1  0.000000  0.000000  0.245896  1
  Au  Au15  1  0.666667  0.333333  0.500412  1
  Au  Au16  1  0.333333  0.666667  0.499505  1
  Au  Au17  1  0.333333  0.666667  0.000372  1
