# generated using pymatgen
data_Nd16Dy4(OsPt3)3
_symmetry_space_group_name_H-M   'P 1'
_cell_length_a   11.32016800
_cell_length_b   11.32016800
_cell_length_c   6.59225500
_cell_angle_alpha   90.00000000
_cell_angle_beta   90.00000000
_cell_angle_gamma   90.00000000
_symmetry_Int_Tables_number   1
_chemical_formula_structural   Nd16Dy4(OsPt3)3
_chemical_formula_sum   'Nd16 Dy4 Os3 Pt9'
_cell_volume   844.77245107
_cell_formula_units_Z   1
loop_
 _symmetry_equiv_pos_site_id
 _symmetry_equiv_pos_as_xyz
  1  'x, y, z'
loop_
 _atom_site_type_symbol
 _atom_site_label
 _atom_site_symmetry_multiplicity
 _atom_site_fract_x
 _atom_site_fract_y
 _atom_site_fract_z
 _atom_site_occupancy
  Nd  Nd0  1  0.088576  0.292420  0.119109  1
  Nd  Nd1  1  0.792420  0.411424  0.119109  1
  Nd  Nd2  1  0.207580  0.588576  0.119109  1
  Nd  Nd3  1  0.911424  0.707580  0.119109  1
  Nd  Nd4  1  0.412835  0.795826  0.375610  1
  Nd  Nd5  1  0.587165  0.204174  0.375610  1
  Nd  Nd6  1  0.295826  0.087165  0.375610  1
  Nd  Nd7  1  0.704174  0.912835  0.375610  1
  Nd  Nd8  1  0.413381  0.203683  0.876011  1
  Nd  Nd9  1  0.703683  0.086619  0.876011  1
  Nd  Nd10  1  0.296317  0.913381  0.876011  1
  Nd  Nd11  1  0.586619  0.796317  0.876011  1
  Nd  Nd12  1  0.088822  0.708346  0.628418  1
  Nd  Nd13  1  0.911178  0.291654  0.628418  1
  Nd  Nd14  1  0.208346  0.411178  0.628418  1
  Nd  Nd15  1  0.791654  0.588822  0.628418  1
  Dy  Dy16  1  0.000000  0.000000  0.999491  1
  Dy  Dy17  1  0.500000  0.500000  0.999491  1
  Dy  Dy18  1  0.500000  0.500000  0.499347  1
  Dy  Dy19  1  0.000000  0.000000  0.499347  1
  Os  Os20  1  0.500000  0.000000  0.119907  1
  Os  Os21  1  0.500000  0.000000  0.619316  1
  Os  Os22  1  0.000000  0.500000  0.881642  1
  Pt  Pt23  1  0.146124  0.851145  0.250383  1
  Pt  Pt24  1  0.351145  0.353876  0.250383  1
  Pt  Pt25  1  0.648855  0.646124  0.250383  1
  Pt  Pt26  1  0.853876  0.148855  0.250383  1
  Pt  Pt27  1  0.352266  0.647079  0.750096  1
  Pt  Pt28  1  0.147079  0.147734  0.750096  1
  Pt  Pt29  1  0.852921  0.852266  0.750096  1
  Pt  Pt30  1  0.647734  0.352921  0.750096  1
  Pt  Pt31  1  0.000000  0.500000  0.382943  1
