# generated using pymatgen
data_Sc5Ga17Pd7
_symmetry_space_group_name_H-M   'P 1'
_cell_length_a   8.69821381
_cell_length_b   8.82713739
_cell_length_c   8.82713800
_cell_angle_alpha   59.03605212
_cell_angle_beta   60.48197392
_cell_angle_gamma   60.48197978
_symmetry_Int_Tables_number   1
_chemical_formula_structural   Sc5Ga17Pd7
_chemical_formula_sum   'Sc5 Ga17 Pd7'
_cell_volume   479.04050786
_cell_formula_units_Z   1
loop_
 _symmetry_equiv_pos_site_id
 _symmetry_equiv_pos_as_xyz
  1  'x, y, z'
loop_
 _atom_site_type_symbol
 _atom_site_label
 _atom_site_symmetry_multiplicity
 _atom_site_fract_x
 _atom_site_fract_y
 _atom_site_fract_z
 _atom_site_occupancy
  Sc  Sc0  1  0.789412  0.210588  0.210588  1
  Sc  Sc1  1  0.773674  0.226326  0.764448  1
  Sc  Sc2  1  0.773674  0.764448  0.226326  1
  Sc  Sc3  1  0.235552  0.764448  0.226326  1
  Sc  Sc4  1  0.235552  0.226326  0.764448  1
  Ga  Ga5  1  0.892508  0.846496  0.846496  1
  Ga  Ga6  1  0.861664  0.835938  0.440738  1
  Ga  Ga7  1  0.414501  0.846496  0.846496  1
  Ga  Ga8  1  0.861664  0.440738  0.835938  1
  Ga  Ga9  1  0.164062  0.138336  0.138336  1
  Ga  Ga10  1  0.153504  0.107492  0.585499  1
  Ga  Ga11  1  0.153504  0.585499  0.107492  1
  Ga  Ga12  1  0.559262  0.138336  0.138336  1
  Ga  Ga13  1  0.610038  0.626333  0.626333  1
  Ga  Ga14  1  0.637598  0.620595  0.104206  1
  Ga  Ga15  1  0.137298  0.626333  0.626333  1
  Ga  Ga16  1  0.637598  0.104206  0.620595  1
  Ga  Ga17  1  0.379405  0.362402  0.362402  1
  Ga  Ga18  1  0.373667  0.389962  0.862702  1
  Ga  Ga19  1  0.373667  0.862702  0.389962  1
  Ga  Ga20  1  0.895794  0.362402  0.362402  1
  Ga  Ga21  1  0.016165  0.983835  0.983835  1
  Pd  Pd22  1  0.515936  0.484064  0.484064  1
  Pd  Pd23  1  0.012808  0.487192  0.487192  1
  Pd  Pd24  1  0.512808  0.987192  0.987192  1
  Pd  Pd25  1  0.508541  0.994199  0.491459  1
  Pd  Pd26  1  0.508541  0.491459  0.994199  1
  Pd  Pd27  1  0.005801  0.491459  0.994199  1
  Pd  Pd28  1  0.005801  0.994199  0.491459  1
