# generated using pymatgen
data_Dy4AlReRu6
_symmetry_space_group_name_H-M   'P 1'
_cell_length_a   5.17383395
_cell_length_b   5.45125355
_cell_length_c   8.90141000
_cell_angle_alpha   90.00000000
_cell_angle_beta   90.00000000
_cell_angle_gamma   119.72512335
_symmetry_Int_Tables_number   1
_chemical_formula_structural   Dy4AlReRu6
_chemical_formula_sum   'Dy4 Al1 Re1 Ru6'
_cell_volume   218.01911871
_cell_formula_units_Z   1
loop_
 _symmetry_equiv_pos_site_id
 _symmetry_equiv_pos_as_xyz
  1  'x, y, z'
loop_
 _atom_site_type_symbol
 _atom_site_label
 _atom_site_symmetry_multiplicity
 _atom_site_fract_x
 _atom_site_fract_y
 _atom_site_fract_z
 _atom_site_occupancy
  Dy  Dy0  1  0.333747  0.671155  0.438393  1
  Dy  Dy1  1  0.658247  0.327740  0.565760  1
  Dy  Dy2  1  0.658247  0.327740  0.934240  1
  Dy  Dy3  1  0.333747  0.671155  0.061607  1
  Al  Al4  1  0.835696  0.165897  0.250000  1
  Re  Re5  1  0.667598  0.835733  0.750000  1
  Ru  Ru6  1  0.989435  0.988861  0.499609  1
  Ru  Ru7  1  0.989435  0.988861  0.000391  1
  Ru  Ru8  1  0.825688  0.656788  0.250000  1
  Ru  Ru9  1  0.351802  0.183062  0.250000  1
  Ru  Ru10  1  0.176442  0.834300  0.750000  1
  Ru  Ru11  1  0.179915  0.348709  0.750000  1
