# generated using pymatgen
data_MgZr(Si7Ir3)2
_symmetry_space_group_name_H-M   'P 1'
_cell_length_a   7.98867547
_cell_length_b   7.98867565
_cell_length_c   7.98867540
_cell_angle_alpha   56.50942781
_cell_angle_beta   56.50942564
_cell_angle_gamma   56.50942476
_symmetry_Int_Tables_number   1
_chemical_formula_structural   MgZr(Si7Ir3)2
_chemical_formula_sum   'Mg1 Zr1 Si14 Ir6'
_cell_volume   331.41940646
_cell_formula_units_Z   1
loop_
 _symmetry_equiv_pos_site_id
 _symmetry_equiv_pos_as_xyz
  1  'x, y, z'
loop_
 _atom_site_type_symbol
 _atom_site_label
 _atom_site_symmetry_multiplicity
 _atom_site_fract_x
 _atom_site_fract_y
 _atom_site_fract_z
 _atom_site_occupancy
  Mg  Mg0  1  0.500000  0.500000  0.500000  1
  Zr  Zr1  1  0.000000  0.000000  0.000000  1
  Si  Si2  1  0.849068  0.064778  0.672293  1
  Si  Si3  1  0.672293  0.849068  0.064778  1
  Si  Si4  1  0.064778  0.672293  0.849068  1
  Si  Si5  1  0.648192  0.826424  0.435913  1
  Si  Si6  1  0.249697  0.249697  0.249697  1
  Si  Si7  1  0.750303  0.750303  0.750303  1
  Si  Si8  1  0.173576  0.564087  0.351808  1
  Si  Si9  1  0.564087  0.351808  0.173576  1
  Si  Si10  1  0.351808  0.173576  0.564087  1
  Si  Si11  1  0.935222  0.327707  0.150932  1
  Si  Si12  1  0.327707  0.150932  0.935222  1
  Si  Si13  1  0.150932  0.935222  0.327707  1
  Si  Si14  1  0.826424  0.435913  0.648192  1
  Si  Si15  1  0.435913  0.648192  0.826424  1
  Ir  Ir16  1  0.752344  0.070754  0.424636  1
  Ir  Ir17  1  0.424636  0.752344  0.070754  1
  Ir  Ir18  1  0.070754  0.424636  0.752344  1
  Ir  Ir19  1  0.247656  0.929246  0.575364  1
  Ir  Ir20  1  0.575364  0.247656  0.929246  1
  Ir  Ir21  1  0.929246  0.575364  0.247656  1
