# generated using pymatgen
data_Ho4TmPPb3
_symmetry_space_group_name_H-M   'P 1'
_cell_length_a   9.10127200
_cell_length_b   9.10127084
_cell_length_c   6.74790500
_cell_angle_alpha   90.00000000
_cell_angle_beta   90.00000000
_cell_angle_gamma   119.99999694
_symmetry_Int_Tables_number   1
_chemical_formula_structural   Ho4TmPPb3
_chemical_formula_sum   'Ho8 Tm2 P2 Pb6'
_cell_volume   484.06506127
_cell_formula_units_Z   2
loop_
 _symmetry_equiv_pos_site_id
 _symmetry_equiv_pos_as_xyz
  1  'x, y, z'
loop_
 _atom_site_type_symbol
 _atom_site_label
 _atom_site_symmetry_multiplicity
 _atom_site_fract_x
 _atom_site_fract_y
 _atom_site_fract_z
 _atom_site_occupancy
  Ho  Ho0  1  0.761885  0.761885  0.249927  1
  Ho  Ho1  1  0.238115  0.000000  0.249927  1
  Ho  Ho2  1  0.000000  0.238115  0.249927  1
  Ho  Ho3  1  0.238115  0.238115  0.750073  1
  Ho  Ho4  1  0.761885  0.000000  0.750073  1
  Ho  Ho5  1  0.000000  0.761885  0.750073  1
  Ho  Ho6  1  0.666667  0.333333  0.500000  1
  Ho  Ho7  1  0.333333  0.666667  0.500000  1
  Tm  Tm8  1  0.333333  0.666667  0.000000  1
  Tm  Tm9  1  0.666667  0.333333  0.000000  1
  P  P10  1  0.000000  0.000000  0.500000  1
  P  P11  1  0.000000  0.000000  0.000000  1
  Pb  Pb12  1  0.399925  0.399925  0.249843  1
  Pb  Pb13  1  0.600075  0.000000  0.249843  1
  Pb  Pb14  1  0.000000  0.600075  0.249843  1
  Pb  Pb15  1  0.600075  0.600075  0.750157  1
  Pb  Pb16  1  0.399925  0.000000  0.750157  1
  Pb  Pb17  1  0.000000  0.399925  0.750157  1
