# generated using pymatgen
data_Tm6Co15Ni(MoP6)2
_symmetry_space_group_name_H-M   'P 1'
_cell_length_a   3.70886500
_cell_length_b   10.49910900
_cell_length_c   12.18646400
_cell_angle_alpha   90.00000000
_cell_angle_beta   90.00000000
_cell_angle_gamma   90.00000000
_symmetry_Int_Tables_number   1
_chemical_formula_structural   Tm6Co15Ni(MoP6)2
_chemical_formula_sum   'Tm6 Co15 Ni1 Mo2 P12'
_cell_volume   474.53820156
_cell_formula_units_Z   1
loop_
 _symmetry_equiv_pos_site_id
 _symmetry_equiv_pos_as_xyz
  1  'x, y, z'
loop_
 _atom_site_type_symbol
 _atom_site_label
 _atom_site_symmetry_multiplicity
 _atom_site_fract_x
 _atom_site_fract_y
 _atom_site_fract_z
 _atom_site_occupancy
  Tm  Tm0  1  0.000000  0.500000  0.523435  1
  Tm  Tm1  1  0.500000  0.000000  0.474946  1
  Tm  Tm2  1  0.500000  0.819582  0.205251  1
  Tm  Tm3  1  0.500000  0.180418  0.205251  1
  Tm  Tm4  1  0.000000  0.681666  0.795668  1
  Tm  Tm5  1  0.000000  0.318334  0.795668  1
  Co  Co6  1  0.000000  0.000000  0.298478  1
  Co  Co7  1  0.000000  0.500000  0.987263  1
  Co  Co8  1  0.500000  0.000000  0.013409  1
  Co  Co9  1  0.500000  0.332523  0.990010  1
  Co  Co10  1  0.500000  0.667477  0.990010  1
  Co  Co11  1  0.000000  0.167392  0.009911  1
  Co  Co12  1  0.000000  0.832608  0.009911  1
  Co  Co13  1  0.500000  0.296853  0.431924  1
  Co  Co14  1  0.500000  0.703147  0.431924  1
  Co  Co15  1  0.000000  0.202919  0.567772  1
  Co  Co16  1  0.000000  0.797081  0.567772  1
  Co  Co17  1  0.500000  0.877220  0.706690  1
  Co  Co18  1  0.500000  0.122780  0.706690  1
  Co  Co19  1  0.000000  0.622587  0.293351  1
  Co  Co20  1  0.000000  0.377413  0.293351  1
  Ni  Ni21  1  0.500000  0.500000  0.701669  1
  Mo  Mo22  1  0.500000  0.500000  0.156765  1
  Mo  Mo23  1  0.000000  0.000000  0.842713  1
  P  P24  1  0.500000  0.500000  0.880934  1
  P  P25  1  0.000000  0.000000  0.120221  1
  P  P26  1  0.500000  0.500000  0.350865  1
  P  P27  1  0.000000  0.000000  0.648766  1
  P  P28  1  0.500000  0.311994  0.616081  1
  P  P29  1  0.500000  0.688006  0.616081  1
  P  P30  1  0.000000  0.187254  0.383251  1
  P  P31  1  0.000000  0.812746  0.383251  1
  P  P32  1  0.500000  0.844100  0.892189  1
  P  P33  1  0.500000  0.155900  0.892189  1
  P  P34  1  0.000000  0.656516  0.108167  1
  P  P35  1  0.000000  0.343484  0.108167  1
