# generated using pymatgen
data_TbDy3HgPd
_symmetry_space_group_name_H-M   'P 1'
_cell_length_a   9.69343615
_cell_length_b   9.69343573
_cell_length_c   9.69343600
_cell_angle_alpha   59.99999908
_cell_angle_beta   60.00000051
_cell_angle_gamma   59.99999891
_symmetry_Int_Tables_number   1
_chemical_formula_structural   TbDy3HgPd
_chemical_formula_sum   'Tb4 Dy12 Hg4 Pd4'
_cell_volume   644.04799665
_cell_formula_units_Z   4
loop_
 _symmetry_equiv_pos_site_id
 _symmetry_equiv_pos_as_xyz
  1  'x, y, z'
loop_
 _atom_site_type_symbol
 _atom_site_label
 _atom_site_symmetry_multiplicity
 _atom_site_fract_x
 _atom_site_fract_y
 _atom_site_fract_z
 _atom_site_occupancy
  Tb  Tb0  1  0.356776  0.356776  0.356776  1
  Tb  Tb1  1  0.356776  0.356776  0.929670  1
  Tb  Tb2  1  0.356776  0.929670  0.356776  1
  Tb  Tb3  1  0.929670  0.356776  0.356776  1
  Dy  Dy4  1  0.811446  0.188554  0.188554  1
  Dy  Dy5  1  0.188554  0.811446  0.811446  1
  Dy  Dy6  1  0.188554  0.811446  0.188554  1
  Dy  Dy7  1  0.811446  0.188554  0.811446  1
  Dy  Dy8  1  0.188554  0.188554  0.811446  1
  Dy  Dy9  1  0.811446  0.811446  0.188554  1
  Dy  Dy10  1  0.934861  0.565139  0.565139  1
  Dy  Dy11  1  0.565139  0.934861  0.934861  1
  Dy  Dy12  1  0.565139  0.934861  0.565139  1
  Dy  Dy13  1  0.934861  0.565139  0.934861  1
  Dy  Dy14  1  0.565139  0.565139  0.934861  1
  Dy  Dy15  1  0.934861  0.934861  0.565139  1
  Hg  Hg16  1  0.587162  0.587162  0.587162  1
  Hg  Hg17  1  0.587162  0.587162  0.238516  1
  Hg  Hg18  1  0.587162  0.238516  0.587162  1
  Hg  Hg19  1  0.238516  0.587162  0.587162  1
  Pd  Pd20  1  0.145530  0.145530  0.145530  1
  Pd  Pd21  1  0.145530  0.145530  0.563408  1
  Pd  Pd22  1  0.145530  0.563408  0.145530  1
  Pd  Pd23  1  0.563408  0.145530  0.145530  1
