# generated using pymatgen
data_La4Ga9SiRh6
_symmetry_space_group_name_H-M   'P 1'
_cell_length_a   8.75631055
_cell_length_b   8.67832130
_cell_length_c   8.67832052
_cell_angle_alpha   140.70598003
_cell_angle_beta   107.98548459
_cell_angle_gamma   85.14144962
_symmetry_Int_Tables_number   1
_chemical_formula_structural   La4Ga9SiRh6
_chemical_formula_sum   'La4 Ga9 Si1 Rh6'
_cell_volume   383.98354970
_cell_formula_units_Z   1
loop_
 _symmetry_equiv_pos_site_id
 _symmetry_equiv_pos_as_xyz
  1  'x, y, z'
loop_
 _atom_site_type_symbol
 _atom_site_label
 _atom_site_symmetry_multiplicity
 _atom_site_fract_x
 _atom_site_fract_y
 _atom_site_fract_z
 _atom_site_occupancy
  La  La0  1  0.635270  0.866272  0.768999  1
  La  La1  1  0.361949  0.136633  0.225317  1
  La  La2  1  0.906505  0.634514  0.271991  1
  La  La3  1  0.091778  0.363570  0.728208  1
  Ga  Ga4  1  0.998227  0.249186  0.250487  1
  Ga  Ga5  1  0.998227  0.747740  0.749041  1
  Ga  Ga6  1  0.291023  0.537010  0.249946  1
  Ga  Ga7  1  0.709890  0.963860  0.250306  1
  Ga  Ga8  1  0.709890  0.459584  0.746030  1
  Ga  Ga9  1  0.291023  0.041076  0.754012  1
  Ga  Ga10  1  0.428429  0.591629  0.836800  1
  Ga  Ga11  1  0.762695  0.096439  0.666257  1
  Ga  Ga12  1  0.246490  0.908389  0.338101  1
  Si  Si13  1  0.568471  0.408206  0.160265  1
  Rh  Rh14  1  0.049259  0.144901  0.904357  1
  Rh  Rh15  1  0.505732  0.745943  0.255648  1
  Rh  Rh16  1  0.240689  0.643626  0.597064  1
  Rh  Rh17  1  0.745518  0.357629  0.387888  1
  Rh  Rh18  1  0.953202  0.853710  0.099493  1
  Rh  Rh19  1  0.505732  0.250084  0.759789  1
