# generated using pymatgen
data_Cu3F8
_symmetry_space_group_name_H-M   'P 1'
_cell_length_a   4.76295200
_cell_length_b   5.41678808
_cell_length_c   10.68550524
_cell_angle_alpha   85.05621815
_cell_angle_beta   90.00000000
_cell_angle_gamma   90.00000000
_symmetry_Int_Tables_number   1
_chemical_formula_structural   Cu3F8
_chemical_formula_sum   'Cu6 F16'
_cell_volume   274.65936293
_cell_formula_units_Z   2
loop_
 _symmetry_equiv_pos_site_id
 _symmetry_equiv_pos_as_xyz
  1  'x, y, z'
loop_
 _atom_site_type_symbol
 _atom_site_label
 _atom_site_symmetry_multiplicity
 _atom_site_fract_x
 _atom_site_fract_y
 _atom_site_fract_z
 _atom_site_occupancy
  Cu  Cu0  1  0.500000  0.500000  0.000000  1
  Cu  Cu1  1  0.055027  0.245370  0.247252  1
  Cu  Cu2  1  0.555027  0.754630  0.252748  1
  Cu  Cu3  1  0.000000  0.500000  0.500000  1
  Cu  Cu4  1  0.444973  0.245370  0.747252  1
  Cu  Cu5  1  0.944973  0.754630  0.752748  1
  F  F6  1  0.766066  0.480248  0.183003  1
  F  F7  1  0.266066  0.519752  0.316997  1
  F  F8  1  0.733934  0.480248  0.683003  1
  F  F9  1  0.233934  0.519752  0.816997  1
  F  F10  1  0.241004  0.293941  0.086134  1
  F  F11  1  0.378850  0.762560  0.085507  1
  F  F12  1  0.835226  0.985413  0.184400  1
  F  F13  1  0.335226  0.014587  0.315600  1
  F  F14  1  0.878850  0.237440  0.414493  1
  F  F15  1  0.741004  0.706059  0.413866  1
  F  F16  1  0.258996  0.293941  0.586134  1
  F  F17  1  0.121150  0.762560  0.585507  1
  F  F18  1  0.664774  0.985413  0.684400  1
  F  F19  1  0.164774  0.014587  0.815600  1
  F  F20  1  0.621150  0.237440  0.914493  1
  F  F21  1  0.758996  0.706059  0.913866  1
