# generated using pymatgen
data_LaHoUFe2Si7
_symmetry_space_group_name_H-M   'P 1'
_cell_length_a   12.32329900
_cell_length_b   12.32329754
_cell_length_c   4.09926700
_cell_angle_alpha   90.00000000
_cell_angle_beta   90.00000000
_cell_angle_gamma   160.83345342
_symmetry_Int_Tables_number   1
_chemical_formula_structural   LaHoUFe2Si7
_chemical_formula_sum   'La1 Ho1 U1 Fe2 Si7'
_cell_volume   204.38598408
_cell_formula_units_Z   1
loop_
 _symmetry_equiv_pos_site_id
 _symmetry_equiv_pos_as_xyz
  1  'x, y, z'
loop_
 _atom_site_type_symbol
 _atom_site_label
 _atom_site_symmetry_multiplicity
 _atom_site_fract_x
 _atom_site_fract_y
 _atom_site_fract_z
 _atom_site_occupancy
  La  La0  1  0.684389  0.315611  0.000000  1
  Ho  Ho1  1  0.318302  0.681698  0.000000  1
  U  U2  1  0.999185  0.000815  0.500000  1
  Fe  Fe3  1  0.122974  0.877026  0.500000  1
  Fe  Fe4  1  0.875628  0.124372  0.500000  1
  Si  Si5  1  0.223326  0.776674  0.500000  1
  Si  Si6  1  0.781201  0.218799  0.500000  1
  Si  Si7  1  0.083276  0.916724  0.000000  1
  Si  Si8  1  0.914711  0.085289  0.000000  1
  Si  Si9  1  0.414186  0.585814  0.500000  1
  Si  Si10  1  0.499172  0.500828  0.000000  1
  Si  Si11  1  0.583650  0.416350  0.500000  1
