# generated using pymatgen
data_Y5Er5(SiBi)4
_symmetry_space_group_name_H-M   'P 1'
_cell_length_a   8.66827177
_cell_length_b   8.58453039
_cell_length_c   7.89778490
_cell_angle_alpha   90.04899583
_cell_angle_beta   90.06725080
_cell_angle_gamma   125.60787601
_symmetry_Int_Tables_number   1
_chemical_formula_structural   Y5Er5(SiBi)4
_chemical_formula_sum   'Y5 Er5 Si4 Bi4'
_cell_volume   477.80963988
_cell_formula_units_Z   1
loop_
 _symmetry_equiv_pos_site_id
 _symmetry_equiv_pos_as_xyz
  1  'x, y, z'
loop_
 _atom_site_type_symbol
 _atom_site_label
 _atom_site_symmetry_multiplicity
 _atom_site_fract_x
 _atom_site_fract_y
 _atom_site_fract_z
 _atom_site_occupancy
  Y  Y0  1  0.043098  0.290534  0.335307  1
  Y  Y1  1  0.955829  0.709068  0.664795  1
  Y  Y2  1  0.456176  0.209441  0.835055  1
  Y  Y3  1  0.783455  0.540336  0.163701  1
  Y  Y4  1  0.543850  0.790947  0.164821  1
  Er  Er5  1  0.218428  0.458793  0.836799  1
  Er  Er6  1  0.718414  0.958640  0.663064  1
  Er  Er7  1  0.281076  0.041298  0.337078  1
  Er  Er8  1  0.000659  0.000547  0.999640  1
  Er  Er9  1  0.499384  0.500081  0.500418  1
  Si  Si10  1  0.363049  0.363590  0.135002  1
  Si  Si11  1  0.635735  0.636364  0.864605  1
  Si  Si12  1  0.135570  0.135928  0.634445  1
  Si  Si13  1  0.864283  0.864981  0.366052  1
  Bi  Bi14  1  0.797755  0.211008  0.993286  1
  Bi  Bi15  1  0.204708  0.789851  0.004646  1
  Bi  Bi16  1  0.701446  0.286444  0.495493  1
  Bi  Bi17  1  0.297085  0.712149  0.505793  1
