# generated using pymatgen
data_Li2Co5Ni5As6
_symmetry_space_group_name_H-M   'P 1'
_cell_length_a   3.65467200
_cell_length_b   10.62745500
_cell_length_c   12.18501500
_cell_angle_alpha   90.00000000
_cell_angle_beta   90.00000000
_cell_angle_gamma   90.00000000
_symmetry_Int_Tables_number   1
_chemical_formula_structural   Li2Co5Ni5As6
_chemical_formula_sum   'Li4 Co10 Ni10 As12'
_cell_volume   473.26430375
_cell_formula_units_Z   2
loop_
 _symmetry_equiv_pos_site_id
 _symmetry_equiv_pos_as_xyz
  1  'x, y, z'
loop_
 _atom_site_type_symbol
 _atom_site_label
 _atom_site_symmetry_multiplicity
 _atom_site_fract_x
 _atom_site_fract_y
 _atom_site_fract_z
 _atom_site_occupancy
  Li  Li0  1  0.250000  0.578112  0.705457  1
  Li  Li1  1  0.250000  0.921888  0.205457  1
  Li  Li2  1  0.750000  0.423866  0.295932  1
  Li  Li3  1  0.750000  0.076134  0.795932  1
  Co  Co4  1  0.750000  0.785438  0.825783  1
  Co  Co5  1  0.750000  0.714562  0.325783  1
  Co  Co6  1  0.250000  0.878171  0.695950  1
  Co  Co7  1  0.250000  0.621829  0.195950  1
  Co  Co8  1  0.750000  0.121269  0.303739  1
  Co  Co9  1  0.750000  0.378731  0.803739  1
  Co  Co10  1  0.250000  0.462372  0.933101  1
  Co  Co11  1  0.250000  0.037628  0.433101  1
  Co  Co12  1  0.750000  0.538792  0.066274  1
  Co  Co13  1  0.750000  0.961208  0.566274  1
  Ni  Ni14  1  0.250000  0.709468  0.986420  1
  Ni  Ni15  1  0.250000  0.790532  0.486420  1
  Ni  Ni16  1  0.750000  0.288414  0.011878  1
  Ni  Ni17  1  0.750000  0.211586  0.511878  1
  Ni  Ni18  1  0.250000  0.408845  0.484915  1
  Ni  Ni19  1  0.250000  0.091155  0.984915  1
  Ni  Ni20  1  0.750000  0.593483  0.515406  1
  Ni  Ni21  1  0.750000  0.906517  0.015406  1
  Ni  Ni22  1  0.250000  0.215106  0.174219  1
  Ni  Ni23  1  0.250000  0.284894  0.674219  1
  As  As24  1  0.250000  0.421062  0.119200  1
  As  As25  1  0.250000  0.078938  0.619200  1
  As  As26  1  0.750000  0.581740  0.879769  1
  As  As27  1  0.750000  0.918260  0.379769  1
  As  As28  1  0.250000  0.259612  0.865663  1
  As  As29  1  0.250000  0.240388  0.365663  1
  As  As30  1  0.750000  0.740698  0.136803  1
  As  As31  1  0.750000  0.759302  0.636803  1
  As  As32  1  0.250000  0.596450  0.384812  1
  As  As33  1  0.250000  0.903550  0.884812  1
  As  As34  1  0.750000  0.407343  0.614679  1
  As  As35  1  0.750000  0.092657  0.114679  1
