# generated using pymatgen
data_Tm4Mg3CdPt4
_symmetry_space_group_name_H-M   'P 1'
_cell_length_a   4.19864900
_cell_length_b   7.00529726
_cell_length_c   8.57869442
_cell_angle_alpha   92.07198102
_cell_angle_beta   90.00000000
_cell_angle_gamma   90.00000000
_symmetry_Int_Tables_number   1
_chemical_formula_structural   Tm4Mg3CdPt4
_chemical_formula_sum   'Tm4 Mg3 Cd1 Pt4'
_cell_volume   252.15831840
_cell_formula_units_Z   1
loop_
 _symmetry_equiv_pos_site_id
 _symmetry_equiv_pos_as_xyz
  1  'x, y, z'
loop_
 _atom_site_type_symbol
 _atom_site_label
 _atom_site_symmetry_multiplicity
 _atom_site_fract_x
 _atom_site_fract_y
 _atom_site_fract_z
 _atom_site_occupancy
  Tm  Tm0  1  0.250000  0.960321  0.323747  1
  Tm  Tm1  1  0.250000  0.457067  0.168720  1
  Tm  Tm2  1  0.750000  0.043752  0.677904  1
  Tm  Tm3  1  0.750000  0.535734  0.827593  1
  Mg  Mg4  1  0.250000  0.368244  0.559524  1
  Mg  Mg5  1  0.250000  0.866257  0.941975  1
  Mg  Mg6  1  0.750000  0.635993  0.439897  1
  Cd  Cd7  1  0.750000  0.135494  0.060636  1
  Pt  Pt8  1  0.250000  0.257894  0.860123  1
  Pt  Pt9  1  0.250000  0.760179  0.625274  1
  Pt  Pt10  1  0.750000  0.736150  0.131359  1
  Pt  Pt11  1  0.750000  0.242915  0.383251  1
