# generated using pymatgen
data_DyHo9(IrOs)2
_symmetry_space_group_name_H-M   'P 1'
_cell_length_a   6.42374361
_cell_length_b   7.27085764
_cell_length_c   8.40028967
_cell_angle_alpha   96.62161720
_cell_angle_beta   112.45690887
_cell_angle_gamma   89.99831439
_symmetry_Int_Tables_number   1
_chemical_formula_structural   DyHo9(IrOs)2
_chemical_formula_sum   'Dy1 Ho9 Ir2 Os2'
_cell_volume   359.75928483
_cell_formula_units_Z   1
loop_
 _symmetry_equiv_pos_site_id
 _symmetry_equiv_pos_as_xyz
  1  'x, y, z'
loop_
 _atom_site_type_symbol
 _atom_site_label
 _atom_site_symmetry_multiplicity
 _atom_site_fract_x
 _atom_site_fract_y
 _atom_site_fract_z
 _atom_site_occupancy
  Dy  Dy0  1  0.969835  0.916329  0.180001  1
  Ho  Ho1  1  0.790028  0.583676  0.820005  1
  Ho  Ho2  1  0.026523  0.081680  0.816544  1
  Ho  Ho3  1  0.209848  0.418475  0.183133  1
  Ho  Ho4  1  0.653584  0.817204  0.440480  1
  Ho  Ho5  1  0.213298  0.682796  0.559676  1
  Ho  Ho6  1  0.348444  0.180801  0.561483  1
  Ho  Ho7  1  0.787132  0.319129  0.438734  1
  Ho  Ho8  1  0.426365  0.749830  0.999882  1
  Ho  Ho9  1  0.575961  0.250116  0.000068  1
  Ir  Ir10  1  0.172746  0.424529  0.779867  1
  Ir  Ir11  1  0.393248  0.075869  0.219923  1
  Os  Os12  1  0.825488  0.573247  0.218374  1
  Os  Os13  1  0.607500  0.926318  0.781831  1
