# generated using pymatgen
data_Tb19CeRh16
_symmetry_space_group_name_H-M   'P 1'
_cell_length_a   7.41574703
_cell_length_b   7.52384762
_cell_length_c   14.50578470
_cell_angle_alpha   90.09283362
_cell_angle_beta   89.94656129
_cell_angle_gamma   89.96860503
_symmetry_Int_Tables_number   1
_chemical_formula_structural   Tb19CeRh16
_chemical_formula_sum   'Tb19 Ce1 Rh16'
_cell_volume   809.34800548
_cell_formula_units_Z   1
loop_
 _symmetry_equiv_pos_site_id
 _symmetry_equiv_pos_as_xyz
  1  'x, y, z'
loop_
 _atom_site_type_symbol
 _atom_site_label
 _atom_site_symmetry_multiplicity
 _atom_site_fract_x
 _atom_site_fract_y
 _atom_site_fract_z
 _atom_site_occupancy
  Tb  Tb0  1  0.009239  0.681241  0.091789  1
  Tb  Tb1  1  0.837664  0.833071  0.621513  1
  Tb  Tb2  1  0.994610  0.319856  0.594358  1
  Tb  Tb3  1  0.175502  0.007445  0.750388  1
  Tb  Tb4  1  0.506534  0.820794  0.406194  1
  Tb  Tb5  1  0.490988  0.176511  0.595310  1
  Tb  Tb6  1  0.162239  0.165611  0.378384  1
  Tb  Tb7  1  0.336951  0.666542  0.877446  1
  Tb  Tb8  1  0.676547  0.491255  0.750048  1
  Tb  Tb9  1  0.337328  0.665414  0.621880  1
  Tb  Tb10  1  0.010427  0.682700  0.407283  1
  Tb  Tb11  1  0.491484  0.180592  0.907085  1
  Tb  Tb12  1  0.824880  0.989621  0.248689  1
  Tb  Tb13  1  0.507855  0.818128  0.092536  1
  Tb  Tb14  1  0.991295  0.320084  0.907039  1
  Tb  Tb15  1  0.836570  0.833580  0.877519  1
  Tb  Tb16  1  0.663429  0.333990  0.121767  1
  Tb  Tb17  1  0.163732  0.165865  0.122219  1
  Tb  Tb18  1  0.320643  0.508356  0.249442  1
  Ce  Ce19  1  0.664234  0.335876  0.379767  1
  Rh  Rh20  1  0.040336  0.603419  0.749394  1
  Rh  Rh21  1  0.814196  0.043038  0.458733  1
  Rh  Rh22  1  0.463502  0.111770  0.254013  1
  Rh  Rh23  1  0.178573  0.968865  0.958634  1
  Rh  Rh24  1  0.688597  0.644040  0.251591  1
  Rh  Rh25  1  0.307106  0.352963  0.750554  1
  Rh  Rh26  1  0.954305  0.391678  0.253135  1
  Rh  Rh27  1  0.684876  0.525928  0.534429  1
  Rh  Rh28  1  0.320854  0.469236  0.041563  1
  Rh  Rh29  1  0.325854  0.467497  0.456915  1
  Rh  Rh30  1  0.540970  0.894344  0.748544  1
  Rh  Rh31  1  0.677821  0.530931  0.957935  1
  Rh  Rh32  1  0.821770  0.028491  0.042407  1
  Rh  Rh33  1  0.806909  0.146344  0.750049  1
  Rh  Rh34  1  0.175171  0.968365  0.541859  1
  Rh  Rh35  1  0.197006  0.856559  0.249587  1
