# generated using pymatgen
data_NdCd2Ga2Ni
_symmetry_space_group_name_H-M   'P 1'
_cell_length_a   4.15107175
_cell_length_b   6.81128800
_cell_length_c   8.66867342
_cell_angle_alpha   90.00000000
_cell_angle_beta   103.85287248
_cell_angle_gamma   90.00000000
_symmetry_Int_Tables_number   1
_chemical_formula_structural   NdCd2Ga2Ni
_chemical_formula_sum   'Nd2 Cd4 Ga4 Ni2'
_cell_volume   237.97030982
_cell_formula_units_Z   2
loop_
 _symmetry_equiv_pos_site_id
 _symmetry_equiv_pos_as_xyz
  1  'x, y, z'
loop_
 _atom_site_type_symbol
 _atom_site_label
 _atom_site_symmetry_multiplicity
 _atom_site_fract_x
 _atom_site_fract_y
 _atom_site_fract_z
 _atom_site_occupancy
  Nd  Nd0  1  0.871166  0.750000  0.742331  1
  Nd  Nd1  1  0.128834  0.250000  0.257669  1
  Cd  Cd2  1  0.500000  0.500000  0.000000  1
  Cd  Cd3  1  0.500000  0.000000  0.000000  1
  Cd  Cd4  1  0.075162  0.750000  0.150325  1
  Cd  Cd5  1  0.924838  0.250000  0.849675  1
  Ga  Ga6  1  0.691399  0.554524  0.382799  1
  Ga  Ga7  1  0.308601  0.445476  0.617201  1
  Ga  Ga8  1  0.691399  0.945476  0.382799  1
  Ga  Ga9  1  0.308601  0.054524  0.617201  1
  Ni  Ni10  1  0.230582  0.750000  0.461164  1
  Ni  Ni11  1  0.769418  0.250000  0.538836  1
