# generated using pymatgen
data_NdY15(HoSn4)4
_symmetry_space_group_name_H-M   'P 1'
_cell_length_a   8.05632047
_cell_length_b   8.20084886
_cell_length_c   15.51077492
_cell_angle_alpha   89.98898044
_cell_angle_beta   89.84152776
_cell_angle_gamma   90.09507898
_symmetry_Int_Tables_number   1
_chemical_formula_structural   NdY15(HoSn4)4
_chemical_formula_sum   'Nd1 Y15 Ho4 Sn16'
_cell_volume   1024.77086565
_cell_formula_units_Z   1
loop_
 _symmetry_equiv_pos_site_id
 _symmetry_equiv_pos_as_xyz
  1  'x, y, z'
loop_
 _atom_site_type_symbol
 _atom_site_label
 _atom_site_symmetry_multiplicity
 _atom_site_fract_x
 _atom_site_fract_y
 _atom_site_fract_z
 _atom_site_occupancy
  Nd  Nd0  1  0.517559  0.319762  0.403243  1
  Y  Y1  1  0.019962  0.178801  0.402320  1
  Y  Y2  1  0.367280  0.836990  0.121435  1
  Y  Y3  1  0.133629  0.337119  0.622626  1
  Y  Y4  1  0.479927  0.679413  0.902269  1
  Y  Y5  1  0.867509  0.663011  0.121799  1
  Y  Y6  1  0.132579  0.337348  0.877860  1
  Y  Y7  1  0.480705  0.680283  0.598033  1
  Y  Y8  1  0.633796  0.162387  0.622513  1
  Y  Y9  1  0.866640  0.663141  0.377539  1
  Y  Y10  1  0.020113  0.179206  0.096969  1
  Y  Y11  1  0.979889  0.820641  0.902203  1
  Y  Y12  1  0.632705  0.162691  0.877927  1
  Y  Y13  1  0.520559  0.320324  0.098068  1
  Y  Y14  1  0.366769  0.837329  0.377882  1
  Y  Y15  1  0.980416  0.820147  0.597889  1
  Ho  Ho16  1  0.198272  0.503301  0.249347  1
  Ho  Ho17  1  0.698750  0.997056  0.249529  1
  Ho  Ho18  1  0.301537  0.002733  0.750221  1
  Ho  Ho19  1  0.801691  0.497277  0.750217  1
  Sn  Sn20  1  0.795467  0.465474  0.543379  1
  Sn  Sn21  1  0.708339  0.961912  0.458378  1
  Sn  Sn22  1  0.671234  0.852363  0.750115  1
  Sn  Sn23  1  0.203347  0.539172  0.458902  1
  Sn  Sn24  1  0.292457  0.036185  0.957649  1
  Sn  Sn25  1  0.830103  0.352490  0.249309  1
  Sn  Sn26  1  0.792652  0.464020  0.957806  1
  Sn  Sn27  1  0.564619  0.620298  0.249620  1
  Sn  Sn28  1  0.207780  0.535463  0.042033  1
  Sn  Sn29  1  0.435856  0.380781  0.750117  1
  Sn  Sn30  1  0.171529  0.647591  0.750016  1
  Sn  Sn31  1  0.935697  0.118921  0.750123  1
  Sn  Sn32  1  0.292663  0.035875  0.542395  1
  Sn  Sn33  1  0.707449  0.963980  0.041993  1
  Sn  Sn34  1  0.326122  0.145560  0.248372  1
  Sn  Sn35  1  0.064398  0.880957  0.249906  1
