# generated using pymatgen
data_Tb2Dy4CoCl10
_symmetry_space_group_name_H-M   'P 1'
_cell_length_a   7.10870931
_cell_length_b   8.85551755
_cell_length_c   8.78608078
_cell_angle_alpha   108.11221246
_cell_angle_beta   96.35856328
_cell_angle_gamma   105.80302015
_symmetry_Int_Tables_number   1
_chemical_formula_structural   Tb2Dy4CoCl10
_chemical_formula_sum   'Tb2 Dy4 Co1 Cl10'
_cell_volume   494.13781057
_cell_formula_units_Z   1
loop_
 _symmetry_equiv_pos_site_id
 _symmetry_equiv_pos_as_xyz
  1  'x, y, z'
loop_
 _atom_site_type_symbol
 _atom_site_label
 _atom_site_symmetry_multiplicity
 _atom_site_fract_x
 _atom_site_fract_y
 _atom_site_fract_z
 _atom_site_occupancy
  Tb  Tb0  1  0.629616  0.052942  0.761053  1
  Tb  Tb1  1  0.370384  0.947058  0.238947  1
  Dy  Dy2  1  0.862328  0.138928  0.187800  1
  Dy  Dy3  1  0.137672  0.861072  0.812200  1
  Dy  Dy4  1  0.530835  0.696929  0.901099  1
  Dy  Dy5  1  0.469165  0.303071  0.098901  1
  Co  Co6  1  0.500000  0.000000  0.000000  1
  Cl  Cl7  1  0.740316  0.080469  0.453487  1
  Cl  Cl8  1  0.259684  0.919531  0.546513  1
  Cl  Cl9  1  0.954831  0.826749  0.079027  1
  Cl  Cl10  1  0.045169  0.173251  0.920973  1
  Cl  Cl11  1  0.282539  0.247674  0.342343  1
  Cl  Cl12  1  0.717461  0.752326  0.657657  1
  Cl  Cl13  1  0.590045  0.372472  0.835535  1
  Cl  Cl14  1  0.409955  0.627528  0.164465  1
  Cl  Cl15  1  0.844362  0.449570  0.275500  1
  Cl  Cl16  1  0.155638  0.550430  0.724500  1
