# generated using pymatgen
data_SrNi3(PO4)3
_symmetry_space_group_name_H-M   'P 1'
_cell_length_a   9.07287872
_cell_length_b   9.07287843
_cell_length_c   9.07287851
_cell_angle_alpha   137.71102930
_cell_angle_beta   110.21029947
_cell_angle_gamma   85.11088875
_symmetry_Int_Tables_number   1
_chemical_formula_structural   SrNi3(PO4)3
_chemical_formula_sum   'Sr2 Ni6 P6 O24'
_cell_volume   454.11202679
_cell_formula_units_Z   2
loop_
 _symmetry_equiv_pos_site_id
 _symmetry_equiv_pos_as_xyz
  1  'x, y, z'
loop_
 _atom_site_type_symbol
 _atom_site_label
 _atom_site_symmetry_multiplicity
 _atom_site_fract_x
 _atom_site_fract_y
 _atom_site_fract_z
 _atom_site_occupancy
  Sr  Sr0  1  0.750000  0.156762  0.406762  1
  Sr  Sr1  1  0.250000  0.843238  0.593238  1
  Ni  Ni2  1  0.616155  0.616155  0.500000  1
  Ni  Ni3  1  0.383845  0.383845  0.500000  1
  Ni  Ni4  1  0.116155  0.616155  0.000000  1
  Ni  Ni5  1  0.883845  0.383845  0.000000  1
  Ni  Ni6  1  0.000000  0.000000  0.000000  1
  Ni  Ni7  1  0.500000  0.500000  0.000000  1
  P  P8  1  0.320710  0.820710  0.000000  1
  P  P9  1  0.750000  0.669302  0.919302  1
  P  P10  1  0.179290  0.179290  0.500000  1
  P  P11  1  0.679290  0.179290  0.000000  1
  P  P12  1  0.250000  0.330698  0.080698  1
  P  P13  1  0.820710  0.820710  0.500000  1
  O  O14  1  0.573997  0.932158  0.776341  1
  O  O15  1  0.073997  0.297656  0.641839  1
  O  O16  1  0.843265  0.898628  0.055363  1
  O  O17  1  0.344183  0.702344  0.776341  1
  O  O18  1  0.147299  0.212922  0.343840  1
  O  O19  1  0.343265  0.287902  0.944637  1
  O  O20  1  0.630918  0.696541  0.343840  1
  O  O21  1  0.852701  0.787078  0.656160  1
  O  O22  1  0.368994  0.480219  0.349213  1
  O  O23  1  0.155817  0.932158  0.358161  1
  O  O24  1  0.647299  0.303459  0.934377  1
  O  O25  1  0.631006  0.519781  0.650787  1
  O  O26  1  0.869082  0.212922  0.065623  1
  O  O27  1  0.844183  0.067842  0.641839  1
  O  O28  1  0.352701  0.696541  0.065623  1
  O  O29  1  0.369082  0.303459  0.656160  1
  O  O30  1  0.656735  0.712098  0.055363  1
  O  O31  1  0.926003  0.702344  0.358161  1
  O  O32  1  0.156735  0.101371  0.944637  1
  O  O33  1  0.868994  0.519781  0.888775  1
  O  O34  1  0.131006  0.480219  0.111225  1
  O  O35  1  0.130918  0.787078  0.934377  1
  O  O36  1  0.655817  0.297656  0.223659  1
  O  O37  1  0.426003  0.067842  0.223659  1
