# generated using pymatgen
data_SrY2(ZnRh2)3
_symmetry_space_group_name_H-M   'P 1'
_cell_length_a   5.50373100
_cell_length_b   5.50373000
_cell_length_c   16.23225800
_cell_angle_alpha   90.00000000
_cell_angle_beta   90.00000000
_cell_angle_gamma   119.99999998
_symmetry_Int_Tables_number   1
_chemical_formula_structural   SrY2(ZnRh2)3
_chemical_formula_sum   'Sr2 Y4 Zn6 Rh12'
_cell_volume   425.81787514
_cell_formula_units_Z   2
loop_
 _symmetry_equiv_pos_site_id
 _symmetry_equiv_pos_as_xyz
  1  'x, y, z'
loop_
 _atom_site_type_symbol
 _atom_site_label
 _atom_site_symmetry_multiplicity
 _atom_site_fract_x
 _atom_site_fract_y
 _atom_site_fract_z
 _atom_site_occupancy
  Sr  Sr0  1  0.333333  0.666667  0.750000  1
  Sr  Sr1  1  0.666667  0.333333  0.250000  1
  Y  Y2  1  0.333333  0.666667  0.540216  1
  Y  Y3  1  0.666667  0.333333  0.040216  1
  Y  Y4  1  0.666667  0.333333  0.459784  1
  Y  Y5  1  0.333333  0.666667  0.959784  1
  Zn  Zn6  1  0.000000  0.000000  0.250000  1
  Zn  Zn7  1  0.000000  0.000000  0.750000  1
  Zn  Zn8  1  0.333333  0.666667  0.250000  1
  Zn  Zn9  1  0.666667  0.333333  0.750000  1
  Zn  Zn10  1  0.000000  0.000000  0.000000  1
  Zn  Zn11  1  0.000000  0.000000  0.500000  1
  Rh  Rh12  1  0.168624  0.337248  0.122309  1
  Rh  Rh13  1  0.831376  0.662752  0.622309  1
  Rh  Rh14  1  0.662752  0.831376  0.122309  1
  Rh  Rh15  1  0.168624  0.831376  0.122309  1
  Rh  Rh16  1  0.831376  0.168624  0.622309  1
  Rh  Rh17  1  0.337248  0.168624  0.622309  1
  Rh  Rh18  1  0.831376  0.662752  0.877691  1
  Rh  Rh19  1  0.831376  0.168624  0.877691  1
  Rh  Rh20  1  0.337248  0.168624  0.877691  1
  Rh  Rh21  1  0.662752  0.831376  0.377691  1
  Rh  Rh22  1  0.168624  0.831376  0.377691  1
  Rh  Rh23  1  0.168624  0.337248  0.377691  1
