# generated using pymatgen
data_YbPa2F11
_symmetry_space_group_name_H-M   'P 1'
_cell_length_a   8.66339651
_cell_length_b   8.66339612
_cell_length_c   8.66339728
_cell_angle_alpha   120.93247027
_cell_angle_beta   106.37163097
_cell_angle_gamma   101.77718326
_symmetry_Int_Tables_number   1
_chemical_formula_structural   YbPa2F11
_chemical_formula_sum   'Yb2 Pa4 F22'
_cell_volume   484.63595481
_cell_formula_units_Z   2
loop_
 _symmetry_equiv_pos_site_id
 _symmetry_equiv_pos_as_xyz
  1  'x, y, z'
loop_
 _atom_site_type_symbol
 _atom_site_label
 _atom_site_symmetry_multiplicity
 _atom_site_fract_x
 _atom_site_fract_y
 _atom_site_fract_z
 _atom_site_occupancy
  Yb  Yb0  1  0.750000  0.750000  0.000000  1
  Yb  Yb1  1  0.250000  0.250000  0.000000  1
  Pa  Pa2  1  0.682912  0.151886  0.834798  1
  Pa  Pa3  1  0.317088  0.848114  0.165202  1
  Pa  Pa4  1  0.182912  0.348114  0.531027  1
  Pa  Pa5  1  0.817088  0.651886  0.468973  1
  F  F6  1  0.500000  0.000000  0.500000  1
  F  F7  1  0.000000  0.500000  0.500000  1
  F  F8  1  0.788473  0.372907  0.161380  1
  F  F9  1  0.211527  0.627093  0.838620  1
  F  F10  1  0.288473  0.127093  0.415565  1
  F  F11  1  0.711527  0.872907  0.584435  1
  F  F12  1  0.709982  0.413897  0.851041  1
  F  F13  1  0.562856  0.858941  0.148959  1
  F  F14  1  0.937144  0.086103  0.296086  1
  F  F15  1  0.790018  0.641059  0.703914  1
  F  F16  1  0.290018  0.586103  0.148959  1
  F  F17  1  0.437144  0.141059  0.851041  1
  F  F18  1  0.062856  0.913897  0.703914  1
  F  F19  1  0.209982  0.358941  0.296086  1
  F  F20  1  0.962374  0.233432  0.915363  1
  F  F21  1  0.318069  0.047011  0.084637  1
  F  F22  1  0.181931  0.266568  0.728941  1
  F  F23  1  0.537626  0.452989  0.271059  1
  F  F24  1  0.037626  0.766568  0.084637  1
  F  F25  1  0.681931  0.952989  0.915363  1
  F  F26  1  0.818069  0.733432  0.271059  1
  F  F27  1  0.462374  0.547011  0.728941  1
