# generated using pymatgen
data_SmDy6Co2Sn23Rh4
_symmetry_space_group_name_H-M   'P 1'
_cell_length_a   9.80040038
_cell_length_b   9.80242719
_cell_length_c   10.05313709
_cell_angle_alpha   90.00000058
_cell_angle_beta   90.03622763
_cell_angle_gamma   120.00683531
_symmetry_Int_Tables_number   1
_chemical_formula_structural   SmDy6Co2Sn23Rh4
_chemical_formula_sum   'Sm1 Dy6 Co2 Sn23 Rh4'
_cell_volume   836.33379674
_cell_formula_units_Z   1
loop_
 _symmetry_equiv_pos_site_id
 _symmetry_equiv_pos_as_xyz
  1  'x, y, z'
loop_
 _atom_site_type_symbol
 _atom_site_label
 _atom_site_symmetry_multiplicity
 _atom_site_fract_x
 _atom_site_fract_y
 _atom_site_fract_z
 _atom_site_occupancy
  Sm  Sm0  1  0.000000  0.000000  0.000000  1
  Dy  Dy1  1  0.478815  0.521187  0.306967  1
  Dy  Dy2  1  0.521185  0.478813  0.693033  1
  Dy  Dy3  1  0.478815  0.957628  0.306967  1
  Dy  Dy4  1  0.521185  0.042372  0.693033  1
  Dy  Dy5  1  0.042977  0.521489  0.306971  1
  Dy  Dy6  1  0.957023  0.478511  0.693029  1
  Co  Co7  1  0.336852  0.168425  0.198475  1
  Co  Co8  1  0.663148  0.831575  0.801525  1
  Sn  Sn9  1  0.351102  0.004567  0.004710  1
  Sn  Sn10  1  0.648898  0.995433  0.995290  1
  Sn  Sn11  1  0.000000  0.351527  0.000000  1
  Sn  Sn12  1  0.000000  0.648473  0.000000  1
  Sn  Sn13  1  0.648898  0.653465  0.995290  1
  Sn  Sn14  1  0.351102  0.346535  0.004710  1
  Sn  Sn15  1  0.338372  0.669186  0.818950  1
  Sn  Sn16  1  0.661628  0.330814  0.181050  1
  Sn  Sn17  1  0.000000  0.000000  0.500000  1
  Sn  Sn18  1  0.778788  0.221391  0.456020  1
  Sn  Sn19  1  0.221212  0.778609  0.543980  1
  Sn  Sn20  1  0.778788  0.557396  0.456020  1
  Sn  Sn21  1  0.221212  0.442604  0.543980  1
  Sn  Sn22  1  0.438897  0.219448  0.450626  1
  Sn  Sn23  1  0.561103  0.780552  0.549374  1
  Sn  Sn24  1  0.333415  0.666708  0.118606  1
  Sn  Sn25  1  0.666585  0.333292  0.881394  1
  Sn  Sn26  1  0.123604  0.886714  0.276883  1
  Sn  Sn27  1  0.876396  0.113286  0.723117  1
  Sn  Sn28  1  0.123604  0.236890  0.276883  1
  Sn  Sn29  1  0.876396  0.763110  0.723117  1
  Sn  Sn30  1  0.759140  0.879570  0.281785  1
  Sn  Sn31  1  0.240860  0.120430  0.718215  1
  Rh  Rh32  1  0.831032  0.167705  0.197782  1
  Rh  Rh33  1  0.168968  0.832295  0.802218  1
  Rh  Rh34  1  0.831032  0.663327  0.197782  1
  Rh  Rh35  1  0.168968  0.336673  0.802218  1
