# generated using pymatgen
data_KMn4(SbO4)3
_symmetry_space_group_name_H-M   'P 1'
_cell_length_a   7.00438935
_cell_length_b   7.00438990
_cell_length_c   7.00439077
_cell_angle_alpha   107.91794808
_cell_angle_beta   107.91794959
_cell_angle_gamma   107.91794750
_symmetry_Int_Tables_number   1
_chemical_formula_structural   KMn4(SbO4)3
_chemical_formula_sum   'K1 Mn4 Sb3 O12'
_cell_volume   278.71466929
_cell_formula_units_Z   1
loop_
 _symmetry_equiv_pos_site_id
 _symmetry_equiv_pos_as_xyz
  1  'x, y, z'
loop_
 _atom_site_type_symbol
 _atom_site_label
 _atom_site_symmetry_multiplicity
 _atom_site_fract_x
 _atom_site_fract_y
 _atom_site_fract_z
 _atom_site_occupancy
  K  K0  1  0.495125  0.495125  0.495125  1
  Mn  Mn1  1  0.638589  0.025272  0.510535  1
  Mn  Mn2  1  0.025272  0.510535  0.638589  1
  Mn  Mn3  1  0.510535  0.638589  0.025272  1
  Mn  Mn4  1  0.994034  0.994034  0.994034  1
  Sb  Sb5  1  0.198194  0.065651  0.653207  1
  Sb  Sb6  1  0.653207  0.198194  0.065651  1
  Sb  Sb7  1  0.065651  0.653207  0.198194  1
  O  O8  1  0.652633  0.902930  0.962564  1
  O  O9  1  0.962564  0.652633  0.902930  1
  O  O10  1  0.721546  0.249687  0.379235  1
  O  O11  1  0.379235  0.721546  0.249687  1
  O  O12  1  0.902930  0.962564  0.652633  1
  O  O13  1  0.249687  0.379235  0.721546  1
  O  O14  1  0.119187  0.982284  0.324600  1
  O  O15  1  0.982284  0.324600  0.119187  1
  O  O16  1  0.324600  0.119187  0.982284  1
  O  O17  1  0.166202  0.740357  0.534286  1
  O  O18  1  0.740357  0.534286  0.166202  1
  O  O19  1  0.534286  0.166202  0.740357  1
