# generated using pymatgen
data_DyMnAlB6
_symmetry_space_group_name_H-M   'P 1'
_cell_length_a   3.35751500
_cell_length_b   8.75357900
_cell_length_c   11.15814200
_cell_angle_alpha   90.00000000
_cell_angle_beta   90.00000000
_cell_angle_gamma   90.00000000
_symmetry_Int_Tables_number   1
_chemical_formula_structural   DyMnAlB6
_chemical_formula_sum   'Dy4 Mn4 Al4 B24'
_cell_volume   327.94083728
_cell_formula_units_Z   4
loop_
 _symmetry_equiv_pos_site_id
 _symmetry_equiv_pos_as_xyz
  1  'x, y, z'
loop_
 _atom_site_type_symbol
 _atom_site_label
 _atom_site_symmetry_multiplicity
 _atom_site_fract_x
 _atom_site_fract_y
 _atom_site_fract_z
 _atom_site_occupancy
  Dy  Dy0  1  0.000000  0.823972  0.084418  1
  Dy  Dy1  1  0.000000  0.176028  0.915582  1
  Dy  Dy2  1  0.000000  0.323972  0.415582  1
  Dy  Dy3  1  0.000000  0.676028  0.584418  1
  Mn  Mn4  1  0.000000  0.142227  0.185468  1
  Mn  Mn5  1  0.000000  0.857773  0.814532  1
  Mn  Mn6  1  0.000000  0.642227  0.314532  1
  Mn  Mn7  1  0.000000  0.357773  0.685468  1
  Al  Al8  1  0.000000  0.441650  0.134259  1
  Al  Al9  1  0.000000  0.558350  0.865741  1
  Al  Al10  1  0.000000  0.941650  0.365741  1
  Al  Al11  1  0.000000  0.058350  0.634259  1
  B  B12  1  0.500000  0.057475  0.070114  1
  B  B13  1  0.500000  0.942525  0.929886  1
  B  B14  1  0.500000  0.557475  0.429886  1
  B  B15  1  0.500000  0.442525  0.570114  1
  B  B16  1  0.500000  0.256668  0.084402  1
  B  B17  1  0.500000  0.743332  0.915598  1
  B  B18  1  0.500000  0.756668  0.415598  1
  B  B19  1  0.500000  0.243332  0.584402  1
  B  B20  1  0.500000  0.294451  0.237060  1
  B  B21  1  0.500000  0.705549  0.762940  1
  B  B22  1  0.500000  0.794451  0.262940  1
  B  B23  1  0.500000  0.205549  0.737060  1
  B  B24  1  0.500000  0.127684  0.318592  1
  B  B25  1  0.500000  0.872316  0.681408  1
  B  B26  1  0.500000  0.627684  0.181408  1
  B  B27  1  0.500000  0.372316  0.818592  1
  B  B28  1  0.500000  0.482990  0.286304  1
  B  B29  1  0.500000  0.517010  0.713696  1
  B  B30  1  0.500000  0.982990  0.213696  1
  B  B31  1  0.500000  0.017010  0.786304  1
  B  B32  1  0.500000  0.093729  0.475694  1
  B  B33  1  0.500000  0.906271  0.524306  1
  B  B34  1  0.500000  0.593729  0.024306  1
  B  B35  1  0.500000  0.406271  0.975694  1
