# generated using pymatgen
data_Dy6Er4Sn5Bi
_symmetry_space_group_name_H-M   'P 1'
_cell_length_a   8.95998000
_cell_length_b   8.96571517
_cell_length_c   6.50255200
_cell_angle_alpha   90.00000000
_cell_angle_beta   90.00000000
_cell_angle_gamma   119.97884187
_symmetry_Int_Tables_number   1
_chemical_formula_structural   Dy6Er4Sn5Bi
_chemical_formula_sum   'Dy6 Er4 Sn5 Bi1'
_cell_volume   452.47959320
_cell_formula_units_Z   1
loop_
 _symmetry_equiv_pos_site_id
 _symmetry_equiv_pos_as_xyz
  1  'x, y, z'
loop_
 _atom_site_type_symbol
 _atom_site_label
 _atom_site_symmetry_multiplicity
 _atom_site_fract_x
 _atom_site_fract_y
 _atom_site_fract_z
 _atom_site_occupancy
  Dy  Dy0  1  0.993592  0.757355  0.750000  1
  Dy  Dy1  1  0.000625  0.239229  0.250000  1
  Dy  Dy2  1  0.761396  0.760771  0.250000  1
  Dy  Dy3  1  0.764645  0.000000  0.750000  1
  Dy  Dy4  1  0.236237  0.242645  0.750000  1
  Dy  Dy5  1  0.237931  0.000000  0.250000  1
  Er  Er6  1  0.332775  0.662140  0.498168  1
  Er  Er7  1  0.670636  0.337860  0.001832  1
  Er  Er8  1  0.670636  0.337860  0.498168  1
  Er  Er9  1  0.332775  0.662140  0.001832  1
  Sn  Sn10  1  0.396218  0.393916  0.250000  1
  Sn  Sn11  1  0.002303  0.606084  0.250000  1
  Sn  Sn12  1  0.999238  0.396485  0.750000  1
  Sn  Sn13  1  0.602753  0.603515  0.750000  1
  Sn  Sn14  1  0.604816  0.000000  0.250000  1
  Bi  Bi15  1  0.393420  0.000000  0.750000  1
