# generated using pymatgen
data_CeHo15(ZnCo)4
_symmetry_space_group_name_H-M   'P 1'
_cell_length_a   9.33990135
_cell_length_b   9.33990079
_cell_length_c   9.33990187
_cell_angle_alpha   59.54448640
_cell_angle_beta   59.54449153
_cell_angle_gamma   59.54449549
_symmetry_Int_Tables_number   1
_chemical_formula_structural   CeHo15(ZnCo)4
_chemical_formula_sum   'Ce1 Ho15 Zn4 Co4'
_cell_volume   570.15187868
_cell_formula_units_Z   1
loop_
 _symmetry_equiv_pos_site_id
 _symmetry_equiv_pos_as_xyz
  1  'x, y, z'
loop_
 _atom_site_type_symbol
 _atom_site_label
 _atom_site_symmetry_multiplicity
 _atom_site_fract_x
 _atom_site_fract_y
 _atom_site_fract_z
 _atom_site_occupancy
  Ce  Ce0  1  0.342621  0.342621  0.342621  1
  Ho  Ho1  1  0.350712  0.350712  0.946719  1
  Ho  Ho2  1  0.350712  0.946719  0.350712  1
  Ho  Ho3  1  0.946719  0.350712  0.350712  1
  Ho  Ho4  1  0.810153  0.190916  0.190916  1
  Ho  Ho5  1  0.190996  0.810304  0.810304  1
  Ho  Ho6  1  0.190916  0.810153  0.190916  1
  Ho  Ho7  1  0.810304  0.190996  0.810304  1
  Ho  Ho8  1  0.190916  0.190916  0.810153  1
  Ho  Ho9  1  0.810304  0.810304  0.190996  1
  Ho  Ho10  1  0.939346  0.562140  0.562140  1
  Ho  Ho11  1  0.562337  0.937293  0.937293  1
  Ho  Ho12  1  0.562140  0.939346  0.562140  1
  Ho  Ho13  1  0.937293  0.562337  0.937293  1
  Ho  Ho14  1  0.562140  0.562140  0.939346  1
  Ho  Ho15  1  0.937293  0.937293  0.562337  1
  Zn  Zn16  1  0.577498  0.577498  0.577498  1
  Zn  Zn17  1  0.577155  0.577155  0.264792  1
  Zn  Zn18  1  0.577155  0.264792  0.577155  1
  Zn  Zn19  1  0.264792  0.577155  0.577155  1
  Co  Co20  1  0.142266  0.142266  0.142266  1
  Co  Co21  1  0.148933  0.148933  0.568363  1
  Co  Co22  1  0.148933  0.568363  0.148933  1
  Co  Co23  1  0.568363  0.148933  0.148933  1
