# generated using pymatgen
data_Er8Sc12Si15As
_symmetry_space_group_name_H-M   'P 1'
_cell_length_a   7.10647581
_cell_length_b   7.33728957
_cell_length_c   13.91927217
_cell_angle_alpha   90.03593387
_cell_angle_beta   88.75366830
_cell_angle_gamma   90.15251653
_symmetry_Int_Tables_number   1
_chemical_formula_structural   Er8Sc12Si15As
_chemical_formula_sum   'Er8 Sc12 Si15 As1'
_cell_volume   725.60806678
_cell_formula_units_Z   1
loop_
 _symmetry_equiv_pos_site_id
 _symmetry_equiv_pos_as_xyz
  1  'x, y, z'
loop_
 _atom_site_type_symbol
 _atom_site_label
 _atom_site_symmetry_multiplicity
 _atom_site_fract_x
 _atom_site_fract_y
 _atom_site_fract_z
 _atom_site_occupancy
  Er  Er0  1  0.011846  0.176259  0.097236  1
  Er  Er1  1  0.988643  0.824260  0.902559  1
  Er  Er2  1  0.488832  0.675608  0.902782  1
  Er  Er3  1  0.993940  0.821843  0.595688  1
  Er  Er4  1  0.511533  0.324865  0.097327  1
  Er  Er5  1  0.004182  0.178149  0.403791  1
  Er  Er6  1  0.503506  0.321028  0.402130  1
  Er  Er7  1  0.501217  0.677758  0.597390  1
  Sc  Sc8  1  0.166331  0.501264  0.749839  1
  Sc  Sc9  1  0.833575  0.498815  0.252942  1
  Sc  Sc10  1  0.333807  0.001297  0.251580  1
  Sc  Sc11  1  0.666529  0.998495  0.748907  1
  Sc  Sc12  1  0.342128  0.170550  0.626484  1
  Sc  Sc13  1  0.658767  0.827838  0.373842  1
  Sc  Sc14  1  0.156609  0.672044  0.377119  1
  Sc  Sc15  1  0.667527  0.823399  0.125522  1
  Sc  Sc16  1  0.840558  0.328914  0.622574  1
  Sc  Sc17  1  0.332098  0.176112  0.874155  1
  Sc  Sc18  1  0.833335  0.322802  0.874570  1
  Sc  Sc19  1  0.166860  0.677204  0.125071  1
  Si  Si20  1  0.037733  0.116190  0.749440  1
  Si  Si21  1  0.962039  0.884192  0.249601  1
  Si  Si22  1  0.458553  0.616560  0.249052  1
  Si  Si23  1  0.540343  0.383677  0.750616  1
  Si  Si24  1  0.289792  0.870162  0.750264  1
  Si  Si25  1  0.711063  0.128438  0.249141  1
  Si  Si26  1  0.209230  0.372978  0.249705  1
  Si  Si27  1  0.792137  0.627638  0.750347  1
  Si  Si28  1  0.810393  0.539882  0.457375  1
  Si  Si29  1  0.329182  0.962337  0.460632  1
  Si  Si30  1  0.842518  0.535112  0.039378  1
  Si  Si31  1  0.670662  0.037766  0.539938  1
  Si  Si32  1  0.157149  0.465516  0.960367  1
  Si  Si33  1  0.656516  0.034491  0.959868  1
  Si  Si34  1  0.343512  0.966134  0.040158  1
  As  As35  1  0.187357  0.460417  0.542610  1
