# generated using pymatgen
data_Tb3Lu5(SiI6)2
_symmetry_space_group_name_H-M   'P 1'
_cell_length_a   4.18638700
_cell_length_b   13.86691999
_cell_length_c   14.61348664
_cell_angle_alpha   89.86209915
_cell_angle_beta   90.00000000
_cell_angle_gamma   90.00000000
_symmetry_Int_Tables_number   1
_chemical_formula_structural   Tb3Lu5(SiI6)2
_chemical_formula_sum   'Tb3 Lu5 Si2 I12'
_cell_volume   848.34395919
_cell_formula_units_Z   1
loop_
 _symmetry_equiv_pos_site_id
 _symmetry_equiv_pos_as_xyz
  1  'x, y, z'
loop_
 _atom_site_type_symbol
 _atom_site_label
 _atom_site_symmetry_multiplicity
 _atom_site_fract_x
 _atom_site_fract_y
 _atom_site_fract_z
 _atom_site_occupancy
  Tb  Tb0  1  0.000000  0.112000  0.575447  1
  Tb  Tb1  1  0.000000  0.888071  0.424437  1
  Tb  Tb2  1  0.000000  0.610193  0.925699  1
  Lu  Lu3  1  0.500000  0.113216  0.348831  1
  Lu  Lu4  1  0.500000  0.886921  0.651232  1
  Lu  Lu5  1  0.500000  0.612594  0.151118  1
  Lu  Lu6  1  0.500000  0.386843  0.849219  1
  Lu  Lu7  1  0.000000  0.390035  0.073943  1
  Si  Si8  1  0.500000  0.000080  0.499894  1
  Si  Si9  1  0.500000  0.497486  0.001652  1
  I  I10  1  0.500000  0.248949  0.162453  1
  I  I11  1  0.500000  0.755356  0.835344  1
  I  I12  1  0.500000  0.742975  0.334403  1
  I  I13  1  0.500000  0.256499  0.665968  1
  I  I14  1  0.000000  0.258238  0.410847  1
  I  I15  1  0.000000  0.741912  0.588868  1
  I  I16  1  0.000000  0.757544  0.088384  1
  I  I17  1  0.000000  0.243158  0.914686  1
  I  I18  1  0.000000  0.004432  0.238602  1
  I  I19  1  0.000000  0.996435  0.761046  1
  I  I20  1  0.000000  0.500374  0.258217  1
  I  I21  1  0.000000  0.496688  0.739708  1
