# generated using pymatgen
data_Zr18CoCu3P8
_symmetry_space_group_name_H-M   'P 1'
_cell_length_a   12.14081045
_cell_length_b   12.14081045
_cell_length_c   3.69849100
_cell_angle_alpha   90.00000000
_cell_angle_beta   90.00000000
_cell_angle_gamma   89.96885281
_symmetry_Int_Tables_number   1
_chemical_formula_structural   Zr18CoCu3P8
_chemical_formula_sum   'Zr18 Co1 Cu3 P8'
_cell_volume   545.15482382
_cell_formula_units_Z   1
loop_
 _symmetry_equiv_pos_site_id
 _symmetry_equiv_pos_as_xyz
  1  'x, y, z'
loop_
 _atom_site_type_symbol
 _atom_site_label
 _atom_site_symmetry_multiplicity
 _atom_site_fract_x
 _atom_site_fract_y
 _atom_site_fract_z
 _atom_site_occupancy
  Zr  Zr0  1  0.180498  0.100205  0.500000  1
  Zr  Zr1  1  0.818649  0.892949  0.500000  1
  Zr  Zr2  1  0.098755  0.819228  0.500000  1
  Zr  Zr3  1  0.680772  0.401245  0.500000  1
  Zr  Zr4  1  0.899435  0.179802  0.500000  1
  Zr  Zr5  1  0.320198  0.600565  0.500000  1
  Zr  Zr6  1  0.607051  0.681351  0.500000  1
  Zr  Zr7  1  0.399795  0.319502  0.500000  1
  Zr  Zr8  1  0.618128  0.117729  0.500000  1
  Zr  Zr9  1  0.382271  0.881872  0.500000  1
  Zr  Zr10  1  0.118079  0.381921  0.500000  1
  Zr  Zr11  1  0.879699  0.620301  0.500000  1
  Zr  Zr12  1  0.999840  0.000492  0.000000  1
  Zr  Zr13  1  0.499508  0.500160  0.000000  1
  Zr  Zr14  1  0.094042  0.595362  0.000000  1
  Zr  Zr15  1  0.904638  0.405958  0.000000  1
  Zr  Zr16  1  0.598097  0.901903  0.000000  1
  Zr  Zr17  1  0.405248  0.094752  0.000000  1
  Co  Co18  1  0.752029  0.747971  0.000000  1
  Cu  Cu19  1  0.745057  0.245158  0.000000  1
  Cu  Cu20  1  0.254842  0.754943  0.000000  1
  Cu  Cu21  1  0.244819  0.255181  0.000000  1
  P  P22  1  0.054112  0.224621  0.000000  1
  P  P23  1  0.943536  0.774572  0.000000  1
  P  P24  1  0.224386  0.945494  0.000000  1
  P  P25  1  0.554506  0.275614  0.000000  1
  P  P26  1  0.775578  0.054377  0.000000  1
  P  P27  1  0.445623  0.724422  0.000000  1
  P  P28  1  0.725428  0.556464  0.000000  1
  P  P29  1  0.275379  0.445888  0.000000  1
