# generated using pymatgen
data_Ce4MnAl2Ru
_symmetry_space_group_name_H-M   'P 1'
_cell_length_a   7.82214500
_cell_length_b   7.82214451
_cell_length_c   9.62589100
_cell_angle_alpha   90.00000000
_cell_angle_beta   90.00000000
_cell_angle_gamma   119.99999786
_symmetry_Int_Tables_number   1
_chemical_formula_structural   Ce4MnAl2Ru
_chemical_formula_sum   'Ce12 Mn3 Al6 Ru3'
_cell_volume   510.06236201
_cell_formula_units_Z   3
loop_
 _symmetry_equiv_pos_site_id
 _symmetry_equiv_pos_as_xyz
  1  'x, y, z'
loop_
 _atom_site_type_symbol
 _atom_site_label
 _atom_site_symmetry_multiplicity
 _atom_site_fract_x
 _atom_site_fract_y
 _atom_site_fract_z
 _atom_site_occupancy
  Ce  Ce0  1  0.000000  0.557934  0.491901  1
  Ce  Ce1  1  0.557934  0.000000  0.491901  1
  Ce  Ce2  1  0.442066  0.442066  0.491901  1
  Ce  Ce3  1  0.000000  0.416354  0.007258  1
  Ce  Ce4  1  0.416354  0.000000  0.007258  1
  Ce  Ce5  1  0.583646  0.583646  0.007258  1
  Ce  Ce6  1  0.000000  0.744313  0.181296  1
  Ce  Ce7  1  0.744313  0.000000  0.181296  1
  Ce  Ce8  1  0.255687  0.255687  0.181296  1
  Ce  Ce9  1  0.000000  0.261727  0.674406  1
  Ce  Ce10  1  0.261727  0.000000  0.674406  1
  Ce  Ce11  1  0.738273  0.738273  0.674406  1
  Mn  Mn12  1  0.000000  0.352819  0.342176  1
  Mn  Mn13  1  0.352819  0.000000  0.342176  1
  Mn  Mn14  1  0.647181  0.647181  0.342176  1
  Al  Al15  1  0.666667  0.333333  0.264256  1
  Al  Al16  1  0.333333  0.666667  0.264256  1
  Al  Al17  1  0.333333  0.666667  0.769008  1
  Al  Al18  1  0.666667  0.333333  0.769008  1
  Al  Al19  1  0.000000  0.000000  0.424723  1
  Al  Al20  1  0.000000  0.000000  0.925177  1
  Ru  Ru21  1  0.000000  0.659353  0.840569  1
  Ru  Ru22  1  0.659353  0.000000  0.840569  1
  Ru  Ru23  1  0.340647  0.340647  0.840569  1
