# generated using pymatgen
data_Tb2(ThOs)3
_symmetry_space_group_name_H-M   'P 1'
_cell_length_a   6.40770500
_cell_length_b   8.38678889
_cell_length_c   8.38636300
_cell_angle_alpha   120.00168380
_cell_angle_beta   90.00009253
_cell_angle_gamma   89.99981231
_symmetry_Int_Tables_number   1
_chemical_formula_structural   Tb2(ThOs)3
_chemical_formula_sum   'Tb4 Th6 Os6'
_cell_volume   390.29693431
_cell_formula_units_Z   2
loop_
 _symmetry_equiv_pos_site_id
 _symmetry_equiv_pos_as_xyz
  1  'x, y, z'
loop_
 _atom_site_type_symbol
 _atom_site_label
 _atom_site_symmetry_multiplicity
 _atom_site_fract_x
 _atom_site_fract_y
 _atom_site_fract_z
 _atom_site_occupancy
  Tb  Tb0  1  0.500005  0.333361  0.666726  1
  Tb  Tb1  1  0.500005  0.666635  0.333274  1
  Tb  Tb2  1  0.000001  0.666641  0.333275  1
  Tb  Tb3  1  0.000001  0.333366  0.666725  1
  Th  Th4  1  0.750012  0.254387  0.000000  1
  Th  Th5  1  0.750012  0.745615  0.745595  1
  Th  Th6  1  0.750012  0.000021  0.254405  1
  Th  Th7  1  0.249989  0.745623  0.000000  1
  Th  Th8  1  0.249987  0.254375  0.254400  1
  Th  Th9  1  0.249987  0.999975  0.745600  1
  Os  Os10  1  0.750011  0.619332  0.000000  1
  Os  Os11  1  0.750008  0.380634  0.380644  1
  Os  Os12  1  0.750008  0.999991  0.619356  1
  Os  Os13  1  0.249979  0.380660  0.000000  1
  Os  Os14  1  0.249992  0.619377  0.619368  1
  Os  Os15  1  0.249992  0.000007  0.380632  1
