# generated using pymatgen
data_ErAl7Cu3
_symmetry_space_group_name_H-M   'P 1'
_cell_length_a   8.17069618
_cell_length_b   8.17069638
_cell_length_c   8.17069704
_cell_angle_alpha   56.82841267
_cell_angle_beta   56.82841327
_cell_angle_gamma   56.82841645
_symmetry_Int_Tables_number   1
_chemical_formula_structural   ErAl7Cu3
_chemical_formula_sum   'Er2 Al14 Cu6'
_cell_volume   357.48055430
_cell_formula_units_Z   2
loop_
 _symmetry_equiv_pos_site_id
 _symmetry_equiv_pos_as_xyz
  1  'x, y, z'
loop_
 _atom_site_type_symbol
 _atom_site_label
 _atom_site_symmetry_multiplicity
 _atom_site_fract_x
 _atom_site_fract_y
 _atom_site_fract_z
 _atom_site_occupancy
  Er  Er0  1  0.500000  0.500000  0.500000  1
  Er  Er1  1  0.000000  0.000000  0.000000  1
  Al  Al2  1  0.422383  0.648466  0.839254  1
  Al  Al3  1  0.839254  0.422383  0.648466  1
  Al  Al4  1  0.648466  0.839254  0.422383  1
  Al  Al5  1  0.077617  0.660746  0.851534  1
  Al  Al6  1  0.851534  0.077617  0.660746  1
  Al  Al7  1  0.660746  0.851534  0.077617  1
  Al  Al8  1  0.577617  0.351534  0.160746  1
  Al  Al9  1  0.160746  0.577617  0.351534  1
  Al  Al10  1  0.250000  0.250000  0.250000  1
  Al  Al11  1  0.750000  0.750000  0.750000  1
  Al  Al12  1  0.339254  0.148466  0.922383  1
  Al  Al13  1  0.148466  0.922383  0.339254  1
  Al  Al14  1  0.922383  0.339254  0.148466  1
  Al  Al15  1  0.351534  0.160746  0.577617  1
  Cu  Cu16  1  0.750000  0.075010  0.424990  1
  Cu  Cu17  1  0.424990  0.750000  0.075010  1
  Cu  Cu18  1  0.075010  0.424990  0.750000  1
  Cu  Cu19  1  0.250000  0.924990  0.575010  1
  Cu  Cu20  1  0.575010  0.250000  0.924990  1
  Cu  Cu21  1  0.924990  0.575010  0.250000  1
