# generated using pymatgen
data_Ca2ErTm(BO4)2
_symmetry_space_group_name_H-M   'P 1'
_cell_length_a   3.57022900
_cell_length_b   9.61463137
_cell_length_c   10.48704051
_cell_angle_alpha   89.93867124
_cell_angle_beta   90.00000000
_cell_angle_gamma   90.00000000
_symmetry_Int_Tables_number   1
_chemical_formula_structural   Ca2ErTm(BO4)2
_chemical_formula_sum   'Ca4 Er2 Tm2 B4 O16'
_cell_volume   359.98251595
_cell_formula_units_Z   2
loop_
 _symmetry_equiv_pos_site_id
 _symmetry_equiv_pos_as_xyz
  1  'x, y, z'
loop_
 _atom_site_type_symbol
 _atom_site_label
 _atom_site_symmetry_multiplicity
 _atom_site_fract_x
 _atom_site_fract_y
 _atom_site_fract_z
 _atom_site_occupancy
  Ca  Ca0  1  0.250000  0.669030  0.084262  1
  Ca  Ca1  1  0.750000  0.330970  0.915738  1
  Ca  Ca2  1  0.750000  0.169641  0.416203  1
  Ca  Ca3  1  0.250000  0.830359  0.583797  1
  Er  Er4  1  0.250000  0.086840  0.111465  1
  Er  Er5  1  0.750000  0.913160  0.888535  1
  Tm  Tm6  1  0.750000  0.586425  0.389034  1
  Tm  Tm7  1  0.250000  0.413575  0.610966  1
  B  B8  1  0.250000  0.367616  0.200451  1
  B  B9  1  0.750000  0.632384  0.799549  1
  B  B10  1  0.750000  0.866839  0.299912  1
  B  B11  1  0.250000  0.133161  0.700088  1
  O  O12  1  0.250000  0.499452  0.254003  1
  O  O13  1  0.750000  0.500548  0.745997  1
  O  O14  1  0.750000  0.998916  0.246583  1
  O  O15  1  0.250000  0.001084  0.753417  1
  O  O16  1  0.250000  0.247200  0.274916  1
  O  O17  1  0.750000  0.752800  0.725084  1
  O  O18  1  0.750000  0.746350  0.225851  1
  O  O19  1  0.250000  0.253650  0.774149  1
  O  O20  1  0.250000  0.351641  0.067921  1
  O  O21  1  0.750000  0.648359  0.932079  1
  O  O22  1  0.750000  0.850998  0.432411  1
  O  O23  1  0.250000  0.149002  0.567589  1
  O  O24  1  0.250000  0.612962  0.505525  1
  O  O25  1  0.750000  0.387038  0.494475  1
  O  O26  1  0.750000  0.113848  0.993722  1
  O  O27  1  0.250000  0.886152  0.006278  1
