# generated using pymatgen
data_CaBiPO5
_symmetry_space_group_name_H-M   'P 1'
_cell_length_a   6.78219118
_cell_length_b   7.00302401
_cell_length_c   5.65198969
_cell_angle_alpha   108.08320706
_cell_angle_beta   101.19933059
_cell_angle_gamma   106.19534916
_symmetry_Int_Tables_number   1
_chemical_formula_structural   CaBiPO5
_chemical_formula_sum   'Ca2 Bi2 P2 O10'
_cell_volume   233.17885009
_cell_formula_units_Z   2
loop_
 _symmetry_equiv_pos_site_id
 _symmetry_equiv_pos_as_xyz
  1  'x, y, z'
loop_
 _atom_site_type_symbol
 _atom_site_label
 _atom_site_symmetry_multiplicity
 _atom_site_fract_x
 _atom_site_fract_y
 _atom_site_fract_z
 _atom_site_occupancy
  Ca  Ca0  1  0.603452  0.319482  0.166080  1
  Ca  Ca1  1  0.396550  0.680518  0.833923  1
  Bi  Bi2  1  0.229873  0.946942  0.387484  1
  Bi  Bi3  1  0.770126  0.053055  0.612514  1
  P  P4  1  0.168155  0.382620  0.197949  1
  P  P5  1  0.831846  0.617380  0.802052  1
  O  O6  1  0.924441  0.237146  0.083826  1
  O  O7  1  0.730074  0.604186  0.020886  1
  O  O8  1  0.501455  0.962646  0.246982  1
  O  O9  1  0.300083  0.293679  0.367704  1
  O  O10  1  0.193911  0.608174  0.392919  1
  O  O11  1  0.806089  0.391819  0.607074  1
  O  O12  1  0.699912  0.706325  0.632290  1
  O  O13  1  0.498546  0.037352  0.753017  1
  O  O14  1  0.269923  0.395814  0.979123  1
  O  O15  1  0.075566  0.762862  0.916178  1
