# generated using pymatgen
data_CsRb3(ThI6)2
_symmetry_space_group_name_H-M   'P 1'
_cell_length_a   8.55327054
_cell_length_b   8.55327054
_cell_length_c   12.56917200
_cell_angle_alpha   90.00000000
_cell_angle_beta   90.00000000
_cell_angle_gamma   90.16197458
_symmetry_Int_Tables_number   1
_chemical_formula_structural   CsRb3(ThI6)2
_chemical_formula_sum   'Cs1 Rb3 Th2 I12'
_cell_volume   919.53730359
_cell_formula_units_Z   1
loop_
 _symmetry_equiv_pos_site_id
 _symmetry_equiv_pos_as_xyz
  1  'x, y, z'
loop_
 _atom_site_type_symbol
 _atom_site_label
 _atom_site_symmetry_multiplicity
 _atom_site_fract_x
 _atom_site_fract_y
 _atom_site_fract_z
 _atom_site_occupancy
  Cs  Cs0  1  0.000000  0.500000  0.250000  1
  Rb  Rb1  1  0.500000  0.000000  0.250000  1
  Rb  Rb2  1  0.000000  0.500000  0.750000  1
  Rb  Rb3  1  0.500000  0.000000  0.750000  1
  Th  Th4  1  0.000000  0.000000  0.999511  1
  Th  Th5  1  0.500000  0.500000  0.500489  1
  I  I6  1  0.000000  0.000000  0.244981  1
  I  I7  1  0.500000  0.500000  0.255018  1
  I  I8  1  0.000000  0.000000  0.754516  1
  I  I9  1  0.500000  0.500000  0.745484  1
  I  I10  1  0.196364  0.302446  0.997743  1
  I  I11  1  0.697395  0.193839  0.000135  1
  I  I12  1  0.302605  0.806161  0.000135  1
  I  I13  1  0.693839  0.197395  0.499865  1
  I  I14  1  0.306161  0.802605  0.499865  1
  I  I15  1  0.803636  0.697554  0.997743  1
  I  I16  1  0.802446  0.696364  0.502257  1
  I  I17  1  0.197554  0.303636  0.502257  1
