# generated using pymatgen
data_Np4MoW3C8
_symmetry_space_group_name_H-M   'P 1'
_cell_length_a   3.23261400
_cell_length_b   5.66438213
_cell_length_c   10.94840103
_cell_angle_alpha   89.98363208
_cell_angle_beta   90.00000000
_cell_angle_gamma   90.00000000
_symmetry_Int_Tables_number   1
_chemical_formula_structural   Np4MoW3C8
_chemical_formula_sum   'Np4 Mo1 W3 C8'
_cell_volume   200.47354616
_cell_formula_units_Z   1
loop_
 _symmetry_equiv_pos_site_id
 _symmetry_equiv_pos_as_xyz
  1  'x, y, z'
loop_
 _atom_site_type_symbol
 _atom_site_label
 _atom_site_symmetry_multiplicity
 _atom_site_fract_x
 _atom_site_fract_y
 _atom_site_fract_z
 _atom_site_occupancy
  Np  Np0  1  0.250000  0.080569  0.859142  1
  Np  Np1  1  0.250000  0.580208  0.640842  1
  Np  Np2  1  0.750000  0.920643  0.140719  1
  Np  Np3  1  0.750000  0.419396  0.358559  1
  Mo  Mo4  1  0.250000  0.418744  0.103165  1
  W  W5  1  0.250000  0.918221  0.396677  1
  W  W6  1  0.750000  0.581153  0.897141  1
  W  W7  1  0.750000  0.081517  0.603687  1
  C  C8  1  0.250000  0.162009  0.245781  1
  C  C9  1  0.250000  0.663971  0.255047  1
  C  C10  1  0.750000  0.836157  0.754837  1
  C  C11  1  0.750000  0.336906  0.745252  1
  C  C12  1  0.250000  0.748554  0.991472  1
  C  C13  1  0.250000  0.247094  0.508167  1
  C  C14  1  0.750000  0.252276  0.007473  1
  C  C15  1  0.750000  0.752582  0.492041  1
