# generated using pymatgen
data_Ho20IrOs3Pt8
_symmetry_space_group_name_H-M   'P 1'
_cell_length_a   10.97362400
_cell_length_b   10.97362400
_cell_length_c   6.39145200
_cell_angle_alpha   90.00000000
_cell_angle_beta   90.00000000
_cell_angle_gamma   90.00000000
_symmetry_Int_Tables_number   1
_chemical_formula_structural   Ho20IrOs3Pt8
_chemical_formula_sum   'Ho20 Ir1 Os3 Pt8'
_cell_volume   769.66135786
_cell_formula_units_Z   1
loop_
 _symmetry_equiv_pos_site_id
 _symmetry_equiv_pos_as_xyz
  1  'x, y, z'
loop_
 _atom_site_type_symbol
 _atom_site_label
 _atom_site_symmetry_multiplicity
 _atom_site_fract_x
 _atom_site_fract_y
 _atom_site_fract_z
 _atom_site_occupancy
  Ho  Ho0  1  0.297183  0.086065  0.372194  1
  Ho  Ho1  1  0.297397  0.914121  0.872156  1
  Ho  Ho2  1  0.702603  0.085879  0.872156  1
  Ho  Ho3  1  0.702817  0.913935  0.372194  1
  Ho  Ho4  1  0.585879  0.797397  0.872156  1
  Ho  Ho5  1  0.586065  0.202817  0.372194  1
  Ho  Ho6  1  0.413935  0.797183  0.372194  1
  Ho  Ho7  1  0.414121  0.202603  0.872156  1
  Ho  Ho8  1  0.204135  0.412832  0.629320  1
  Ho  Ho9  1  0.203660  0.586993  0.125862  1
  Ho  Ho10  1  0.796340  0.413007  0.125862  1
  Ho  Ho11  1  0.795865  0.587168  0.629320  1
  Ho  Ho12  1  0.913007  0.703660  0.125862  1
  Ho  Ho13  1  0.912832  0.295865  0.629320  1
  Ho  Ho14  1  0.087168  0.704135  0.629320  1
  Ho  Ho15  1  0.086993  0.296340  0.125862  1
  Ho  Ho16  1  0.000000  0.000000  0.499739  1
  Ho  Ho17  1  0.000000  0.000000  0.999734  1
  Ho  Ho18  1  0.500000  0.500000  0.999734  1
  Ho  Ho19  1  0.500000  0.500000  0.499739  1
  Ir  Ir20  1  0.000000  0.500000  0.378292  1
  Os  Os21  1  0.500000  0.000000  0.124471  1
  Os  Os22  1  0.500000  0.000000  0.624176  1
  Os  Os23  1  0.000000  0.500000  0.875846  1
  Pt  Pt24  1  0.846926  0.153652  0.250094  1
  Pt  Pt25  1  0.847020  0.846228  0.749941  1
  Pt  Pt26  1  0.152980  0.153772  0.749941  1
  Pt  Pt27  1  0.153074  0.846348  0.250094  1
  Pt  Pt28  1  0.653772  0.347020  0.749941  1
  Pt  Pt29  1  0.653652  0.653074  0.250094  1
  Pt  Pt30  1  0.346348  0.346926  0.250094  1
  Pt  Pt31  1  0.346228  0.652980  0.749941  1
