# generated using pymatgen
data_CsK3(Ga2Au3)4
_symmetry_space_group_name_H-M   'P 1'
_cell_length_a   5.68542900
_cell_length_b   7.16655445
_cell_length_c   13.60022415
_cell_angle_alpha   89.85934122
_cell_angle_beta   90.00000000
_cell_angle_gamma   90.00000000
_symmetry_Int_Tables_number   1
_chemical_formula_structural   CsK3(Ga2Au3)4
_chemical_formula_sum   'Cs1 K3 Ga8 Au12'
_cell_volume   554.13859950
_cell_formula_units_Z   1
loop_
 _symmetry_equiv_pos_site_id
 _symmetry_equiv_pos_as_xyz
  1  'x, y, z'
loop_
 _atom_site_type_symbol
 _atom_site_label
 _atom_site_symmetry_multiplicity
 _atom_site_fract_x
 _atom_site_fract_y
 _atom_site_fract_z
 _atom_site_occupancy
  Cs  Cs0  1  0.750000  0.591820  0.432481  1
  K  K1  1  0.250000  0.103555  0.075891  1
  K  K2  1  0.250000  0.393410  0.581237  1
  K  K3  1  0.750000  0.896776  0.923192  1
  Ga  Ga4  1  0.000381  0.907283  0.656977  1
  Ga  Ga5  1  0.500835  0.594781  0.154297  1
  Ga  Ga6  1  0.496298  0.093738  0.342488  1
  Ga  Ga7  1  0.003243  0.404618  0.844678  1
  Ga  Ga8  1  0.003702  0.093738  0.342488  1
  Ga  Ga9  1  0.496757  0.404618  0.844678  1
  Ga  Ga10  1  0.499619  0.907283  0.656977  1
  Ga  Ga11  1  0.999165  0.594781  0.154297  1
  Au  Au12  1  0.250000  0.116827  0.789173  1
  Au  Au13  1  0.250000  0.382230  0.284794  1
  Au  Au14  1  0.750000  0.882878  0.208148  1
  Au  Au15  1  0.750000  0.620544  0.714537  1
  Au  Au16  1  0.250000  0.712241  0.794292  1
  Au  Au17  1  0.250000  0.791564  0.289853  1
  Au  Au18  1  0.750000  0.282710  0.202713  1
  Au  Au19  1  0.750000  0.213925  0.706815  1
  Au  Au20  1  0.250000  0.588872  0.994130  1
  Au  Au21  1  0.250000  0.923093  0.495429  1
  Au  Au22  1  0.750000  0.407172  0.004673  1
  Au  Au23  1  0.750000  0.091542  0.505764  1
