# generated using pymatgen
data_Tb8Si12Ni3Ir
_symmetry_space_group_name_H-M   'P 1'
_cell_length_a   8.02356200
_cell_length_b   8.02356118
_cell_length_c   8.13826100
_cell_angle_alpha   90.00000000
_cell_angle_beta   90.00000000
_cell_angle_gamma   120.00001161
_symmetry_Int_Tables_number   1
_chemical_formula_structural   Tb8Si12Ni3Ir
_chemical_formula_sum   'Tb8 Si12 Ni3 Ir1'
_cell_volume   453.72903996
_cell_formula_units_Z   1
loop_
 _symmetry_equiv_pos_site_id
 _symmetry_equiv_pos_as_xyz
  1  'x, y, z'
loop_
 _atom_site_type_symbol
 _atom_site_label
 _atom_site_symmetry_multiplicity
 _atom_site_fract_x
 _atom_site_fract_y
 _atom_site_fract_z
 _atom_site_occupancy
  Tb  Tb0  1  0.500321  0.000641  0.250565  1
  Tb  Tb1  1  0.499905  0.999810  0.749434  1
  Tb  Tb2  1  0.999359  0.499679  0.250565  1
  Tb  Tb3  1  0.000190  0.500095  0.749434  1
  Tb  Tb4  1  0.500321  0.499679  0.250565  1
  Tb  Tb5  1  0.499905  0.500095  0.749434  1
  Tb  Tb6  1  0.000000  0.000000  0.248084  1
  Tb  Tb7  1  0.000000  0.000000  0.751896  1
  Si  Si8  1  0.170774  0.341550  0.000239  1
  Si  Si9  1  0.829400  0.658800  0.999826  1
  Si  Si10  1  0.658450  0.829226  0.000239  1
  Si  Si11  1  0.828397  0.656795  0.500104  1
  Si  Si12  1  0.341200  0.170600  0.999826  1
  Si  Si13  1  0.165749  0.331497  0.499832  1
  Si  Si14  1  0.170774  0.829226  0.000239  1
  Si  Si15  1  0.343205  0.171603  0.500104  1
  Si  Si16  1  0.829400  0.170600  0.999826  1
  Si  Si17  1  0.668503  0.834251  0.499832  1
  Si  Si18  1  0.828397  0.171603  0.500104  1
  Si  Si19  1  0.165749  0.834251  0.499832  1
  Ni  Ni20  1  0.333333  0.666667  0.000494  1
  Ni  Ni21  1  0.666667  0.333333  0.998813  1
  Ni  Ni22  1  0.666667  0.333333  0.501201  1
  Ir  Ir23  1  0.333333  0.666667  0.499509  1
