# generated using pymatgen
data_TmCo2(B2Os)2
_symmetry_space_group_name_H-M   'P 1'
_cell_length_a   7.15694000
_cell_length_b   7.15694000
_cell_length_c   3.92954600
_cell_angle_alpha   90.00000000
_cell_angle_beta   90.00000000
_cell_angle_gamma   90.00000000
_symmetry_Int_Tables_number   1
_chemical_formula_structural   TmCo2(B2Os)2
_chemical_formula_sum   'Tm2 Co4 B8 Os4'
_cell_volume   201.27838065
_cell_formula_units_Z   2
loop_
 _symmetry_equiv_pos_site_id
 _symmetry_equiv_pos_as_xyz
  1  'x, y, z'
loop_
 _atom_site_type_symbol
 _atom_site_label
 _atom_site_symmetry_multiplicity
 _atom_site_fract_x
 _atom_site_fract_y
 _atom_site_fract_z
 _atom_site_occupancy
  Tm  Tm0  1  0.000000  0.000000  0.102289  1
  Tm  Tm1  1  0.500000  0.500000  0.602289  1
  Co  Co2  1  0.618867  0.121418  0.372653  1
  Co  Co3  1  0.381133  0.878582  0.372653  1
  Co  Co4  1  0.621418  0.881133  0.872653  1
  Co  Co5  1  0.378582  0.118867  0.872653  1
  B  B6  1  0.344341  0.819810  0.878457  1
  B  B7  1  0.655659  0.180190  0.878457  1
  B  B8  1  0.319810  0.155659  0.378457  1
  B  B9  1  0.680190  0.844341  0.378457  1
  B  B10  1  0.176329  0.733260  0.597174  1
  B  B11  1  0.823671  0.266740  0.597174  1
  B  B12  1  0.233260  0.323671  0.097174  1
  B  B13  1  0.766740  0.676329  0.097174  1
  Os  Os14  1  0.839294  0.389990  0.100571  1
  Os  Os15  1  0.160706  0.610010  0.100571  1
  Os  Os16  1  0.889990  0.660706  0.600571  1
  Os  Os17  1  0.110010  0.339294  0.600571  1
