# generated using pymatgen
data_Lu12In2Si3Tc
_symmetry_space_group_name_H-M   'P 1'
_cell_length_a   8.30807571
_cell_length_b   8.30807614
_cell_length_c   8.30807600
_cell_angle_alpha   111.50933148
_cell_angle_beta   111.56097077
_cell_angle_gamma   105.41782976
_symmetry_Int_Tables_number   1
_chemical_formula_structural   Lu12In2Si3Tc
_chemical_formula_sum   'Lu12 In2 Si3 Tc1'
_cell_volume   439.80607337
_cell_formula_units_Z   1
loop_
 _symmetry_equiv_pos_site_id
 _symmetry_equiv_pos_as_xyz
  1  'x, y, z'
loop_
 _atom_site_type_symbol
 _atom_site_label
 _atom_site_symmetry_multiplicity
 _atom_site_fract_x
 _atom_site_fract_y
 _atom_site_fract_z
 _atom_site_occupancy
  Lu  Lu0  1  0.450285  0.241556  0.208731  1
  Lu  Lu1  1  0.559077  0.760749  0.798327  1
  Lu  Lu2  1  0.037576  0.239251  0.798327  1
  Lu  Lu3  1  0.967176  0.758444  0.208731  1
  Lu  Lu4  1  0.187374  0.273815  0.461190  1
  Lu  Lu5  1  0.816809  0.725405  0.542214  1
  Lu  Lu6  1  0.187374  0.726185  0.913559  1
  Lu  Lu7  1  0.816809  0.274595  0.091404  1
  Lu  Lu8  1  0.323395  0.623660  0.295829  1
  Lu  Lu9  1  0.672169  0.376340  0.699736  1
  Lu  Lu10  1  0.323395  0.027567  0.699736  1
  Lu  Lu11  1  0.672169  0.972433  0.295829  1
  In  In12  1  0.500507  0.500000  0.000507  1
  In  In13  1  0.011535  0.000000  0.011535  1
  Si  Si14  1  0.630377  0.000000  0.630377  1
  Si  Si15  1  0.118232  0.616817  0.501415  1
  Si  Si16  1  0.884599  0.383183  0.501415  1
  Tc  Tc17  1  0.341141  0.000000  0.341141  1
