# generated using pymatgen
data_Ho2Er6ReTc3C8
_symmetry_space_group_name_H-M   'P 1'
_cell_length_a   5.05508100
_cell_length_b   6.53514967
_cell_length_c   9.80265301
_cell_angle_alpha   89.97176627
_cell_angle_beta   90.00000000
_cell_angle_gamma   90.00000000
_symmetry_Int_Tables_number   1
_chemical_formula_structural   Ho2Er6ReTc3C8
_chemical_formula_sum   'Ho2 Er6 Re1 Tc3 C8'
_cell_volume   323.83757174
_cell_formula_units_Z   1
loop_
 _symmetry_equiv_pos_site_id
 _symmetry_equiv_pos_as_xyz
  1  'x, y, z'
loop_
 _atom_site_type_symbol
 _atom_site_label
 _atom_site_symmetry_multiplicity
 _atom_site_fract_x
 _atom_site_fract_y
 _atom_site_fract_z
 _atom_site_occupancy
  Ho  Ho0  1  0.750000  0.533205  0.783496  1
  Ho  Ho1  1  0.250000  0.966118  0.283331  1
  Er  Er2  1  0.750000  0.676134  0.442309  1
  Er  Er3  1  0.250000  0.823037  0.941962  1
  Er  Er4  1  0.750000  0.177895  0.058429  1
  Er  Er5  1  0.250000  0.323357  0.558381  1
  Er  Er6  1  0.250000  0.465671  0.216988  1
  Er  Er7  1  0.750000  0.033536  0.716826  1
  Re  Re8  1  0.750000  0.717598  0.132236  1
  Tc  Tc9  1  0.250000  0.282489  0.867780  1
  Tc  Tc10  1  0.250000  0.782818  0.632349  1
  Tc  Tc11  1  0.750000  0.217990  0.367901  1
  C  C12  1  0.250000  0.675504  0.449194  1
  C  C13  1  0.250000  0.550131  0.758416  1
  C  C14  1  0.750000  0.451235  0.240551  1
  C  C15  1  0.750000  0.824176  0.948077  1
  C  C16  1  0.250000  0.049839  0.741694  1
  C  C17  1  0.250000  0.175746  0.051046  1
  C  C18  1  0.750000  0.323722  0.551014  1
  C  C19  1  0.750000  0.949801  0.258019  1
