# generated using pymatgen
data_Sc2AsRh5
_symmetry_space_group_name_H-M   'P 1'
_cell_length_a   4.05762800
_cell_length_b   5.52149800
_cell_length_c   10.84410600
_cell_angle_alpha   90.00000000
_cell_angle_beta   90.00000000
_cell_angle_gamma   90.00000000
_symmetry_Int_Tables_number   1
_chemical_formula_structural   Sc2AsRh5
_chemical_formula_sum   'Sc4 As2 Rh10'
_cell_volume   242.95335576
_cell_formula_units_Z   2
loop_
 _symmetry_equiv_pos_site_id
 _symmetry_equiv_pos_as_xyz
  1  'x, y, z'
loop_
 _atom_site_type_symbol
 _atom_site_label
 _atom_site_symmetry_multiplicity
 _atom_site_fract_x
 _atom_site_fract_y
 _atom_site_fract_z
 _atom_site_occupancy
  Sc  Sc0  1  0.500000  0.323942  0.359209  1
  Sc  Sc1  1  0.500000  0.676058  0.640791  1
  Sc  Sc2  1  0.500000  0.176058  0.859209  1
  Sc  Sc3  1  0.500000  0.823942  0.140791  1
  As  As4  1  0.000000  0.000000  0.500000  1
  As  As5  1  0.000000  0.500000  0.000000  1
  Rh  Rh6  1  0.500000  0.316522  0.106261  1
  Rh  Rh7  1  0.500000  0.683478  0.893739  1
  Rh  Rh8  1  0.500000  0.816522  0.393739  1
  Rh  Rh9  1  0.500000  0.183478  0.606261  1
  Rh  Rh10  1  0.000000  0.931818  0.744137  1
  Rh  Rh11  1  0.000000  0.068182  0.255863  1
  Rh  Rh12  1  0.000000  0.431818  0.755863  1
  Rh  Rh13  1  0.000000  0.568182  0.244137  1
  Rh  Rh14  1  0.000000  0.500000  0.500000  1
  Rh  Rh15  1  0.000000  0.000000  0.000000  1
