# generated using pymatgen
data_Sm8SiPI12
_symmetry_space_group_name_H-M   'P 1'
_cell_length_a   4.27712200
_cell_length_b   14.21067199
_cell_length_c   14.99672540
_cell_angle_alpha   90.12139184
_cell_angle_beta   90.00000000
_cell_angle_gamma   90.00000000
_symmetry_Int_Tables_number   1
_chemical_formula_structural   Sm8SiPI12
_chemical_formula_sum   'Sm8 Si1 P1 I12'
_cell_volume   911.51058835
_cell_formula_units_Z   1
loop_
 _symmetry_equiv_pos_site_id
 _symmetry_equiv_pos_as_xyz
  1  'x, y, z'
loop_
 _atom_site_type_symbol
 _atom_site_label
 _atom_site_symmetry_multiplicity
 _atom_site_fract_x
 _atom_site_fract_y
 _atom_site_fract_z
 _atom_site_occupancy
  Sm  Sm0  1  0.500000  0.112586  0.350293  1
  Sm  Sm1  1  0.500000  0.887414  0.649707  1
  Sm  Sm2  1  0.500000  0.615523  0.153417  1
  Sm  Sm3  1  0.500000  0.384477  0.846583  1
  Sm  Sm4  1  0.000000  0.106733  0.571723  1
  Sm  Sm5  1  0.000000  0.893267  0.428277  1
  Sm  Sm6  1  0.000000  0.613435  0.923650  1
  Sm  Sm7  1  0.000000  0.386565  0.076350  1
  Si  Si8  1  0.500000  0.500000  0.000000  1
  P  P9  1  0.500000  0.000000  0.500000  1
  I  I10  1  0.500000  0.242984  0.164037  1
  I  I11  1  0.500000  0.757016  0.835963  1
  I  I12  1  0.500000  0.748064  0.340494  1
  I  I13  1  0.500000  0.251936  0.659506  1
  I  I14  1  0.000000  0.257946  0.415727  1
  I  I15  1  0.000000  0.742054  0.584273  1
  I  I16  1  0.000000  0.760470  0.085049  1
  I  I17  1  0.000000  0.239530  0.914951  1
  I  I18  1  0.000000  0.998830  0.241739  1
  I  I19  1  0.000000  0.001170  0.758261  1
  I  I20  1  0.000000  0.499288  0.261029  1
  I  I21  1  0.000000  0.500712  0.738971  1
