# generated using pymatgen
data_Tb2DyGa5
_symmetry_space_group_name_H-M   'P 1'
_cell_length_a   6.11619800
_cell_length_b   9.64191000
_cell_length_c   11.59493400
_cell_angle_alpha   90.00000000
_cell_angle_beta   90.00000000
_cell_angle_gamma   90.00000000
_symmetry_Int_Tables_number   1
_chemical_formula_structural   Tb2DyGa5
_chemical_formula_sum   'Tb8 Dy4 Ga20'
_cell_volume   683.77448434
_cell_formula_units_Z   4
loop_
 _symmetry_equiv_pos_site_id
 _symmetry_equiv_pos_as_xyz
  1  'x, y, z'
loop_
 _atom_site_type_symbol
 _atom_site_label
 _atom_site_symmetry_multiplicity
 _atom_site_fract_x
 _atom_site_fract_y
 _atom_site_fract_z
 _atom_site_occupancy
  Tb  Tb0  1  0.890668  0.509479  0.351317  1
  Tb  Tb1  1  0.609332  0.990521  0.851317  1
  Tb  Tb2  1  0.109332  0.009479  0.648683  1
  Tb  Tb3  1  0.390668  0.490521  0.148683  1
  Tb  Tb4  1  0.109332  0.490521  0.648683  1
  Tb  Tb5  1  0.390668  0.009479  0.148683  1
  Tb  Tb6  1  0.890668  0.990521  0.351317  1
  Tb  Tb7  1  0.609332  0.509479  0.851317  1
  Dy  Dy8  1  0.848878  0.750000  0.075097  1
  Dy  Dy9  1  0.651122  0.750000  0.575097  1
  Dy  Dy10  1  0.151122  0.250000  0.924903  1
  Dy  Dy11  1  0.348878  0.250000  0.424903  1
  Ga  Ga12  1  0.875243  0.053960  0.090233  1
  Ga  Ga13  1  0.624757  0.446040  0.590233  1
  Ga  Ga14  1  0.124757  0.553960  0.909767  1
  Ga  Ga15  1  0.375243  0.946040  0.409767  1
  Ga  Ga16  1  0.124757  0.946040  0.909767  1
  Ga  Ga17  1  0.375243  0.553960  0.409767  1
  Ga  Ga18  1  0.875243  0.446040  0.090233  1
  Ga  Ga19  1  0.624757  0.053960  0.590233  1
  Ga  Ga20  1  0.173087  0.750000  0.252451  1
  Ga  Ga21  1  0.326913  0.750000  0.752451  1
  Ga  Ga22  1  0.826913  0.250000  0.747549  1
  Ga  Ga23  1  0.673087  0.250000  0.247549  1
  Ga  Ga24  1  0.371577  0.750000  0.004480  1
  Ga  Ga25  1  0.128423  0.750000  0.504480  1
  Ga  Ga26  1  0.628423  0.250000  0.995520  1
  Ga  Ga27  1  0.871577  0.250000  0.495520  1
  Ga  Ga28  1  0.600858  0.750000  0.299591  1
  Ga  Ga29  1  0.899142  0.750000  0.799591  1
  Ga  Ga30  1  0.399142  0.250000  0.700409  1
  Ga  Ga31  1  0.100858  0.250000  0.200409  1
