# generated using pymatgen
data_Tb2ErIn3GePt2
_symmetry_space_group_name_H-M   'P 1'
_cell_length_a   7.52096553
_cell_length_b   7.51779897
_cell_length_c   4.10477600
_cell_angle_alpha   90.00000000
_cell_angle_beta   90.00000000
_cell_angle_gamma   120.15288542
_symmetry_Int_Tables_number   1
_chemical_formula_structural   Tb2ErIn3GePt2
_chemical_formula_sum   'Tb2 Er1 In3 Ge1 Pt2'
_cell_volume   200.68424266
_cell_formula_units_Z   1
loop_
 _symmetry_equiv_pos_site_id
 _symmetry_equiv_pos_as_xyz
  1  'x, y, z'
loop_
 _atom_site_type_symbol
 _atom_site_label
 _atom_site_symmetry_multiplicity
 _atom_site_fract_x
 _atom_site_fract_y
 _atom_site_fract_z
 _atom_site_occupancy
  Tb  Tb0  1  0.598839  0.009329  0.500000  1
  Tb  Tb1  1  0.410410  0.401507  0.500000  1
  Er  Er2  1  0.989497  0.589348  0.500000  1
  In  In3  1  0.749664  0.742670  0.000000  1
  In  In4  1  0.993967  0.251803  0.000000  1
  In  In5  1  0.256806  0.005560  0.000000  1
  Ge  Ge6  1  0.332018  0.666240  0.000000  1
  Pt  Pt7  1  0.668701  0.334905  0.000000  1
  Pt  Pt8  1  0.000097  0.998638  0.500000  1
