# generated using pymatgen
data_TbLu19Ir12
_symmetry_space_group_name_H-M   'P 1'
_cell_length_a   10.67003217
_cell_length_b   10.67382348
_cell_length_c   6.27378324
_cell_angle_alpha   89.97024140
_cell_angle_beta   90.01141383
_cell_angle_gamma   90.01699921
_symmetry_Int_Tables_number   1
_chemical_formula_structural   TbLu19Ir12
_chemical_formula_sum   'Tb1 Lu19 Ir12'
_cell_volume   714.52128175
_cell_formula_units_Z   1
loop_
 _symmetry_equiv_pos_site_id
 _symmetry_equiv_pos_as_xyz
  1  'x, y, z'
loop_
 _atom_site_type_symbol
 _atom_site_label
 _atom_site_symmetry_multiplicity
 _atom_site_fract_x
 _atom_site_fract_y
 _atom_site_fract_z
 _atom_site_occupancy
  Tb  Tb0  1  0.088134  0.290168  0.123510  1
  Lu  Lu1  1  0.292450  0.086840  0.378398  1
  Lu  Lu2  1  0.291808  0.912315  0.878187  1
  Lu  Lu3  1  0.708121  0.087585  0.877686  1
  Lu  Lu4  1  0.708206  0.912320  0.377879  1
  Lu  Lu5  1  0.587630  0.791823  0.878005  1
  Lu  Lu6  1  0.587613  0.208159  0.378018  1
  Lu  Lu7  1  0.412420  0.791735  0.377920  1
  Lu  Lu8  1  0.412602  0.208178  0.877645  1
  Lu  Lu9  1  0.208458  0.412913  0.622144  1
  Lu  Lu10  1  0.208423  0.588581  0.122090  1
  Lu  Lu11  1  0.791096  0.412704  0.122090  1
  Lu  Lu12  1  0.791524  0.587770  0.622188  1
  Lu  Lu13  1  0.912260  0.708366  0.122130  1
  Lu  Lu14  1  0.911754  0.291986  0.622137  1
  Lu  Lu15  1  0.087761  0.708342  0.622152  1
  Lu  Lu16  1  0.999845  0.999812  0.499977  1
  Lu  Lu17  1  0.999506  0.998928  0.999573  1
  Lu  Lu18  1  0.500081  0.500220  0.999667  1
  Lu  Lu19  1  0.500145  0.500097  0.499997  1
  Ir  Ir20  1  0.845112  0.152708  0.250814  1
  Ir  Ir21  1  0.846532  0.846358  0.750057  1
  Ir  Ir22  1  0.154153  0.152276  0.746584  1
  Ir  Ir23  1  0.153471  0.846516  0.250009  1
  Ir  Ir24  1  0.653392  0.346532  0.750109  1
  Ir  Ir25  1  0.653452  0.653432  0.250090  1
  Ir  Ir26  1  0.348507  0.346920  0.251036  1
  Ir  Ir27  1  0.346659  0.653531  0.750079  1
  Ir  Ir28  1  0.500198  0.999940  0.122581  1
  Ir  Ir29  1  0.499997  0.999900  0.622730  1
  Ir  Ir30  1  0.999361  0.501614  0.875883  1
  Ir  Ir31  1  0.999328  0.501430  0.378635  1
