# generated using pymatgen
data_Hf11Sc7(Re4P)2
_symmetry_space_group_name_H-M   'P 1'
_cell_length_a   8.62506908
_cell_length_b   8.62506916
_cell_length_c   8.54868214
_cell_angle_alpha   89.94917379
_cell_angle_beta   90.05082898
_cell_angle_gamma   120.12634500
_symmetry_Int_Tables_number   1
_chemical_formula_structural   Hf11Sc7(Re4P)2
_chemical_formula_sum   'Hf11 Sc7 Re8 P2'
_cell_volume   550.04778052
_cell_formula_units_Z   1
loop_
 _symmetry_equiv_pos_site_id
 _symmetry_equiv_pos_as_xyz
  1  'x, y, z'
loop_
 _atom_site_type_symbol
 _atom_site_label
 _atom_site_symmetry_multiplicity
 _atom_site_fract_x
 _atom_site_fract_y
 _atom_site_fract_z
 _atom_site_occupancy
  Hf  Hf0  1  0.195419  0.390524  0.453403  1
  Hf  Hf1  1  0.609476  0.804581  0.453403  1
  Hf  Hf2  1  0.803871  0.196129  0.546380  1
  Hf  Hf3  1  0.805550  0.609767  0.547046  1
  Hf  Hf4  1  0.390233  0.194450  0.547046  1
  Hf  Hf5  1  0.804433  0.195567  0.953231  1
  Hf  Hf6  1  0.804437  0.608821  0.952890  1
  Hf  Hf7  1  0.391179  0.195563  0.952890  1
  Hf  Hf8  1  0.195360  0.804640  0.046533  1
  Hf  Hf9  1  0.195558  0.391241  0.046991  1
  Hf  Hf10  1  0.608759  0.804442  0.046991  1
  Sc  Sc11  1  0.197086  0.802914  0.451952  1
  Sc  Sc12  1  0.539924  0.460076  0.250425  1
  Sc  Sc13  1  0.540032  0.080406  0.249851  1
  Sc  Sc14  1  0.919594  0.459968  0.249851  1
  Sc  Sc15  1  0.459980  0.540020  0.749839  1
  Sc  Sc16  1  0.459752  0.920007  0.750558  1
  Sc  Sc17  1  0.079993  0.540248  0.750558  1
  Re  Re18  1  0.890397  0.109603  0.250495  1
  Re  Re19  1  0.890090  0.781753  0.249738  1
  Re  Re20  1  0.218247  0.109910  0.249738  1
  Re  Re21  1  0.108798  0.891202  0.751450  1
  Re  Re22  1  0.109295  0.218764  0.749933  1
  Re  Re23  1  0.781236  0.890705  0.749933  1
  Re  Re24  1  0.000891  0.999109  0.499490  1
  Re  Re25  1  0.999622  0.000378  0.000020  1
  P  P26  1  0.334029  0.665971  0.249557  1
  P  P27  1  0.666758  0.333242  0.749809  1
