# generated using pymatgen
data_La2Ho(InIr6)3
_symmetry_space_group_name_H-M   'P 1'
_cell_length_a   8.96859217
_cell_length_b   8.96859217
_cell_length_c   5.23167100
_cell_angle_alpha   90.00000000
_cell_angle_beta   90.00000000
_cell_angle_gamma   89.78924353
_symmetry_Int_Tables_number   1
_chemical_formula_structural   La2Ho(InIr6)3
_chemical_formula_sum   'La2 Ho1 In3 Ir18'
_cell_volume   420.80998696
_cell_formula_units_Z   1
loop_
 _symmetry_equiv_pos_site_id
 _symmetry_equiv_pos_as_xyz
  1  'x, y, z'
loop_
 _atom_site_type_symbol
 _atom_site_label
 _atom_site_symmetry_multiplicity
 _atom_site_fract_x
 _atom_site_fract_y
 _atom_site_fract_z
 _atom_site_occupancy
  La  La0  1  0.499108  0.504647  0.000000  1
  La  La1  1  0.004647  0.999108  0.000000  1
  Ho  Ho2  1  0.618406  0.118406  0.000000  1
  In  In3  1  0.377663  0.877663  0.000000  1
  In  In4  1  0.120638  0.379071  0.000000  1
  In  In5  1  0.879071  0.620638  0.000000  1
  Ir  Ir6  1  0.498348  0.998348  0.500000  1
  Ir  Ir7  1  0.002085  0.502085  0.500000  1
  Ir  Ir8  1  0.703831  0.555966  0.500000  1
  Ir  Ir9  1  0.296491  0.441588  0.500000  1
  Ir  Ir10  1  0.203494  0.942501  0.500000  1
  Ir  Ir11  1  0.793621  0.059494  0.500000  1
  Ir  Ir12  1  0.442501  0.703494  0.500000  1
  Ir  Ir13  1  0.559494  0.293621  0.500000  1
  Ir  Ir14  1  0.055966  0.203831  0.500000  1
  Ir  Ir15  1  0.941588  0.796491  0.500000  1
  Ir  Ir16  1  0.822563  0.322563  0.755363  1
  Ir  Ir17  1  0.180120  0.680120  0.757144  1
  Ir  Ir18  1  0.318608  0.180232  0.755739  1
  Ir  Ir19  1  0.680232  0.818608  0.755739  1
  Ir  Ir20  1  0.180120  0.680120  0.242856  1
  Ir  Ir21  1  0.822563  0.322563  0.244637  1
  Ir  Ir22  1  0.680232  0.818608  0.244261  1
  Ir  Ir23  1  0.318608  0.180232  0.244261  1
