# generated using pymatgen
data_Tb5NdCd23Si
_symmetry_space_group_name_H-M   'P 1'
_cell_length_a   9.99856673
_cell_length_b   9.98368405
_cell_length_c   9.98368511
_cell_angle_alpha   60.09865359
_cell_angle_beta   59.95067781
_cell_angle_gamma   59.95067576
_symmetry_Int_Tables_number   1
_chemical_formula_structural   Tb5NdCd23Si
_chemical_formula_sum   'Tb5 Nd1 Cd23 Si1'
_cell_volume   704.69719852
_cell_formula_units_Z   1
loop_
 _symmetry_equiv_pos_site_id
 _symmetry_equiv_pos_as_xyz
  1  'x, y, z'
loop_
 _atom_site_type_symbol
 _atom_site_label
 _atom_site_symmetry_multiplicity
 _atom_site_fract_x
 _atom_site_fract_y
 _atom_site_fract_z
 _atom_site_occupancy
  Tb  Tb0  1  0.797281  0.797608  0.202719  1
  Tb  Tb1  1  0.202392  0.797608  0.202719  1
  Tb  Tb2  1  0.796436  0.203564  0.203564  1
  Tb  Tb3  1  0.202392  0.202719  0.797608  1
  Tb  Tb4  1  0.797281  0.202719  0.797608  1
  Nd  Nd5  1  0.204715  0.795285  0.795285  1
  Cd  Cd6  1  0.838304  0.838679  0.484712  1
  Cd  Cd7  1  0.838304  0.484712  0.838679  1
  Cd  Cd8  1  0.489120  0.837838  0.837838  1
  Cd  Cd9  1  0.835202  0.837838  0.837838  1
  Cd  Cd10  1  0.162162  0.164798  0.510880  1
  Cd  Cd11  1  0.162162  0.510880  0.164798  1
  Cd  Cd12  1  0.515288  0.161696  0.161696  1
  Cd  Cd13  1  0.161321  0.161696  0.161696  1
  Cd  Cd14  1  0.622228  0.620724  0.134821  1
  Cd  Cd15  1  0.622228  0.134821  0.620724  1
  Cd  Cd16  1  0.132172  0.621425  0.621425  1
  Cd  Cd17  1  0.624978  0.621425  0.621425  1
  Cd  Cd18  1  0.378575  0.375022  0.867828  1
  Cd  Cd19  1  0.378575  0.867828  0.375022  1
  Cd  Cd20  1  0.865179  0.377772  0.377772  1
  Cd  Cd21  1  0.379276  0.377772  0.377772  1
  Cd  Cd22  1  0.999671  0.000329  0.499920  1
  Cd  Cd23  1  0.500080  0.000329  0.499920  1
  Cd  Cd24  1  0.999456  0.500544  0.500544  1
  Cd  Cd25  1  0.500080  0.499920  0.000329  1
  Cd  Cd26  1  0.999671  0.499920  0.000329  1
  Cd  Cd27  1  0.499456  0.000544  0.000544  1
  Cd  Cd28  1  0.498493  0.501507  0.501507  1
  Si  Si29  1  0.997520  0.002480  0.002480  1
