# generated using pymatgen
data_Y2Ho2Al17SiRh6
_symmetry_space_group_name_H-M   'P 1'
_cell_length_a   7.54239358
_cell_length_b   7.52275043
_cell_length_c   9.44638104
_cell_angle_alpha   89.99556972
_cell_angle_beta   89.93243261
_cell_angle_gamma   119.55131182
_symmetry_Int_Tables_number   1
_chemical_formula_structural   Y2Ho2Al17SiRh6
_chemical_formula_sum   'Y2 Ho2 Al17 Si1 Rh6'
_cell_volume   466.25915766
_cell_formula_units_Z   1
loop_
 _symmetry_equiv_pos_site_id
 _symmetry_equiv_pos_as_xyz
  1  'x, y, z'
loop_
 _atom_site_type_symbol
 _atom_site_label
 _atom_site_symmetry_multiplicity
 _atom_site_fract_x
 _atom_site_fract_y
 _atom_site_fract_z
 _atom_site_occupancy
  Y  Y0  1  0.676302  0.001922  0.246881  1
  Y  Y1  1  0.328651  0.005282  0.750400  1
  Ho  Ho2  1  0.994191  0.663971  0.247040  1
  Ho  Ho3  1  0.004919  0.329103  0.754898  1
  Al  Al4  1  0.128094  0.127615  0.249494  1
  Al  Al5  1  0.870991  0.873053  0.749477  1
  Al  Al6  1  0.998256  0.668652  0.923742  1
  Al  Al7  1  0.999380  0.665113  0.574088  1
  Al  Al8  1  0.334236  0.999134  0.424567  1
  Al  Al9  1  0.001794  0.335219  0.430001  1
  Al  Al10  1  0.664659  0.999495  0.574336  1
  Al  Al11  1  0.660260  0.994878  0.923024  1
  Al  Al12  1  0.333984  0.999475  0.075914  1
  Al  Al13  1  0.333750  0.333072  0.551861  1
  Al  Al14  1  0.667928  0.668126  0.448365  1
  Al  Al15  1  0.667053  0.667491  0.052681  1
  Al  Al16  1  0.336270  0.333722  0.949019  1
  Al  Al17  1  0.340346  0.550220  0.250208  1
  Al  Al18  1  0.661274  0.450523  0.750341  1
  Al  Al19  1  0.546650  0.339829  0.249781  1
  Al  Al20  1  0.449348  0.657965  0.749502  1
  Si  Si21  1  0.002559  0.335434  0.074917  1
  Rh  Rh22  1  0.680544  0.328781  0.002092  1
  Rh  Rh23  1  0.319470  0.663808  0.000270  1
  Rh  Rh24  1  0.327440  0.671196  0.499319  1
  Rh  Rh25  1  0.672508  0.328490  0.498770  1
  Rh  Rh26  1  0.999089  0.007553  0.999825  1
  Rh  Rh27  1  0.000055  0.000873  0.499187  1
