# generated using pymatgen
data_Eu4Dy3Ho(WO6)4
_symmetry_space_group_name_H-M   'P 1'
_cell_length_a   5.45255892
_cell_length_b   7.77319610
_cell_length_c   11.54245323
_cell_angle_alpha   75.90349016
_cell_angle_beta   90.04897557
_cell_angle_gamma   89.96808805
_symmetry_Int_Tables_number   1
_chemical_formula_structural   Eu4Dy3Ho(WO6)4
_chemical_formula_sum   'Eu4 Dy3 Ho1 W4 O24'
_cell_volume   474.48107373
_cell_formula_units_Z   1
loop_
 _symmetry_equiv_pos_site_id
 _symmetry_equiv_pos_as_xyz
  1  'x, y, z'
loop_
 _atom_site_type_symbol
 _atom_site_label
 _atom_site_symmetry_multiplicity
 _atom_site_fract_x
 _atom_site_fract_y
 _atom_site_fract_z
 _atom_site_occupancy
  Eu  Eu0  1  0.738973  0.999519  0.750357  1
  Eu  Eu1  1  0.261043  0.999525  0.250405  1
  Eu  Eu2  1  0.190807  0.799716  0.577644  1
  Eu  Eu3  1  0.809071  0.799701  0.077551  1
  Dy  Dy4  1  0.318113  0.498589  0.251212  1
  Dy  Dy5  1  0.186860  0.207581  0.921120  1
  Dy  Dy6  1  0.812968  0.207318  0.421521  1
  Ho  Ho7  1  0.681569  0.498638  0.751249  1
  W  W8  1  0.252892  0.718009  0.887735  1
  W  W9  1  0.747045  0.718218  0.387983  1
  W  W10  1  0.254695  0.280373  0.613177  1
  W  W11  1  0.745098  0.280158  0.112801  1
  O  O12  1  0.049374  0.938291  0.896223  1
  O  O13  1  0.520303  0.850640  0.929803  1
  O  O14  1  0.950812  0.938159  0.396643  1
  O  O15  1  0.461312  0.776958  0.732501  1
  O  O16  1  0.479412  0.850613  0.429927  1
  O  O17  1  0.981367  0.704928  0.776377  1
  O  O18  1  0.538938  0.777643  0.232533  1
  O  O19  1  0.844855  0.631385  0.548952  1
  O  O20  1  0.363448  0.486881  0.886602  1
  O  O21  1  0.018102  0.705772  0.276293  1
  O  O22  1  0.368927  0.508655  0.611963  1
  O  O23  1  0.849676  0.366453  0.950768  1
  O  O24  1  0.154883  0.631120  0.048476  1
  O  O25  1  0.637983  0.487002  0.386899  1
  O  O26  1  0.986207  0.295299  0.727725  1
  O  O27  1  0.632364  0.508831  0.111534  1
  O  O28  1  0.149602  0.366619  0.451348  1
  O  O29  1  0.457227  0.216552  0.769745  1
  O  O30  1  0.013087  0.294196  0.227907  1
  O  O31  1  0.521941  0.150939  0.566631  1
  O  O32  1  0.543160  0.216351  0.269573  1
  O  O33  1  0.037905  0.069278  0.601360  1
  O  O34  1  0.477721  0.150929  0.066515  1
  O  O35  1  0.962259  0.069157  0.100953  1
