# generated using pymatgen
data_Ce4Sc4Re(B8W)3
_symmetry_space_group_name_H-M   'P 1'
_cell_length_a   3.61420800
_cell_length_b   9.12096604
_cell_length_c   11.53616506
_cell_angle_alpha   89.98876188
_cell_angle_beta   90.00000000
_cell_angle_gamma   90.00000000
_symmetry_Int_Tables_number   1
_chemical_formula_structural   Ce4Sc4Re(B8W)3
_chemical_formula_sum   'Ce4 Sc4 Re1 B24 W3'
_cell_volume   380.29046331
_cell_formula_units_Z   1
loop_
 _symmetry_equiv_pos_site_id
 _symmetry_equiv_pos_as_xyz
  1  'x, y, z'
loop_
 _atom_site_type_symbol
 _atom_site_label
 _atom_site_symmetry_multiplicity
 _atom_site_fract_x
 _atom_site_fract_y
 _atom_site_fract_z
 _atom_site_occupancy
  Ce  Ce0  1  0.000000  0.319921  0.414784  1
  Ce  Ce1  1  0.000000  0.680311  0.586014  1
  Ce  Ce2  1  0.000000  0.820421  0.084357  1
  Ce  Ce3  1  0.000000  0.178442  0.914460  1
  Sc  Sc4  1  0.000000  0.944985  0.373220  1
  Sc  Sc5  1  0.000000  0.054254  0.628287  1
  Sc  Sc6  1  0.000000  0.445408  0.126943  1
  Sc  Sc7  1  0.000000  0.556471  0.872026  1
  Re  Re8  1  0.000000  0.858713  0.818019  1
  B  B9  1  0.500000  0.553900  0.433101  1
  B  B10  1  0.500000  0.446411  0.567629  1
  B  B11  1  0.500000  0.053394  0.066553  1
  B  B12  1  0.500000  0.943940  0.930415  1
  B  B13  1  0.500000  0.756132  0.419265  1
  B  B14  1  0.500000  0.243787  0.581450  1
  B  B15  1  0.500000  0.256259  0.080797  1
  B  B16  1  0.500000  0.746696  0.916639  1
  B  B17  1  0.500000  0.796384  0.264284  1
  B  B18  1  0.500000  0.202893  0.736071  1
  B  B19  1  0.500000  0.296121  0.235593  1
  B  B20  1  0.500000  0.706748  0.765129  1
  B  B21  1  0.500000  0.628886  0.181239  1
  B  B22  1  0.500000  0.371498  0.818781  1
  B  B23  1  0.500000  0.128211  0.318292  1
  B  B24  1  0.500000  0.871177  0.683988  1
  B  B25  1  0.500000  0.979550  0.214797  1
  B  B26  1  0.500000  0.016728  0.785714  1
  B  B27  1  0.500000  0.479778  0.284792  1
  B  B28  1  0.500000  0.520879  0.715426  1
  B  B29  1  0.500000  0.597027  0.025395  1
  B  B30  1  0.500000  0.404335  0.973634  1
  B  B31  1  0.500000  0.096129  0.474226  1
  B  B32  1  0.500000  0.903721  0.527049  1
  W  W33  1  0.000000  0.640939  0.318696  1
  W  W34  1  0.000000  0.358950  0.682012  1
  W  W35  1  0.000000  0.140599  0.180926  1
