# generated using pymatgen
data_DyEr3Lu4(ReC2)4
_symmetry_space_group_name_H-M   'P 1'
_cell_length_a   5.02897600
_cell_length_b   6.53608911
_cell_length_c   9.72604913
_cell_angle_alpha   90.09195985
_cell_angle_beta   90.00000000
_cell_angle_gamma   90.00000000
_symmetry_Int_Tables_number   1
_chemical_formula_structural   DyEr3Lu4(ReC2)4
_chemical_formula_sum   'Dy1 Er3 Lu4 Re4 C8'
_cell_volume   319.69322074
_cell_formula_units_Z   1
loop_
 _symmetry_equiv_pos_site_id
 _symmetry_equiv_pos_as_xyz
  1  'x, y, z'
loop_
 _atom_site_type_symbol
 _atom_site_label
 _atom_site_symmetry_multiplicity
 _atom_site_fract_x
 _atom_site_fract_y
 _atom_site_fract_z
 _atom_site_occupancy
  Dy  Dy0  1  0.750000  0.035326  0.714936  1
  Er  Er1  1  0.250000  0.464517  0.215724  1
  Er  Er2  1  0.250000  0.964495  0.284481  1
  Er  Er3  1  0.750000  0.535289  0.784487  1
  Lu  Lu4  1  0.250000  0.825616  0.941590  1
  Lu  Lu5  1  0.250000  0.326089  0.558404  1
  Lu  Lu6  1  0.750000  0.173940  0.058769  1
  Lu  Lu7  1  0.750000  0.674451  0.441177  1
  Re  Re8  1  0.250000  0.281588  0.868893  1
  Re  Re9  1  0.250000  0.780961  0.631333  1
  Re  Re10  1  0.750000  0.718234  0.131521  1
  Re  Re11  1  0.750000  0.218917  0.368522  1
  C  C12  1  0.250000  0.049854  0.740219  1
  C  C13  1  0.250000  0.549817  0.760167  1
  C  C14  1  0.750000  0.949948  0.260165  1
  C  C15  1  0.750000  0.449896  0.239797  1
  C  C16  1  0.250000  0.670614  0.447075  1
  C  C17  1  0.250000  0.170797  0.052905  1
  C  C18  1  0.750000  0.331258  0.552188  1
  C  C19  1  0.750000  0.828393  0.947646  1
