# generated using pymatgen
data_Dy5Si12Ni12Ru7
_symmetry_space_group_name_H-M   'P 1'
_cell_length_a   12.52991252
_cell_length_b   12.45669784
_cell_length_c   3.79625800
_cell_angle_alpha   90.00000000
_cell_angle_beta   90.00000000
_cell_angle_gamma   119.88605246
_symmetry_Int_Tables_number   1
_chemical_formula_structural   Dy5Si12Ni12Ru7
_chemical_formula_sum   'Dy5 Si12 Ni12 Ru7'
_cell_volume   513.72989392
_cell_formula_units_Z   1
loop_
 _symmetry_equiv_pos_site_id
 _symmetry_equiv_pos_as_xyz
  1  'x, y, z'
loop_
 _atom_site_type_symbol
 _atom_site_label
 _atom_site_symmetry_multiplicity
 _atom_site_fract_x
 _atom_site_fract_y
 _atom_site_fract_z
 _atom_site_occupancy
  Dy  Dy0  1  0.666965  0.332581  0.000000  1
  Dy  Dy1  1  0.333523  0.665286  0.000000  1
  Dy  Dy2  1  0.186352  0.186269  0.500000  1
  Dy  Dy3  1  0.816565  0.003014  0.500000  1
  Dy  Dy4  1  0.998011  0.815049  0.500000  1
  Si  Si5  1  0.367910  0.370840  0.000000  1
  Si  Si6  1  0.630806  0.997634  0.000000  1
  Si  Si7  1  0.001323  0.630237  0.000000  1
  Si  Si8  1  0.843129  0.319820  0.500000  1
  Si  Si9  1  0.677100  0.522434  0.500000  1
  Si  Si10  1  0.477034  0.155163  0.500000  1
  Si  Si11  1  0.322798  0.842924  0.500000  1
  Si  Si12  1  0.521299  0.681284  0.500000  1
  Si  Si13  1  0.159435  0.476294  0.500000  1
  Si  Si14  1  0.816097  0.820720  0.000000  1
  Si  Si15  1  0.178879  0.999262  0.000000  1
  Si  Si16  1  0.003320  0.181974  0.000000  1
  Ni  Ni17  1  0.826513  0.196706  0.000000  1
  Ni  Ni18  1  0.801767  0.629168  0.000000  1
  Ni  Ni19  1  0.370585  0.173281  0.000000  1
  Ni  Ni20  1  0.197711  0.825736  0.000000  1
  Ni  Ni21  1  0.624492  0.806312  0.000000  1
  Ni  Ni22  1  0.181899  0.374678  0.000000  1
  Ni  Ni23  1  0.520261  0.871061  0.500000  1
  Ni  Ni24  1  0.352806  0.481515  0.500000  1
  Ni  Ni25  1  0.720001  0.722133  0.500000  1
  Ni  Ni26  1  0.277586  0.999054  0.500000  1
  Ni  Ni27  1  0.999624  0.276836  0.500000  1
  Ni  Ni28  1  0.999204  0.998312  0.000000  1
  Ru  Ru29  1  0.557441  0.563254  0.000000  1
  Ru  Ru30  1  0.440717  0.997074  0.000000  1
  Ru  Ru31  1  0.003295  0.438779  0.000000  1
  Ru  Ru32  1  0.649118  0.123221  0.500000  1
  Ru  Ru33  1  0.871363  0.522431  0.500000  1
  Ru  Ru34  1  0.474273  0.350113  0.500000  1
  Ru  Ru35  1  0.130798  0.649554  0.500000  1
