# generated using pymatgen
data_TbYb2Y(Ga2Ag)4
_symmetry_space_group_name_H-M   'P 1'
_cell_length_a   4.33142100
_cell_length_b   6.98599916
_cell_length_c   10.35583223
_cell_angle_alpha   90.02428898
_cell_angle_beta   90.00000000
_cell_angle_gamma   90.00000000
_symmetry_Int_Tables_number   1
_chemical_formula_structural   TbYb2Y(Ga2Ag)4
_chemical_formula_sum   'Tb1 Yb2 Y1 Ga8 Ag4'
_cell_volume   313.36024189
_cell_formula_units_Z   1
loop_
 _symmetry_equiv_pos_site_id
 _symmetry_equiv_pos_as_xyz
  1  'x, y, z'
loop_
 _atom_site_type_symbol
 _atom_site_label
 _atom_site_symmetry_multiplicity
 _atom_site_fract_x
 _atom_site_fract_y
 _atom_site_fract_z
 _atom_site_occupancy
  Tb  Tb0  1  0.250000  0.280584  0.671505  1
  Yb  Yb1  1  0.750000  0.223934  0.173158  1
  Yb  Yb2  1  0.750000  0.723599  0.326994  1
  Y  Y3  1  0.250000  0.780343  0.828273  1
  Ga  Ga4  1  0.250000  0.926633  0.150587  1
  Ga  Ga5  1  0.750000  0.075308  0.844161  1
  Ga  Ga6  1  0.750000  0.575588  0.655790  1
  Ga  Ga7  1  0.250000  0.426305  0.349538  1
  Ga  Ga8  1  0.250000  0.700547  0.534284  1
  Ga  Ga9  1  0.750000  0.298433  0.465113  1
  Ga  Ga10  1  0.750000  0.798048  0.034833  1
  Ga  Ga11  1  0.250000  0.200017  0.965791  1
  Ag  Ag12  1  0.250000  0.539589  0.099236  1
  Ag  Ag13  1  0.750000  0.455757  0.903128  1
  Ag  Ag14  1  0.750000  0.955924  0.596844  1
  Ag  Ag15  1  0.250000  0.039390  0.400764  1
