# generated using pymatgen
data_Lu10Si16Rh
_symmetry_space_group_name_H-M   'P 1'
_cell_length_a   6.63484408
_cell_length_b   8.06151488
_cell_length_c   10.92095337
_cell_angle_alpha   111.65917907
_cell_angle_beta   107.68398114
_cell_angle_gamma   89.99999653
_symmetry_Int_Tables_number   1
_chemical_formula_structural   Lu10Si16Rh
_chemical_formula_sum   'Lu10 Si16 Rh1'
_cell_volume   513.06990957
_cell_formula_units_Z   1
loop_
 _symmetry_equiv_pos_site_id
 _symmetry_equiv_pos_as_xyz
  1  'x, y, z'
loop_
 _atom_site_type_symbol
 _atom_site_label
 _atom_site_symmetry_multiplicity
 _atom_site_fract_x
 _atom_site_fract_y
 _atom_site_fract_z
 _atom_site_occupancy
  Lu  Lu0  1  0.243961  0.241395  0.000000  1
  Lu  Lu1  1  0.243961  0.758605  0.000000  1
  Lu  Lu2  1  0.831596  0.353997  0.204810  1
  Lu  Lu3  1  0.831596  0.850814  0.204810  1
  Lu  Lu4  1  0.438210  0.449525  0.399115  1
  Lu  Lu5  1  0.438210  0.949591  0.399115  1
  Lu  Lu6  1  0.039093  0.050409  0.600886  1
  Lu  Lu7  1  0.039093  0.550475  0.600886  1
  Lu  Lu8  1  0.626786  0.149186  0.795189  1
  Lu  Lu9  1  0.626786  0.646004  0.795189  1
  Si  Si10  1  0.916916  0.000000  0.000000  1
  Si  Si11  1  0.622460  0.500000  0.000000  1
  Si  Si12  1  0.117678  0.578594  0.157188  1
  Si  Si13  1  0.498049  0.599843  0.199688  1
  Si  Si14  1  0.501733  0.103979  0.207958  1
  Si  Si15  1  0.158869  0.117756  0.235511  1
  Si  Si16  1  0.816823  0.202719  0.405440  1
  Si  Si17  1  0.098637  0.696818  0.393636  1
  Si  Si18  1  0.758149  0.716265  0.432531  1
  Si  Si19  1  0.325619  0.283735  0.567469  1
  Si  Si20  1  0.705001  0.303182  0.606363  1
  Si  Si21  1  0.411383  0.797281  0.594560  1
  Si  Si22  1  0.923358  0.882244  0.764489  1
  Si  Si23  1  0.293773  0.896020  0.792041  1
  Si  Si24  1  0.298362  0.400157  0.800313  1
  Si  Si25  1  0.960490  0.421406  0.842812  1
  Rh  Rh26  1  0.571911  0.000000  0.000000  1
