# generated using pymatgen
data_Na3GaP3Ir4
_symmetry_space_group_name_H-M   'P 1'
_cell_length_a   6.34616760
_cell_length_b   6.59009621
_cell_length_c   6.34616786
_cell_angle_alpha   110.25175371
_cell_angle_beta   108.67954860
_cell_angle_gamma   110.25174443
_symmetry_Int_Tables_number   1
_chemical_formula_structural   Na3GaP3Ir4
_chemical_formula_sum   'Na3 Ga1 P3 Ir4'
_cell_volume   202.31053033
_cell_formula_units_Z   1
loop_
 _symmetry_equiv_pos_site_id
 _symmetry_equiv_pos_as_xyz
  1  'x, y, z'
loop_
 _atom_site_type_symbol
 _atom_site_label
 _atom_site_symmetry_multiplicity
 _atom_site_fract_x
 _atom_site_fract_y
 _atom_site_fract_z
 _atom_site_occupancy
  Na  Na0  1  0.497307  0.993052  0.497307  1
  Na  Na1  1  0.502693  0.495746  0.000000  1
  Na  Na2  1  0.000000  0.495746  0.502693  1
  Ga  Ga3  1  0.000000  0.371337  0.000000  1
  P  P4  1  0.636417  0.643930  0.636417  1
  P  P5  1  0.000000  0.007513  0.363583  1
  P  P6  1  0.363583  0.007513  0.000000  1
  Ir  Ir7  1  0.000000  0.742410  0.000000  1
  Ir  Ir8  1  0.000000  0.982743  0.705477  1
  Ir  Ir9  1  0.294523  0.277266  0.294523  1
  Ir  Ir10  1  0.705477  0.982743  0.000000  1
