# generated using pymatgen
data_Nb6SI9N
_symmetry_space_group_name_H-M   'P 1'
_cell_length_a   10.80314872
_cell_length_b   10.90144263
_cell_length_c   12.06768586
_cell_angle_alpha   105.22639651
_cell_angle_beta   105.38223760
_cell_angle_gamma   113.78649377
_symmetry_Int_Tables_number   1
_chemical_formula_structural   Nb6SI9N
_chemical_formula_sum   'Nb12 S2 I18 N2'
_cell_volume   1138.55797470
_cell_formula_units_Z   2
loop_
 _symmetry_equiv_pos_site_id
 _symmetry_equiv_pos_as_xyz
  1  'x, y, z'
loop_
 _atom_site_type_symbol
 _atom_site_label
 _atom_site_symmetry_multiplicity
 _atom_site_fract_x
 _atom_site_fract_y
 _atom_site_fract_z
 _atom_site_occupancy
  Nb  Nb0  1  0.190366  0.120393  0.178057  1
  Nb  Nb1  1  0.809634  0.879607  0.821943  1
  Nb  Nb2  1  0.930153  0.811345  0.042446  1
  Nb  Nb3  1  0.069847  0.188655  0.957554  1
  Nb  Nb4  1  0.879592  0.067079  0.091870  1
  Nb  Nb5  1  0.120408  0.932921  0.908130  1
  Nb  Nb6  1  0.190211  0.120102  0.469309  1
  Nb  Nb7  1  0.809789  0.879898  0.530691  1
  Nb  Nb8  1  0.879795  0.067174  0.382826  1
  Nb  Nb9  1  0.120205  0.932826  0.617174  1
  Nb  Nb10  1  0.929884  0.811329  0.334893  1
  Nb  Nb11  1  0.070116  0.188671  0.665107  1
  S  S12  1  0.999862  0.998963  0.249671  1
  S  S13  1  0.000138  0.001037  0.750329  1
  I  I14  1  0.631794  0.765002  0.950478  1
  I  I15  1  0.368206  0.234998  0.049522  1
  I  I16  1  0.555029  0.722840  0.578431  1
  I  I17  1  0.444971  0.277160  0.421569  1
  I  I18  1  0.135509  0.363896  0.524262  1
  I  I19  1  0.864491  0.636104  0.475738  1
  I  I20  1  0.837154  0.559423  0.106928  1
  I  I21  1  0.162846  0.440577  0.893072  1
  I  I22  1  0.233140  0.869077  0.117345  1
  I  I23  1  0.766860  0.130923  0.882655  1
  I  I24  1  0.718003  0.156643  0.220263  1
  I  I25  1  0.281997  0.843357  0.779737  1
  I  I26  1  0.135408  0.364047  0.212716  1
  I  I27  1  0.864592  0.635953  0.787284  1
  I  I28  1  0.232798  0.867949  0.431232  1
  I  I29  1  0.767202  0.132051  0.568768  1
  I  I30  1  0.630995  0.765233  0.263350  1
  I  I31  1  0.369005  0.234767  0.736650  1
  N  N32  1  0.000000  0.000000  0.500000  1
  N  N33  1  0.000000  0.000000  0.000000  1
