# generated using pymatgen
data_Li2YTmPt2
_symmetry_space_group_name_H-M   'P 1'
_cell_length_a   4.00758600
_cell_length_b   6.97389787
_cell_length_c   8.35983400
_cell_angle_alpha   89.11396211
_cell_angle_beta   90.00000000
_cell_angle_gamma   90.00000000
_symmetry_Int_Tables_number   1
_chemical_formula_structural   Li2YTmPt2
_chemical_formula_sum   'Li4 Y2 Tm2 Pt4'
_cell_volume   233.61684573
_cell_formula_units_Z   2
loop_
 _symmetry_equiv_pos_site_id
 _symmetry_equiv_pos_as_xyz
  1  'x, y, z'
loop_
 _atom_site_type_symbol
 _atom_site_label
 _atom_site_symmetry_multiplicity
 _atom_site_fract_x
 _atom_site_fract_y
 _atom_site_fract_z
 _atom_site_occupancy
  Li  Li0  1  0.250000  0.630409  0.558508  1
  Li  Li1  1  0.750000  0.369591  0.441492  1
  Li  Li2  1  0.750000  0.873987  0.058493  1
  Li  Li3  1  0.250000  0.126013  0.941507  1
  Y  Y4  1  0.250000  0.544813  0.181828  1
  Y  Y5  1  0.750000  0.455187  0.818172  1
  Tm  Tm6  1  0.750000  0.954789  0.677827  1
  Tm  Tm7  1  0.250000  0.045211  0.322173  1
  Pt  Pt8  1  0.250000  0.750455  0.872169  1
  Pt  Pt9  1  0.750000  0.249545  0.127831  1
  Pt  Pt10  1  0.750000  0.757813  0.378077  1
  Pt  Pt11  1  0.250000  0.242187  0.621923  1
