# generated using pymatgen
data_Yb8FeSi16Tc11
_symmetry_space_group_name_H-M   'P 1'
_cell_length_a   6.75142206
_cell_length_b   6.74547955
_cell_length_c   12.55883266
_cell_angle_alpha   89.89948307
_cell_angle_beta   89.82741699
_cell_angle_gamma   90.00608652
_symmetry_Int_Tables_number   1
_chemical_formula_structural   Yb8FeSi16Tc11
_chemical_formula_sum   'Yb8 Fe1 Si16 Tc11'
_cell_volume   571.94559682
_cell_formula_units_Z   1
loop_
 _symmetry_equiv_pos_site_id
 _symmetry_equiv_pos_as_xyz
  1  'x, y, z'
loop_
 _atom_site_type_symbol
 _atom_site_label
 _atom_site_symmetry_multiplicity
 _atom_site_fract_x
 _atom_site_fract_y
 _atom_site_fract_z
 _atom_site_occupancy
  Yb  Yb0  1  0.332958  0.006324  0.472964  1
  Yb  Yb1  1  0.493005  0.830930  0.724190  1
  Yb  Yb2  1  0.506651  0.169591  0.223334  1
  Yb  Yb3  1  0.833097  0.495828  0.278563  1
  Yb  Yb4  1  0.165464  0.504232  0.776046  1
  Yb  Yb5  1  0.669754  0.992282  0.970176  1
  Yb  Yb6  1  0.008012  0.329219  0.527496  1
  Yb  Yb7  1  0.992976  0.670023  0.026122  1
  Fe  Fe8  1  0.011103  0.826858  0.620436  1
  Si  Si9  1  0.186687  0.111132  0.690918  1
  Si  Si10  1  0.376753  0.694044  0.940397  1
  Si  Si11  1  0.623512  0.305690  0.441450  1
  Si  Si12  1  0.695052  0.375618  0.059340  1
  Si  Si13  1  0.304289  0.625877  0.560379  1
  Si  Si14  1  0.806474  0.877702  0.189586  1
  Si  Si15  1  0.122513  0.193902  0.309849  1
  Si  Si16  1  0.884756  0.811451  0.803842  1
  Si  Si17  1  0.288347  0.973216  0.068768  1
  Si  Si18  1  0.527336  0.784883  0.317719  1
  Si  Si19  1  0.469499  0.215417  0.817772  1
  Si  Si20  1  0.782563  0.525822  0.680713  1
  Si  Si21  1  0.214207  0.474352  0.182723  1
  Si  Si22  1  0.719874  0.022336  0.568547  1
  Si  Si23  1  0.972514  0.286987  0.932780  1
  Si  Si24  1  0.025074  0.718907  0.434736  1
  Tc  Tc25  1  0.333185  0.335326  0.001094  1
  Tc  Tc26  1  0.168296  0.832854  0.250396  1
  Tc  Tc27  1  0.831671  0.166516  0.747354  1
  Tc  Tc28  1  0.669654  0.665885  0.503087  1
  Tc  Tc29  1  0.173510  0.993556  0.878966  1
  Tc  Tc30  1  0.511266  0.670487  0.124741  1
  Tc  Tc31  1  0.482569  0.328683  0.624809  1
  Tc  Tc32  1  0.671452  0.509523  0.874298  1
  Tc  Tc33  1  0.328753  0.491796  0.377284  1
  Tc  Tc34  1  0.826934  0.011139  0.374181  1
  Tc  Tc35  1  0.990241  0.171612  0.124944  1
