# generated using pymatgen
data_NdY2Er(WN3)4
_symmetry_space_group_name_H-M   'P 1'
_cell_length_a   7.34111381
_cell_length_b   7.34111402
_cell_length_c   6.28425434
_cell_angle_alpha   74.40111465
_cell_angle_beta   74.40112297
_cell_angle_gamma   82.34899287
_symmetry_Int_Tables_number   1
_chemical_formula_structural   NdY2Er(WN3)4
_chemical_formula_sum   'Nd1 Y2 Er1 W4 N12'
_cell_volume   313.50604370
_cell_formula_units_Z   1
loop_
 _symmetry_equiv_pos_site_id
 _symmetry_equiv_pos_as_xyz
  1  'x, y, z'
loop_
 _atom_site_type_symbol
 _atom_site_label
 _atom_site_symmetry_multiplicity
 _atom_site_fract_x
 _atom_site_fract_y
 _atom_site_fract_z
 _atom_site_occupancy
  Nd  Nd0  1  0.703750  0.296250  0.750000  1
  Y  Y1  1  0.292426  0.707574  0.250000  1
  Y  Y2  1  0.913573  0.086427  0.250000  1
  Er  Er3  1  0.091369  0.908631  0.750000  1
  W  W4  1  0.378787  0.200061  0.240162  1
  W  W5  1  0.618450  0.800054  0.764145  1
  W  W6  1  0.799939  0.621213  0.259838  1
  W  W7  1  0.199946  0.381550  0.735855  1
  N  N8  1  0.622143  0.110836  0.166520  1
  N  N9  1  0.354667  0.362405  0.446401  1
  N  N10  1  0.007211  0.213114  0.848287  1
  N  N11  1  0.375263  0.891683  0.839663  1
  N  N12  1  0.786886  0.992789  0.651713  1
  N  N13  1  0.108317  0.624737  0.660337  1
  N  N14  1  0.889164  0.377857  0.333480  1
  N  N15  1  0.646559  0.646212  0.547760  1
  N  N16  1  0.637595  0.645333  0.053599  1
  N  N17  1  0.353788  0.353441  0.952240  1
  N  N18  1  0.001206  0.781040  0.147057  1
  N  N19  1  0.218960  0.998794  0.352943  1
