# generated using pymatgen
data_Ho3Lu2Pt9
_symmetry_space_group_name_H-M   'P 1'
_cell_length_a   9.68882444
_cell_length_b   9.72456241
_cell_length_c   5.74336100
_cell_angle_alpha   90.00000000
_cell_angle_beta   90.00000000
_cell_angle_gamma   90.10937181
_symmetry_Int_Tables_number   1
_chemical_formula_structural   Ho3Lu2Pt9
_chemical_formula_sum   'Ho6 Lu4 Pt18'
_cell_volume   541.13606307
_cell_formula_units_Z   2
loop_
 _symmetry_equiv_pos_site_id
 _symmetry_equiv_pos_as_xyz
  1  'x, y, z'
loop_
 _atom_site_type_symbol
 _atom_site_label
 _atom_site_symmetry_multiplicity
 _atom_site_fract_x
 _atom_site_fract_y
 _atom_site_fract_z
 _atom_site_occupancy
  Ho  Ho0  1  0.452251  0.809559  0.000000  1
  Ho  Ho1  1  0.547749  0.190441  0.000000  1
  Ho  Ho2  1  0.189934  0.547532  0.000000  1
  Ho  Ho3  1  0.810066  0.452468  0.000000  1
  Ho  Ho4  1  0.309230  0.047882  0.500000  1
  Ho  Ho5  1  0.690770  0.952118  0.500000  1
  Lu  Lu6  1  0.500000  0.500000  0.500000  1
  Lu  Lu7  1  0.952275  0.690157  0.500000  1
  Lu  Lu8  1  0.047725  0.309843  0.500000  1
  Lu  Lu9  1  0.000000  0.000000  0.000000  1
  Pt  Pt10  1  0.189102  0.808590  0.251511  1
  Pt  Pt11  1  0.810898  0.191410  0.748489  1
  Pt  Pt12  1  0.810898  0.191410  0.251511  1
  Pt  Pt13  1  0.189102  0.808590  0.748489  1
  Pt  Pt14  1  0.439950  0.779328  0.500000  1
  Pt  Pt15  1  0.560050  0.220672  0.500000  1
  Pt  Pt16  1  0.217439  0.558543  0.500000  1
  Pt  Pt17  1  0.782561  0.441457  0.500000  1
  Pt  Pt18  1  0.307592  0.309304  0.249577  1
  Pt  Pt19  1  0.692408  0.690696  0.750423  1
  Pt  Pt20  1  0.692408  0.690696  0.249577  1
  Pt  Pt21  1  0.307592  0.309304  0.750423  1
  Pt  Pt22  1  0.279890  0.059490  0.000000  1
  Pt  Pt23  1  0.720110  0.940510  0.000000  1
  Pt  Pt24  1  0.940852  0.720179  0.000000  1
  Pt  Pt25  1  0.059148  0.279821  0.000000  1
  Pt  Pt26  1  0.000000  0.000000  0.500000  1
  Pt  Pt27  1  0.500000  0.500000  0.000000  1
