# generated using pymatgen
data_Ho7Er3In8Cu3Ni
_symmetry_space_group_name_H-M   'P 1'
_cell_length_a   3.60414800
_cell_length_b   7.99670300
_cell_length_c   17.93861266
_cell_angle_alpha   90.01587457
_cell_angle_beta   90.00000000
_cell_angle_gamma   90.00000000
_symmetry_Int_Tables_number   1
_chemical_formula_structural   Ho7Er3In8Cu3Ni
_chemical_formula_sum   'Ho7 Er3 In8 Cu3 Ni1'
_cell_volume   517.01413726
_cell_formula_units_Z   1
loop_
 _symmetry_equiv_pos_site_id
 _symmetry_equiv_pos_as_xyz
  1  'x, y, z'
loop_
 _atom_site_type_symbol
 _atom_site_label
 _atom_site_symmetry_multiplicity
 _atom_site_fract_x
 _atom_site_fract_y
 _atom_site_fract_z
 _atom_site_occupancy
  Ho  Ho0  1  0.000000  0.499992  0.499547  1
  Ho  Ho1  1  0.000000  0.000169  0.000203  1
  Ho  Ho2  1  0.000000  0.755184  0.281614  1
  Ho  Ho3  1  0.000000  0.258002  0.719222  1
  Ho  Ho4  1  0.000000  0.757881  0.779624  1
  Ho  Ho5  1  0.000000  0.235316  0.222467  1
  Ho  Ho6  1  0.000000  0.618430  0.084100  1
  Er  Er7  1  0.000000  0.379399  0.916703  1
  Er  Er8  1  0.000000  0.878703  0.582718  1
  Er  Er9  1  0.000000  0.116770  0.412918  1
  In  In10  1  0.500000  0.706525  0.930553  1
  In  In11  1  0.500000  0.291605  0.070299  1
  In  In12  1  0.500000  0.794957  0.431489  1
  In  In13  1  0.500000  0.205108  0.567180  1
  In  In14  1  0.500000  0.576580  0.650127  1
  In  In15  1  0.500000  0.425213  0.349136  1
  In  In16  1  0.500000  0.924454  0.151004  1
  In  In17  1  0.500000  0.076251  0.849297  1
  Cu  Cu18  1  0.500000  0.528327  0.198528  1
  Cu  Cu19  1  0.500000  0.471214  0.802903  1
  Cu  Cu20  1  0.500000  0.971334  0.696215  1
  Ni  Ni21  1  0.500000  0.028584  0.304149  1
