# generated using pymatgen
data_Tb6Zn23Se
_symmetry_space_group_name_H-M   'P 1'
_cell_length_a   9.10319824
_cell_length_b   9.10319799
_cell_length_c   9.10319900
_cell_angle_alpha   59.99999997
_cell_angle_beta   60.00000087
_cell_angle_gamma   59.99999968
_symmetry_Int_Tables_number   1
_chemical_formula_structural   Tb6Zn23Se
_chemical_formula_sum   'Tb6 Zn23 Se1'
_cell_volume   533.41721748
_cell_formula_units_Z   1
loop_
 _symmetry_equiv_pos_site_id
 _symmetry_equiv_pos_as_xyz
  1  'x, y, z'
loop_
 _atom_site_type_symbol
 _atom_site_label
 _atom_site_symmetry_multiplicity
 _atom_site_fract_x
 _atom_site_fract_y
 _atom_site_fract_z
 _atom_site_occupancy
  Tb  Tb0  1  0.718739  0.281261  0.281261  1
  Tb  Tb1  1  0.718739  0.281261  0.718739  1
  Tb  Tb2  1  0.718739  0.718739  0.281261  1
  Tb  Tb3  1  0.281261  0.718739  0.718739  1
  Tb  Tb4  1  0.281261  0.718739  0.281261  1
  Tb  Tb5  1  0.281261  0.281261  0.718739  1
  Zn  Zn6  1  0.622324  0.125893  0.125893  1
  Zn  Zn7  1  0.125893  0.622324  0.125893  1
  Zn  Zn8  1  0.125893  0.125893  0.622324  1
  Zn  Zn9  1  0.125893  0.125893  0.125893  1
  Zn  Zn10  1  0.377676  0.874107  0.874107  1
  Zn  Zn11  1  0.874107  0.377676  0.874107  1
  Zn  Zn12  1  0.874107  0.874107  0.377676  1
  Zn  Zn13  1  0.874107  0.874107  0.874107  1
  Zn  Zn14  1  0.500000  0.000000  0.000000  1
  Zn  Zn15  1  0.500000  0.000000  0.500000  1
  Zn  Zn16  1  0.500000  0.500000  0.000000  1
  Zn  Zn17  1  0.000000  0.500000  0.500000  1
  Zn  Zn18  1  0.000000  0.500000  0.000000  1
  Zn  Zn19  1  0.000000  0.000000  0.500000  1
  Zn  Zn20  1  0.000000  0.000000  0.000000  1
  Zn  Zn21  1  0.013451  0.328849  0.328849  1
  Zn  Zn22  1  0.328849  0.013451  0.328849  1
  Zn  Zn23  1  0.328849  0.328849  0.013451  1
  Zn  Zn24  1  0.328849  0.328849  0.328849  1
  Zn  Zn25  1  0.986549  0.671151  0.671151  1
  Zn  Zn26  1  0.671151  0.986549  0.671151  1
  Zn  Zn27  1  0.671151  0.671151  0.986549  1
  Zn  Zn28  1  0.671151  0.671151  0.671151  1
  Se  Se29  1  0.500000  0.500000  0.500000  1
