# generated using pymatgen
data_AlV6GaIr8
_symmetry_space_group_name_H-M   'P 1'
_cell_length_a   8.74973563
_cell_length_b   8.74973475
_cell_length_c   6.66031552
_cell_angle_alpha   69.36928853
_cell_angle_beta   69.36929042
_cell_angle_gamma   80.84320591
_symmetry_Int_Tables_number   1
_chemical_formula_structural   AlV6GaIr8
_chemical_formula_sum   'Al2 V12 Ga2 Ir16'
_cell_volume   446.24110720
_cell_formula_units_Z   2
loop_
 _symmetry_equiv_pos_site_id
 _symmetry_equiv_pos_as_xyz
  1  'x, y, z'
loop_
 _atom_site_type_symbol
 _atom_site_label
 _atom_site_symmetry_multiplicity
 _atom_site_fract_x
 _atom_site_fract_y
 _atom_site_fract_z
 _atom_site_occupancy
  Al  Al0  1  0.875516  0.124484  0.000000  1
  Al  Al1  1  0.124484  0.875516  0.000000  1
  V  V2  1  0.013037  0.262790  0.276200  1
  V  V3  1  0.262790  0.013037  0.276200  1
  V  V4  1  0.763381  0.513247  0.276258  1
  V  V5  1  0.513247  0.763381  0.276258  1
  V  V6  1  0.124434  0.374320  0.501387  1
  V  V7  1  0.374320  0.124434  0.501387  1
  V  V8  1  0.875566  0.625680  0.498613  1
  V  V9  1  0.625680  0.875566  0.498613  1
  V  V10  1  0.737210  0.986963  0.723800  1
  V  V11  1  0.986963  0.737210  0.723800  1
  V  V12  1  0.486753  0.236619  0.723742  1
  V  V13  1  0.236619  0.486753  0.723742  1
  Ga  Ga14  1  0.625748  0.374252  0.000000  1
  Ga  Ga15  1  0.374252  0.625748  0.000000  1
  Ir  Ir16  1  0.320750  0.320750  0.104757  1
  Ir  Ir17  1  0.051314  0.051314  0.644625  1
  Ir  Ir18  1  0.822518  0.822518  0.103720  1
  Ir  Ir19  1  0.552867  0.552867  0.641572  1
  Ir  Ir20  1  0.447133  0.447133  0.358428  1
  Ir  Ir21  1  0.177482  0.177482  0.896280  1
  Ir  Ir22  1  0.948686  0.948686  0.355375  1
  Ir  Ir23  1  0.679250  0.679250  0.895243  1
  Ir  Ir24  1  0.070935  0.572059  0.104411  1
  Ir  Ir25  1  0.572059  0.070935  0.104411  1
  Ir  Ir26  1  0.802752  0.301621  0.642785  1
  Ir  Ir27  1  0.301621  0.802752  0.642785  1
  Ir  Ir28  1  0.197248  0.698379  0.357215  1
  Ir  Ir29  1  0.698379  0.197248  0.357215  1
  Ir  Ir30  1  0.929065  0.427941  0.895589  1
  Ir  Ir31  1  0.427941  0.929065  0.895589  1
