# generated using pymatgen
data_La8Nd8AlCd3Ir4
_symmetry_space_group_name_H-M   'P 1'
_cell_length_a   10.01371085
_cell_length_b   10.01371043
_cell_length_c   10.07720163
_cell_angle_alpha   59.77772288
_cell_angle_beta   59.77771738
_cell_angle_gamma   60.44768407
_symmetry_Int_Tables_number   1
_chemical_formula_structural   La8Nd8AlCd3Ir4
_chemical_formula_sum   'La8 Nd8 Al1 Cd3 Ir4'
_cell_volume   714.47249321
_cell_formula_units_Z   1
loop_
 _symmetry_equiv_pos_site_id
 _symmetry_equiv_pos_as_xyz
  1  'x, y, z'
loop_
 _atom_site_type_symbol
 _atom_site_label
 _atom_site_symmetry_multiplicity
 _atom_site_fract_x
 _atom_site_fract_y
 _atom_site_fract_z
 _atom_site_occupancy
  La  La0  1  0.345868  0.345868  0.348870  1
  La  La1  1  0.348627  0.348627  0.954545  1
  La  La2  1  0.351913  0.955017  0.348051  1
  La  La3  1  0.955017  0.351913  0.348051  1
  La  La4  1  0.811060  0.189061  0.189037  1
  La  La5  1  0.190920  0.807326  0.807614  1
  La  La6  1  0.189061  0.811060  0.189037  1
  La  La7  1  0.807326  0.190920  0.807614  1
  Nd  Nd8  1  0.192449  0.192449  0.807082  1
  Nd  Nd9  1  0.802909  0.802909  0.196106  1
  Nd  Nd10  1  0.934897  0.564556  0.565101  1
  Nd  Nd11  1  0.563021  0.935530  0.935998  1
  Nd  Nd12  1  0.564556  0.934897  0.565101  1
  Nd  Nd13  1  0.935530  0.563021  0.935998  1
  Nd  Nd14  1  0.562169  0.562169  0.937808  1
  Nd  Nd15  1  0.937945  0.937945  0.561940  1
  Al  Al16  1  0.582144  0.582144  0.578269  1
  Cd  Cd17  1  0.580963  0.580963  0.261706  1
  Cd  Cd18  1  0.578887  0.261702  0.580639  1
  Cd  Cd19  1  0.261702  0.578887  0.580639  1
  Ir  Ir20  1  0.139572  0.139572  0.144428  1
  Ir  Ir21  1  0.139806  0.139806  0.577256  1
  Ir  Ir22  1  0.145535  0.578123  0.139553  1
  Ir  Ir23  1  0.578123  0.145535  0.139553  1
