# generated using pymatgen
data_Th3In2GaRu2Rh
_symmetry_space_group_name_H-M   'P 1'
_cell_length_a   7.53872300
_cell_length_b   7.53630366
_cell_length_c   4.02837000
_cell_angle_alpha   90.00000000
_cell_angle_beta   90.00000000
_cell_angle_gamma   120.01063315
_symmetry_Int_Tables_number   1
_chemical_formula_structural   Th3In2GaRu2Rh
_chemical_formula_sum   'Th3 In2 Ga1 Ru2 Rh1'
_cell_volume   198.18446867
_cell_formula_units_Z   1
loop_
 _symmetry_equiv_pos_site_id
 _symmetry_equiv_pos_as_xyz
  1  'x, y, z'
loop_
 _atom_site_type_symbol
 _atom_site_label
 _atom_site_symmetry_multiplicity
 _atom_site_fract_x
 _atom_site_fract_y
 _atom_site_fract_z
 _atom_site_occupancy
  Th  Th0  1  0.995883  0.408914  0.500000  1
  Th  Th1  1  0.586970  0.591086  0.500000  1
  Th  Th2  1  0.433682  0.000000  0.500000  1
  In  In3  1  0.006457  0.760529  0.000000  1
  In  In4  1  0.245927  0.239471  0.000000  1
  Ga  Ga5  1  0.748975  0.000000  0.000000  1
  Ru  Ru6  1  0.342069  0.668957  0.000000  1
  Ru  Ru7  1  0.673112  0.331043  0.000000  1
  Rh  Rh8  1  0.966926  0.000000  0.500000  1
