# generated using pymatgen
data_Dy5Y4HoRu4
_symmetry_space_group_name_H-M   'P 1'
_cell_length_a   6.35555892
_cell_length_b   7.31013911
_cell_length_c   8.50603992
_cell_angle_alpha   96.73723432
_cell_angle_beta   111.93725144
_cell_angle_gamma   89.99999839
_symmetry_Int_Tables_number   1
_chemical_formula_structural   Dy5Y4HoRu4
_chemical_formula_sum   'Dy5 Y4 Ho1 Ru4'
_cell_volume   363.63280411
_cell_formula_units_Z   1
loop_
 _symmetry_equiv_pos_site_id
 _symmetry_equiv_pos_as_xyz
  1  'x, y, z'
loop_
 _atom_site_type_symbol
 _atom_site_label
 _atom_site_symmetry_multiplicity
 _atom_site_fract_x
 _atom_site_fract_y
 _atom_site_fract_z
 _atom_site_occupancy
  Dy  Dy0  1  0.639841  0.814847  0.434528  1
  Dy  Dy1  1  0.205313  0.685153  0.565472  1
  Dy  Dy2  1  0.360400  0.185100  0.565708  1
  Dy  Dy3  1  0.794692  0.314900  0.434292  1
  Dy  Dy4  1  0.420981  0.750000  0.000000  1
  Y  Y5  1  0.978160  0.916087  0.186976  1
  Y  Y6  1  0.791184  0.583913  0.813024  1
  Y  Y7  1  0.021553  0.084012  0.813052  1
  Y  Y8  1  0.208503  0.415988  0.186948  1
  Ho  Ho9  1  0.579030  0.250000  0.000000  1
  Ru  Ru10  1  0.820847  0.574969  0.221325  1
  Ru  Ru11  1  0.599522  0.925031  0.778675  1
  Ru  Ru12  1  0.179296  0.424630  0.778621  1
  Ru  Ru13  1  0.400676  0.075370  0.221379  1
