# generated using pymatgen
data_CsYb(SbAu)2
_symmetry_space_group_name_H-M   'P 1'
_cell_length_a   4.63431000
_cell_length_b   4.63431070
_cell_length_c   10.26630500
_cell_angle_alpha   90.00000000
_cell_angle_beta   90.00000000
_cell_angle_gamma   119.99999499
_symmetry_Int_Tables_number   1
_chemical_formula_structural   CsYb(SbAu)2
_chemical_formula_sum   'Cs1 Yb1 Sb2 Au2'
_cell_volume   190.94796961
_cell_formula_units_Z   1
loop_
 _symmetry_equiv_pos_site_id
 _symmetry_equiv_pos_as_xyz
  1  'x, y, z'
loop_
 _atom_site_type_symbol
 _atom_site_label
 _atom_site_symmetry_multiplicity
 _atom_site_fract_x
 _atom_site_fract_y
 _atom_site_fract_z
 _atom_site_occupancy
  Cs  Cs0  1  0.000000  0.000000  0.755544  1
  Yb  Yb1  1  0.000000  0.000000  0.257959  1
  Sb  Sb2  1  0.666667  0.333333  0.039414  1
  Sb  Sb3  1  0.333333  0.666667  0.476343  1
  Au  Au4  1  0.333333  0.666667  0.087483  1
  Au  Au5  1  0.666667  0.333333  0.431257  1
