# generated using pymatgen
data_TmZr(Ga2Ni)2
_symmetry_space_group_name_H-M   'P 1'
_cell_length_a   5.30771360
_cell_length_b   5.30771360
_cell_length_c   6.45216000
_cell_angle_alpha   90.00000000
_cell_angle_beta   90.00000000
_cell_angle_gamma   134.12308662
_symmetry_Int_Tables_number   1
_chemical_formula_structural   TmZr(Ga2Ni)2
_chemical_formula_sum   'Tm1 Zr1 Ga4 Ni2'
_cell_volume   130.48220049
_cell_formula_units_Z   1
loop_
 _symmetry_equiv_pos_site_id
 _symmetry_equiv_pos_as_xyz
  1  'x, y, z'
loop_
 _atom_site_type_symbol
 _atom_site_label
 _atom_site_symmetry_multiplicity
 _atom_site_fract_x
 _atom_site_fract_y
 _atom_site_fract_z
 _atom_site_occupancy
  Tm  Tm0  1  0.423892  0.576108  0.750000  1
  Zr  Zr1  1  0.576668  0.423332  0.250000  1
  Ga  Ga2  1  0.863325  0.136675  0.053941  1
  Ga  Ga3  1  0.134785  0.865215  0.953950  1
  Ga  Ga4  1  0.134785  0.865215  0.546050  1
  Ga  Ga5  1  0.863325  0.136675  0.446059  1
  Ni  Ni6  1  0.295248  0.704752  0.250000  1
  Ni  Ni7  1  0.707973  0.292027  0.750000  1
