# generated using pymatgen
data_Dy5Ho11(In3Rh)2
_symmetry_space_group_name_H-M   'P 1'
_cell_length_a   10.40269402
_cell_length_b   10.40269390
_cell_length_c   7.00474800
_cell_angle_alpha   89.99719492
_cell_angle_beta   90.00280315
_cell_angle_gamma   119.99386075
_symmetry_Int_Tables_number   1
_chemical_formula_structural   Dy5Ho11(In3Rh)2
_chemical_formula_sum   'Dy5 Ho11 In6 Rh2'
_cell_volume   656.51046721
_cell_formula_units_Z   1
loop_
 _symmetry_equiv_pos_site_id
 _symmetry_equiv_pos_as_xyz
  1  'x, y, z'
loop_
 _atom_site_type_symbol
 _atom_site_label
 _atom_site_symmetry_multiplicity
 _atom_site_fract_x
 _atom_site_fract_y
 _atom_site_fract_z
 _atom_site_occupancy
  Dy  Dy0  1  0.532711  0.065439  0.507497  1
  Dy  Dy1  1  0.934561  0.467289  0.507497  1
  Dy  Dy2  1  0.532663  0.467337  0.507517  1
  Dy  Dy3  1  0.467275  0.934501  0.007482  1
  Dy  Dy4  1  0.065499  0.532725  0.007482  1
  Ho  Ho5  1  0.467185  0.532815  0.007594  1
  Ho  Ho6  1  0.176417  0.352678  0.713270  1
  Ho  Ho7  1  0.647322  0.823583  0.713270  1
  Ho  Ho8  1  0.176267  0.823733  0.713174  1
  Ho  Ho9  1  0.823554  0.647354  0.213030  1
  Ho  Ho10  1  0.352646  0.176446  0.213030  1
  Ho  Ho11  1  0.823711  0.176289  0.213153  1
  Ho  Ho12  1  0.666602  0.333398  0.887695  1
  Ho  Ho13  1  0.333410  0.666590  0.387555  1
  Ho  Ho14  1  0.000010  0.999990  0.493524  1
  Ho  Ho15  1  0.000003  0.999997  0.993575  1
  In  In16  1  0.837435  0.674881  0.751451  1
  In  In17  1  0.325119  0.162565  0.751451  1
  In  In18  1  0.837437  0.162563  0.751440  1
  In  In19  1  0.162615  0.325165  0.251391  1
  In  In20  1  0.674835  0.837385  0.251391  1
  In  In21  1  0.162560  0.837440  0.251445  1
  Rh  Rh22  1  0.666660  0.333340  0.281503  1
  Rh  Rh23  1  0.333504  0.666496  0.781624  1
