# generated using pymatgen
data_Dy11Lu7(ZrIr6)2
_symmetry_space_group_name_H-M   'P 1'
_cell_length_a   10.77466601
_cell_length_b   10.82448146
_cell_length_c   6.27661176
_cell_angle_alpha   89.96997399
_cell_angle_beta   89.95249186
_cell_angle_gamma   89.98537209
_symmetry_Int_Tables_number   1
_chemical_formula_structural   Dy11Lu7(ZrIr6)2
_chemical_formula_sum   'Dy11 Lu7 Zr2 Ir12'
_cell_volume   732.04193572
_cell_formula_units_Z   1
loop_
 _symmetry_equiv_pos_site_id
 _symmetry_equiv_pos_as_xyz
  1  'x, y, z'
loop_
 _atom_site_type_symbol
 _atom_site_label
 _atom_site_symmetry_multiplicity
 _atom_site_fract_x
 _atom_site_fract_y
 _atom_site_fract_z
 _atom_site_occupancy
  Dy  Dy0  1  0.587081  0.207151  0.374995  1
  Dy  Dy1  1  0.413656  0.791742  0.374438  1
  Dy  Dy2  1  0.413419  0.207667  0.874894  1
  Dy  Dy3  1  0.207421  0.411892  0.626115  1
  Dy  Dy4  1  0.207555  0.587745  0.125417  1
  Dy  Dy5  1  0.792450  0.411700  0.127270  1
  Dy  Dy6  1  0.791291  0.589536  0.627319  1
  Dy  Dy7  1  0.912149  0.712952  0.127221  1
  Dy  Dy8  1  0.911999  0.287107  0.627517  1
  Dy  Dy9  1  0.087856  0.713005  0.627921  1
  Dy  Dy10  1  0.087924  0.286810  0.127654  1
  Lu  Lu11  1  0.290974  0.083360  0.376571  1
  Lu  Lu12  1  0.291388  0.915744  0.876268  1
  Lu  Lu13  1  0.709168  0.082643  0.876365  1
  Lu  Lu14  1  0.708956  0.915300  0.376357  1
  Lu  Lu15  1  0.585980  0.794274  0.876480  1
  Lu  Lu16  1  0.500858  0.501499  0.997592  1
  Lu  Lu17  1  0.500288  0.500113  0.498019  1
  Zr  Zr18  1  0.999588  0.999645  0.494123  1
  Zr  Zr19  1  0.000158  0.999661  0.993693  1
  Ir  Ir20  1  0.853472  0.141630  0.246159  1
  Ir  Ir21  1  0.852040  0.857862  0.747309  1
  Ir  Ir22  1  0.146335  0.142006  0.745468  1
  Ir  Ir23  1  0.146059  0.857579  0.245901  1
  Ir  Ir24  1  0.652513  0.345451  0.751075  1
  Ir  Ir25  1  0.652030  0.655834  0.247743  1
  Ir  Ir26  1  0.347858  0.345544  0.251170  1
  Ir  Ir27  1  0.349701  0.656475  0.752754  1
  Ir  Ir28  1  0.499950  0.998791  0.121319  1
  Ir  Ir29  1  0.500774  0.999117  0.622577  1
  Ir  Ir30  1  0.999511  0.499814  0.881042  1
  Ir  Ir31  1  0.999599  0.500349  0.381253  1
