# generated using pymatgen
data_Li4Pr3SmSi8
_symmetry_space_group_name_H-M   'P 1'
_cell_length_a   3.87829200
_cell_length_b   7.75041116
_cell_length_c   10.52137059
_cell_angle_alpha   89.90736160
_cell_angle_beta   90.00000000
_cell_angle_gamma   90.00000000
_symmetry_Int_Tables_number   1
_chemical_formula_structural   Li4Pr3SmSi8
_chemical_formula_sum   'Li4 Pr3 Sm1 Si8'
_cell_volume   316.25470641
_cell_formula_units_Z   1
loop_
 _symmetry_equiv_pos_site_id
 _symmetry_equiv_pos_as_xyz
  1  'x, y, z'
loop_
 _atom_site_type_symbol
 _atom_site_label
 _atom_site_symmetry_multiplicity
 _atom_site_fract_x
 _atom_site_fract_y
 _atom_site_fract_z
 _atom_site_occupancy
  Li  Li0  1  0.250000  0.994811  0.389687  1
  Li  Li1  1  0.750000  0.004196  0.610329  1
  Li  Li2  1  0.250000  0.495504  0.108831  1
  Li  Li3  1  0.750000  0.507060  0.890115  1
  Pr  Pr4  1  0.750000  0.862404  0.135230  1
  Pr  Pr5  1  0.250000  0.637451  0.636113  1
  Pr  Pr6  1  0.750000  0.360536  0.364725  1
  Sm  Sm7  1  0.250000  0.136671  0.864601  1
  Si  Si8  1  0.750000  0.273324  0.067411  1
  Si  Si9  1  0.250000  0.729425  0.929129  1
  Si  Si10  1  0.750000  0.773761  0.429409  1
  Si  Si11  1  0.250000  0.223215  0.573490  1
  Si  Si12  1  0.750000  0.839212  0.823065  1
  Si  Si13  1  0.250000  0.165306  0.174881  1
  Si  Si14  1  0.750000  0.332491  0.680008  1
  Si  Si15  1  0.250000  0.664631  0.322977  1
