# generated using pymatgen
data_Ti3Nb2B4Ru10W
_symmetry_space_group_name_H-M   'P 1'
_cell_length_a   9.34340665
_cell_length_b   9.34094037
_cell_length_c   2.98978400
_cell_angle_alpha   90.00000000
_cell_angle_beta   90.00000000
_cell_angle_gamma   89.63336331
_symmetry_Int_Tables_number   1
_chemical_formula_structural   Ti3Nb2B4Ru10W
_chemical_formula_sum   'Ti3 Nb2 B4 Ru10 W1'
_cell_volume   260.93165719
_cell_formula_units_Z   1
loop_
 _symmetry_equiv_pos_site_id
 _symmetry_equiv_pos_as_xyz
  1  'x, y, z'
loop_
 _atom_site_type_symbol
 _atom_site_label
 _atom_site_symmetry_multiplicity
 _atom_site_fract_x
 _atom_site_fract_y
 _atom_site_fract_z
 _atom_site_occupancy
  Ti  Ti0  1  0.821746  0.677078  0.000000  1
  Ti  Ti1  1  0.501495  0.500211  0.000000  1
  Ti  Ti2  1  0.999516  0.999398  0.000000  1
  Nb  Nb3  1  0.175221  0.323934  0.000000  1
  Nb  Nb4  1  0.678182  0.176908  0.000000  1
  B  B5  1  0.626291  0.875235  0.000000  1
  B  B6  1  0.377065  0.124444  0.000000  1
  B  B7  1  0.121846  0.623476  0.000000  1
  B  B8  1  0.876444  0.378274  0.000000  1
  Ru  Ru9  1  0.567266  0.716097  0.500000  1
  Ru  Ru10  1  0.428875  0.283742  0.500000  1
  Ru  Ru11  1  0.075200  0.786089  0.500000  1
  Ru  Ru12  1  0.931180  0.216550  0.500000  1
  Ru  Ru13  1  0.285084  0.573510  0.500000  1
  Ru  Ru14  1  0.715429  0.430226  0.500000  1
  Ru  Ru15  1  0.217097  0.066360  0.500000  1
  Ru  Ru16  1  0.784780  0.927301  0.500000  1
  Ru  Ru17  1  0.497320  0.996178  0.500000  1
  Ru  Ru18  1  0.997624  0.504016  0.500000  1
  W  W19  1  0.322339  0.820975  0.000000  1
