# generated using pymatgen
data_TbDy11Co4TcBi
_symmetry_space_group_name_H-M   'P 1'
_cell_length_a   8.34706330
_cell_length_b   8.34705977
_cell_length_c   8.34695601
_cell_angle_alpha   111.62635836
_cell_angle_beta   110.40767591
_cell_angle_gamma   106.42507152
_symmetry_Int_Tables_number   1
_chemical_formula_structural   TbDy11Co4TcBi
_chemical_formula_sum   'Tb1 Dy11 Co4 Tc1 Bi1'
_cell_volume   446.68594159
_cell_formula_units_Z   1
loop_
 _symmetry_equiv_pos_site_id
 _symmetry_equiv_pos_as_xyz
  1  'x, y, z'
loop_
 _atom_site_type_symbol
 _atom_site_label
 _atom_site_symmetry_multiplicity
 _atom_site_fract_x
 _atom_site_fract_y
 _atom_site_fract_z
 _atom_site_occupancy
  Tb  Tb0  1  0.817716  0.715646  0.533359  1
  Dy  Dy1  1  0.182265  0.284349  0.466611  1
  Dy  Dy2  1  0.182287  0.715657  0.897939  1
  Dy  Dy3  1  0.817732  0.284344  0.102073  1
  Dy  Dy4  1  0.689473  0.380564  0.691104  1
  Dy  Dy5  1  0.310507  0.619428  0.308907  1
  Dy  Dy6  1  0.689470  0.998381  0.308896  1
  Dy  Dy7  1  0.310530  0.001611  0.691093  1
  Dy  Dy8  1  0.590888  0.787113  0.803799  1
  Dy  Dy9  1  0.409095  0.212881  0.196204  1
  Dy  Dy10  1  0.983324  0.787108  0.196204  1
  Dy  Dy11  1  0.016687  0.212910  0.803800  1
  Co  Co12  1  0.621396  0.000006  0.621403  1
  Co  Co13  1  0.378599  0.999999  0.378599  1
  Co  Co14  1  0.110639  0.610621  0.499996  1
  Co  Co15  1  0.889390  0.389372  0.499996  1
  Tc  Tc16  1  0.000005  0.000013  0.000020  1
  Bi  Bi17  1  0.499997  0.499997  0.999995  1
