# generated using pymatgen
data_Tm8CoHg2Ru
_symmetry_space_group_name_H-M   'P 1'
_cell_length_a   9.39167848
_cell_length_b   9.39167821
_cell_length_c   9.43068800
_cell_angle_alpha   59.86250283
_cell_angle_beta   59.86250378
_cell_angle_gamma   59.62313259
_symmetry_Int_Tables_number   1
_chemical_formula_structural   Tm8CoHg2Ru
_chemical_formula_sum   'Tm16 Co2 Hg4 Ru2'
_cell_volume   585.27771537
_cell_formula_units_Z   2
loop_
 _symmetry_equiv_pos_site_id
 _symmetry_equiv_pos_as_xyz
  1  'x, y, z'
loop_
 _atom_site_type_symbol
 _atom_site_label
 _atom_site_symmetry_multiplicity
 _atom_site_fract_x
 _atom_site_fract_y
 _atom_site_fract_z
 _atom_site_occupancy
  Tm  Tm0  1  0.349849  0.349849  0.342429  1
  Tm  Tm1  1  0.349849  0.349849  0.957873  1
  Tm  Tm2  1  0.355147  0.953317  0.345768  1
  Tm  Tm3  1  0.953317  0.355147  0.345768  1
  Tm  Tm4  1  0.808094  0.188609  0.188609  1
  Tm  Tm5  1  0.188609  0.808094  0.814688  1
  Tm  Tm6  1  0.188609  0.808094  0.188609  1
  Tm  Tm7  1  0.808094  0.188609  0.814688  1
  Tm  Tm8  1  0.189174  0.189174  0.810826  1
  Tm  Tm9  1  0.811296  0.811296  0.188704  1
  Tm  Tm10  1  0.937877  0.559558  0.563677  1
  Tm  Tm11  1  0.559558  0.937877  0.938888  1
  Tm  Tm12  1  0.559558  0.937877  0.563677  1
  Tm  Tm13  1  0.937877  0.559558  0.938888  1
  Tm  Tm14  1  0.562390  0.562390  0.937610  1
  Tm  Tm15  1  0.941480  0.941480  0.558520  1
  Co  Co16  1  0.141332  0.578635  0.140017  1
  Co  Co17  1  0.578635  0.141332  0.140017  1
  Hg  Hg18  1  0.583075  0.583075  0.584979  1
  Hg  Hg19  1  0.583075  0.583075  0.248871  1
  Hg  Hg20  1  0.582120  0.248308  0.584786  1
  Hg  Hg21  1  0.248308  0.582120  0.584786  1
  Ru  Ru22  1  0.141339  0.141339  0.141773  1
  Ru  Ru23  1  0.141339  0.141339  0.575549  1
