# generated using pymatgen
data_BaMn2(Sb6Pd)2
_symmetry_space_group_name_H-M   'P 1'
_cell_length_a   8.15813648
_cell_length_b   8.15813588
_cell_length_c   8.19134695
_cell_angle_alpha   109.32643948
_cell_angle_beta   109.38072521
_cell_angle_gamma   109.54262560
_symmetry_Int_Tables_number   1
_chemical_formula_structural   BaMn2(Sb6Pd)2
_chemical_formula_sum   'Ba1 Mn2 Sb12 Pd2'
_cell_volume   420.52255228
_cell_formula_units_Z   1
loop_
 _symmetry_equiv_pos_site_id
 _symmetry_equiv_pos_as_xyz
  1  'x, y, z'
loop_
 _atom_site_type_symbol
 _atom_site_label
 _atom_site_symmetry_multiplicity
 _atom_site_fract_x
 _atom_site_fract_y
 _atom_site_fract_z
 _atom_site_occupancy
  Ba  Ba0  1  0.000000  0.000000  0.000000  1
  Mn  Mn1  1  0.000000  0.000000  0.500000  1
  Mn  Mn2  1  0.500000  0.500000  0.500000  1
  Sb  Sb3  1  0.331322  0.182302  0.830550  1
  Sb  Sb4  1  0.668678  0.817698  0.169450  1
  Sb  Sb5  1  0.648247  0.499226  0.830550  1
  Sb  Sb6  1  0.351753  0.500774  0.169450  1
  Sb  Sb7  1  0.182260  0.851152  0.354027  1
  Sb  Sb8  1  0.817740  0.148848  0.645973  1
  Sb  Sb9  1  0.497124  0.828233  0.645973  1
  Sb  Sb10  1  0.502876  0.171767  0.354027  1
  Sb  Sb11  1  0.846118  0.351301  0.197419  1
  Sb  Sb12  1  0.153882  0.648699  0.802581  1
  Sb  Sb13  1  0.834768  0.668366  0.503132  1
  Sb  Sb14  1  0.165232  0.331634  0.496868  1
  Pd  Pd15  1  0.500000  0.000000  0.000000  1
  Pd  Pd16  1  0.000000  0.500000  0.000000  1
