# generated using pymatgen
data_La6IrI10
_symmetry_space_group_name_H-M   'P 1'
_cell_length_a   8.13986252
_cell_length_b   10.09260211
_cell_length_c   10.18914913
_cell_angle_alpha   107.50873650
_cell_angle_beta   105.55127795
_cell_angle_gamma   97.03164587
_symmetry_Int_Tables_number   1
_chemical_formula_structural   La6IrI10
_chemical_formula_sum   'La6 Ir1 I10'
_cell_volume   750.03670073
_cell_formula_units_Z   1
loop_
 _symmetry_equiv_pos_site_id
 _symmetry_equiv_pos_as_xyz
  1  'x, y, z'
loop_
 _atom_site_type_symbol
 _atom_site_label
 _atom_site_symmetry_multiplicity
 _atom_site_fract_x
 _atom_site_fract_y
 _atom_site_fract_z
 _atom_site_occupancy
  La  La0  1  0.641960  0.828098  0.869669  1
  La  La1  1  0.358040  0.171902  0.130331  1
  La  La2  1  0.029680  0.910913  0.706476  1
  La  La3  1  0.970320  0.089087  0.293524  1
  La  La4  1  0.115467  0.759804  0.040910  1
  La  La5  1  0.884533  0.240196  0.959090  1
  Ir  Ir6  1  0.000000  0.000000  0.000000  1
  I  I7  1  0.641134  0.725642  0.542998  1
  I  I8  1  0.358866  0.274358  0.457002  1
  I  I9  1  0.213270  0.648012  0.737994  1
  I  I10  1  0.786730  0.351988  0.262006  1
  I  I11  1  0.452791  0.092257  0.816073  1
  I  I12  1  0.547209  0.907743  0.183927  1
  I  I13  1  0.263066  0.464024  0.088998  1
  I  I14  1  0.736934  0.535976  0.911002  1
  I  I15  1  0.086497  0.818297  0.370854  1
  I  I16  1  0.913503  0.181703  0.629146  1
