# generated using pymatgen
data_TbDy3Al16(GeIr3)2
_symmetry_space_group_name_H-M   'P 1'
_cell_length_a   7.56190370
_cell_length_b   7.56203739
_cell_length_c   9.46161700
_cell_angle_alpha   90.00000000
_cell_angle_beta   90.00000000
_cell_angle_gamma   119.66821742
_symmetry_Int_Tables_number   1
_chemical_formula_structural   TbDy3Al16(GeIr3)2
_chemical_formula_sum   'Tb1 Dy3 Al16 Ge2 Ir6'
_cell_volume   470.11946300
_cell_formula_units_Z   1
loop_
 _symmetry_equiv_pos_site_id
 _symmetry_equiv_pos_as_xyz
  1  'x, y, z'
loop_
 _atom_site_type_symbol
 _atom_site_label
 _atom_site_symmetry_multiplicity
 _atom_site_fract_x
 _atom_site_fract_y
 _atom_site_fract_z
 _atom_site_occupancy
  Tb  Tb0  1  0.995429  0.675520  0.750000  1
  Dy  Dy1  1  0.004575  0.324441  0.250000  1
  Dy  Dy2  1  0.675516  0.995438  0.750000  1
  Dy  Dy3  1  0.324462  0.004589  0.250000  1
  Al  Al4  1  0.000513  0.337217  0.573889  1
  Al  Al5  1  0.999495  0.662582  0.425847  1
  Al  Al6  1  0.999495  0.662582  0.074153  1
  Al  Al7  1  0.337628  0.000706  0.926129  1
  Al  Al8  1  0.000513  0.337217  0.926111  1
  Al  Al9  1  0.662590  0.999499  0.073975  1
  Al  Al10  1  0.662590  0.999499  0.426025  1
  Al  Al11  1  0.337628  0.000706  0.573871  1
  Al  Al12  1  0.335746  0.335749  0.058771  1
  Al  Al13  1  0.664042  0.664238  0.941373  1
  Al  Al14  1  0.664042  0.664238  0.558627  1
  Al  Al15  1  0.335746  0.335749  0.441229  1
  Al  Al16  1  0.336110  0.552811  0.750000  1
  Al  Al17  1  0.663996  0.447097  0.250000  1
  Al  Al18  1  0.552634  0.335786  0.750000  1
  Al  Al19  1  0.447097  0.664011  0.250000  1
  Ge  Ge20  1  0.134551  0.134676  0.750000  1
  Ge  Ge21  1  0.865525  0.865539  0.250000  1
  Ir  Ir22  1  0.671022  0.328768  0.499891  1
  Ir  Ir23  1  0.329001  0.671133  0.499896  1
  Ir  Ir24  1  0.329001  0.671133  0.000104  1
  Ir  Ir25  1  0.671022  0.328768  0.000109  1
  Ir  Ir26  1  0.000015  0.000155  0.499874  1
  Ir  Ir27  1  0.000015  0.000155  0.000126  1
