# generated using pymatgen
data_Ta4CrReB4
_symmetry_space_group_name_H-M   'P 1'
_cell_length_a   5.98954900
_cell_length_b   5.98954900
_cell_length_c   3.28375600
_cell_angle_alpha   90.00000000
_cell_angle_beta   90.00000000
_cell_angle_gamma   90.00000000
_symmetry_Int_Tables_number   1
_chemical_formula_structural   Ta4CrReB4
_chemical_formula_sum   'Ta4 Cr1 Re1 B4'
_cell_volume   117.80375226
_cell_formula_units_Z   1
loop_
 _symmetry_equiv_pos_site_id
 _symmetry_equiv_pos_as_xyz
  1  'x, y, z'
loop_
 _atom_site_type_symbol
 _atom_site_label
 _atom_site_symmetry_multiplicity
 _atom_site_fract_x
 _atom_site_fract_y
 _atom_site_fract_z
 _atom_site_occupancy
  Ta  Ta0  1  0.683014  0.173740  0.500000  1
  Ta  Ta1  1  0.316986  0.826260  0.500000  1
  Ta  Ta2  1  0.173740  0.316986  0.500000  1
  Ta  Ta3  1  0.826260  0.683014  0.500000  1
  Cr  Cr4  1  0.000000  0.000000  0.000000  1
  Re  Re5  1  0.500000  0.500000  0.000000  1
  B  B6  1  0.110780  0.612713  0.000000  1
  B  B7  1  0.889220  0.387287  0.000000  1
  B  B8  1  0.612713  0.889220  0.000000  1
  B  B9  1  0.387287  0.110780  0.000000  1
