# generated using pymatgen
data_Nd2Er2Ni13C4
_symmetry_space_group_name_H-M   'P 1'
_cell_length_a   3.90873600
_cell_length_b   8.40350119
_cell_length_c   8.40350140
_cell_angle_alpha   89.34761625
_cell_angle_beta   90.00000000
_cell_angle_gamma   90.00000000
_symmetry_Int_Tables_number   1
_chemical_formula_structural   Nd2Er2Ni13C4
_chemical_formula_sum   'Nd2 Er2 Ni13 C4'
_cell_volume   276.01248559
_cell_formula_units_Z   1
loop_
 _symmetry_equiv_pos_site_id
 _symmetry_equiv_pos_as_xyz
  1  'x, y, z'
loop_
 _atom_site_type_symbol
 _atom_site_label
 _atom_site_symmetry_multiplicity
 _atom_site_fract_x
 _atom_site_fract_y
 _atom_site_fract_z
 _atom_site_occupancy
  Nd  Nd0  1  0.500001  0.654259  0.345741  1
  Nd  Nd1  1  0.500001  0.345741  0.654259  1
  Er  Er2  1  0.500001  0.188998  0.188998  1
  Er  Er3  1  0.500001  0.811003  0.811003  1
  Ni  Ni4  1  0.000000  0.000000  0.000000  1
  Ni  Ni5  1  0.500001  0.500001  0.000000  1
  Ni  Ni6  1  0.000000  0.711641  0.067640  1
  Ni  Ni7  1  0.500001  0.881681  0.118319  1
  Ni  Ni8  1  0.000000  0.428099  0.214269  1
  Ni  Ni9  1  0.000000  0.932360  0.288359  1
  Ni  Ni10  1  0.000000  0.214269  0.428099  1
  Ni  Ni11  1  0.500001  0.000000  0.500001  1
  Ni  Ni12  1  0.000000  0.785732  0.571902  1
  Ni  Ni13  1  0.000000  0.067640  0.711641  1
  Ni  Ni14  1  0.000000  0.571902  0.785732  1
  Ni  Ni15  1  0.500001  0.118319  0.881681  1
  Ni  Ni16  1  0.000000  0.288359  0.932360  1
  C  C17  1  0.000000  0.500001  0.000000  1
  C  C18  1  0.000000  0.442981  0.442981  1
  C  C19  1  0.000000  0.000000  0.500001  1
  C  C20  1  0.000000  0.557019  0.557019  1
