# generated using pymatgen
data_Na3AlSb4Pb3
_symmetry_space_group_name_H-M   'P 1'
_cell_length_a   10.27994100
_cell_length_b   10.27994207
_cell_length_c   7.68450900
_cell_angle_alpha   90.00000000
_cell_angle_beta   90.00000000
_cell_angle_gamma   119.99999978
_symmetry_Int_Tables_number   1
_chemical_formula_structural   Na3AlSb4Pb3
_chemical_formula_sum   'Na6 Al2 Sb8 Pb6'
_cell_volume   703.27964133
_cell_formula_units_Z   2
loop_
 _symmetry_equiv_pos_site_id
 _symmetry_equiv_pos_as_xyz
  1  'x, y, z'
loop_
 _atom_site_type_symbol
 _atom_site_label
 _atom_site_symmetry_multiplicity
 _atom_site_fract_x
 _atom_site_fract_y
 _atom_site_fract_z
 _atom_site_occupancy
  Na  Na0  1  0.851450  0.148550  0.547341  1
  Na  Na1  1  0.297099  0.148550  0.547341  1
  Na  Na2  1  0.851450  0.702901  0.547341  1
  Na  Na3  1  0.148550  0.851450  0.047341  1
  Na  Na4  1  0.702901  0.851450  0.047341  1
  Na  Na5  1  0.148550  0.297099  0.047341  1
  Al  Al6  1  0.666667  0.333333  0.850548  1
  Al  Al7  1  0.333333  0.666667  0.350548  1
  Sb  Sb8  1  0.809974  0.190026  0.963804  1
  Sb  Sb9  1  0.380053  0.190026  0.963804  1
  Sb  Sb10  1  0.809974  0.619947  0.963804  1
  Sb  Sb11  1  0.190026  0.809974  0.463804  1
  Sb  Sb12  1  0.619947  0.809974  0.463804  1
  Sb  Sb13  1  0.190026  0.380053  0.463804  1
  Sb  Sb14  1  0.666667  0.333333  0.492230  1
  Sb  Sb15  1  0.333333  0.666667  0.992230  1
  Pb  Pb16  1  0.472214  0.527786  0.736384  1
  Pb  Pb17  1  0.055572  0.527786  0.736384  1
  Pb  Pb18  1  0.472214  0.944428  0.736384  1
  Pb  Pb19  1  0.527786  0.472214  0.236384  1
  Pb  Pb20  1  0.944428  0.472214  0.236384  1
  Pb  Pb21  1  0.527786  0.055572  0.236384  1
