# generated using pymatgen
data_Nd6HoErAu4
_symmetry_space_group_name_H-M   'P 1'
_cell_length_a   5.02237800
_cell_length_b   7.32723230
_cell_length_c   9.20208145
_cell_angle_alpha   90.00153902
_cell_angle_beta   90.00000000
_cell_angle_gamma   90.00000000
_symmetry_Int_Tables_number   1
_chemical_formula_structural   Nd6HoErAu4
_chemical_formula_sum   'Nd6 Ho1 Er1 Au4'
_cell_volume   338.63779637
_cell_formula_units_Z   1
loop_
 _symmetry_equiv_pos_site_id
 _symmetry_equiv_pos_as_xyz
  1  'x, y, z'
loop_
 _atom_site_type_symbol
 _atom_site_label
 _atom_site_symmetry_multiplicity
 _atom_site_fract_x
 _atom_site_fract_y
 _atom_site_fract_z
 _atom_site_occupancy
  Nd  Nd0  1  0.250000  0.488607  0.175984  1
  Nd  Nd1  1  0.750000  0.510691  0.824226  1
  Nd  Nd2  1  0.250000  0.991237  0.323578  1
  Nd  Nd3  1  0.750000  0.008925  0.676501  1
  Nd  Nd4  1  0.750000  0.651323  0.411965  1
  Nd  Nd5  1  0.250000  0.348719  0.587860  1
  Ho  Ho6  1  0.250000  0.850896  0.922099  1
  Er  Er7  1  0.750000  0.149031  0.078027  1
  Au  Au8  1  0.250000  0.243770  0.911035  1
  Au  Au9  1  0.750000  0.756913  0.089511  1
  Au  Au10  1  0.250000  0.757523  0.608410  1
  Au  Au11  1  0.750000  0.242365  0.390803  1
