# generated using pymatgen
data_LaTh3(Ga3Rh)6
_symmetry_space_group_name_H-M   'P 1'
_cell_length_a   7.70355332
_cell_length_b   7.70270216
_cell_length_c   9.55555600
_cell_angle_alpha   90.00000000
_cell_angle_beta   90.00000000
_cell_angle_gamma   119.60302678
_symmetry_Int_Tables_number   1
_chemical_formula_structural   LaTh3(Ga3Rh)6
_chemical_formula_sum   'La1 Th3 Ga18 Rh6'
_cell_volume   492.99689071
_cell_formula_units_Z   1
loop_
 _symmetry_equiv_pos_site_id
 _symmetry_equiv_pos_as_xyz
  1  'x, y, z'
loop_
 _atom_site_type_symbol
 _atom_site_label
 _atom_site_symmetry_multiplicity
 _atom_site_fract_x
 _atom_site_fract_y
 _atom_site_fract_z
 _atom_site_occupancy
  La  La0  1  0.329274  0.004291  0.750000  1
  Th  Th1  1  0.996259  0.670868  0.250000  1
  Th  Th2  1  0.003218  0.329614  0.750000  1
  Th  Th3  1  0.670344  0.995867  0.250000  1
  Ga  Ga4  1  0.133810  0.132894  0.250000  1
  Ga  Ga5  1  0.867681  0.868170  0.750000  1
  Ga  Ga6  1  0.004165  0.335395  0.078099  1
  Ga  Ga7  1  0.997975  0.666270  0.921491  1
  Ga  Ga8  1  0.997975  0.666270  0.578509  1
  Ga  Ga9  1  0.335298  0.003671  0.423687  1
  Ga  Ga10  1  0.004165  0.335395  0.421901  1
  Ga  Ga11  1  0.663274  0.996501  0.578499  1
  Ga  Ga12  1  0.663274  0.996501  0.921501  1
  Ga  Ga13  1  0.335298  0.003671  0.076313  1
  Ga  Ga14  1  0.335408  0.334332  0.555471  1
  Ga  Ga15  1  0.664143  0.664090  0.446502  1
  Ga  Ga16  1  0.664143  0.664090  0.053498  1
  Ga  Ga17  1  0.335408  0.334332  0.944529  1
  Ga  Ga18  1  0.341980  0.544693  0.250000  1
  Ga  Ga19  1  0.659016  0.453852  0.750000  1
  Ga  Ga20  1  0.544996  0.340835  0.250000  1
  Ga  Ga21  1  0.453701  0.658482  0.750000  1
  Rh  Rh22  1  0.674687  0.329581  0.001619  1
  Rh  Rh23  1  0.327662  0.670931  0.001826  1
  Rh  Rh24  1  0.327662  0.670931  0.498174  1
  Rh  Rh25  1  0.674687  0.329581  0.498381  1
  Rh  Rh26  1  0.997249  0.999447  0.002143  1
  Rh  Rh27  1  0.997249  0.999447  0.497857  1
