# generated using pymatgen
data_Li3Tb2SmZnSn4
_symmetry_space_group_name_H-M   'P 1'
_cell_length_a   4.61012211
_cell_length_b   7.13792097
_cell_length_c   8.64834465
_cell_angle_alpha   113.96233538
_cell_angle_beta   105.45801952
_cell_angle_gamma   89.99999882
_symmetry_Int_Tables_number   1
_chemical_formula_structural   Li3Tb2SmZnSn4
_chemical_formula_sum   'Li3 Tb2 Sm1 Zn1 Sn4'
_cell_volume   248.75272043
_cell_formula_units_Z   1
loop_
 _symmetry_equiv_pos_site_id
 _symmetry_equiv_pos_as_xyz
  1  'x, y, z'
loop_
 _atom_site_type_symbol
 _atom_site_label
 _atom_site_symmetry_multiplicity
 _atom_site_fract_x
 _atom_site_fract_y
 _atom_site_fract_z
 _atom_site_occupancy
  Li  Li0  1  0.327437  0.013302  0.654873  1
  Li  Li1  1  0.670499  0.981015  0.341000  1
  Li  Li2  1  0.326102  0.635937  0.652203  1
  Tb  Tb3  1  0.127810  0.628162  0.255620  1
  Tb  Tb4  1  0.001605  0.000002  0.003209  1
  Sm  Sm5  1  0.873468  0.378408  0.746935  1
  Zn  Zn6  1  0.674053  0.369195  0.348106  1
  Sn  Sn7  1  0.213706  0.205867  0.427411  1
  Sn  Sn8  1  0.785865  0.787811  0.571729  1
  Sn  Sn9  1  0.499535  0.296807  0.999070  1
  Sn  Sn10  1  0.499920  0.703496  0.999840  1
