# generated using pymatgen
data_Zr6InCoTe
_symmetry_space_group_name_H-M   'P 1'
_cell_length_a   3.54692000
_cell_length_b   7.94930829
_cell_length_c   7.94930800
_cell_angle_alpha   119.99999881
_cell_angle_beta   90.00000000
_cell_angle_gamma   90.00000000
_symmetry_Int_Tables_number   1
_chemical_formula_structural   Zr6InCoTe
_chemical_formula_sum   'Zr6 In1 Co1 Te1'
_cell_volume   194.10677507
_cell_formula_units_Z   1
loop_
 _symmetry_equiv_pos_site_id
 _symmetry_equiv_pos_as_xyz
  1  'x, y, z'
loop_
 _atom_site_type_symbol
 _atom_site_label
 _atom_site_symmetry_multiplicity
 _atom_site_fract_x
 _atom_site_fract_y
 _atom_site_fract_z
 _atom_site_occupancy
  Zr  Zr0  1  0.500000  0.761226  0.758681  1
  Zr  Zr1  1  0.500000  0.997455  0.238774  1
  Zr  Zr2  1  0.500000  0.241319  0.002545  1
  Zr  Zr3  1  0.000000  0.394929  0.403203  1
  Zr  Zr4  1  0.000000  0.008275  0.605071  1
  Zr  Zr5  1  0.000000  0.596797  0.991725  1
  In  In6  1  0.500000  0.666667  0.333333  1
  Co  Co7  1  0.000000  0.000000  0.000000  1
  Te  Te8  1  0.500000  0.333333  0.666667  1
