# generated using pymatgen
data_Nb2ZnGaNi12
_symmetry_space_group_name_H-M   'P 1'
_cell_length_a   3.63883300
_cell_length_b   3.63883300
_cell_length_c   14.38422300
_cell_angle_alpha   90.00000000
_cell_angle_beta   90.00000000
_cell_angle_gamma   90.00000000
_symmetry_Int_Tables_number   1
_chemical_formula_structural   Nb2ZnGaNi12
_chemical_formula_sum   'Nb2 Zn1 Ga1 Ni12'
_cell_volume   190.46301574
_cell_formula_units_Z   1
loop_
 _symmetry_equiv_pos_site_id
 _symmetry_equiv_pos_as_xyz
  1  'x, y, z'
loop_
 _atom_site_type_symbol
 _atom_site_label
 _atom_site_symmetry_multiplicity
 _atom_site_fract_x
 _atom_site_fract_y
 _atom_site_fract_z
 _atom_site_occupancy
  Nb  Nb0  1  0.000000  0.000000  0.248501  1
  Nb  Nb1  1  0.000000  0.000000  0.751499  1
  Zn  Zn2  1  0.000000  0.000000  0.000000  1
  Ga  Ga3  1  0.000000  0.000000  0.500000  1
  Ni  Ni4  1  0.500000  0.500000  0.000000  1
  Ni  Ni5  1  0.500000  0.500000  0.251644  1
  Ni  Ni6  1  0.500000  0.500000  0.500000  1
  Ni  Ni7  1  0.500000  0.500000  0.748356  1
  Ni  Ni8  1  0.500000  0.000000  0.123499  1
  Ni  Ni9  1  0.500000  0.000000  0.377699  1
  Ni  Ni10  1  0.500000  0.000000  0.622301  1
  Ni  Ni11  1  0.500000  0.000000  0.876501  1
  Ni  Ni12  1  0.000000  0.500000  0.123499  1
  Ni  Ni13  1  0.000000  0.500000  0.377699  1
  Ni  Ni14  1  0.000000  0.500000  0.622301  1
  Ni  Ni15  1  0.000000  0.500000  0.876501  1
