# generated using pymatgen
data_Na3(PIr)2
_symmetry_space_group_name_H-M   'P 1'
_cell_length_a   6.00669100
_cell_length_b   7.32503600
_cell_length_c   12.77798000
_cell_angle_alpha   90.00000000
_cell_angle_beta   90.00000000
_cell_angle_gamma   90.00000000
_symmetry_Int_Tables_number   1
_chemical_formula_structural   Na3(PIr)2
_chemical_formula_sum   'Na12 P8 Ir8'
_cell_volume   562.22125305
_cell_formula_units_Z   4
loop_
 _symmetry_equiv_pos_site_id
 _symmetry_equiv_pos_as_xyz
  1  'x, y, z'
loop_
 _atom_site_type_symbol
 _atom_site_label
 _atom_site_symmetry_multiplicity
 _atom_site_fract_x
 _atom_site_fract_y
 _atom_site_fract_z
 _atom_site_occupancy
  Na  Na0  1  0.657346  0.191398  0.250000  1
  Na  Na1  1  0.342654  0.808602  0.750000  1
  Na  Na2  1  0.342654  0.691398  0.250000  1
  Na  Na3  1  0.657346  0.308602  0.750000  1
  Na  Na4  1  0.113800  0.381409  0.103972  1
  Na  Na5  1  0.886200  0.618591  0.896028  1
  Na  Na6  1  0.886200  0.618591  0.603972  1
  Na  Na7  1  0.886200  0.881409  0.396028  1
  Na  Na8  1  0.113800  0.381409  0.396028  1
  Na  Na9  1  0.113800  0.118591  0.603972  1
  Na  Na10  1  0.113800  0.118591  0.896028  1
  Na  Na11  1  0.886200  0.881409  0.103972  1
  P  P12  1  0.208037  0.052914  0.250000  1
  P  P13  1  0.791963  0.947086  0.750000  1
  P  P14  1  0.791963  0.552914  0.250000  1
  P  P15  1  0.208037  0.447086  0.750000  1
  P  P16  1  0.537832  0.250000  0.000000  1
  P  P17  1  0.462168  0.750000  0.000000  1
  P  P18  1  0.462168  0.750000  0.500000  1
  P  P19  1  0.537832  0.250000  0.500000  1
  Ir  Ir20  1  0.366490  0.013163  0.089832  1
  Ir  Ir21  1  0.633510  0.986837  0.910168  1
  Ir  Ir22  1  0.633510  0.986837  0.589832  1
  Ir  Ir23  1  0.633510  0.513163  0.410168  1
  Ir  Ir24  1  0.366490  0.013163  0.410168  1
  Ir  Ir25  1  0.366490  0.486837  0.589832  1
  Ir  Ir26  1  0.366490  0.486837  0.910168  1
  Ir  Ir27  1  0.633510  0.513163  0.089832  1
