# generated using pymatgen
data_NaHgRhF6
_symmetry_space_group_name_H-M   'P 1'
_cell_length_a   5.64554000
_cell_length_b   5.64553995
_cell_length_c   9.67968500
_cell_angle_alpha   90.00000000
_cell_angle_beta   90.00000000
_cell_angle_gamma   120.00000029
_symmetry_Int_Tables_number   1
_chemical_formula_structural   NaHgRhF6
_chemical_formula_sum   'Na2 Hg2 Rh2 F12'
_cell_volume   267.17931297
_cell_formula_units_Z   2
loop_
 _symmetry_equiv_pos_site_id
 _symmetry_equiv_pos_as_xyz
  1  'x, y, z'
loop_
 _atom_site_type_symbol
 _atom_site_label
 _atom_site_symmetry_multiplicity
 _atom_site_fract_x
 _atom_site_fract_y
 _atom_site_fract_z
 _atom_site_occupancy
  Na  Na0  1  0.666666  0.333333  0.249999  1
  Na  Na1  1  0.333333  0.666666  0.749999  1
  Hg  Hg2  1  0.000000  0.000000  0.000000  1
  Hg  Hg3  1  0.000000  0.000000  0.500000  1
  Rh  Rh4  1  0.333333  0.666666  0.249999  1
  Rh  Rh5  1  0.666666  0.333333  0.749999  1
  F  F6  1  0.627836  0.963679  0.133501  1
  F  F7  1  0.335844  0.372164  0.133501  1
  F  F8  1  0.036322  0.664158  0.133501  1
  F  F9  1  0.335844  0.963679  0.366499  1
  F  F10  1  0.036322  0.372164  0.366499  1
  F  F11  1  0.627835  0.664158  0.366499  1
  F  F12  1  0.372165  0.335843  0.633501  1
  F  F13  1  0.963677  0.627834  0.633501  1
  F  F14  1  0.664158  0.036323  0.633501  1
  F  F15  1  0.963678  0.335843  0.866499  1
  F  F16  1  0.664157  0.627834  0.866499  1
  F  F17  1  0.372164  0.036323  0.866499  1
