# generated using pymatgen
data_Dy16Cd4Ir2PtRh
_symmetry_space_group_name_H-M   'P 1'
_cell_length_a   9.65151782
_cell_length_b   9.65151670
_cell_length_c   9.63442103
_cell_angle_alpha   60.01903812
_cell_angle_beta   60.01904076
_cell_angle_gamma   60.09864535
_symmetry_Int_Tables_number   1
_chemical_formula_structural   Dy16Cd4Ir2PtRh
_chemical_formula_sum   'Dy16 Cd4 Ir2 Pt1 Rh1'
_cell_volume   635.25726586
_cell_formula_units_Z   1
loop_
 _symmetry_equiv_pos_site_id
 _symmetry_equiv_pos_as_xyz
  1  'x, y, z'
loop_
 _atom_site_type_symbol
 _atom_site_label
 _atom_site_symmetry_multiplicity
 _atom_site_fract_x
 _atom_site_fract_y
 _atom_site_fract_z
 _atom_site_occupancy
  Dy  Dy0  1  0.598110  0.598110  0.597655  1
  Dy  Dy1  1  0.602155  0.602155  0.199793  1
  Dy  Dy2  1  0.602450  0.199475  0.601756  1
  Dy  Dy3  1  0.199475  0.602450  0.601756  1
  Dy  Dy4  1  0.056092  0.440622  0.440226  1
  Dy  Dy5  1  0.437763  0.060153  0.060954  1
  Dy  Dy6  1  0.440622  0.056092  0.440226  1
  Dy  Dy7  1  0.060153  0.437763  0.060954  1
  Dy  Dy8  1  0.440394  0.440394  0.056341  1
  Dy  Dy9  1  0.060424  0.060424  0.437718  1
  Dy  Dy10  1  0.187659  0.814033  0.812918  1
  Dy  Dy11  1  0.813822  0.187250  0.187207  1
  Dy  Dy12  1  0.814033  0.187659  0.812918  1
  Dy  Dy13  1  0.187250  0.813822  0.187207  1
  Dy  Dy14  1  0.812871  0.812871  0.188116  1
  Dy  Dy15  1  0.186736  0.186736  0.813906  1
  Cd  Cd16  1  0.830947  0.830947  0.830837  1
  Cd  Cd17  1  0.831058  0.831058  0.506075  1
  Cd  Cd18  1  0.831019  0.506018  0.831010  1
  Cd  Cd19  1  0.506018  0.831019  0.831010  1
  Ir  Ir20  1  0.392007  0.824131  0.392053  1
  Ir  Ir21  1  0.824131  0.392007  0.392053  1
  Pt  Pt22  1  0.392840  0.392840  0.392854  1
  Rh  Rh23  1  0.391967  0.391967  0.824454  1
