# generated using pymatgen
data_Pr7GdSe12
_symmetry_space_group_name_H-M   'P 1'
_cell_length_a   7.88602122
_cell_length_b   4.23927900
_cell_length_c   16.43307735
_cell_angle_alpha   90.00000000
_cell_angle_beta   90.06249544
_cell_angle_gamma   90.00000000
_symmetry_Int_Tables_number   1
_chemical_formula_structural   Pr7GdSe12
_chemical_formula_sum   'Pr7 Gd1 Se12'
_cell_volume   549.37460754
_cell_formula_units_Z   1
loop_
 _symmetry_equiv_pos_site_id
 _symmetry_equiv_pos_as_xyz
  1  'x, y, z'
loop_
 _atom_site_type_symbol
 _atom_site_label
 _atom_site_symmetry_multiplicity
 _atom_site_fract_x
 _atom_site_fract_y
 _atom_site_fract_z
 _atom_site_occupancy
  Pr  Pr0  1  0.140817  0.000000  0.202985  1
  Pr  Pr1  1  0.642253  0.000000  0.295204  1
  Pr  Pr2  1  0.233483  0.499999  0.455942  1
  Pr  Pr3  1  0.766532  0.000000  0.543846  1
  Pr  Pr4  1  0.357661  0.499999  0.704443  1
  Pr  Pr5  1  0.856441  0.499999  0.798896  1
  Pr  Pr6  1  0.267669  0.000000  0.957096  1
  Gd  Gd7  1  0.732563  0.499999  0.042964  1
  Se  Se8  1  0.121386  0.499999  0.066520  1
  Se  Se9  1  0.514690  0.000000  0.106945  1
  Se  Se10  1  0.850254  0.499999  0.215442  1
  Se  Se11  1  0.353283  0.499999  0.280163  1
  Se  Se12  1  0.005999  0.000000  0.389266  1
  Se  Se13  1  0.624117  0.499999  0.432368  1
  Se  Se14  1  0.375910  0.000000  0.567484  1
  Se  Se15  1  0.994048  0.499999  0.610057  1
  Se  Se16  1  0.646619  0.000000  0.719422  1
  Se  Se17  1  0.145298  0.000000  0.782364  1
  Se  Se18  1  0.497110  0.499999  0.892185  1
  Se  Se19  1  0.873858  0.000000  0.936408  1
