# generated using pymatgen
data_TmCrNi4As3
_symmetry_space_group_name_H-M   'P 1'
_cell_length_a   3.80805500
_cell_length_b   10.83974000
_cell_length_c   12.33916200
_cell_angle_alpha   90.00000000
_cell_angle_beta   90.00000000
_cell_angle_gamma   90.00000000
_symmetry_Int_Tables_number   1
_chemical_formula_structural   TmCrNi4As3
_chemical_formula_sum   'Tm4 Cr4 Ni16 As12'
_cell_volume   509.33995291
_cell_formula_units_Z   4
loop_
 _symmetry_equiv_pos_site_id
 _symmetry_equiv_pos_as_xyz
  1  'x, y, z'
loop_
 _atom_site_type_symbol
 _atom_site_label
 _atom_site_symmetry_multiplicity
 _atom_site_fract_x
 _atom_site_fract_y
 _atom_site_fract_z
 _atom_site_occupancy
  Tm  Tm0  1  0.250000  0.581270  0.705322  1
  Tm  Tm1  1  0.250000  0.918730  0.205322  1
  Tm  Tm2  1  0.750000  0.418730  0.294678  1
  Tm  Tm3  1  0.750000  0.081270  0.794678  1
  Cr  Cr4  1  0.250000  0.704953  0.988496  1
  Cr  Cr5  1  0.250000  0.795047  0.488496  1
  Cr  Cr6  1  0.750000  0.295047  0.011504  1
  Cr  Cr7  1  0.750000  0.204953  0.511504  1
  Ni  Ni8  1  0.250000  0.407615  0.488175  1
  Ni  Ni9  1  0.250000  0.092385  0.988175  1
  Ni  Ni10  1  0.750000  0.592385  0.511825  1
  Ni  Ni11  1  0.750000  0.907615  0.011825  1
  Ni  Ni12  1  0.250000  0.215349  0.177596  1
  Ni  Ni13  1  0.250000  0.284651  0.677596  1
  Ni  Ni14  1  0.750000  0.784651  0.822404  1
  Ni  Ni15  1  0.750000  0.715349  0.322404  1
  Ni  Ni16  1  0.250000  0.884132  0.701114  1
  Ni  Ni17  1  0.250000  0.615868  0.201114  1
  Ni  Ni18  1  0.750000  0.115868  0.298886  1
  Ni  Ni19  1  0.750000  0.384132  0.798886  1
  Ni  Ni20  1  0.250000  0.466523  0.929473  1
  Ni  Ni21  1  0.250000  0.033477  0.429473  1
  Ni  Ni22  1  0.750000  0.533477  0.070527  1
  Ni  Ni23  1  0.750000  0.966523  0.570527  1
  As  As24  1  0.250000  0.416001  0.114956  1
  As  As25  1  0.250000  0.083999  0.614956  1
  As  As26  1  0.750000  0.583999  0.885044  1
  As  As27  1  0.750000  0.916001  0.385044  1
  As  As28  1  0.250000  0.265101  0.869634  1
  As  As29  1  0.250000  0.234899  0.369634  1
  As  As30  1  0.750000  0.734899  0.130366  1
  As  As31  1  0.750000  0.765101  0.630366  1
  As  As32  1  0.250000  0.597285  0.391145  1
  As  As33  1  0.250000  0.902715  0.891145  1
  As  As34  1  0.750000  0.402715  0.608855  1
  As  As35  1  0.750000  0.097285  0.108855  1
