# generated using pymatgen
data_Gd5DyYRhO12
_symmetry_space_group_name_H-M   'P 1'
_cell_length_a   6.71468629
_cell_length_b   6.72037021
_cell_length_c   6.71729977
_cell_angle_alpha   95.17089884
_cell_angle_beta   95.20056107
_cell_angle_gamma   95.15537121
_symmetry_Int_Tables_number   1
_chemical_formula_structural   Gd5DyYRhO12
_chemical_formula_sum   'Gd5 Dy1 Y1 Rh1 O12'
_cell_volume   299.17107828
_cell_formula_units_Z   1
loop_
 _symmetry_equiv_pos_site_id
 _symmetry_equiv_pos_as_xyz
  1  'x, y, z'
loop_
 _atom_site_type_symbol
 _atom_site_label
 _atom_site_symmetry_multiplicity
 _atom_site_fract_x
 _atom_site_fract_y
 _atom_site_fract_z
 _atom_site_occupancy
  Gd  Gd0  1  0.427692  0.733889  0.912144  1
  Gd  Gd1  1  0.087797  0.573822  0.266482  1
  Gd  Gd2  1  0.911234  0.426254  0.732570  1
  Gd  Gd3  1  0.573254  0.265882  0.088787  1
  Gd  Gd4  1  0.266681  0.087378  0.572365  1
  Dy  Dy5  1  0.734823  0.912736  0.426812  1
  Y  Y6  1  0.998984  0.999631  0.999594  1
  Rh  Rh7  1  0.500438  0.499862  0.499735  1
  O  O8  1  0.062389  0.913499  0.318854  1
  O  O9  1  0.681639  0.933922  0.090936  1
  O  O10  1  0.458957  0.801788  0.582337  1
  O  O11  1  0.086644  0.681546  0.934566  1
  O  O12  1  0.800121  0.588497  0.455021  1
  O  O13  1  0.415693  0.545296  0.199100  1
  O  O14  1  0.584166  0.454709  0.800782  1
  O  O15  1  0.198955  0.415989  0.545559  1
  O  O16  1  0.913808  0.318534  0.064983  1
  O  O17  1  0.547098  0.197237  0.416223  1
  O  O18  1  0.317952  0.065250  0.913452  1
  O  O19  1  0.931674  0.084278  0.679699  1
