# generated using pymatgen
data_Tb4Al4Pd2RuPt
_symmetry_space_group_name_H-M   'P 1'
_cell_length_a   4.36439700
_cell_length_b   6.93374369
_cell_length_c   7.88185167
_cell_angle_alpha   89.80891685
_cell_angle_beta   90.00000000
_cell_angle_gamma   90.00000000
_symmetry_Int_Tables_number   1
_chemical_formula_structural   Tb4Al4Pd2RuPt
_chemical_formula_sum   'Tb4 Al4 Pd2 Ru1 Pt1'
_cell_volume   238.51619619
_cell_formula_units_Z   1
loop_
 _symmetry_equiv_pos_site_id
 _symmetry_equiv_pos_as_xyz
  1  'x, y, z'
loop_
 _atom_site_type_symbol
 _atom_site_label
 _atom_site_symmetry_multiplicity
 _atom_site_fract_x
 _atom_site_fract_y
 _atom_site_fract_z
 _atom_site_occupancy
  Tb  Tb0  1  0.250000  0.036218  0.679308  1
  Tb  Tb1  1  0.250000  0.527208  0.818764  1
  Tb  Tb2  1  0.750000  0.979204  0.319688  1
  Tb  Tb3  1  0.750000  0.464654  0.185726  1
  Al  Al4  1  0.250000  0.147186  0.063997  1
  Al  Al5  1  0.250000  0.636774  0.436770  1
  Al  Al6  1  0.750000  0.858960  0.936863  1
  Al  Al7  1  0.750000  0.352600  0.561851  1
  Pd  Pd8  1  0.250000  0.774796  0.115800  1
  Pd  Pd9  1  0.750000  0.727206  0.617493  1
  Ru  Ru10  1  0.250000  0.266034  0.382581  1
  Pt  Pt11  1  0.750000  0.229159  0.881158  1
