# generated using pymatgen
data_Gd7HoTe12
_symmetry_space_group_name_H-M   'P 1'
_cell_length_a   14.48015094
_cell_length_b   13.81009356
_cell_length_c   7.54935000
_cell_angle_alpha   79.48942855
_cell_angle_beta   69.67268704
_cell_angle_gamma   30.83216673
_symmetry_Int_Tables_number   1
_chemical_formula_structural   Gd7HoTe12
_chemical_formula_sum   'Gd7 Ho1 Te12'
_cell_volume   704.15058459
_cell_formula_units_Z   1
loop_
 _symmetry_equiv_pos_site_id
 _symmetry_equiv_pos_as_xyz
  1  'x, y, z'
loop_
 _atom_site_type_symbol
 _atom_site_label
 _atom_site_symmetry_multiplicity
 _atom_site_fract_x
 _atom_site_fract_y
 _atom_site_fract_z
 _atom_site_occupancy
  Gd  Gd0  1  0.332644  0.332644  0.167356  1
  Gd  Gd1  1  0.167293  0.167293  0.332707  1
  Gd  Gd2  1  0.917238  0.917238  0.082762  1
  Gd  Gd3  1  0.082932  0.082932  0.917068  1
  Gd  Gd4  1  0.999984  0.999984  0.500016  1
  Gd  Gd5  1  0.500169  0.500169  0.999831  1
  Gd  Gd6  1  0.250098  0.250098  0.749902  1
  Ho  Ho7  1  0.749829  0.749829  0.250171  1
  Te  Te8  1  0.994356  0.505619  0.502521  1
  Te  Te9  1  0.505619  0.994356  0.997504  1
  Te  Te10  1  0.253889  0.746216  0.746117  1
  Te  Te11  1  0.746216  0.253889  0.253778  1
  Te  Te12  1  0.665460  0.167996  0.832220  1
  Te  Te13  1  0.832333  0.334323  0.665510  1
  Te  Te14  1  0.334323  0.832333  0.167835  1
  Te  Te15  1  0.167996  0.665460  0.334324  1
  Te  Te16  1  0.586040  0.079164  0.416588  1
  Te  Te17  1  0.420135  0.914283  0.582404  1
  Te  Te18  1  0.914283  0.420135  0.083178  1
  Te  Te19  1  0.079164  0.586040  0.918209  1
