# generated using pymatgen
data_ScNb8CoSe16
_symmetry_space_group_name_H-M   'P 1'
_cell_length_a   7.00334600
_cell_length_b   7.00334553
_cell_length_c   13.05630400
_cell_angle_alpha   90.00000000
_cell_angle_beta   90.00000000
_cell_angle_gamma   120.00000224
_symmetry_Int_Tables_number   1
_chemical_formula_structural   ScNb8CoSe16
_chemical_formula_sum   'Sc1 Nb8 Co1 Se16'
_cell_volume   554.57720213
_cell_formula_units_Z   1
loop_
 _symmetry_equiv_pos_site_id
 _symmetry_equiv_pos_as_xyz
  1  'x, y, z'
loop_
 _atom_site_type_symbol
 _atom_site_label
 _atom_site_symmetry_multiplicity
 _atom_site_fract_x
 _atom_site_fract_y
 _atom_site_fract_z
 _atom_site_occupancy
  Sc  Sc0  1  0.000000  0.000000  0.500000  1
  Nb  Nb1  1  0.000000  0.000000  0.238920  1
  Nb  Nb2  1  0.000000  0.000000  0.761080  1
  Nb  Nb3  1  0.507756  0.015512  0.238429  1
  Nb  Nb4  1  0.984488  0.492244  0.238429  1
  Nb  Nb5  1  0.507756  0.492244  0.238429  1
  Nb  Nb6  1  0.492244  0.984488  0.761571  1
  Nb  Nb7  1  0.015512  0.507756  0.761571  1
  Nb  Nb8  1  0.492244  0.507756  0.761571  1
  Co  Co9  1  0.000000  0.000000  0.000000  1
  Se  Se10  1  0.333333  0.666667  0.893510  1
  Se  Se11  1  0.666667  0.333333  0.106490  1
  Se  Se12  1  0.666667  0.333333  0.372392  1
  Se  Se13  1  0.333333  0.666667  0.627608  1
  Se  Se14  1  0.169011  0.830989  0.366613  1
  Se  Se15  1  0.169011  0.338022  0.366613  1
  Se  Se16  1  0.661978  0.830989  0.366613  1
  Se  Se17  1  0.830989  0.169011  0.633387  1
  Se  Se18  1  0.830989  0.661978  0.633387  1
  Se  Se19  1  0.338022  0.169011  0.633387  1
  Se  Se20  1  0.832416  0.167584  0.887343  1
  Se  Se21  1  0.832416  0.664832  0.887343  1
  Se  Se22  1  0.335168  0.167584  0.887343  1
  Se  Se23  1  0.167584  0.832416  0.112657  1
  Se  Se24  1  0.167584  0.335168  0.112657  1
  Se  Se25  1  0.664832  0.832416  0.112657  1
