# generated using pymatgen
data_Dy3BSbRh6
_symmetry_space_group_name_H-M   'P 1'
_cell_length_a   5.85250500
_cell_length_b   5.85250474
_cell_length_c   13.62751300
_cell_angle_alpha   90.00000000
_cell_angle_beta   90.00000000
_cell_angle_gamma   119.99999579
_symmetry_Int_Tables_number   1
_chemical_formula_structural   Dy3BSbRh6
_chemical_formula_sum   'Dy6 B2 Sb2 Rh12'
_cell_volume   404.23212346
_cell_formula_units_Z   2
loop_
 _symmetry_equiv_pos_site_id
 _symmetry_equiv_pos_as_xyz
  1  'x, y, z'
loop_
 _atom_site_type_symbol
 _atom_site_label
 _atom_site_symmetry_multiplicity
 _atom_site_fract_x
 _atom_site_fract_y
 _atom_site_fract_z
 _atom_site_occupancy
  Dy  Dy0  1  0.000000  0.000000  0.750000  1
  Dy  Dy1  1  0.000000  0.000000  0.250000  1
  Dy  Dy2  1  0.333333  0.666667  0.411322  1
  Dy  Dy3  1  0.666667  0.333333  0.911322  1
  Dy  Dy4  1  0.666667  0.333333  0.588678  1
  Dy  Dy5  1  0.333333  0.666667  0.088678  1
  B  B6  1  0.000000  0.000000  0.500000  1
  B  B7  1  0.000000  0.000000  0.000000  1
  Sb  Sb8  1  0.333333  0.666667  0.750000  1
  Sb  Sb9  1  0.666667  0.333333  0.250000  1
  Rh  Rh10  1  0.344917  0.172459  0.412681  1
  Rh  Rh11  1  0.827541  0.172459  0.412681  1
  Rh  Rh12  1  0.827541  0.655083  0.412681  1
  Rh  Rh13  1  0.172459  0.344917  0.912681  1
  Rh  Rh14  1  0.655083  0.827541  0.587319  1
  Rh  Rh15  1  0.655083  0.827541  0.912681  1
  Rh  Rh16  1  0.344917  0.172459  0.087319  1
  Rh  Rh17  1  0.172459  0.344917  0.587319  1
  Rh  Rh18  1  0.172459  0.827541  0.587319  1
  Rh  Rh19  1  0.827541  0.172459  0.087319  1
  Rh  Rh20  1  0.827541  0.655083  0.087319  1
  Rh  Rh21  1  0.172459  0.827541  0.912681  1
