# generated using pymatgen
data_Er3SiP2Ru3
_symmetry_space_group_name_H-M   'P 1'
_cell_length_a   6.87183900
_cell_length_b   6.87183862
_cell_length_c   3.71949400
_cell_angle_alpha   90.00000000
_cell_angle_beta   90.00000000
_cell_angle_gamma   119.99999699
_symmetry_Int_Tables_number   1
_chemical_formula_structural   Er3SiP2Ru3
_chemical_formula_sum   'Er3 Si1 P2 Ru3'
_cell_volume   152.11093482
_cell_formula_units_Z   1
loop_
 _symmetry_equiv_pos_site_id
 _symmetry_equiv_pos_as_xyz
  1  'x, y, z'
loop_
 _atom_site_type_symbol
 _atom_site_label
 _atom_site_symmetry_multiplicity
 _atom_site_fract_x
 _atom_site_fract_y
 _atom_site_fract_z
 _atom_site_occupancy
  Er  Er0  1  0.412847  0.412847  0.500000  1
  Er  Er1  1  0.587153  0.000000  0.500000  1
  Er  Er2  1  0.000000  0.587153  0.500000  1
  Si  Si3  1  0.000000  0.000000  0.500000  1
  P  P4  1  0.666667  0.333333  0.000000  1
  P  P5  1  0.333333  0.666667  0.000000  1
  Ru  Ru6  1  0.000000  0.241061  0.000000  1
  Ru  Ru7  1  0.241061  0.000000  0.000000  1
  Ru  Ru8  1  0.758939  0.758939  0.000000  1
