# generated using pymatgen
data_NdSm3(P4Rh7)2
_symmetry_space_group_name_H-M   'P 1'
_cell_length_a   3.95815600
_cell_length_b   9.68283858
_cell_length_c   10.85592378
_cell_angle_alpha   89.93449697
_cell_angle_beta   90.00000000
_cell_angle_gamma   90.00000000
_symmetry_Int_Tables_number   1
_chemical_formula_structural   NdSm3(P4Rh7)2
_chemical_formula_sum   'Nd1 Sm3 P8 Rh14'
_cell_volume   416.06587783
_cell_formula_units_Z   1
loop_
 _symmetry_equiv_pos_site_id
 _symmetry_equiv_pos_as_xyz
  1  'x, y, z'
loop_
 _atom_site_type_symbol
 _atom_site_label
 _atom_site_symmetry_multiplicity
 _atom_site_fract_x
 _atom_site_fract_y
 _atom_site_fract_z
 _atom_site_occupancy
  Nd  Nd0  1  0.000000  0.553689  0.000159  1
  Sm  Sm1  1  0.500000  0.446621  0.500163  1
  Sm  Sm2  1  0.500000  0.058359  0.282349  1
  Sm  Sm3  1  0.000000  0.941548  0.782150  1
  P  P4  1  0.000000  0.820664  0.286593  1
  P  P5  1  0.000000  0.186281  0.460779  1
  P  P6  1  0.500000  0.179069  0.786437  1
  P  P7  1  0.000000  0.152568  0.097113  1
  P  P8  1  0.500000  0.478930  0.225904  1
  P  P9  1  0.500000  0.814151  0.960745  1
  P  P10  1  0.500000  0.847747  0.597056  1
  P  P11  1  0.000000  0.520419  0.724034  1
  Rh  Rh12  1  0.500000  0.313315  0.080393  1
  Rh  Rh13  1  0.500000  0.756499  0.405843  1
  Rh  Rh14  1  0.500000  0.413626  0.798883  1
  Rh  Rh15  1  0.500000  0.058346  0.976598  1
  Rh  Rh16  1  0.500000  0.699352  0.770581  1
  Rh  Rh17  1  0.000000  0.279377  0.658003  1
  Rh  Rh18  1  0.000000  0.243099  0.905187  1
  Rh  Rh19  1  0.000000  0.685145  0.578896  1
  Rh  Rh20  1  0.500000  0.097021  0.584586  1
  Rh  Rh21  1  0.000000  0.301295  0.270994  1
  Rh  Rh22  1  0.000000  0.586074  0.300995  1
  Rh  Rh23  1  0.000000  0.903444  0.084931  1
  Rh  Rh24  1  0.000000  0.941669  0.476612  1
  Rh  Rh25  1  0.500000  0.721692  0.159414  1
