# generated using pymatgen
data_Gd4PuCo4
_symmetry_space_group_name_H-M   'P 1'
_cell_length_a   5.82212341
_cell_length_b   5.82212269
_cell_length_c   9.22014071
_cell_angle_alpha   108.47894655
_cell_angle_beta   108.47894631
_cell_angle_gamma   39.66229469
_symmetry_Int_Tables_number   1
_chemical_formula_structural   Gd4PuCo4
_chemical_formula_sum   'Gd4 Pu1 Co4'
_cell_volume   187.81557268
_cell_formula_units_Z   1
loop_
 _symmetry_equiv_pos_site_id
 _symmetry_equiv_pos_as_xyz
  1  'x, y, z'
loop_
 _atom_site_type_symbol
 _atom_site_label
 _atom_site_symmetry_multiplicity
 _atom_site_fract_x
 _atom_site_fract_y
 _atom_site_fract_z
 _atom_site_occupancy
  Gd  Gd0  1  0.268387  0.268387  0.174539  1
  Gd  Gd1  1  0.609409  0.609409  0.395475  1
  Gd  Gd2  1  0.390590  0.390590  0.604526  1
  Gd  Gd3  1  0.731613  0.731613  0.825461  1
  Pu  Pu4  1  0.500000  0.500000  0.000000  1
  Co  Co5  1  0.969459  0.969459  0.146905  1
  Co  Co6  1  0.914361  0.914361  0.379116  1
  Co  Co7  1  0.085639  0.085639  0.620885  1
  Co  Co8  1  0.030541  0.030541  0.853095  1
