# generated using pymatgen
data_Ce8Co3Si12Os
_symmetry_space_group_name_H-M   'P 1'
_cell_length_a   8.10777601
_cell_length_b   8.10739972
_cell_length_c   8.17971601
_cell_angle_alpha   89.99781269
_cell_angle_beta   90.00037130
_cell_angle_gamma   120.00254558
_symmetry_Int_Tables_number   1
_chemical_formula_structural   Ce8Co3Si12Os
_chemical_formula_sum   'Ce8 Co3 Si12 Os1'
_cell_volume   465.63009698
_cell_formula_units_Z   1
loop_
 _symmetry_equiv_pos_site_id
 _symmetry_equiv_pos_as_xyz
  1  'x, y, z'
loop_
 _atom_site_type_symbol
 _atom_site_label
 _atom_site_symmetry_multiplicity
 _atom_site_fract_x
 _atom_site_fract_y
 _atom_site_fract_z
 _atom_site_occupancy
  Ce  Ce0  1  0.000007  0.000005  0.251795  1
  Ce  Ce1  1  0.999992  0.000004  0.748659  1
  Ce  Ce2  1  0.498709  0.501276  0.248811  1
  Ce  Ce3  1  0.498698  0.997393  0.248815  1
  Ce  Ce4  1  0.002589  0.501293  0.248810  1
  Ce  Ce5  1  0.499366  0.500641  0.751873  1
  Ce  Ce6  1  0.499386  0.998769  0.751876  1
  Ce  Ce7  1  0.001257  0.500630  0.751875  1
  Co  Co8  1  0.333340  0.666685  0.491641  1
  Co  Co9  1  0.666657  0.333301  0.507184  1
  Co  Co10  1  0.666662  0.333310  0.993437  1
  Si  Si11  1  0.170021  0.830014  0.501677  1
  Si  Si12  1  0.170014  0.340014  0.501653  1
  Si  Si13  1  0.659961  0.829991  0.501679  1
  Si  Si14  1  0.830079  0.169885  0.498792  1
  Si  Si15  1  0.830081  0.660175  0.498779  1
  Si  Si16  1  0.339841  0.169906  0.498805  1
  Si  Si17  1  0.828999  0.170960  0.001319  1
  Si  Si18  1  0.829009  0.658037  0.001332  1
  Si  Si19  1  0.341989  0.170981  0.001307  1
  Si  Si20  1  0.163684  0.836345  0.999304  1
  Si  Si21  1  0.163676  0.327347  0.999352  1
  Si  Si22  1  0.672638  0.836331  0.999328  1
  Os  Os23  1  0.333341  0.666712  0.001897  1
