# generated using pymatgen
data_In2Ni20AgP6
_symmetry_space_group_name_H-M   'P 1'
_cell_length_a   7.88588238
_cell_length_b   7.88588274
_cell_length_c   7.88588200
_cell_angle_alpha   59.99999471
_cell_angle_beta   59.99999319
_cell_angle_gamma   59.99999698
_symmetry_Int_Tables_number   1
_chemical_formula_structural   In2Ni20AgP6
_chemical_formula_sum   'In2 Ni20 Ag1 P6'
_cell_volume   346.76546330
_cell_formula_units_Z   1
loop_
 _symmetry_equiv_pos_site_id
 _symmetry_equiv_pos_as_xyz
  1  'x, y, z'
loop_
 _atom_site_type_symbol
 _atom_site_label
 _atom_site_symmetry_multiplicity
 _atom_site_fract_x
 _atom_site_fract_y
 _atom_site_fract_z
 _atom_site_occupancy
  In  In0  1  0.750000  0.750000  0.750000  1
  In  In1  1  0.250000  0.250000  0.250000  1
  Ni  Ni2  1  0.384636  0.846090  0.384636  1
  Ni  Ni3  1  0.384636  0.384636  0.846090  1
  Ni  Ni4  1  0.349651  0.000000  0.650349  1
  Ni  Ni5  1  0.000000  0.349651  0.650349  1
  Ni  Ni6  1  0.153910  0.615364  0.615364  1
  Ni  Ni7  1  0.650349  0.000000  0.000000  1
  Ni  Ni8  1  0.846090  0.384636  0.384636  1
  Ni  Ni9  1  0.650349  0.349651  0.000000  1
  Ni  Ni10  1  0.000000  0.349651  0.000000  1
  Ni  Ni11  1  0.349651  0.650349  0.000000  1
  Ni  Ni12  1  0.000000  0.000000  0.349651  1
  Ni  Ni13  1  0.615364  0.153910  0.615364  1
  Ni  Ni14  1  0.650349  0.000000  0.349651  1
  Ni  Ni15  1  0.000000  0.650349  0.000000  1
  Ni  Ni16  1  0.615364  0.615364  0.153910  1
  Ni  Ni17  1  0.000000  0.650349  0.349651  1
  Ni  Ni18  1  0.349651  0.000000  0.000000  1
  Ni  Ni19  1  0.000000  0.000000  0.650349  1
  Ni  Ni20  1  0.384636  0.384636  0.384636  1
  Ni  Ni21  1  0.615364  0.615364  0.615364  1
  Ag  Ag22  1  0.000000  0.000000  0.000000  1
  P  P23  1  0.264749  0.264749  0.735251  1
  P  P24  1  0.264749  0.735251  0.264749  1
  P  P25  1  0.735251  0.264749  0.264749  1
  P  P26  1  0.264749  0.735251  0.735251  1
  P  P27  1  0.735251  0.264749  0.735251  1
  P  P28  1  0.735251  0.735251  0.264749  1
