# generated using pymatgen
data_La7Ho13Pt16
_symmetry_space_group_name_H-M   'P 1'
_cell_length_a   7.61608405
_cell_length_b   14.94392621
_cell_length_c   7.68445000
_cell_angle_alpha   90.02288162
_cell_angle_beta   89.99375591
_cell_angle_gamma   89.90860251
_symmetry_Int_Tables_number   1
_chemical_formula_structural   La7Ho13Pt16
_chemical_formula_sum   'La7 Ho13 Pt16'
_cell_volume   874.59832568
_cell_formula_units_Z   1
loop_
 _symmetry_equiv_pos_site_id
 _symmetry_equiv_pos_as_xyz
  1  'x, y, z'
loop_
 _atom_site_type_symbol
 _atom_site_label
 _atom_site_symmetry_multiplicity
 _atom_site_fract_x
 _atom_site_fract_y
 _atom_site_fract_z
 _atom_site_occupancy
  La  La0  1  0.001583  0.403672  0.177229  1
  La  La1  1  0.497687  0.595516  0.676687  1
  La  La2  1  0.501946  0.094281  0.321394  1
  La  La3  1  0.998058  0.907089  0.826122  1
  La  La4  1  0.997660  0.594592  0.822396  1
  La  La5  1  0.502247  0.403721  0.322983  1
  La  La6  1  0.497912  0.904365  0.676170  1
  Ho  Ho7  1  0.320764  0.247785  0.008120  1
  Ho  Ho8  1  0.177213  0.751016  0.508121  1
  Ho  Ho9  1  0.822261  0.248356  0.491199  1
  Ho  Ho10  1  0.678250  0.750356  0.991732  1
  Ho  Ho11  1  0.004055  0.097598  0.179326  1
  Ho  Ho12  1  0.342721  0.623367  0.169016  1
  Ho  Ho13  1  0.157057  0.375161  0.669313  1
  Ho  Ho14  1  0.844919  0.878907  0.329491  1
  Ho  Ho15  1  0.660431  0.122228  0.833277  1
  Ho  Ho16  1  0.657605  0.375408  0.831518  1
  Ho  Ho17  1  0.842562  0.623773  0.331740  1
  Ho  Ho18  1  0.157550  0.123083  0.668635  1
  Ho  Ho19  1  0.341633  0.877179  0.167682  1
  Pt  Pt20  1  0.177723  0.543525  0.465795  1
  Pt  Pt21  1  0.323001  0.455427  0.965469  1
  Pt  Pt22  1  0.677055  0.958506  0.037130  1
  Pt  Pt23  1  0.827047  0.046908  0.527781  1
  Pt  Pt24  1  0.823349  0.455743  0.535094  1
  Pt  Pt25  1  0.676998  0.543649  0.035008  1
  Pt  Pt26  1  0.313899  0.045366  0.970960  1
  Pt  Pt27  1  0.176834  0.958624  0.461142  1
  Pt  Pt28  1  0.453585  0.249044  0.625123  1
  Pt  Pt29  1  0.045820  0.750313  0.126216  1
  Pt  Pt30  1  0.955375  0.248017  0.877604  1
  Pt  Pt31  1  0.545876  0.750932  0.373239  1
  Pt  Pt32  1  0.185249  0.246814  0.361095  1
  Pt  Pt33  1  0.311117  0.750656  0.863721  1
  Pt  Pt34  1  0.690661  0.247769  0.136486  1
  Pt  Pt35  1  0.812295  0.751258  0.635984  1
