# generated using pymatgen
data_Dy8Ta9Ti2Si16Tc
_symmetry_space_group_name_H-M   'P 1'
_cell_length_a   7.01183738
_cell_length_b   7.01655641
_cell_length_c   12.97603318
_cell_angle_alpha   90.08679497
_cell_angle_beta   90.06032283
_cell_angle_gamma   90.01881961
_symmetry_Int_Tables_number   1
_chemical_formula_structural   Dy8Ta9Ti2Si16Tc
_chemical_formula_sum   'Dy8 Ta9 Ti2 Si16 Tc1'
_cell_volume   638.40611920
_cell_formula_units_Z   1
loop_
 _symmetry_equiv_pos_site_id
 _symmetry_equiv_pos_as_xyz
  1  'x, y, z'
loop_
 _atom_site_type_symbol
 _atom_site_label
 _atom_site_symmetry_multiplicity
 _atom_site_fract_x
 _atom_site_fract_y
 _atom_site_fract_z
 _atom_site_occupancy
  Dy  Dy0  1  0.000284  0.657681  0.034117  1
  Dy  Dy1  1  0.002791  0.341641  0.530525  1
  Dy  Dy2  1  0.659039  0.997579  0.967369  1
  Dy  Dy3  1  0.159138  0.502312  0.781654  1
  Dy  Dy4  1  0.840653  0.497952  0.282449  1
  Dy  Dy5  1  0.502718  0.158886  0.219716  1
  Dy  Dy6  1  0.497024  0.840356  0.716682  1
  Dy  Dy7  1  0.340837  0.000046  0.467342  1
  Ta  Ta8  1  0.845989  0.993490  0.374451  1
  Ta  Ta9  1  0.010774  0.156733  0.127785  1
  Ta  Ta10  1  0.995186  0.845324  0.624261  1
  Ta  Ta11  1  0.506972  0.345613  0.624130  1
  Ta  Ta12  1  0.154765  0.007471  0.873329  1
  Ta  Ta13  1  0.671705  0.670433  0.500069  1
  Ta  Ta14  1  0.829045  0.170606  0.750406  1
  Ta  Ta15  1  0.170846  0.832033  0.249659  1
  Ta  Ta16  1  0.326967  0.326682  0.001200  1
  Ti  Ti17  1  0.495157  0.653621  0.123241  1
  Ti  Ti18  1  0.655271  0.492735  0.875470  1
  Si  Si19  1  0.047630  0.705641  0.434712  1
  Si  Si20  1  0.954397  0.295103  0.936260  1
  Si  Si21  1  0.706926  0.045868  0.563469  1
  Si  Si22  1  0.210038  0.459062  0.188404  1
  Si  Si23  1  0.792893  0.544723  0.686856  1
  Si  Si24  1  0.456068  0.207143  0.814923  1
  Si  Si25  1  0.540996  0.786331  0.312712  1
  Si  Si26  1  0.295202  0.953189  0.064043  1
  Si  Si27  1  0.793728  0.867013  0.182847  1
  Si  Si28  1  0.298199  0.632026  0.565310  1
  Si  Si29  1  0.701184  0.368322  0.066744  1
  Si  Si30  1  0.626478  0.300915  0.432153  1
  Si  Si31  1  0.368579  0.700307  0.934341  1
  Si  Si32  1  0.133823  0.207755  0.318977  1
  Si  Si33  1  0.202025  0.134440  0.681842  1
  Si  Si34  1  0.865919  0.794480  0.817016  1
  Tc  Tc35  1  0.340753  0.506489  0.375536  1
