# generated using pymatgen
data_Tm3(Sn2Ru)2
_symmetry_space_group_name_H-M   'P 1'
_cell_length_a   7.69400200
_cell_length_b   7.69400234
_cell_length_c   3.91106000
_cell_angle_alpha   90.00000000
_cell_angle_beta   90.00000000
_cell_angle_gamma   119.99999971
_symmetry_Int_Tables_number   1
_chemical_formula_structural   Tm3(Sn2Ru)2
_chemical_formula_sum   'Tm3 Sn4 Ru2'
_cell_volume   200.50708365
_cell_formula_units_Z   1
loop_
 _symmetry_equiv_pos_site_id
 _symmetry_equiv_pos_as_xyz
  1  'x, y, z'
loop_
 _atom_site_type_symbol
 _atom_site_label
 _atom_site_symmetry_multiplicity
 _atom_site_fract_x
 _atom_site_fract_y
 _atom_site_fract_z
 _atom_site_occupancy
  Tm  Tm0  1  0.030835  0.415273  0.500000  1
  Tm  Tm1  1  0.584727  0.615562  0.500000  1
  Tm  Tm2  1  0.384438  0.969165  0.500000  1
  Sn  Sn3  1  0.013966  0.753831  0.000000  1
  Sn  Sn4  1  0.246169  0.260136  0.000000  1
  Sn  Sn5  1  0.739864  0.986034  0.000000  1
  Sn  Sn6  1  0.666667  0.333333  0.000000  1
  Ru  Ru7  1  0.333333  0.666667  0.000000  1
  Ru  Ru8  1  0.000000  0.000000  0.500000  1
