# generated using pymatgen
data_Nd10Sn4Bi2S
_symmetry_space_group_name_H-M   'P 1'
_cell_length_a   6.48029461
_cell_length_b   9.54966500
_cell_length_c   9.54414800
_cell_angle_alpha   119.98080107
_cell_angle_beta   90.02480936
_cell_angle_gamma   89.98752452
_symmetry_Int_Tables_number   1
_chemical_formula_structural   Nd10Sn4Bi2S
_chemical_formula_sum   'Nd10 Sn4 Bi2 S1'
_cell_volume   511.60482325
_cell_formula_units_Z   1
loop_
 _symmetry_equiv_pos_site_id
 _symmetry_equiv_pos_as_xyz
  1  'x, y, z'
loop_
 _atom_site_type_symbol
 _atom_site_label
 _atom_site_symmetry_multiplicity
 _atom_site_fract_x
 _atom_site_fract_y
 _atom_site_fract_z
 _atom_site_occupancy
  Nd  Nd0  1  0.498044  0.329990  0.666115  1
  Nd  Nd1  1  0.498044  0.670010  0.336125  1
  Nd  Nd2  1  0.002353  0.669895  0.336085  1
  Nd  Nd3  1  0.002353  0.330105  0.666187  1
  Nd  Nd4  1  0.749605  0.243093  0.995166  1
  Nd  Nd5  1  0.749605  0.756906  0.752073  1
  Nd  Nd6  1  0.749310  0.999999  0.249415  1
  Nd  Nd7  1  0.250285  0.753369  0.999898  1
  Nd  Nd8  1  0.250288  0.246635  0.246531  1
  Nd  Nd9  1  0.250774  0.000000  0.752376  1
  Sn  Sn10  1  0.749390  0.999999  0.607954  1
  Sn  Sn11  1  0.250384  0.390224  0.001362  1
  Sn  Sn12  1  0.250385  0.609778  0.611139  1
  Sn  Sn13  1  0.249820  0.000000  0.389906  1
  Bi  Bi14  1  0.749402  0.610068  0.999312  1
  Bi  Bi15  1  0.749400  0.389932  0.389244  1
  S  S16  1  0.500557  0.000000  0.001112  1
