# generated using pymatgen
data_Tb4TmLu15(CoSb2)4
_symmetry_space_group_name_H-M   'P 1'
_cell_length_a   7.71438700
_cell_length_b   8.73096500
_cell_length_c   11.96283700
_cell_angle_alpha   90.00000000
_cell_angle_beta   90.00131801
_cell_angle_gamma   90.00000000
_symmetry_Int_Tables_number   1
_chemical_formula_structural   Tb4TmLu15(CoSb2)4
_chemical_formula_sum   'Tb4 Tm1 Lu15 Co4 Sb8'
_cell_volume   805.74543634
_cell_formula_units_Z   1
loop_
 _symmetry_equiv_pos_site_id
 _symmetry_equiv_pos_as_xyz
  1  'x, y, z'
loop_
 _atom_site_type_symbol
 _atom_site_label
 _atom_site_symmetry_multiplicity
 _atom_site_fract_x
 _atom_site_fract_y
 _atom_site_fract_z
 _atom_site_occupancy
  Tb  Tb0  1  0.622489  0.750000  0.307360  1
  Tb  Tb1  1  0.122239  0.250000  0.192882  1
  Tb  Tb2  1  0.378214  0.250000  0.692556  1
  Tb  Tb3  1  0.878193  0.750000  0.807130  1
  Tm  Tm4  1  0.155843  0.750000  0.204591  1
  Lu  Lu5  1  0.656959  0.250000  0.295683  1
  Lu  Lu6  1  0.842734  0.250000  0.795295  1
  Lu  Lu7  1  0.343084  0.750000  0.704940  1
  Lu  Lu8  1  0.443157  0.750000  0.997030  1
  Lu  Lu9  1  0.944220  0.250000  0.502787  1
  Lu  Lu10  1  0.554310  0.250000  0.001982  1
  Lu  Lu11  1  0.055833  0.750000  0.497903  1
  Lu  Lu12  1  0.824420  0.962777  0.065047  1
  Lu  Lu13  1  0.325969  0.038587  0.434473  1
  Lu  Lu14  1  0.174864  0.460333  0.933744  1
  Lu  Lu15  1  0.675479  0.539168  0.566407  1
  Lu  Lu16  1  0.174864  0.039667  0.933744  1
  Lu  Lu17  1  0.675479  0.960832  0.566407  1
  Lu  Lu18  1  0.824420  0.537223  0.065047  1
  Lu  Lu19  1  0.325969  0.461413  0.434473  1
  Co  Co20  1  0.429327  0.750000  0.491823  1
  Co  Co21  1  0.928874  0.250000  0.008473  1
  Co  Co22  1  0.571859  0.250000  0.509024  1
  Co  Co23  1  0.070115  0.750000  0.990605  1
  Sb  Sb24  1  0.931136  0.991395  0.330095  1
  Sb  Sb25  1  0.432088  0.009005  0.170286  1
  Sb  Sb26  1  0.068856  0.490880  0.670383  1
  Sb  Sb27  1  0.568462  0.509071  0.829532  1
  Sb  Sb28  1  0.068856  0.009120  0.670383  1
  Sb  Sb29  1  0.568462  0.990929  0.829532  1
  Sb  Sb30  1  0.931136  0.508605  0.330095  1
  Sb  Sb31  1  0.432088  0.490995  0.170286  1
