# generated using pymatgen
data_NpNbFeB6
_symmetry_space_group_name_H-M   'P 1'
_cell_length_a   3.35597100
_cell_length_b   8.91435400
_cell_length_c   11.21803900
_cell_angle_alpha   90.00000000
_cell_angle_beta   90.00000000
_cell_angle_gamma   90.00000000
_symmetry_Int_Tables_number   1
_chemical_formula_structural   NpNbFeB6
_chemical_formula_sum   'Np4 Nb4 Fe4 B24'
_cell_volume   335.60237167
_cell_formula_units_Z   4
loop_
 _symmetry_equiv_pos_site_id
 _symmetry_equiv_pos_as_xyz
  1  'x, y, z'
loop_
 _atom_site_type_symbol
 _atom_site_label
 _atom_site_symmetry_multiplicity
 _atom_site_fract_x
 _atom_site_fract_y
 _atom_site_fract_z
 _atom_site_occupancy
  Np  Np0  1  0.000000  0.823744  0.086141  1
  Np  Np1  1  0.000000  0.176256  0.913859  1
  Np  Np2  1  0.000000  0.323744  0.413859  1
  Np  Np3  1  0.000000  0.676256  0.586141  1
  Nb  Nb4  1  0.000000  0.444830  0.128347  1
  Nb  Nb5  1  0.000000  0.555170  0.871653  1
  Nb  Nb6  1  0.000000  0.944830  0.371653  1
  Nb  Nb7  1  0.000000  0.055170  0.628347  1
  Fe  Fe8  1  0.000000  0.143149  0.182564  1
  Fe  Fe9  1  0.000000  0.856851  0.817436  1
  Fe  Fe10  1  0.000000  0.643149  0.317436  1
  Fe  Fe11  1  0.000000  0.356851  0.682564  1
  B  B12  1  0.500000  0.054023  0.067000  1
  B  B13  1  0.500000  0.945977  0.933000  1
  B  B14  1  0.500000  0.554023  0.433000  1
  B  B15  1  0.500000  0.445977  0.567000  1
  B  B16  1  0.500000  0.252125  0.081930  1
  B  B17  1  0.500000  0.747875  0.918070  1
  B  B18  1  0.500000  0.752125  0.418070  1
  B  B19  1  0.500000  0.247875  0.581930  1
  B  B20  1  0.500000  0.296947  0.236350  1
  B  B21  1  0.500000  0.703053  0.763650  1
  B  B22  1  0.500000  0.796947  0.263650  1
  B  B23  1  0.500000  0.203053  0.736350  1
  B  B24  1  0.500000  0.131283  0.317702  1
  B  B25  1  0.500000  0.868717  0.682298  1
  B  B26  1  0.500000  0.631283  0.182298  1
  B  B27  1  0.500000  0.368717  0.817702  1
  B  B28  1  0.500000  0.482475  0.287052  1
  B  B29  1  0.500000  0.517525  0.712948  1
  B  B30  1  0.500000  0.982475  0.212948  1
  B  B31  1  0.500000  0.017525  0.787052  1
  B  B32  1  0.500000  0.101248  0.473324  1
  B  B33  1  0.500000  0.898752  0.526676  1
  B  B34  1  0.500000  0.601248  0.026676  1
  B  B35  1  0.500000  0.398752  0.973324  1
