# generated using pymatgen
data_Th6Al21Si3Ru8
_symmetry_space_group_name_H-M   'P 1'
_cell_length_a   8.91290300
_cell_length_b   8.91290462
_cell_length_c   9.55418900
_cell_angle_alpha   90.00000000
_cell_angle_beta   90.00000000
_cell_angle_gamma   119.99999770
_symmetry_Int_Tables_number   1
_chemical_formula_structural   Th6Al21Si3Ru8
_chemical_formula_sum   'Th6 Al21 Si3 Ru8'
_cell_volume   657.29890530
_cell_formula_units_Z   1
loop_
 _symmetry_equiv_pos_site_id
 _symmetry_equiv_pos_as_xyz
  1  'x, y, z'
loop_
 _atom_site_type_symbol
 _atom_site_label
 _atom_site_symmetry_multiplicity
 _atom_site_fract_x
 _atom_site_fract_y
 _atom_site_fract_z
 _atom_site_occupancy
  Th  Th0  1  0.194004  0.388007  0.250852  1
  Th  Th1  1  0.805628  0.611254  0.750068  1
  Th  Th2  1  0.611993  0.805996  0.250852  1
  Th  Th3  1  0.388746  0.194372  0.750068  1
  Th  Th4  1  0.194004  0.805996  0.250852  1
  Th  Th5  1  0.805628  0.194372  0.750068  1
  Al  Al6  1  0.333333  0.666667  0.491954  1
  Al  Al7  1  0.162161  0.324322  0.577522  1
  Al  Al8  1  0.836497  0.672992  0.421753  1
  Al  Al9  1  0.675678  0.837839  0.577522  1
  Al  Al10  1  0.837166  0.674332  0.078007  1
  Al  Al11  1  0.327008  0.163503  0.421753  1
  Al  Al12  1  0.163290  0.326578  0.921175  1
  Al  Al13  1  0.162161  0.837839  0.577522  1
  Al  Al14  1  0.325668  0.162834  0.078007  1
  Al  Al15  1  0.836497  0.163503  0.421753  1
  Al  Al16  1  0.673422  0.836710  0.921175  1
  Al  Al17  1  0.837166  0.162834  0.078007  1
  Al  Al18  1  0.163290  0.836710  0.921175  1
  Al  Al19  1  0.565100  0.130201  0.248624  1
  Al  Al20  1  0.435469  0.870938  0.748358  1
  Al  Al21  1  0.869799  0.434900  0.248624  1
  Al  Al22  1  0.129062  0.564531  0.748358  1
  Al  Al23  1  0.565100  0.434900  0.248624  1
  Al  Al24  1  0.435469  0.564531  0.748358  1
  Al  Al25  1  0.000000  0.000000  0.249236  1
  Al  Al26  1  0.000000  0.000000  0.749424  1
  Si  Si27  1  0.333333  0.666667  0.027252  1
  Si  Si28  1  0.666667  0.333333  0.975598  1
  Si  Si29  1  0.666667  0.333333  0.523502  1
  Ru  Ru30  1  0.499895  0.999791  0.998163  1
  Ru  Ru31  1  0.000209  0.500105  0.998163  1
  Ru  Ru32  1  0.503937  0.007874  0.500305  1
  Ru  Ru33  1  0.499895  0.500105  0.998163  1
  Ru  Ru34  1  0.992126  0.496063  0.500305  1
  Ru  Ru35  1  0.503937  0.496063  0.500305  1
  Ru  Ru36  1  0.000000  0.000000  0.999164  1
  Ru  Ru37  1  0.000000  0.000000  0.499387  1
