# generated using pymatgen
data_Tb5SmFe4(Co7P6)2
_symmetry_space_group_name_H-M   'P 1'
_cell_length_a   3.71892200
_cell_length_b   10.59292400
_cell_length_c   12.15912600
_cell_angle_alpha   90.00000000
_cell_angle_beta   90.00000000
_cell_angle_gamma   90.00000000
_symmetry_Int_Tables_number   1
_chemical_formula_structural   Tb5SmFe4(Co7P6)2
_chemical_formula_sum   'Tb5 Sm1 Fe4 Co14 P12'
_cell_volume   478.99974801
_cell_formula_units_Z   1
loop_
 _symmetry_equiv_pos_site_id
 _symmetry_equiv_pos_as_xyz
  1  'x, y, z'
loop_
 _atom_site_type_symbol
 _atom_site_label
 _atom_site_symmetry_multiplicity
 _atom_site_fract_x
 _atom_site_fract_y
 _atom_site_fract_z
 _atom_site_occupancy
  Tb  Tb0  1  0.500000  0.000000  0.477835  1
  Tb  Tb1  1  0.500000  0.819227  0.204233  1
  Tb  Tb2  1  0.500000  0.180773  0.204233  1
  Tb  Tb3  1  0.000000  0.681073  0.796012  1
  Tb  Tb4  1  0.000000  0.318927  0.796012  1
  Sm  Sm5  1  0.000000  0.500000  0.522455  1
  Fe  Fe6  1  0.500000  0.500000  0.154600  1
  Fe  Fe7  1  0.000000  0.000000  0.844722  1
  Fe  Fe8  1  0.000000  0.500000  0.989061  1
  Fe  Fe9  1  0.500000  0.000000  0.011160  1
  Co  Co10  1  0.500000  0.500000  0.702649  1
  Co  Co11  1  0.000000  0.000000  0.298501  1
  Co  Co12  1  0.500000  0.331780  0.994837  1
  Co  Co13  1  0.500000  0.668220  0.994837  1
  Co  Co14  1  0.000000  0.168078  0.005222  1
  Co  Co15  1  0.000000  0.831922  0.005222  1
  Co  Co16  1  0.500000  0.295328  0.430020  1
  Co  Co17  1  0.500000  0.704672  0.430020  1
  Co  Co18  1  0.000000  0.202670  0.569846  1
  Co  Co19  1  0.000000  0.797330  0.569846  1
  Co  Co20  1  0.500000  0.879671  0.709732  1
  Co  Co21  1  0.500000  0.120329  0.709732  1
  Co  Co22  1  0.000000  0.620844  0.289862  1
  Co  Co23  1  0.000000  0.379156  0.289862  1
  P  P24  1  0.500000  0.500000  0.885581  1
  P  P25  1  0.000000  0.000000  0.114794  1
  P  P26  1  0.500000  0.500000  0.339250  1
  P  P27  1  0.000000  0.000000  0.659050  1
  P  P28  1  0.500000  0.307929  0.616763  1
  P  P29  1  0.500000  0.692071  0.616763  1
  P  P30  1  0.000000  0.190475  0.383687  1
  P  P31  1  0.000000  0.809525  0.383687  1
  P  P32  1  0.500000  0.847720  0.893946  1
  P  P33  1  0.500000  0.152280  0.893946  1
  P  P34  1  0.000000  0.652551  0.106013  1
  P  P35  1  0.000000  0.347449  0.106013  1
