# generated using pymatgen
data_Tb4Ga4Pd3Pt
_symmetry_space_group_name_H-M   'P 1'
_cell_length_a   4.47269500
_cell_length_b   6.95228981
_cell_length_c   7.71788611
_cell_angle_alpha   90.33561463
_cell_angle_beta   90.00000000
_cell_angle_gamma   90.00000000
_symmetry_Int_Tables_number   1
_chemical_formula_structural   Tb4Ga4Pd3Pt
_chemical_formula_sum   'Tb4 Ga4 Pd3 Pt1'
_cell_volume   239.98719325
_cell_formula_units_Z   1
loop_
 _symmetry_equiv_pos_site_id
 _symmetry_equiv_pos_as_xyz
  1  'x, y, z'
loop_
 _atom_site_type_symbol
 _atom_site_label
 _atom_site_symmetry_multiplicity
 _atom_site_fract_x
 _atom_site_fract_y
 _atom_site_fract_z
 _atom_site_occupancy
  Tb  Tb0  1  0.750000  0.517991  0.801258  1
  Tb  Tb1  1  0.250000  0.985469  0.302797  1
  Tb  Tb2  1  0.250000  0.480884  0.199225  1
  Tb  Tb3  1  0.750000  0.018644  0.696965  1
  Ga  Ga4  1  0.750000  0.673037  0.425252  1
  Ga  Ga5  1  0.250000  0.326550  0.574921  1
  Ga  Ga6  1  0.750000  0.175151  0.073971  1
  Ga  Ga7  1  0.250000  0.825770  0.926246  1
  Pd  Pd8  1  0.250000  0.720710  0.598520  1
  Pd  Pd9  1  0.250000  0.220704  0.901584  1
  Pd  Pd10  1  0.750000  0.778929  0.097556  1
  Pt  Pt11  1  0.750000  0.276160  0.401706  1
