# generated using pymatgen
data_Ho12ZnCo4Pb
_symmetry_space_group_name_H-M   'P 1'
_cell_length_a   8.32237222
_cell_length_b   8.32237329
_cell_length_c   8.32237254
_cell_angle_alpha   111.93545590
_cell_angle_beta   109.24862001
_cell_angle_gamma   107.26371942
_symmetry_Int_Tables_number   1
_chemical_formula_structural   Ho12ZnCo4Pb
_chemical_formula_sum   'Ho12 Zn1 Co4 Pb1'
_cell_volume   442.98517593
_cell_formula_units_Z   1
loop_
 _symmetry_equiv_pos_site_id
 _symmetry_equiv_pos_as_xyz
  1  'x, y, z'
loop_
 _atom_site_type_symbol
 _atom_site_label
 _atom_site_symmetry_multiplicity
 _atom_site_fract_x
 _atom_site_fract_y
 _atom_site_fract_z
 _atom_site_occupancy
  Ho  Ho0  1  0.972611  0.272232  0.700381  1
  Ho  Ho1  1  0.027389  0.727768  0.299619  1
  Ho  Ho2  1  0.676181  0.862466  0.186286  1
  Ho  Ho3  1  0.323819  0.510106  0.186286  1
  Ho  Ho4  1  0.323819  0.137534  0.813714  1
  Ho  Ho5  1  0.676181  0.489894  0.813714  1
  Ho  Ho6  1  0.571851  0.272232  0.299619  1
  Ho  Ho7  1  0.428149  0.727768  0.700381  1
  Ho  Ho8  1  0.180531  0.783299  0.963830  1
  Ho  Ho9  1  0.819469  0.783299  0.602769  1
  Ho  Ho10  1  0.180531  0.216701  0.397231  1
  Ho  Ho11  1  0.819469  0.216701  0.036170  1
  Zn  Zn12  1  0.000000  0.500000  0.500000  1
  Co  Co13  1  0.114315  0.114315  0.000000  1
  Co  Co14  1  0.885685  0.885685  0.000000  1
  Co  Co15  1  0.657872  0.500000  0.157872  1
  Co  Co16  1  0.342128  0.500000  0.842128  1
  Pb  Pb17  1  0.500000  0.000000  0.500000  1
