# generated using pymatgen
data_Tm4Tc2Os5W
_symmetry_space_group_name_H-M   'P 1'
_cell_length_a   5.45005124
_cell_length_b   5.22027066
_cell_length_c   8.90990700
_cell_angle_alpha   90.00000000
_cell_angle_beta   90.00000000
_cell_angle_gamma   120.83352639
_symmetry_Int_Tables_number   1
_chemical_formula_structural   Tm4Tc2Os5W
_chemical_formula_sum   'Tm4 Tc2 Os5 W1'
_cell_volume   217.66473642
_cell_formula_units_Z   1
loop_
 _symmetry_equiv_pos_site_id
 _symmetry_equiv_pos_as_xyz
  1  'x, y, z'
loop_
 _atom_site_type_symbol
 _atom_site_label
 _atom_site_symmetry_multiplicity
 _atom_site_fract_x
 _atom_site_fract_y
 _atom_site_fract_z
 _atom_site_occupancy
  Tm  Tm0  1  0.671982  0.342938  0.563527  1
  Tm  Tm1  1  0.331677  0.665630  0.436057  1
  Tm  Tm2  1  0.331677  0.665630  0.063943  1
  Tm  Tm3  1  0.671982  0.342938  0.936473  1
  Tc  Tc4  1  0.826298  0.649613  0.250000  1
  Tc  Tc5  1  0.828582  0.170541  0.250000  1
  Os  Os6  1  0.002462  0.008613  0.497850  1
  Os  Os7  1  0.002462  0.008613  0.002150  1
  Os  Os8  1  0.175546  0.824729  0.750000  1
  Os  Os9  1  0.651183  0.825333  0.750000  1
  Os  Os10  1  0.341825  0.169023  0.250000  1
  W  W11  1  0.164327  0.326399  0.750000  1
