# generated using pymatgen
data_Sc12Mn2CoSi12Ru
_symmetry_space_group_name_H-M   'P 1'
_cell_length_a   3.97416300
_cell_length_b   10.22039431
_cell_length_c   11.72789569
_cell_angle_alpha   89.69674465
_cell_angle_beta   90.00000000
_cell_angle_gamma   90.00000000
_symmetry_Int_Tables_number   1
_chemical_formula_structural   Sc12Mn2CoSi12Ru
_chemical_formula_sum   'Sc12 Mn2 Co1 Si12 Ru1'
_cell_volume   476.35128270
_cell_formula_units_Z   1
loop_
 _symmetry_equiv_pos_site_id
 _symmetry_equiv_pos_as_xyz
  1  'x, y, z'
loop_
 _atom_site_type_symbol
 _atom_site_label
 _atom_site_symmetry_multiplicity
 _atom_site_fract_x
 _atom_site_fract_y
 _atom_site_fract_z
 _atom_site_occupancy
  Sc  Sc0  1  0.250000  0.879947  0.019963  1
  Sc  Sc1  1  0.250000  0.618668  0.522594  1
  Sc  Sc2  1  0.750000  0.124517  0.977970  1
  Sc  Sc3  1  0.750000  0.378379  0.477365  1
  Sc  Sc4  1  0.250000  0.921352  0.605102  1
  Sc  Sc5  1  0.250000  0.578341  0.102035  1
  Sc  Sc6  1  0.750000  0.077596  0.399083  1
  Sc  Sc7  1  0.750000  0.423275  0.900084  1
  Sc  Sc8  1  0.250000  0.651321  0.798227  1
  Sc  Sc9  1  0.250000  0.837902  0.299877  1
  Sc  Sc10  1  0.750000  0.337921  0.200396  1
  Sc  Sc11  1  0.750000  0.167531  0.700447  1
  Mn  Mn12  1  0.250000  0.114087  0.177321  1
  Mn  Mn13  1  0.750000  0.613261  0.323820  1
  Co  Co14  1  0.250000  0.387852  0.676218  1
  Si  Si15  1  0.250000  0.018985  0.821589  1
  Si  Si16  1  0.250000  0.485257  0.322931  1
  Si  Si17  1  0.750000  0.985788  0.177255  1
  Si  Si18  1  0.750000  0.503778  0.677864  1
  Si  Si19  1  0.250000  0.258293  0.838758  1
  Si  Si20  1  0.250000  0.246794  0.342320  1
  Si  Si21  1  0.750000  0.746959  0.157946  1
  Si  Si22  1  0.750000  0.746880  0.658584  1
  Si  Si23  1  0.250000  0.198313  0.546174  1
  Si  Si24  1  0.250000  0.306458  0.043466  1
  Si  Si25  1  0.750000  0.803604  0.456890  1
  Si  Si26  1  0.750000  0.696388  0.954920  1
  Ru  Ru27  1  0.750000  0.890552  0.820799  1
