# generated using pymatgen
data_Sr3Bi(Rh2O7)2
_symmetry_space_group_name_H-M   'P 1'
_cell_length_a   7.36888199
_cell_length_b   7.41859906
_cell_length_c   7.36888200
_cell_angle_alpha   60.22144322
_cell_angle_beta   59.99999996
_cell_angle_gamma   60.22144323
_symmetry_Int_Tables_number   1
_chemical_formula_structural   Sr3Bi(Rh2O7)2
_chemical_formula_sum   'Sr3 Bi1 Rh4 O14'
_cell_volume   285.79567914
_cell_formula_units_Z   1
loop_
 _symmetry_equiv_pos_site_id
 _symmetry_equiv_pos_as_xyz
  1  'x, y, z'
loop_
 _atom_site_type_symbol
 _atom_site_label
 _atom_site_symmetry_multiplicity
 _atom_site_fract_x
 _atom_site_fract_y
 _atom_site_fract_z
 _atom_site_occupancy
  Sr  Sr0  1  0.125000  0.125000  0.625000  1
  Sr  Sr1  1  0.625000  0.125000  0.125000  1
  Sr  Sr2  1  0.125000  0.125000  0.125000  1
  Bi  Bi3  1  0.125000  0.625000  0.125000  1
  Rh  Rh4  1  0.625000  0.625000  0.125000  1
  Rh  Rh5  1  0.625000  0.125000  0.625000  1
  Rh  Rh6  1  0.125000  0.625000  0.625000  1
  Rh  Rh7  1  0.625000  0.625000  0.625000  1
  O  O8  1  0.238617  0.284150  0.238617  1
  O  O9  1  0.011383  0.965850  0.011383  1
  O  O10  1  0.552210  0.945607  0.552210  1
  O  O11  1  0.298431  0.686634  0.298431  1
  O  O12  1  0.533494  0.563366  0.951569  1
  O  O13  1  0.951569  0.563366  0.533494  1
  O  O14  1  0.552210  0.945607  0.949973  1
  O  O15  1  0.949973  0.945607  0.552210  1
  O  O16  1  0.951569  0.563366  0.951569  1
  O  O17  1  0.697790  0.304393  0.300027  1
  O  O18  1  0.298431  0.686634  0.716506  1
  O  O19  1  0.697790  0.304393  0.697790  1
  O  O20  1  0.300027  0.304393  0.697790  1
  O  O21  1  0.716506  0.686634  0.298431  1
