# generated using pymatgen
data_Ta9NbSi6BH
_symmetry_space_group_name_H-M   'P 1'
_cell_length_a   7.58206428
_cell_length_b   7.58509834
_cell_length_c   5.29561522
_cell_angle_alpha   89.96666392
_cell_angle_beta   90.01666943
_cell_angle_gamma   120.01324913
_symmetry_Int_Tables_number   1
_chemical_formula_structural   Ta9NbSi6BH
_chemical_formula_sum   'Ta9 Nb1 Si6 B1 H1'
_cell_volume   263.71671733
_cell_formula_units_Z   1
loop_
 _symmetry_equiv_pos_site_id
 _symmetry_equiv_pos_as_xyz
  1  'x, y, z'
loop_
 _atom_site_type_symbol
 _atom_site_label
 _atom_site_symmetry_multiplicity
 _atom_site_fract_x
 _atom_site_fract_y
 _atom_site_fract_z
 _atom_site_occupancy
  Ta  Ta0  1  0.666440  0.333052  0.499998  1
  Ta  Ta1  1  0.333560  0.666613  0.499998  1
  Ta  Ta2  1  0.333715  0.666331  0.000141  1
  Ta  Ta3  1  0.666285  0.332615  0.000141  1
  Ta  Ta4  1  0.754295  0.754763  0.251762  1
  Ta  Ta5  1  0.245705  0.000468  0.251762  1
  Ta  Ta6  1  0.000000  0.245308  0.252296  1
  Ta  Ta7  1  0.245335  0.245503  0.747875  1
  Ta  Ta8  1  0.754665  0.000168  0.747875  1
  Nb  Nb9  1  0.000000  0.754476  0.747671  1
  Si  Si10  1  0.399457  0.399500  0.253471  1
  Si  Si11  1  0.600543  0.000044  0.253471  1
  Si  Si12  1  0.000000  0.600568  0.253456  1
  Si  Si13  1  0.600699  0.600686  0.746634  1
  Si  Si14  1  0.399301  0.999987  0.746634  1
  Si  Si15  1  0.000000  0.399402  0.746526  1
  B  B16  1  0.000000  0.000301  0.000279  1
  H  H17  1  0.000000  0.000217  0.500009  1
