# generated using pymatgen
data_NdTm2ZnRh8
_symmetry_space_group_name_H-M   'P 1'
_cell_length_a   5.33731872
_cell_length_b   5.33726540
_cell_length_c   17.13210800
_cell_angle_alpha   90.00000000
_cell_angle_beta   90.00000000
_cell_angle_gamma   119.99990139
_symmetry_Int_Tables_number   1
_chemical_formula_structural   NdTm2ZnRh8
_chemical_formula_sum   'Nd2 Tm4 Zn2 Rh16'
_cell_volume   422.65285164
_cell_formula_units_Z   2
loop_
 _symmetry_equiv_pos_site_id
 _symmetry_equiv_pos_as_xyz
  1  'x, y, z'
loop_
 _atom_site_type_symbol
 _atom_site_label
 _atom_site_symmetry_multiplicity
 _atom_site_fract_x
 _atom_site_fract_y
 _atom_site_fract_z
 _atom_site_occupancy
  Nd  Nd0  1  0.333366  0.666665  0.750000  1
  Nd  Nd1  1  0.666634  0.333335  0.250000  1
  Tm  Tm2  1  0.333323  0.666683  0.539510  1
  Tm  Tm3  1  0.666677  0.333317  0.039510  1
  Tm  Tm4  1  0.666677  0.333317  0.460490  1
  Tm  Tm5  1  0.333323  0.666683  0.960490  1
  Zn  Zn6  1  0.999932  0.999979  0.250000  1
  Zn  Zn7  1  0.000068  0.000021  0.750000  1
  Rh  Rh8  1  0.168493  0.336876  0.123646  1
  Rh  Rh9  1  0.831507  0.663124  0.623646  1
  Rh  Rh10  1  0.663091  0.831483  0.123632  1
  Rh  Rh11  1  0.168477  0.831532  0.123639  1
  Rh  Rh12  1  0.831523  0.168468  0.623639  1
  Rh  Rh13  1  0.336909  0.168517  0.623632  1
  Rh  Rh14  1  0.831507  0.663124  0.876354  1
  Rh  Rh15  1  0.831523  0.168468  0.876361  1
  Rh  Rh16  1  0.336909  0.168517  0.876368  1
  Rh  Rh17  1  0.663091  0.831483  0.376368  1
  Rh  Rh18  1  0.168477  0.831532  0.376361  1
  Rh  Rh19  1  0.168493  0.336876  0.376354  1
  Rh  Rh20  1  0.333410  0.666663  0.250000  1
  Rh  Rh21  1  0.666590  0.333337  0.750000  1
  Rh  Rh22  1  0.000000  0.000000  0.000000  1
  Rh  Rh23  1  0.000000  0.000000  0.500000  1
