# generated using pymatgen
data_Zr16Nb4Si15As
_symmetry_space_group_name_H-M   'P 1'
_cell_length_a   7.08849259
_cell_length_b   7.07274638
_cell_length_c   12.97543881
_cell_angle_alpha   90.02782533
_cell_angle_beta   89.76056241
_cell_angle_gamma   90.06599429
_symmetry_Int_Tables_number   1
_chemical_formula_structural   Zr16Nb4Si15As
_chemical_formula_sum   'Zr16 Nb4 Si15 As1'
_cell_volume   650.51886887
_cell_formula_units_Z   1
loop_
 _symmetry_equiv_pos_site_id
 _symmetry_equiv_pos_as_xyz
  1  'x, y, z'
loop_
 _atom_site_type_symbol
 _atom_site_label
 _atom_site_symmetry_multiplicity
 _atom_site_fract_x
 _atom_site_fract_y
 _atom_site_fract_z
 _atom_site_occupancy
  Zr  Zr0  1  0.354817  0.503188  0.376897  1
  Zr  Zr1  1  0.853334  0.999196  0.372874  1
  Zr  Zr2  1  0.002978  0.145439  0.125885  1
  Zr  Zr3  1  0.998924  0.854737  0.625887  1
  Zr  Zr4  1  0.645473  0.497432  0.876528  1
  Zr  Zr5  1  0.504635  0.353575  0.624100  1
  Zr  Zr6  1  0.496738  0.645062  0.123669  1
  Zr  Zr7  1  0.144901  0.002784  0.873856  1
  Zr  Zr8  1  0.999034  0.650476  0.034157  1
  Zr  Zr9  1  0.002042  0.347266  0.533957  1
  Zr  Zr10  1  0.650839  0.998859  0.966027  1
  Zr  Zr11  1  0.151221  0.502043  0.782446  1
  Zr  Zr12  1  0.844192  0.496102  0.280604  1
  Zr  Zr13  1  0.500878  0.151522  0.216279  1
  Zr  Zr14  1  0.501350  0.850200  0.717820  1
  Zr  Zr15  1  0.351212  0.003239  0.467531  1
  Nb  Nb16  1  0.672310  0.675812  0.499768  1
  Nb  Nb17  1  0.825274  0.175398  0.749844  1
  Nb  Nb18  1  0.174630  0.824766  0.248943  1
  Nb  Nb19  1  0.323910  0.324644  0.999805  1
  Si  Si20  1  0.950533  0.300975  0.935453  1
  Si  Si21  1  0.700354  0.048314  0.564344  1
  Si  Si22  1  0.199357  0.450613  0.185837  1
  Si  Si23  1  0.800522  0.549466  0.686016  1
  Si  Si24  1  0.450436  0.199613  0.814579  1
  Si  Si25  1  0.549044  0.801229  0.313611  1
  Si  Si26  1  0.300698  0.951017  0.063993  1
  Si  Si27  1  0.853067  0.797349  0.821182  1
  Si  Si28  1  0.148133  0.202418  0.321072  1
  Si  Si29  1  0.795977  0.853058  0.178355  1
  Si  Si30  1  0.303641  0.647133  0.577393  1
  Si  Si31  1  0.703285  0.352887  0.071632  1
  Si  Si32  1  0.646564  0.297032  0.428398  1
  Si  Si33  1  0.352261  0.702733  0.928408  1
  Si  Si34  1  0.203357  0.147239  0.679119  1
  As  As35  1  0.044077  0.697182  0.433731  1
