# generated using pymatgen
data_Re6S7Br4
_symmetry_space_group_name_H-M   'P 1'
_cell_length_a   11.87093114
_cell_length_b   11.87093048
_cell_length_c   11.87093114
_cell_angle_alpha   51.20053169
_cell_angle_beta   51.20053619
_cell_angle_gamma   51.20052611
_symmetry_Int_Tables_number   1
_chemical_formula_structural   Re6S7Br4
_chemical_formula_sum   'Re12 S14 Br8'
_cell_volume   937.63073053
_cell_formula_units_Z   2
loop_
 _symmetry_equiv_pos_site_id
 _symmetry_equiv_pos_as_xyz
  1  'x, y, z'
loop_
 _atom_site_type_symbol
 _atom_site_label
 _atom_site_symmetry_multiplicity
 _atom_site_fract_x
 _atom_site_fract_y
 _atom_site_fract_z
 _atom_site_occupancy
  Re  Re0  1  0.521831  0.395265  0.688305  1
  Re  Re1  1  0.395265  0.688305  0.521831  1
  Re  Re2  1  0.688305  0.521831  0.395265  1
  Re  Re3  1  0.188305  0.895265  0.021831  1
  Re  Re4  1  0.895265  0.021831  0.188305  1
  Re  Re5  1  0.021831  0.188305  0.895265  1
  Re  Re6  1  0.479621  0.607683  0.311025  1
  Re  Re7  1  0.607683  0.311025  0.479621  1
  Re  Re8  1  0.311025  0.479621  0.607683  1
  Re  Re9  1  0.811025  0.107683  0.979621  1
  Re  Re10  1  0.107683  0.979621  0.811025  1
  Re  Re11  1  0.979621  0.811025  0.107683  1
  S  S12  1  0.788650  0.248869  0.556539  1
  S  S13  1  0.248869  0.556539  0.788650  1
  S  S14  1  0.556539  0.788650  0.248869  1
  S  S15  1  0.056539  0.748869  0.288650  1
  S  S16  1  0.748869  0.288650  0.056539  1
  S  S17  1  0.288650  0.056539  0.748869  1
  S  S18  1  0.211142  0.752404  0.443345  1
  S  S19  1  0.752404  0.443345  0.211142  1
  S  S20  1  0.443345  0.211142  0.752404  1
  S  S21  1  0.943345  0.252404  0.711142  1
  S  S22  1  0.252404  0.711142  0.943345  1
  S  S23  1  0.711142  0.943345  0.252404  1
  S  S24  1  0.596306  0.596306  0.596306  1
  S  S25  1  0.096306  0.096306  0.096306  1
  Br  Br26  1  0.964812  0.536236  0.252153  1
  Br  Br27  1  0.536236  0.252153  0.964812  1
  Br  Br28  1  0.252153  0.964812  0.536236  1
  Br  Br29  1  0.752153  0.036236  0.464812  1
  Br  Br30  1  0.036236  0.464812  0.752153  1
  Br  Br31  1  0.464812  0.752153  0.036236  1
  Br  Br32  1  0.395778  0.395778  0.395778  1
  Br  Br33  1  0.895778  0.895778  0.895778  1
