# generated using pymatgen
data_Tb20Ir9PtAu2
_symmetry_space_group_name_H-M   'P 1'
_cell_length_a   11.09345801
_cell_length_b   11.10434841
_cell_length_c   6.35302999
_cell_angle_alpha   89.90036742
_cell_angle_beta   90.01869665
_cell_angle_gamma   90.30621135
_symmetry_Int_Tables_number   1
_chemical_formula_structural   Tb20Ir9PtAu2
_chemical_formula_sum   'Tb20 Ir9 Pt1 Au2'
_cell_volume   782.58955668
_cell_formula_units_Z   1
loop_
 _symmetry_equiv_pos_site_id
 _symmetry_equiv_pos_as_xyz
  1  'x, y, z'
loop_
 _atom_site_type_symbol
 _atom_site_label
 _atom_site_symmetry_multiplicity
 _atom_site_fract_x
 _atom_site_fract_y
 _atom_site_fract_z
 _atom_site_occupancy
  Tb  Tb0  1  0.296237  0.083832  0.360801  1
  Tb  Tb1  1  0.295545  0.903991  0.876181  1
  Tb  Tb2  1  0.701992  0.088508  0.863310  1
  Tb  Tb3  1  0.700154  0.905264  0.370873  1
  Tb  Tb4  1  0.584342  0.789858  0.877076  1
  Tb  Tb5  1  0.581146  0.210547  0.378261  1
  Tb  Tb6  1  0.408817  0.790426  0.378733  1
  Tb  Tb7  1  0.417741  0.210893  0.877409  1
  Tb  Tb8  1  0.211190  0.420661  0.621688  1
  Tb  Tb9  1  0.209717  0.591547  0.121397  1
  Tb  Tb10  1  0.789528  0.419465  0.121656  1
  Tb  Tb11  1  0.790057  0.587293  0.624181  1
  Tb  Tb12  1  0.913986  0.705802  0.132747  1
  Tb  Tb13  1  0.908098  0.300139  0.635334  1
  Tb  Tb14  1  0.092986  0.705869  0.625365  1
  Tb  Tb15  1  0.092837  0.302427  0.136048  1
  Tb  Tb16  1  0.000452  0.991220  0.500974  1
  Tb  Tb17  1  0.002606  0.993441  0.999119  1
  Tb  Tb18  1  0.499020  0.499700  0.001031  1
  Tb  Tb19  1  0.500822  0.501072  0.498878  1
  Ir  Ir20  1  0.152591  0.847378  0.249754  1
  Ir  Ir21  1  0.653662  0.346004  0.750304  1
  Ir  Ir22  1  0.655512  0.653182  0.247711  1
  Ir  Ir23  1  0.346474  0.343876  0.252337  1
  Ir  Ir24  1  0.347230  0.652519  0.749516  1
  Ir  Ir25  1  0.500393  0.000386  0.116627  1
  Ir  Ir26  1  0.498872  0.000434  0.619357  1
  Ir  Ir27  1  0.000048  0.500003  0.880653  1
  Ir  Ir28  1  0.000265  0.499345  0.383202  1
  Pt  Pt29  1  0.844024  0.843653  0.750110  1
  Au  Au30  1  0.846352  0.153992  0.250021  1
  Au  Au31  1  0.157304  0.157268  0.749347  1
