# generated using pymatgen
data_Tm4Ga20CoTc5
_symmetry_space_group_name_H-M   'P 1'
_cell_length_a   9.06678300
_cell_length_b   9.06678300
_cell_length_c   6.17473100
_cell_angle_alpha   90.00000000
_cell_angle_beta   90.00000000
_cell_angle_gamma   90.00000000
_symmetry_Int_Tables_number   1
_chemical_formula_structural   Tm4Ga20CoTc5
_chemical_formula_sum   'Tm4 Ga20 Co1 Tc5'
_cell_volume   507.60335720
_cell_formula_units_Z   1
loop_
 _symmetry_equiv_pos_site_id
 _symmetry_equiv_pos_as_xyz
  1  'x, y, z'
loop_
 _atom_site_type_symbol
 _atom_site_label
 _atom_site_symmetry_multiplicity
 _atom_site_fract_x
 _atom_site_fract_y
 _atom_site_fract_z
 _atom_site_occupancy
  Tm  Tm0  1  0.184460  0.318722  0.000000  1
  Tm  Tm1  1  0.681278  0.184460  0.000000  1
  Tm  Tm2  1  0.815540  0.681278  0.000000  1
  Tm  Tm3  1  0.318722  0.815540  0.000000  1
  Ga  Ga4  1  0.500000  0.000000  0.283961  1
  Ga  Ga5  1  0.500000  0.000000  0.716039  1
  Ga  Ga6  1  0.293998  0.559457  0.709648  1
  Ga  Ga7  1  0.000000  0.500000  0.283961  1
  Ga  Ga8  1  0.000000  0.500000  0.716039  1
  Ga  Ga9  1  0.059266  0.796515  0.715263  1
  Ga  Ga10  1  0.203485  0.059266  0.284737  1
  Ga  Ga11  1  0.059266  0.796515  0.284737  1
  Ga  Ga12  1  0.706002  0.440543  0.709648  1
  Ga  Ga13  1  0.203485  0.059266  0.715263  1
  Ga  Ga14  1  0.940734  0.203485  0.715263  1
  Ga  Ga15  1  0.706002  0.440543  0.290352  1
  Ga  Ga16  1  0.559457  0.706002  0.290352  1
  Ga  Ga17  1  0.940734  0.203485  0.284737  1
  Ga  Ga18  1  0.559457  0.706002  0.709648  1
  Ga  Ga19  1  0.796515  0.940734  0.284737  1
  Ga  Ga20  1  0.440543  0.293998  0.709648  1
  Ga  Ga21  1  0.796515  0.940734  0.715263  1
  Ga  Ga22  1  0.440543  0.293998  0.290352  1
  Ga  Ga23  1  0.293998  0.559457  0.290352  1
  Co  Co24  1  0.000000  0.000000  0.000000  1
  Tc  Tc25  1  0.176970  0.317761  0.500000  1
  Tc  Tc26  1  0.317761  0.823030  0.500000  1
  Tc  Tc27  1  0.823030  0.682239  0.500000  1
  Tc  Tc28  1  0.682239  0.176970  0.500000  1
  Tc  Tc29  1  0.500000  0.500000  0.000000  1
