# generated using pymatgen
data_Ho20IrPd6Rh5
_symmetry_space_group_name_H-M   'P 1'
_cell_length_a   11.03268318
_cell_length_b   11.03268295
_cell_length_c   6.28071949
_cell_angle_alpha   89.94720443
_cell_angle_beta   89.94721108
_cell_angle_gamma   90.40033974
_symmetry_Int_Tables_number   1
_chemical_formula_structural   Ho20IrPd6Rh5
_chemical_formula_sum   'Ho20 Ir1 Pd6 Rh5'
_cell_volume   764.47046159
_cell_formula_units_Z   1
loop_
 _symmetry_equiv_pos_site_id
 _symmetry_equiv_pos_as_xyz
  1  'x, y, z'
loop_
 _atom_site_type_symbol
 _atom_site_label
 _atom_site_symmetry_multiplicity
 _atom_site_fract_x
 _atom_site_fract_y
 _atom_site_fract_z
 _atom_site_occupancy
  Ho  Ho0  1  0.292643  0.081920  0.369251  1
  Ho  Ho1  1  0.291944  0.904208  0.877847  1
  Ho  Ho2  1  0.705537  0.086643  0.871281  1
  Ho  Ho3  1  0.703674  0.911607  0.370605  1
  Ho  Ho4  1  0.580367  0.791866  0.868900  1
  Ho  Ho5  1  0.587065  0.205522  0.371760  1
  Ho  Ho6  1  0.405733  0.790708  0.378913  1
  Ho  Ho7  1  0.411559  0.203665  0.870334  1
  Ho  Ho8  1  0.208134  0.419633  0.631100  1
  Ho  Ho9  1  0.209292  0.594267  0.121087  1
  Ho  Ho10  1  0.794478  0.412935  0.128240  1
  Ho  Ho11  1  0.796335  0.588441  0.629666  1
  Ho  Ho12  1  0.918080  0.707357  0.130749  1
  Ho  Ho13  1  0.913357  0.294463  0.628719  1
  Ho  Ho14  1  0.095792  0.708056  0.622153  1
  Ho  Ho15  1  0.088393  0.296326  0.129395  1
  Ho  Ho16  1  0.000635  0.997512  0.500525  1
  Ho  Ho17  1  0.002488  0.999365  0.999475  1
  Ho  Ho18  1  0.497197  0.500940  0.000224  1
  Ho  Ho19  1  0.499060  0.502803  0.499776  1
  Ir  Ir20  1  0.347023  0.652977  0.750000  1
  Pd  Pd21  1  0.845814  0.154186  0.250000  1
  Pd  Pd22  1  0.843210  0.844442  0.750663  1
  Pd  Pd23  1  0.155558  0.156790  0.749337  1
  Pd  Pd24  1  0.654090  0.345910  0.750000  1
  Pd  Pd25  1  0.657118  0.655770  0.249865  1
  Pd  Pd26  1  0.344230  0.342882  0.250135  1
  Rh  Rh27  1  0.152214  0.847786  0.250000  1
  Rh  Rh28  1  0.500869  0.000675  0.122551  1
  Rh  Rh29  1  0.500282  0.001497  0.622023  1
  Rh  Rh30  1  0.998503  0.499718  0.877977  1
  Rh  Rh31  1  0.999325  0.499131  0.377449  1
