# generated using pymatgen
data_Ho5Er11(In3Au)2
_symmetry_space_group_name_H-M   'P 1'
_cell_length_a   10.54831200
_cell_length_b   10.54831052
_cell_length_c   6.83462600
_cell_angle_alpha   89.99902845
_cell_angle_beta   90.00097508
_cell_angle_gamma   119.99854296
_symmetry_Int_Tables_number   1
_chemical_formula_structural   Ho5Er11(In3Au)2
_chemical_formula_sum   'Ho5 Er11 In6 Au2'
_cell_volume   658.59379591
_cell_formula_units_Z   1
loop_
 _symmetry_equiv_pos_site_id
 _symmetry_equiv_pos_as_xyz
  1  'x, y, z'
loop_
 _atom_site_type_symbol
 _atom_site_label
 _atom_site_symmetry_multiplicity
 _atom_site_fract_x
 _atom_site_fract_y
 _atom_site_fract_z
 _atom_site_occupancy
  Ho  Ho0  1  0.523550  0.047095  0.796317  1
  Ho  Ho1  1  0.952905  0.476450  0.796317  1
  Ho  Ho2  1  0.523548  0.476452  0.796324  1
  Ho  Ho3  1  0.476451  0.952924  0.296317  1
  Ho  Ho4  1  0.047076  0.523549  0.296317  1
  Er  Er5  1  0.476453  0.523547  0.296358  1
  Er  Er6  1  0.827219  0.654522  0.512049  1
  Er  Er7  1  0.345478  0.172781  0.512049  1
  Er  Er8  1  0.827261  0.172739  0.512079  1
  Er  Er9  1  0.172759  0.345494  0.012114  1
  Er  Er10  1  0.654506  0.827241  0.012114  1
  Er  Er11  1  0.172733  0.827267  0.012056  1
  Er  Er12  1  0.666647  0.333353  0.153204  1
  Er  Er13  1  0.333352  0.666648  0.653107  1
  Er  Er14  1  0.000009  0.999991  0.777088  1
  Er  Er15  1  0.999999  0.000001  0.277145  1
  In  In16  1  0.836113  0.672242  0.032127  1
  In  In17  1  0.327758  0.163887  0.032127  1
  In  In18  1  0.836123  0.163877  0.032110  1
  In  In19  1  0.163917  0.327778  0.532110  1
  In  In20  1  0.672222  0.836083  0.532110  1
  In  In21  1  0.163875  0.836125  0.532149  1
  Au  Au22  1  0.666664  0.333336  0.566078  1
  Au  Au23  1  0.333381  0.666619  0.066145  1
