# generated using pymatgen
data_TbY3Al18Ir5Pt
_symmetry_space_group_name_H-M   'P 1'
_cell_length_a   7.56766140
_cell_length_b   7.56770840
_cell_length_c   9.47927602
_cell_angle_alpha   89.97998782
_cell_angle_beta   89.97930167
_cell_angle_gamma   119.59433962
_symmetry_Int_Tables_number   1
_chemical_formula_structural   TbY3Al18Ir5Pt
_chemical_formula_sum   'Tb1 Y3 Al18 Ir5 Pt1'
_cell_volume   472.05496195
_cell_formula_units_Z   1
loop_
 _symmetry_equiv_pos_site_id
 _symmetry_equiv_pos_as_xyz
  1  'x, y, z'
loop_
 _atom_site_type_symbol
 _atom_site_label
 _atom_site_symmetry_multiplicity
 _atom_site_fract_x
 _atom_site_fract_y
 _atom_site_fract_z
 _atom_site_occupancy
  Tb  Tb0  1  0.994505  0.670528  0.250614  1
  Y  Y1  1  0.005078  0.329367  0.749483  1
  Y  Y2  1  0.670620  0.994939  0.250509  1
  Y  Y3  1  0.329453  0.005512  0.749373  1
  Al  Al4  1  0.128245  0.127494  0.250481  1
  Al  Al5  1  0.872503  0.871748  0.749518  1
  Al  Al6  1  0.004099  0.335164  0.075938  1
  Al  Al7  1  0.002247  0.668436  0.923995  1
  Al  Al8  1  0.999834  0.665033  0.574077  1
  Al  Al9  1  0.335006  0.000190  0.425926  1
  Al  Al10  1  0.000672  0.334538  0.425526  1
  Al  Al11  1  0.665434  0.999328  0.574451  1
  Al  Al12  1  0.664805  0.995895  0.924090  1
  Al  Al13  1  0.331609  0.997782  0.076007  1
  Al  Al14  1  0.333181  0.333134  0.551703  1
  Al  Al15  1  0.666836  0.666823  0.448299  1
  Al  Al16  1  0.666189  0.669320  0.054297  1
  Al  Al17  1  0.330678  0.333783  0.945707  1
  Al  Al18  1  0.340240  0.548925  0.250343  1
  Al  Al19  1  0.660162  0.453274  0.747440  1
  Al  Al20  1  0.546724  0.339848  0.252556  1
  Al  Al21  1  0.451102  0.659788  0.749656  1
  Ir  Ir22  1  0.328302  0.671677  0.999987  1
  Ir  Ir23  1  0.328493  0.671484  0.500013  1
  Ir  Ir24  1  0.671889  0.328065  0.500014  1
  Ir  Ir25  1  0.999856  0.000165  0.999982  1
  Ir  Ir26  1  0.000252  0.999760  0.500019  1
  Pt  Pt27  1  0.671985  0.327999  0.999996  1
