# generated using pymatgen
data_Tb4ZnCd3Rh4
_symmetry_space_group_name_H-M   'P 1'
_cell_length_a   4.09053700
_cell_length_b   7.08487111
_cell_length_c   8.64318179
_cell_angle_alpha   89.73483427
_cell_angle_beta   90.00000000
_cell_angle_gamma   90.00000000
_symmetry_Int_Tables_number   1
_chemical_formula_structural   Tb4ZnCd3Rh4
_chemical_formula_sum   'Tb4 Zn1 Cd3 Rh4'
_cell_volume   250.48474152
_cell_formula_units_Z   1
loop_
 _symmetry_equiv_pos_site_id
 _symmetry_equiv_pos_as_xyz
  1  'x, y, z'
loop_
 _atom_site_type_symbol
 _atom_site_label
 _atom_site_symmetry_multiplicity
 _atom_site_fract_x
 _atom_site_fract_y
 _atom_site_fract_z
 _atom_site_occupancy
  Tb  Tb0  1  0.250000  0.544585  0.184600  1
  Tb  Tb1  1  0.750000  0.454433  0.817645  1
  Tb  Tb2  1  0.250000  0.050925  0.323147  1
  Tb  Tb3  1  0.750000  0.953691  0.676353  1
  Zn  Zn4  1  0.750000  0.363205  0.440372  1
  Cd  Cd5  1  0.250000  0.138529  0.939462  1
  Cd  Cd6  1  0.750000  0.867784  0.060672  1
  Cd  Cd7  1  0.250000  0.628861  0.558092  1
  Rh  Rh8  1  0.750000  0.754588  0.368788  1
  Rh  Rh9  1  0.250000  0.240665  0.620664  1
  Rh  Rh10  1  0.750000  0.266095  0.144460  1
  Rh  Rh11  1  0.250000  0.736641  0.865745  1
