# generated using pymatgen
data_DyLu15(In3Co)2
_symmetry_space_group_name_H-M   'P 1'
_cell_length_a   10.16617000
_cell_length_b   10.16617095
_cell_length_c   6.87214700
_cell_angle_alpha   90.00000000
_cell_angle_beta   90.00000000
_cell_angle_gamma   120.00000341
_symmetry_Int_Tables_number   1
_chemical_formula_structural   DyLu15(In3Co)2
_chemical_formula_sum   'Dy1 Lu15 In6 Co2'
_cell_volume   615.08882060
_cell_formula_units_Z   1
loop_
 _symmetry_equiv_pos_site_id
 _symmetry_equiv_pos_as_xyz
  1  'x, y, z'
loop_
 _atom_site_type_symbol
 _atom_site_label
 _atom_site_symmetry_multiplicity
 _atom_site_fract_x
 _atom_site_fract_y
 _atom_site_fract_z
 _atom_site_occupancy
  Dy  Dy0  1  0.000000  0.000000  0.001248  1
  Lu  Lu1  1  0.534125  0.068250  0.512287  1
  Lu  Lu2  1  0.931750  0.465875  0.512287  1
  Lu  Lu3  1  0.534125  0.465875  0.512287  1
  Lu  Lu4  1  0.465848  0.931696  0.012315  1
  Lu  Lu5  1  0.068304  0.534152  0.012315  1
  Lu  Lu6  1  0.465848  0.534152  0.012315  1
  Lu  Lu7  1  0.178848  0.357696  0.720132  1
  Lu  Lu8  1  0.642304  0.821152  0.720132  1
  Lu  Lu9  1  0.178848  0.821152  0.720132  1
  Lu  Lu10  1  0.821070  0.642141  0.221471  1
  Lu  Lu11  1  0.357859  0.178930  0.221471  1
  Lu  Lu12  1  0.821070  0.178930  0.221471  1
  Lu  Lu13  1  0.666667  0.333333  0.903307  1
  Lu  Lu14  1  0.333333  0.666667  0.403735  1
  Lu  Lu15  1  0.000000  0.000000  0.500716  1
  In  In16  1  0.836596  0.673191  0.757972  1
  In  In17  1  0.326809  0.163404  0.757972  1
  In  In18  1  0.836596  0.163404  0.757972  1
  In  In19  1  0.163395  0.326790  0.261595  1
  In  In20  1  0.673210  0.836605  0.261595  1
  In  In21  1  0.163395  0.836605  0.261595  1
  Co  Co22  1  0.666667  0.333333  0.288300  1
  Co  Co23  1  0.333333  0.666667  0.789577  1
