# generated using pymatgen
data_Eu3ErCdPt
_symmetry_space_group_name_H-M   'P 1'
_cell_length_a   10.18701321
_cell_length_b   10.18701373
_cell_length_c   10.18701400
_cell_angle_alpha   59.99999913
_cell_angle_beta   59.99999743
_cell_angle_gamma   60.00000187
_symmetry_Int_Tables_number   1
_chemical_formula_structural   Eu3ErCdPt
_chemical_formula_sum   'Eu12 Er4 Cd4 Pt4'
_cell_volume   747.52489560
_cell_formula_units_Z   4
loop_
 _symmetry_equiv_pos_site_id
 _symmetry_equiv_pos_as_xyz
  1  'x, y, z'
loop_
 _atom_site_type_symbol
 _atom_site_label
 _atom_site_symmetry_multiplicity
 _atom_site_fract_x
 _atom_site_fract_y
 _atom_site_fract_z
 _atom_site_occupancy
  Eu  Eu0  1  0.803277  0.196723  0.196723  1
  Eu  Eu1  1  0.196723  0.803277  0.803277  1
  Eu  Eu2  1  0.196723  0.803277  0.196723  1
  Eu  Eu3  1  0.803277  0.196723  0.803277  1
  Eu  Eu4  1  0.196723  0.196723  0.803277  1
  Eu  Eu5  1  0.803277  0.803277  0.196723  1
  Eu  Eu6  1  0.941366  0.558634  0.558634  1
  Eu  Eu7  1  0.558634  0.941366  0.941366  1
  Eu  Eu8  1  0.558634  0.941366  0.558634  1
  Eu  Eu9  1  0.941366  0.558634  0.941366  1
  Eu  Eu10  1  0.558634  0.558634  0.941366  1
  Eu  Eu11  1  0.941366  0.941366  0.558634  1
  Er  Er12  1  0.342002  0.342002  0.342002  1
  Er  Er13  1  0.342002  0.342002  0.973994  1
  Er  Er14  1  0.342002  0.973994  0.342002  1
  Er  Er15  1  0.973994  0.342002  0.342002  1
  Cd  Cd16  1  0.577991  0.577991  0.577991  1
  Cd  Cd17  1  0.577991  0.577991  0.266026  1
  Cd  Cd18  1  0.577991  0.266026  0.577991  1
  Cd  Cd19  1  0.266026  0.577991  0.577991  1
  Pt  Pt20  1  0.146695  0.146695  0.146695  1
  Pt  Pt21  1  0.146695  0.146695  0.559914  1
  Pt  Pt22  1  0.146695  0.559914  0.146695  1
  Pt  Pt23  1  0.559914  0.146695  0.146695  1
