# generated using pymatgen
data_Zr2P7Ru12
_symmetry_space_group_name_H-M   'P 1'
_cell_length_a   9.37803300
_cell_length_b   9.37803191
_cell_length_c   3.89883500
_cell_angle_alpha   90.00000000
_cell_angle_beta   90.00000000
_cell_angle_gamma   119.99999232
_symmetry_Int_Tables_number   1
_chemical_formula_structural   Zr2P7Ru12
_chemical_formula_sum   'Zr2 P7 Ru12'
_cell_volume   296.95386634
_cell_formula_units_Z   1
loop_
 _symmetry_equiv_pos_site_id
 _symmetry_equiv_pos_as_xyz
  1  'x, y, z'
loop_
 _atom_site_type_symbol
 _atom_site_label
 _atom_site_symmetry_multiplicity
 _atom_site_fract_x
 _atom_site_fract_y
 _atom_site_fract_z
 _atom_site_occupancy
  Zr  Zr0  1  0.666667  0.333333  0.500000  1
  Zr  Zr1  1  0.333333  0.666667  0.000000  1
  P  P2  1  0.596407  0.716927  0.500000  1
  P  P3  1  0.000000  0.000000  0.000000  1
  P  P4  1  0.283073  0.879480  0.500000  1
  P  P5  1  0.120520  0.403593  0.500000  1
  P  P6  1  0.883627  0.576483  0.000000  1
  P  P7  1  0.423517  0.307143  0.000000  1
  P  P8  1  0.692857  0.116373  0.000000  1
  Ru  Ru9  1  0.552901  0.943985  0.500000  1
  Ru  Ru10  1  0.391085  0.447099  0.500000  1
  Ru  Ru11  1  0.911181  0.125726  0.500000  1
  Ru  Ru12  1  0.214545  0.088819  0.500000  1
  Ru  Ru13  1  0.874274  0.785455  0.500000  1
  Ru  Ru14  1  0.725575  0.888686  0.000000  1
  Ru  Ru15  1  0.111314  0.836889  0.000000  1
  Ru  Ru16  1  0.163111  0.274425  0.000000  1
  Ru  Ru17  1  0.431884  0.071413  0.000000  1
  Ru  Ru18  1  0.928587  0.360472  0.000000  1
  Ru  Ru19  1  0.639528  0.568116  0.000000  1
  Ru  Ru20  1  0.056015  0.608915  0.500000  1
