# generated using pymatgen
data_Ho4Al4GaNi9
_symmetry_space_group_name_H-M   'P 1'
_cell_length_a   5.17454935
_cell_length_b   5.17454942
_cell_length_c   12.16700688
_cell_angle_alpha   77.72249739
_cell_angle_beta   77.72249607
_cell_angle_gamma   60.00001328
_symmetry_Int_Tables_number   1
_chemical_formula_structural   Ho4Al4GaNi9
_chemical_formula_sum   'Ho4 Al4 Ga1 Ni9'
_cell_volume   273.49921755
_cell_formula_units_Z   1
loop_
 _symmetry_equiv_pos_site_id
 _symmetry_equiv_pos_as_xyz
  1  'x, y, z'
loop_
 _atom_site_type_symbol
 _atom_site_label
 _atom_site_symmetry_multiplicity
 _atom_site_fract_x
 _atom_site_fract_y
 _atom_site_fract_z
 _atom_site_occupancy
  Ho  Ho0  1  0.952202  0.952202  0.143392  1
  Ho  Ho1  1  0.047798  0.047798  0.856608  1
  Ho  Ho2  1  0.855080  0.855080  0.434760  1
  Ho  Ho3  1  0.144920  0.144920  0.565240  1
  Al  Al4  1  0.722336  0.722336  0.832992  1
  Al  Al5  1  0.277664  0.277664  0.167008  1
  Al  Al6  1  0.610454  0.610454  0.168637  1
  Al  Al7  1  0.389546  0.389546  0.831363  1
  Ga  Ga8  1  0.500000  0.500000  0.500000  1
  Ni  Ni9  1  0.000000  0.500000  0.000000  1
  Ni  Ni10  1  0.500000  0.000000  0.000000  1
  Ni  Ni11  1  0.500000  0.500000  0.000000  1
  Ni  Ni12  1  0.386664  0.386664  0.331829  1
  Ni  Ni13  1  0.894845  0.386664  0.331829  1
  Ni  Ni14  1  0.386664  0.894845  0.331829  1
  Ni  Ni15  1  0.613336  0.613336  0.668171  1
  Ni  Ni16  1  0.105155  0.613336  0.668171  1
  Ni  Ni17  1  0.613336  0.105155  0.668171  1
