# generated using pymatgen
data_Cs12K6AlGaAs8
_symmetry_space_group_name_H-M   'P 1'
_cell_length_a   10.64000500
_cell_length_b   10.64000421
_cell_length_c   11.22909300
_cell_angle_alpha   90.00000000
_cell_angle_beta   90.00000000
_cell_angle_gamma   119.99999935
_symmetry_Int_Tables_number   1
_chemical_formula_structural   Cs12K6AlGaAs8
_chemical_formula_sum   'Cs12 K6 Al1 Ga1 As8'
_cell_volume   1100.92807009
_cell_formula_units_Z   1
loop_
 _symmetry_equiv_pos_site_id
 _symmetry_equiv_pos_as_xyz
  1  'x, y, z'
loop_
 _atom_site_type_symbol
 _atom_site_label
 _atom_site_symmetry_multiplicity
 _atom_site_fract_x
 _atom_site_fract_y
 _atom_site_fract_z
 _atom_site_occupancy
  Cs  Cs0  1  0.208366  0.791634  0.953535  1
  Cs  Cs1  1  0.208366  0.416733  0.953535  1
  Cs  Cs2  1  0.583267  0.791634  0.953535  1
  Cs  Cs3  1  0.416502  0.208251  0.453403  1
  Cs  Cs4  1  0.791749  0.583498  0.046597  1
  Cs  Cs5  1  0.791749  0.208251  0.453403  1
  Cs  Cs6  1  0.791749  0.583498  0.453403  1
  Cs  Cs7  1  0.208366  0.791634  0.546465  1
  Cs  Cs8  1  0.583267  0.791634  0.546465  1
  Cs  Cs9  1  0.416502  0.208251  0.046597  1
  Cs  Cs10  1  0.791749  0.208251  0.046597  1
  Cs  Cs11  1  0.208366  0.416733  0.546465  1
  K  K12  1  0.241865  0.120933  0.750000  1
  K  K13  1  0.879067  0.120933  0.750000  1
  K  K14  1  0.757987  0.878994  0.250000  1
  K  K15  1  0.121006  0.242013  0.250000  1
  K  K16  1  0.121006  0.878994  0.250000  1
  K  K17  1  0.879067  0.758135  0.750000  1
  Al  Al18  1  0.666667  0.333333  0.750000  1
  Ga  Ga19  1  0.333333  0.666667  0.250000  1
  As  As20  1  0.000000  0.000000  0.999970  1
  As  As21  1  0.061816  0.530908  0.250000  1
  As  As22  1  0.469092  0.938184  0.250000  1
  As  As23  1  0.531697  0.063394  0.750000  1
  As  As24  1  0.531697  0.468303  0.750000  1
  As  As25  1  0.000000  0.000000  0.500030  1
  As  As26  1  0.469092  0.530908  0.250000  1
  As  As27  1  0.936606  0.468303  0.750000  1
