# generated using pymatgen
data_YbMg(Ga2Ni)2
_symmetry_space_group_name_H-M   'P 1'
_cell_length_a   5.08801676
_cell_length_b   5.08801645
_cell_length_c   6.96048900
_cell_angle_alpha   90.00000000
_cell_angle_beta   90.00000000
_cell_angle_gamma   133.15282344
_symmetry_Int_Tables_number   1
_chemical_formula_structural   YbMg(Ga2Ni)2
_chemical_formula_sum   'Yb1 Mg1 Ga4 Ni2'
_cell_volume   131.45622430
_cell_formula_units_Z   1
loop_
 _symmetry_equiv_pos_site_id
 _symmetry_equiv_pos_as_xyz
  1  'x, y, z'
loop_
 _atom_site_type_symbol
 _atom_site_label
 _atom_site_symmetry_multiplicity
 _atom_site_fract_x
 _atom_site_fract_y
 _atom_site_fract_z
 _atom_site_occupancy
  Yb  Yb0  1  0.433473  0.566527  0.750000  1
  Mg  Mg1  1  0.568304  0.431696  0.250000  1
  Ga  Ga2  1  0.853281  0.146719  0.441161  1
  Ga  Ga3  1  0.144802  0.855198  0.547719  1
  Ga  Ga4  1  0.853281  0.146719  0.058839  1
  Ga  Ga5  1  0.144802  0.855198  0.952281  1
  Ni  Ni6  1  0.286296  0.713704  0.250000  1
  Ni  Ni7  1  0.715761  0.284239  0.750000  1
