# generated using pymatgen
data_Hf18TiFeRe7P
_symmetry_space_group_name_H-M   'P 1'
_cell_length_a   8.56755805
_cell_length_b   8.56038692
_cell_length_c   8.56082106
_cell_angle_alpha   120.00066317
_cell_angle_beta   90.01287186
_cell_angle_gamma   89.99323561
_symmetry_Int_Tables_number   1
_chemical_formula_structural   Hf18TiFeRe7P
_chemical_formula_sum   'Hf18 Ti1 Fe1 Re7 P1'
_cell_volume   543.74288679
_cell_formula_units_Z   1
loop_
 _symmetry_equiv_pos_site_id
 _symmetry_equiv_pos_as_xyz
  1  'x, y, z'
loop_
 _atom_site_type_symbol
 _atom_site_label
 _atom_site_symmetry_multiplicity
 _atom_site_fract_x
 _atom_site_fract_y
 _atom_site_fract_z
 _atom_site_occupancy
  Hf  Hf0  1  0.549697  0.803904  0.607813  1
  Hf  Hf1  1  0.549668  0.803939  0.196092  1
  Hf  Hf2  1  0.549664  0.392208  0.196130  1
  Hf  Hf3  1  0.443160  0.200665  0.401336  1
  Hf  Hf4  1  0.443098  0.200711  0.799318  1
  Hf  Hf5  1  0.442981  0.598616  0.799326  1
  Hf  Hf6  1  0.058706  0.201773  0.403534  1
  Hf  Hf7  1  0.058760  0.201785  0.798217  1
  Hf  Hf8  1  0.058742  0.596412  0.798203  1
  Hf  Hf9  1  0.950706  0.806385  0.612763  1
  Hf  Hf10  1  0.950731  0.806337  0.193667  1
  Hf  Hf11  1  0.950697  0.387274  0.193636  1
  Hf  Hf12  1  0.750441  0.459048  0.917999  1
  Hf  Hf13  1  0.750458  0.459066  0.541119  1
  Hf  Hf14  1  0.750455  0.082033  0.541048  1
  Hf  Hf15  1  0.250057  0.540572  0.081168  1
  Hf  Hf16  1  0.250070  0.540527  0.459432  1
  Hf  Hf17  1  0.250074  0.918911  0.459468  1
  Ti  Ti18  1  0.496601  0.000027  0.999936  1
  Fe  Fe19  1  0.249928  0.333172  0.666461  1
  Re  Re20  1  0.747572  0.111052  0.222037  1
  Re  Re21  1  0.747597  0.111038  0.889037  1
  Re  Re22  1  0.747476  0.778020  0.889035  1
  Re  Re23  1  0.250531  0.888447  0.776920  1
  Re  Re24  1  0.250601  0.888453  0.111488  1
  Re  Re25  1  0.250485  0.223000  0.111488  1
  Re  Re26  1  0.998432  0.999930  0.999952  1
  P  P27  1  0.752611  0.666693  0.333376  1
