# generated using pymatgen
data_Rb13Na5(GaBi4)2
_symmetry_space_group_name_H-M   'P 1'
_cell_length_a   10.77814700
_cell_length_b   10.91013294
_cell_length_c   11.25071100
_cell_angle_alpha   90.00000000
_cell_angle_beta   90.00000000
_cell_angle_gamma   119.60061952
_symmetry_Int_Tables_number   1
_chemical_formula_structural   Rb13Na5(GaBi4)2
_chemical_formula_sum   'Rb13 Na5 Ga2 Bi8'
_cell_volume   1150.31954785
_cell_formula_units_Z   1
loop_
 _symmetry_equiv_pos_site_id
 _symmetry_equiv_pos_as_xyz
  1  'x, y, z'
loop_
 _atom_site_type_symbol
 _atom_site_label
 _atom_site_symmetry_multiplicity
 _atom_site_fract_x
 _atom_site_fract_y
 _atom_site_fract_z
 _atom_site_occupancy
  Rb  Rb0  1  0.208557  0.417115  0.544941  1
  Rb  Rb1  1  0.789536  0.206689  0.036826  1
  Rb  Rb2  1  0.417154  0.206689  0.036826  1
  Rb  Rb3  1  0.585501  0.792949  0.540316  1
  Rb  Rb4  1  0.207448  0.792949  0.540316  1
  Rb  Rb5  1  0.792664  0.585329  0.463207  1
  Rb  Rb6  1  0.789536  0.206689  0.463174  1
  Rb  Rb7  1  0.792664  0.585329  0.036793  1
  Rb  Rb8  1  0.417154  0.206689  0.463174  1
  Rb  Rb9  1  0.585501  0.792949  0.959684  1
  Rb  Rb10  1  0.208557  0.417115  0.955059  1
  Rb  Rb11  1  0.207448  0.792949  0.959684  1
  Rb  Rb12  1  0.117631  0.235262  0.250000  1
  Na  Na13  1  0.884660  0.113062  0.750000  1
  Na  Na14  1  0.228401  0.113062  0.750000  1
  Na  Na15  1  0.765922  0.878254  0.250000  1
  Na  Na16  1  0.112333  0.878254  0.250000  1
  Na  Na17  1  0.885351  0.770703  0.750000  1
  Ga  Ga18  1  0.333576  0.667153  0.250000  1
  Ga  Ga19  1  0.666266  0.332531  0.750000  1
  Bi  Bi20  1  0.493579  0.534494  0.250000  1
  Bi  Bi21  1  0.957746  0.476980  0.750000  1
  Bi  Bi22  1  0.522047  0.044092  0.750000  1
  Bi  Bi23  1  0.478398  0.956797  0.250000  1
  Bi  Bi24  1  0.040913  0.534494  0.250000  1
  Bi  Bi25  1  0.519234  0.476980  0.750000  1
  Bi  Bi26  1  0.996112  0.992223  0.990167  1
  Bi  Bi27  1  0.996112  0.992223  0.509833  1
