# generated using pymatgen
data_Er3Tm5In3Tc
_symmetry_space_group_name_H-M   'P 1'
_cell_length_a   10.29692500
_cell_length_b   10.29692570
_cell_length_c   7.00359500
_cell_angle_alpha   90.00000000
_cell_angle_beta   90.00000000
_cell_angle_gamma   119.99878405
_symmetry_Int_Tables_number   1
_chemical_formula_structural   Er3Tm5In3Tc
_chemical_formula_sum   'Er6 Tm10 In6 Tc2'
_cell_volume   643.09051679
_cell_formula_units_Z   2
loop_
 _symmetry_equiv_pos_site_id
 _symmetry_equiv_pos_as_xyz
  1  'x, y, z'
loop_
 _atom_site_type_symbol
 _atom_site_label
 _atom_site_symmetry_multiplicity
 _atom_site_fract_x
 _atom_site_fract_y
 _atom_site_fract_z
 _atom_site_occupancy
  Er  Er0  1  0.531362  0.062673  0.518121  1
  Er  Er1  1  0.937327  0.468638  0.518121  1
  Er  Er2  1  0.531313  0.468687  0.518151  1
  Er  Er3  1  0.468638  0.937327  0.018121  1
  Er  Er4  1  0.062673  0.531362  0.018121  1
  Er  Er5  1  0.468687  0.531313  0.018151  1
  Tm  Tm6  1  0.177234  0.354483  0.720108  1
  Tm  Tm7  1  0.645517  0.822766  0.720108  1
  Tm  Tm8  1  0.177229  0.822771  0.720111  1
  Tm  Tm9  1  0.822766  0.645517  0.220108  1
  Tm  Tm10  1  0.354483  0.177234  0.220108  1
  Tm  Tm11  1  0.822771  0.177229  0.220111  1
  Tm  Tm12  1  0.666667  0.333333  0.892235  1
  Tm  Tm13  1  0.333333  0.666667  0.392235  1
  Tm  Tm14  1  0.000005  0.999995  0.497184  1
  Tm  Tm15  1  0.999995  0.000005  0.997184  1
  In  In16  1  0.836839  0.673673  0.761476  1
  In  In17  1  0.326327  0.163161  0.761476  1
  In  In18  1  0.836840  0.163160  0.761483  1
  In  In19  1  0.163161  0.326327  0.261476  1
  In  In20  1  0.673673  0.836839  0.261476  1
  In  In21  1  0.163160  0.836840  0.261483  1
  Tc  Tc22  1  0.666666  0.333334  0.290428  1
  Tc  Tc23  1  0.333334  0.666666  0.790428  1
