# generated using pymatgen
data_Ti24BePS6
_symmetry_space_group_name_H-M   'P 1'
_cell_length_a   9.84684333
_cell_length_b   9.87792214
_cell_length_c   4.95463421
_cell_angle_alpha   90.09625538
_cell_angle_beta   90.04674450
_cell_angle_gamma   90.00603354
_symmetry_Int_Tables_number   1
_chemical_formula_structural   Ti24BePS6
_chemical_formula_sum   'Ti24 Be1 P1 S6'
_cell_volume   481.91835003
_cell_formula_units_Z   1
loop_
 _symmetry_equiv_pos_site_id
 _symmetry_equiv_pos_as_xyz
  1  'x, y, z'
loop_
 _atom_site_type_symbol
 _atom_site_label
 _atom_site_symmetry_multiplicity
 _atom_site_fract_x
 _atom_site_fract_y
 _atom_site_fract_z
 _atom_site_occupancy
  Ti  Ti0  1  0.971381  0.861447  0.280640  1
  Ti  Ti1  1  0.360974  0.529435  0.783094  1
  Ti  Ti2  1  0.638929  0.472700  0.778965  1
  Ti  Ti3  1  0.029364  0.138374  0.282102  1
  Ti  Ti4  1  0.528070  0.636881  0.217968  1
  Ti  Ti5  1  0.139975  0.973028  0.720462  1
  Ti  Ti6  1  0.861332  0.028803  0.718625  1
  Ti  Ti7  1  0.470322  0.357951  0.219815  1
  Ti  Ti8  1  0.817707  0.283640  0.013502  1
  Ti  Ti9  1  0.783966  0.679698  0.513083  1
  Ti  Ti10  1  0.215326  0.320653  0.518993  1
  Ti  Ti11  1  0.181200  0.714765  0.014705  1
  Ti  Ti12  1  0.682182  0.215953  0.489185  1
  Ti  Ti13  1  0.714925  0.820151  0.983530  1
  Ti  Ti14  1  0.285919  0.179674  0.983578  1
  Ti  Ti15  1  0.319080  0.783441  0.483491  1
  Ti  Ti16  1  0.915225  0.393659  0.541622  1
  Ti  Ti17  1  0.893248  0.584093  0.037961  1
  Ti  Ti18  1  0.107756  0.415328  0.037610  1
  Ti  Ti19  1  0.085081  0.606121  0.541839  1
  Ti  Ti20  1  0.583982  0.106404  0.952946  1
  Ti  Ti21  1  0.606661  0.915361  0.460377  1
  Ti  Ti22  1  0.394188  0.086681  0.465073  1
  Ti  Ti23  1  0.414970  0.892755  0.958954  1
  Be  Be24  1  0.459162  0.297414  0.710853  1
  P  P25  1  0.960209  0.793601  0.786327  1
  S  S26  1  0.791962  0.039653  0.212360  1
  S  S27  1  0.208528  0.959971  0.213684  1
  S  S28  1  0.539563  0.708058  0.710256  1
  S  S29  1  0.039286  0.208063  0.788704  1
  S  S30  1  0.706999  0.457750  0.289748  1
  S  S31  1  0.292527  0.538495  0.289944  1
