# generated using pymatgen
data_PrBi3(Pt2O7)2
_symmetry_space_group_name_H-M   'P 1'
_cell_length_a   7.44616247
_cell_length_b   7.45528036
_cell_length_c   7.44616200
_cell_angle_alpha   60.04045072
_cell_angle_beta   60.00000211
_cell_angle_gamma   60.04045002
_symmetry_Int_Tables_number   1
_chemical_formula_structural   PrBi3(Pt2O7)2
_chemical_formula_sum   'Pr1 Bi3 Pt4 O14'
_cell_volume   292.46859453
_cell_formula_units_Z   1
loop_
 _symmetry_equiv_pos_site_id
 _symmetry_equiv_pos_as_xyz
  1  'x, y, z'
loop_
 _atom_site_type_symbol
 _atom_site_label
 _atom_site_symmetry_multiplicity
 _atom_site_fract_x
 _atom_site_fract_y
 _atom_site_fract_z
 _atom_site_occupancy
  Pr  Pr0  1  0.125000  0.625000  0.125000  1
  Bi  Bi1  1  0.125000  0.125000  0.625000  1
  Bi  Bi2  1  0.625000  0.125000  0.125000  1
  Bi  Bi3  1  0.125000  0.125000  0.125000  1
  Pt  Pt4  1  0.625000  0.625000  0.125000  1
  Pt  Pt5  1  0.625000  0.125000  0.625000  1
  Pt  Pt6  1  0.125000  0.625000  0.625000  1
  Pt  Pt7  1  0.625000  0.625000  0.625000  1
  O  O8  1  0.250657  0.248029  0.250657  1
  O  O9  1  0.999343  0.001971  0.999343  1
  O  O10  1  0.542052  0.957999  0.542052  1
  O  O11  1  0.291207  0.708419  0.291207  1
  O  O12  1  0.540832  0.541581  0.958793  1
  O  O13  1  0.958793  0.541581  0.540832  1
  O  O14  1  0.542052  0.957999  0.957896  1
  O  O15  1  0.957896  0.957999  0.542052  1
  O  O16  1  0.958793  0.541581  0.958793  1
  O  O17  1  0.707948  0.292001  0.292104  1
  O  O18  1  0.291207  0.708419  0.709168  1
  O  O19  1  0.707948  0.292001  0.707948  1
  O  O20  1  0.292104  0.292001  0.707948  1
  O  O21  1  0.709168  0.708419  0.291207  1
