# generated using pymatgen
data_La3Mg2CdIrAu2
_symmetry_space_group_name_H-M   'P 1'
_cell_length_a   7.97460047
_cell_length_b   7.88510202
_cell_length_c   4.12768700
_cell_angle_alpha   90.00000000
_cell_angle_beta   90.00000000
_cell_angle_gamma   120.33843385
_symmetry_Int_Tables_number   1
_chemical_formula_structural   La3Mg2CdIrAu2
_chemical_formula_sum   'La3 Mg2 Cd1 Ir1 Au2'
_cell_volume   224.00744228
_cell_formula_units_Z   1
loop_
 _symmetry_equiv_pos_site_id
 _symmetry_equiv_pos_as_xyz
  1  'x, y, z'
loop_
 _atom_site_type_symbol
 _atom_site_label
 _atom_site_symmetry_multiplicity
 _atom_site_fract_x
 _atom_site_fract_y
 _atom_site_fract_z
 _atom_site_occupancy
  La  La0  1  0.566708  0.978552  0.000000  1
  La  La1  1  0.023440  0.594599  0.000000  1
  La  La2  1  0.407040  0.426974  0.000000  1
  Mg  Mg3  1  0.002145  0.243255  0.500000  1
  Mg  Mg4  1  0.757098  0.757703  0.500000  1
  Cd  Cd5  1  0.248788  0.000093  0.500000  1
  Ir  Ir6  1  0.334300  0.660640  0.500000  1
  Au  Au7  1  0.673060  0.338480  0.500000  1
  Au  Au8  1  0.987420  0.999705  0.000000  1
