# generated using pymatgen
data_Ce2TeC2
_symmetry_space_group_name_H-M   'P 1'
_cell_length_a   7.62451576
_cell_length_b   7.62451635
_cell_length_c   6.88028731
_cell_angle_alpha   100.01003422
_cell_angle_beta   100.01003674
_cell_angle_gamma   32.49343189
_symmetry_Int_Tables_number   1
_chemical_formula_structural   Ce2TeC2
_chemical_formula_sum   'Ce4 Te2 C4'
_cell_volume   211.31595078
_cell_formula_units_Z   2
loop_
 _symmetry_equiv_pos_site_id
 _symmetry_equiv_pos_as_xyz
  1  'x, y, z'
loop_
 _atom_site_type_symbol
 _atom_site_label
 _atom_site_symmetry_multiplicity
 _atom_site_fract_x
 _atom_site_fract_y
 _atom_site_fract_z
 _atom_site_occupancy
  Ce  Ce0  1  0.451572  0.854481  0.149545  1
  Ce  Ce1  1  0.145518  0.548427  0.350454  1
  Ce  Ce2  1  0.854481  0.451573  0.649545  1
  Ce  Ce3  1  0.548427  0.145518  0.850454  1
  Te  Te4  1  0.793275  0.206725  0.250000  1
  Te  Te5  1  0.206725  0.793276  0.750000  1
  C  C6  1  0.097626  0.353845  0.030081  1
  C  C7  1  0.646155  0.902373  0.469919  1
  C  C8  1  0.353845  0.097627  0.530081  1
  C  C9  1  0.902373  0.646155  0.969920  1
