# generated using pymatgen
data_Gd3DyV3B16Os
_symmetry_space_group_name_H-M   'P 1'
_cell_length_a   3.52018000
_cell_length_b   5.99926227
_cell_length_c   11.60798516
_cell_angle_alpha   89.89669255
_cell_angle_beta   90.00000000
_cell_angle_gamma   90.00000000
_symmetry_Int_Tables_number   1
_chemical_formula_structural   Gd3DyV3B16Os
_chemical_formula_sum   'Gd3 Dy1 V3 B16 Os1'
_cell_volume   245.14263952
_cell_formula_units_Z   1
loop_
 _symmetry_equiv_pos_site_id
 _symmetry_equiv_pos_as_xyz
  1  'x, y, z'
loop_
 _atom_site_type_symbol
 _atom_site_label
 _atom_site_symmetry_multiplicity
 _atom_site_fract_x
 _atom_site_fract_y
 _atom_site_fract_z
 _atom_site_occupancy
  Gd  Gd0  1  0.000000  0.623735  0.351659  1
  Gd  Gd1  1  0.000000  0.375679  0.649933  1
  Gd  Gd2  1  0.000000  0.126231  0.152518  1
  Dy  Dy3  1  0.000000  0.874018  0.846631  1
  V  V4  1  0.000000  0.369291  0.917303  1
  V  V5  1  0.000000  0.125777  0.416032  1
  V  V6  1  0.000000  0.874171  0.582211  1
  B  B7  1  0.500000  0.783032  0.185129  1
  B  B8  1  0.500000  0.215374  0.814815  1
  B  B9  1  0.500000  0.284885  0.314634  1
  B  B10  1  0.500000  0.715760  0.685471  1
  B  B11  1  0.500000  0.864027  0.031494  1
  B  B12  1  0.500000  0.135393  0.968251  1
  B  B13  1  0.500000  0.363439  0.467124  1
  B  B14  1  0.500000  0.636892  0.533163  1
  B  B15  1  0.500000  0.886997  0.453393  1
  B  B16  1  0.500000  0.113715  0.546476  1
  B  B17  1  0.500000  0.387429  0.047880  1
  B  B18  1  0.500000  0.615307  0.952906  1
  B  B19  1  0.500000  0.975411  0.307877  1
  B  B20  1  0.500000  0.023539  0.692004  1
  B  B21  1  0.500000  0.476104  0.191844  1
  B  B22  1  0.500000  0.524447  0.808212  1
  Os  Os23  1  0.000000  0.629351  0.083041  1
