# generated using pymatgen
data_TbHoEr3CoBi2
_symmetry_space_group_name_H-M   'P 1'
_cell_length_a   7.94879900
_cell_length_b   8.87931900
_cell_length_c   12.35982900
_cell_angle_alpha   90.00000000
_cell_angle_beta   90.00000000
_cell_angle_gamma   90.00000000
_symmetry_Int_Tables_number   1
_chemical_formula_structural   TbHoEr3CoBi2
_chemical_formula_sum   'Tb4 Ho4 Er12 Co4 Bi8'
_cell_volume   872.35576660
_cell_formula_units_Z   4
loop_
 _symmetry_equiv_pos_site_id
 _symmetry_equiv_pos_as_xyz
  1  'x, y, z'
loop_
 _atom_site_type_symbol
 _atom_site_label
 _atom_site_symmetry_multiplicity
 _atom_site_fract_x
 _atom_site_fract_y
 _atom_site_fract_z
 _atom_site_occupancy
  Tb  Tb0  1  0.884021  0.750000  0.810580  1
  Tb  Tb1  1  0.115979  0.250000  0.189420  1
  Tb  Tb2  1  0.384021  0.250000  0.689420  1
  Tb  Tb3  1  0.615979  0.750000  0.310580  1
  Ho  Ho4  1  0.053918  0.750000  0.497825  1
  Ho  Ho5  1  0.946082  0.250000  0.502175  1
  Ho  Ho6  1  0.553918  0.250000  0.002175  1
  Ho  Ho7  1  0.446082  0.750000  0.997825  1
  Er  Er8  1  0.347345  0.750000  0.699720  1
  Er  Er9  1  0.652655  0.250000  0.300280  1
  Er  Er10  1  0.847345  0.250000  0.800280  1
  Er  Er11  1  0.152655  0.750000  0.199720  1
  Er  Er12  1  0.674918  0.538065  0.563314  1
  Er  Er13  1  0.325082  0.461935  0.436686  1
  Er  Er14  1  0.174918  0.461935  0.936686  1
  Er  Er15  1  0.325082  0.038065  0.436686  1
  Er  Er16  1  0.825082  0.538065  0.063314  1
  Er  Er17  1  0.674918  0.961935  0.563314  1
  Er  Er18  1  0.825082  0.961935  0.063314  1
  Er  Er19  1  0.174918  0.038065  0.936686  1
  Co  Co20  1  0.066156  0.750000  0.992759  1
  Co  Co21  1  0.933844  0.250000  0.007241  1
  Co  Co22  1  0.566156  0.250000  0.507241  1
  Co  Co23  1  0.433844  0.750000  0.492759  1
  Bi  Bi24  1  0.571214  0.509511  0.826968  1
  Bi  Bi25  1  0.428786  0.490489  0.173032  1
  Bi  Bi26  1  0.071214  0.490489  0.673032  1
  Bi  Bi27  1  0.428786  0.009511  0.173032  1
  Bi  Bi28  1  0.928786  0.509511  0.326968  1
  Bi  Bi29  1  0.571214  0.990489  0.826968  1
  Bi  Bi30  1  0.928786  0.990489  0.326968  1
  Bi  Bi31  1  0.071214  0.009511  0.673032  1
