# generated using pymatgen
data_Pa2B(IrRh)3
_symmetry_space_group_name_H-M   'P 1'
_cell_length_a   5.86801150
_cell_length_b   5.86801101
_cell_length_c   5.87567966
_cell_angle_alpha   60.04316425
_cell_angle_beta   60.04316370
_cell_angle_gamma   59.99999671
_symmetry_Int_Tables_number   1
_chemical_formula_structural   Pa2B(IrRh)3
_chemical_formula_sum   'Pa2 B1 Ir3 Rh3'
_cell_volume   143.15549184
_cell_formula_units_Z   1
loop_
 _symmetry_equiv_pos_site_id
 _symmetry_equiv_pos_as_xyz
  1  'x, y, z'
loop_
 _atom_site_type_symbol
 _atom_site_label
 _atom_site_symmetry_multiplicity
 _atom_site_fract_x
 _atom_site_fract_y
 _atom_site_fract_z
 _atom_site_occupancy
  Pa  Pa0  1  0.750158  0.750158  0.749527  1
  Pa  Pa1  1  0.250014  0.250014  0.249956  1
  B  B2  1  0.999277  0.999277  0.002170  1
  Ir  Ir3  1  0.256303  0.256303  0.743841  1
  Ir  Ir4  1  0.743552  0.256303  0.743841  1
  Ir  Ir5  1  0.256303  0.743552  0.743841  1
  Rh  Rh6  1  0.744221  0.744221  0.255608  1
  Rh  Rh7  1  0.255951  0.744221  0.255608  1
  Rh  Rh8  1  0.744221  0.255951  0.255608  1
