# generated using pymatgen
data_Pu2BiH2
_symmetry_space_group_name_H-M   'P 1'
_cell_length_a   6.00310693
_cell_length_b   6.00310697
_cell_length_c   6.00310711
_cell_angle_alpha   139.42309418
_cell_angle_beta   139.42308900
_cell_angle_gamma   58.73030976
_symmetry_Int_Tables_number   1
_chemical_formula_structural   Pu2BiH2
_chemical_formula_sum   'Pu2 Bi1 H2'
_cell_volume   90.67472767
_cell_formula_units_Z   1
loop_
 _symmetry_equiv_pos_site_id
 _symmetry_equiv_pos_as_xyz
  1  'x, y, z'
loop_
 _atom_site_type_symbol
 _atom_site_label
 _atom_site_symmetry_multiplicity
 _atom_site_fract_x
 _atom_site_fract_y
 _atom_site_fract_z
 _atom_site_occupancy
  Pu  Pu0  1  0.340303  0.340303  0.000000  1
  Pu  Pu1  1  0.659697  0.659697  0.000000  1
  Bi  Bi2  1  0.000000  0.000000  0.000000  1
  H  H3  1  0.250000  0.750000  0.500000  1
  H  H4  1  0.750000  0.250000  0.500000  1
