# generated using pymatgen
data_La4Cu4Se7S
_symmetry_space_group_name_H-M   'P 1'
_cell_length_a   7.57817394
_cell_length_b   6.75367886
_cell_length_c   7.24175511
_cell_angle_alpha   83.14549836
_cell_angle_beta   89.92186640
_cell_angle_gamma   89.97032538
_symmetry_Int_Tables_number   1
_chemical_formula_structural   La4Cu4Se7S
_chemical_formula_sum   'La4 Cu4 Se7 S1'
_cell_volume   367.98751207
_cell_formula_units_Z   1
loop_
 _symmetry_equiv_pos_site_id
 _symmetry_equiv_pos_as_xyz
  1  'x, y, z'
loop_
 _atom_site_type_symbol
 _atom_site_label
 _atom_site_symmetry_multiplicity
 _atom_site_fract_x
 _atom_site_fract_y
 _atom_site_fract_z
 _atom_site_occupancy
  La  La0  1  0.549812  0.317010  0.290513  1
  La  La1  1  0.045337  0.690361  0.197771  1
  La  La2  1  0.456131  0.687734  0.709065  1
  La  La3  1  0.947843  0.313888  0.800584  1
  Cu  Cu4  1  0.838547  0.939126  0.544856  1
  Cu  Cu5  1  0.162370  0.067450  0.456627  1
  Cu  Cu6  1  0.664981  0.919494  0.043231  1
  Cu  Cu7  1  0.338429  0.060089  0.956276  1
  Se  Se8  1  0.774412  0.591134  0.499886  1
  Se  Se9  1  0.225394  0.414134  0.499655  1
  Se  Se10  1  0.273887  0.409438  0.999729  1
  Se  Se11  1  0.610720  0.098669  0.723462  1
  Se  Se12  1  0.110391  0.902238  0.778417  1
  Se  Se13  1  0.388327  0.903094  0.279275  1
  Se  Se14  1  0.886376  0.097011  0.218849  1
  S  S15  1  0.727043  0.589127  0.001803  1
