# generated using pymatgen
data_Cs8Nb3BiBr24
_symmetry_space_group_name_H-M   'P 1'
_cell_length_a   13.72071311
_cell_length_b   13.72071421
_cell_length_c   13.70627500
_cell_angle_alpha   131.53474343
_cell_angle_beta   131.53474750
_cell_angle_gamma   70.94624661
_symmetry_Int_Tables_number   1
_chemical_formula_structural   Cs8Nb3BiBr24
_chemical_formula_sum   'Cs8 Nb3 Bi1 Br24'
_cell_volume   1416.01687670
_cell_formula_units_Z   1
loop_
 _symmetry_equiv_pos_site_id
 _symmetry_equiv_pos_as_xyz
  1  'x, y, z'
loop_
 _atom_site_type_symbol
 _atom_site_label
 _atom_site_symmetry_multiplicity
 _atom_site_fract_x
 _atom_site_fract_y
 _atom_site_fract_z
 _atom_site_occupancy
  Cs  Cs0  1  0.118935  0.637073  0.999068  1
  Cs  Cs1  1  0.362927  0.881065  0.000932  1
  Cs  Cs2  1  0.637969  0.637118  0.518126  1
  Cs  Cs3  1  0.362882  0.362031  0.481874  1
  Cs  Cs4  1  0.880166  0.361961  0.999107  1
  Cs  Cs5  1  0.880149  0.881001  0.518091  1
  Cs  Cs6  1  0.118999  0.119851  0.481909  1
  Cs  Cs7  1  0.638039  0.119834  0.000893  1
  Nb  Nb8  1  0.749974  0.250026  0.500000  1
  Nb  Nb9  1  0.499878  0.500122  0.000000  1
  Nb  Nb10  1  0.249923  0.750077  0.500000  1
  Bi  Bi11  1  0.000002  0.999998  0.000000  1
  Br  Br12  1  0.256135  0.999723  0.256502  1
  Br  Br13  1  0.000277  0.743865  0.743498  1
  Br  Br14  1  0.251729  0.981858  0.730122  1
  Br  Br15  1  0.748302  0.478286  0.729849  1
  Br  Br16  1  0.478291  0.748133  0.729985  1
  Br  Br17  1  0.129095  0.129082  0.999943  1
  Br  Br18  1  0.499778  0.729463  0.229692  1
  Br  Br19  1  0.865503  0.365517  0.499817  1
  Br  Br20  1  0.000342  0.256703  0.256492  1
  Br  Br21  1  0.384314  0.384308  0.000144  1
  Br  Br22  1  0.615692  0.615686  0.999856  1
  Br  Br23  1  0.499822  0.270120  0.770234  1
  Br  Br24  1  0.270537  0.500222  0.770308  1
  Br  Br25  1  0.521714  0.251698  0.270151  1
  Br  Br26  1  0.365160  0.865174  0.499828  1
  Br  Br27  1  0.634483  0.134497  0.500183  1
  Br  Br28  1  0.251867  0.521709  0.270015  1
  Br  Br29  1  0.134826  0.634840  0.500172  1
  Br  Br30  1  0.018142  0.748271  0.269878  1
  Br  Br31  1  0.981532  0.251473  0.729824  1
  Br  Br32  1  0.743297  0.999658  0.743508  1
  Br  Br33  1  0.729880  0.500178  0.229766  1
  Br  Br34  1  0.748527  0.018468  0.270176  1
  Br  Br35  1  0.870918  0.870905  0.000057  1
