# generated using pymatgen
data_Pr17Er(PaRh8)2
_symmetry_space_group_name_H-M   'P 1'
_cell_length_a   7.69642803
_cell_length_b   7.68880167
_cell_length_c   14.98825400
_cell_angle_alpha   90.29464736
_cell_angle_beta   89.99465488
_cell_angle_gamma   89.99954312
_symmetry_Int_Tables_number   1
_chemical_formula_structural   Pr17Er(PaRh8)2
_chemical_formula_sum   'Pr17 Er1 Pa2 Rh16'
_cell_volume   886.93781373
_cell_formula_units_Z   1
loop_
 _symmetry_equiv_pos_site_id
 _symmetry_equiv_pos_as_xyz
  1  'x, y, z'
loop_
 _atom_site_type_symbol
 _atom_site_label
 _atom_site_symmetry_multiplicity
 _atom_site_fract_x
 _atom_site_fract_y
 _atom_site_fract_z
 _atom_site_occupancy
  Pr  Pr0  1  0.338146  0.837679  0.121251  1
  Pr  Pr1  1  0.835133  0.666695  0.378727  1
  Pr  Pr2  1  0.336661  0.836109  0.378734  1
  Pr  Pr3  1  0.833517  0.668056  0.121521  1
  Pr  Pr4  1  0.662400  0.164901  0.880020  1
  Pr  Pr5  1  0.162074  0.334599  0.619951  1
  Pr  Pr6  1  0.515589  0.682046  0.593576  1
  Pr  Pr7  1  0.016192  0.817677  0.906103  1
  Pr  Pr8  1  0.490779  0.315454  0.098120  1
  Pr  Pr9  1  0.986152  0.181303  0.401544  1
  Pr  Pr10  1  0.487013  0.317706  0.406277  1
  Pr  Pr11  1  0.983679  0.178726  0.093776  1
  Pr  Pr12  1  0.511049  0.678267  0.908175  1
  Pr  Pr13  1  0.011605  0.821076  0.591957  1
  Pr  Pr14  1  0.820972  0.516039  0.748855  1
  Pr  Pr15  1  0.320856  0.983816  0.751111  1
  Pr  Pr16  1  0.174974  0.490388  0.249789  1
  Er  Er17  1  0.674463  0.010566  0.248942  1
  Pa  Pa18  1  0.659264  0.157442  0.624289  1
  Pa  Pa19  1  0.159445  0.342563  0.875867  1
  Rh  Rh20  1  0.692835  0.978511  0.475798  1
  Rh  Rh21  1  0.192404  0.521302  0.022800  1
  Rh  Rh22  1  0.296327  0.070995  0.955904  1
  Rh  Rh23  1  0.796451  0.429094  0.543729  1
  Rh  Rh24  1  0.343492  0.033682  0.549728  1
  Rh  Rh25  1  0.842983  0.466688  0.950672  1
  Rh  Rh26  1  0.666501  0.969913  0.045798  1
  Rh  Rh27  1  0.165870  0.531244  0.456929  1
  Rh  Rh28  1  0.467022  0.366463  0.744686  1
  Rh  Rh29  1  0.966644  0.134190  0.755288  1
  Rh  Rh30  1  0.540621  0.607220  0.251519  1
  Rh  Rh31  1  0.033480  0.899114  0.248502  1
  Rh  Rh32  1  0.704906  0.886794  0.737394  1
  Rh  Rh33  1  0.204713  0.613501  0.762560  1
  Rh  Rh34  1  0.308096  0.139935  0.250636  1
  Rh  Rh35  1  0.797691  0.350247  0.249472  1
