# generated using pymatgen
data_Dy2Ho3ZrAl18
_symmetry_space_group_name_H-M   'P 1'
_cell_length_a   14.46233767
_cell_length_b   14.46233706
_cell_length_c   14.46233800
_cell_angle_alpha   24.49738805
_cell_angle_beta   24.49739342
_cell_angle_gamma   24.49738868
_symmetry_Int_Tables_number   1
_chemical_formula_structural   Dy2Ho3ZrAl18
_chemical_formula_sum   'Dy2 Ho3 Zr1 Al18'
_cell_volume   457.27264143
_cell_formula_units_Z   1
loop_
 _symmetry_equiv_pos_site_id
 _symmetry_equiv_pos_as_xyz
  1  'x, y, z'
loop_
 _atom_site_type_symbol
 _atom_site_label
 _atom_site_symmetry_multiplicity
 _atom_site_fract_x
 _atom_site_fract_y
 _atom_site_fract_z
 _atom_site_occupancy
  Dy  Dy0  1  0.999696  0.999696  0.999696  1
  Dy  Dy1  1  0.500182  0.500182  0.500182  1
  Ho  Ho2  1  0.109192  0.109192  0.109192  1
  Ho  Ho3  1  0.891243  0.891243  0.891243  1
  Ho  Ho4  1  0.389839  0.389839  0.389839  1
  Zr  Zr5  1  0.609664  0.609664  0.609664  1
  Al  Al6  1  0.920304  0.374035  0.374035  1
  Al  Al7  1  0.423148  0.870691  0.870691  1
  Al  Al8  1  0.374035  0.374035  0.920304  1
  Al  Al9  1  0.870691  0.870691  0.423148  1
  Al  Al10  1  0.374035  0.920304  0.374035  1
  Al  Al11  1  0.870691  0.423148  0.870691  1
  Al  Al12  1  0.578910  0.127958  0.127958  1
  Al  Al13  1  0.077427  0.628300  0.628300  1
  Al  Al14  1  0.127958  0.127958  0.578910  1
  Al  Al15  1  0.628300  0.628300  0.077427  1
  Al  Al16  1  0.127958  0.578910  0.127958  1
  Al  Al17  1  0.628300  0.077427  0.628300  1
  Al  Al18  1  0.501246  0.501246  0.994733  1
  Al  Al19  1  0.000383  0.000383  0.500444  1
  Al  Al20  1  0.501246  0.994733  0.501246  1
  Al  Al21  1  0.000383  0.500444  0.000383  1
  Al  Al22  1  0.994733  0.501246  0.501246  1
  Al  Al23  1  0.500444  0.000383  0.000383  1
