# generated using pymatgen
data_Na3In(GaI4)4
_symmetry_space_group_name_H-M   'P 1'
_cell_length_a   8.47297700
_cell_length_b   8.56565708
_cell_length_c   15.31223210
_cell_angle_alpha   90.18328457
_cell_angle_beta   90.00000000
_cell_angle_gamma   90.00000000
_symmetry_Int_Tables_number   1
_chemical_formula_structural   Na3In(GaI4)4
_chemical_formula_sum   'Na3 In1 Ga4 I16'
_cell_volume   1111.30429532
_cell_formula_units_Z   1
loop_
 _symmetry_equiv_pos_site_id
 _symmetry_equiv_pos_as_xyz
  1  'x, y, z'
loop_
 _atom_site_type_symbol
 _atom_site_label
 _atom_site_symmetry_multiplicity
 _atom_site_fract_x
 _atom_site_fract_y
 _atom_site_fract_z
 _atom_site_occupancy
  Na  Na0  1  0.750000  0.943826  0.350622  1
  Na  Na1  1  0.750000  0.555091  0.848396  1
  Na  Na2  1  0.250000  0.054261  0.650334  1
  In  In3  1  0.250000  0.443610  0.152759  1
  Ga  Ga4  1  0.250000  0.302071  0.893814  1
  Ga  Ga5  1  0.750000  0.805186  0.602105  1
  Ga  Ga6  1  0.750000  0.701923  0.102602  1
  Ga  Ga7  1  0.250000  0.191619  0.401064  1
  I  I8  1  0.250000  0.118967  0.027112  1
  I  I9  1  0.750000  0.630196  0.465024  1
  I  I10  1  0.750000  0.869148  0.963097  1
  I  I11  1  0.250000  0.369774  0.536681  1
  I  I12  1  0.250000  0.902975  0.450223  1
  I  I13  1  0.750000  0.411580  0.054358  1
  I  I14  1  0.750000  0.093618  0.552499  1
  I  I15  1  0.250000  0.592388  0.941066  1
  I  I16  1  0.991765  0.767223  0.200993  1
  I  I17  1  0.001978  0.248246  0.305455  1
  I  I18  1  0.496723  0.245187  0.797449  1
  I  I19  1  0.505752  0.746228  0.700223  1
  I  I20  1  0.003277  0.245187  0.797449  1
  I  I21  1  0.994248  0.746228  0.700223  1
  I  I22  1  0.508235  0.767223  0.200993  1
  I  I23  1  0.498022  0.248246  0.305455  1
