# generated using pymatgen
data_La16Tb4(Ir3Rh)3
_symmetry_space_group_name_H-M   'P 1'
_cell_length_a   11.35225300
_cell_length_b   11.35225300
_cell_length_c   6.59676200
_cell_angle_alpha   90.00000000
_cell_angle_beta   90.00000000
_cell_angle_gamma   90.00000000
_symmetry_Int_Tables_number   1
_chemical_formula_structural   La16Tb4(Ir3Rh)3
_chemical_formula_sum   'La16 Tb4 Ir9 Rh3'
_cell_volume   850.14878509
_cell_formula_units_Z   1
loop_
 _symmetry_equiv_pos_site_id
 _symmetry_equiv_pos_as_xyz
  1  'x, y, z'
loop_
 _atom_site_type_symbol
 _atom_site_label
 _atom_site_symmetry_multiplicity
 _atom_site_fract_x
 _atom_site_fract_y
 _atom_site_fract_z
 _atom_site_occupancy
  La  La0  1  0.287519  0.088970  0.388261  1
  La  La1  1  0.287507  0.910916  0.888356  1
  La  La2  1  0.712493  0.089084  0.888356  1
  La  La3  1  0.712481  0.911030  0.388261  1
  La  La4  1  0.589084  0.787507  0.888356  1
  La  La5  1  0.588970  0.212481  0.388261  1
  La  La6  1  0.411030  0.787519  0.388261  1
  La  La7  1  0.410916  0.212493  0.888356  1
  La  La8  1  0.211985  0.411191  0.610921  1
  La  La9  1  0.212039  0.588880  0.113199  1
  La  La10  1  0.787961  0.411120  0.113199  1
  La  La11  1  0.788015  0.588809  0.610921  1
  La  La12  1  0.911120  0.712039  0.113199  1
  La  La13  1  0.911191  0.288015  0.610921  1
  La  La14  1  0.088809  0.711985  0.610921  1
  La  La15  1  0.088880  0.287961  0.113199  1
  Tb  Tb16  1  0.000000  0.000000  0.499961  1
  Tb  Tb17  1  0.000000  0.000000  0.999964  1
  Tb  Tb18  1  0.500000  0.500000  0.999964  1
  Tb  Tb19  1  0.500000  0.500000  0.499961  1
  Ir  Ir20  1  0.849657  0.149315  0.249753  1
  Ir  Ir21  1  0.850019  0.850342  0.749648  1
  Ir  Ir22  1  0.149981  0.149658  0.749648  1
  Ir  Ir23  1  0.150343  0.850685  0.249753  1
  Ir  Ir24  1  0.649658  0.350019  0.749648  1
  Ir  Ir25  1  0.649315  0.650343  0.249753  1
  Ir  Ir26  1  0.350685  0.349657  0.249753  1
  Ir  Ir27  1  0.350342  0.649981  0.749648  1
  Ir  Ir28  1  0.000000  0.500000  0.381107  1
  Rh  Rh29  1  0.500000  0.000000  0.117551  1
  Rh  Rh30  1  0.500000  0.000000  0.617430  1
  Rh  Rh31  1  0.000000  0.500000  0.883509  1
