# generated using pymatgen
data_NdErInNi9
_symmetry_space_group_name_H-M   'P 1'
_cell_length_a   8.49120833
_cell_length_b   8.49120918
_cell_length_c   8.49120711
_cell_angle_alpha   33.94252772
_cell_angle_beta   33.94251936
_cell_angle_gamma   33.94252429
_symmetry_Int_Tables_number   1
_chemical_formula_structural   NdErInNi9
_chemical_formula_sum   'Nd1 Er1 In1 Ni9'
_cell_volume   170.12105669
_cell_formula_units_Z   1
loop_
 _symmetry_equiv_pos_site_id
 _symmetry_equiv_pos_as_xyz
  1  'x, y, z'
loop_
 _atom_site_type_symbol
 _atom_site_label
 _atom_site_symmetry_multiplicity
 _atom_site_fract_x
 _atom_site_fract_y
 _atom_site_fract_z
 _atom_site_occupancy
  Nd  Nd0  1  0.995810  0.995810  0.995810  1
  Er  Er1  1  0.143061  0.143061  0.143061  1
  In  In2  1  0.858924  0.858924  0.858924  1
  Ni  Ni3  1  0.500399  0.500399  0.500399  1
  Ni  Ni4  1  0.667653  0.667653  0.667653  1
  Ni  Ni5  1  0.334196  0.334196  0.334196  1
  Ni  Ni6  1  0.415587  0.917620  0.415587  1
  Ni  Ni7  1  0.415587  0.415587  0.917620  1
  Ni  Ni8  1  0.917620  0.415587  0.415587  1
  Ni  Ni9  1  0.584961  0.081241  0.584961  1
  Ni  Ni10  1  0.584961  0.584961  0.081241  1
  Ni  Ni11  1  0.081241  0.584961  0.584961  1
