# generated using pymatgen
data_Ce4AlCoSi6
_symmetry_space_group_name_H-M   'P 1'
_cell_length_a   8.15502700
_cell_length_b   8.15502627
_cell_length_c   4.13528200
_cell_angle_alpha   90.00000000
_cell_angle_beta   90.00000000
_cell_angle_gamma   119.99999889
_symmetry_Int_Tables_number   1
_chemical_formula_structural   Ce4AlCoSi6
_chemical_formula_sum   'Ce4 Al1 Co1 Si6'
_cell_volume   238.16971413
_cell_formula_units_Z   1
loop_
 _symmetry_equiv_pos_site_id
 _symmetry_equiv_pos_as_xyz
  1  'x, y, z'
loop_
 _atom_site_type_symbol
 _atom_site_label
 _atom_site_symmetry_multiplicity
 _atom_site_fract_x
 _atom_site_fract_y
 _atom_site_fract_z
 _atom_site_occupancy
  Ce  Ce0  1  0.506102  0.493898  0.000000  1
  Ce  Ce1  1  0.987796  0.493898  0.000000  1
  Ce  Ce2  1  0.506102  0.012204  0.000000  1
  Ce  Ce3  1  0.000000  0.000000  0.000000  1
  Al  Al4  1  0.333333  0.666667  0.500000  1
  Co  Co5  1  0.666667  0.333333  0.500000  1
  Si  Si6  1  0.828108  0.656215  0.500000  1
  Si  Si7  1  0.162718  0.837282  0.500000  1
  Si  Si8  1  0.674563  0.837282  0.500000  1
  Si  Si9  1  0.162718  0.325437  0.500000  1
  Si  Si10  1  0.828108  0.171892  0.500000  1
  Si  Si11  1  0.343785  0.171892  0.500000  1
