# generated using pymatgen
data_Pr3Mg3Hg2Ir
_symmetry_space_group_name_H-M   'P 1'
_cell_length_a   8.00608700
_cell_length_b   8.00608785
_cell_length_c   4.12829200
_cell_angle_alpha   90.00000000
_cell_angle_beta   90.00000000
_cell_angle_gamma   119.99999235
_symmetry_Int_Tables_number   1
_chemical_formula_structural   Pr3Mg3Hg2Ir
_chemical_formula_sum   'Pr3 Mg3 Hg2 Ir1'
_cell_volume   229.16153874
_cell_formula_units_Z   1
loop_
 _symmetry_equiv_pos_site_id
 _symmetry_equiv_pos_as_xyz
  1  'x, y, z'
loop_
 _atom_site_type_symbol
 _atom_site_label
 _atom_site_symmetry_multiplicity
 _atom_site_fract_x
 _atom_site_fract_y
 _atom_site_fract_z
 _atom_site_occupancy
  Pr  Pr0  1  0.598873  0.029778  0.000000  1
  Pr  Pr1  1  0.970222  0.569096  0.000000  1
  Pr  Pr2  1  0.430904  0.401127  0.000000  1
  Mg  Mg3  1  0.255868  0.003392  0.500000  1
  Mg  Mg4  1  0.996608  0.252475  0.500000  1
  Mg  Mg5  1  0.747525  0.744132  0.500000  1
  Hg  Hg6  1  0.333333  0.666667  0.500000  1
  Hg  Hg7  1  0.000000  0.000000  0.000000  1
  Ir  Ir8  1  0.666667  0.333333  0.500000  1
