# generated using pymatgen
data_Ba10Sc4TiO20
_symmetry_space_group_name_H-M   'P 1'
_cell_length_a   4.18189346
_cell_length_b   4.18189401
_cell_length_c   33.95520716
_cell_angle_alpha   86.46951836
_cell_angle_beta   86.46951749
_cell_angle_gamma   89.99999759
_symmetry_Int_Tables_number   1
_chemical_formula_structural   Ba10Sc4TiO20
_chemical_formula_sum   'Ba10 Sc4 Ti1 O20'
_cell_volume   591.56058778
_cell_formula_units_Z   1
loop_
 _symmetry_equiv_pos_site_id
 _symmetry_equiv_pos_as_xyz
  1  'x, y, z'
loop_
 _atom_site_type_symbol
 _atom_site_label
 _atom_site_symmetry_multiplicity
 _atom_site_fract_x
 _atom_site_fract_y
 _atom_site_fract_z
 _atom_site_occupancy
  Ba  Ba0  1  0.471813  0.471813  0.056373  1
  Ba  Ba1  1  0.871570  0.871570  0.256860  1
  Ba  Ba2  1  0.271553  0.271553  0.456894  1
  Ba  Ba3  1  0.671549  0.671549  0.656904  1
  Ba  Ba4  1  0.071319  0.071319  0.857362  1
  Ba  Ba5  1  0.928681  0.928681  0.142638  1
  Ba  Ba6  1  0.328451  0.328451  0.343096  1
  Ba  Ba7  1  0.728447  0.728447  0.543106  1
  Ba  Ba8  1  0.128430  0.128430  0.743140  1
  Ba  Ba9  1  0.528187  0.528187  0.943627  1
  Sc  Sc10  1  0.400145  0.400145  0.199709  1
  Sc  Sc11  1  0.800019  0.800019  0.399962  1
  Sc  Sc12  1  0.199981  0.199981  0.600038  1
  Sc  Sc13  1  0.599855  0.599855  0.800291  1
  Ti  Ti14  1  0.000000  0.000000  0.000000  1
  O  O15  1  0.432236  0.432236  0.135530  1
  O  O16  1  0.831736  0.831736  0.336527  1
  O  O17  1  0.231767  0.231767  0.536466  1
  O  O18  1  0.631759  0.631759  0.736483  1
  O  O19  1  0.028888  0.028888  0.942224  1
  O  O20  1  0.971112  0.971112  0.057776  1
  O  O21  1  0.368241  0.368241  0.263517  1
  O  O22  1  0.768233  0.768233  0.463534  1
  O  O23  1  0.168264  0.168264  0.663473  1
  O  O24  1  0.567764  0.567764  0.864470  1
  O  O25  1  0.000000  0.500000  0.000000  1
  O  O26  1  0.400224  0.900224  0.199554  1
  O  O27  1  0.799998  0.299998  0.400006  1
  O  O28  1  0.200002  0.700002  0.599994  1
  O  O29  1  0.599776  0.099776  0.800446  1
  O  O30  1  0.500000  0.000000  0.000000  1
  O  O31  1  0.900224  0.400224  0.199554  1
  O  O32  1  0.299998  0.799998  0.400006  1
  O  O33  1  0.700002  0.200002  0.599994  1
  O  O34  1  0.099776  0.599776  0.800446  1
