# generated using pymatgen
data_Zn11RuAu2
_symmetry_space_group_name_H-M   'P 1'
_cell_length_a   6.75798618
_cell_length_b   6.75798584
_cell_length_c   5.18667990
_cell_angle_alpha   80.54685765
_cell_angle_beta   80.54685361
_cell_angle_gamma   70.54103738
_symmetry_Int_Tables_number   1
_chemical_formula_structural   Zn11RuAu2
_chemical_formula_sum   'Zn11 Ru1 Au2'
_cell_volume   218.78127896
_cell_formula_units_Z   1
loop_
 _symmetry_equiv_pos_site_id
 _symmetry_equiv_pos_as_xyz
  1  'x, y, z'
loop_
 _atom_site_type_symbol
 _atom_site_label
 _atom_site_symmetry_multiplicity
 _atom_site_fract_x
 _atom_site_fract_y
 _atom_site_fract_z
 _atom_site_occupancy
  Zn  Zn0  1  0.000000  0.000000  0.000000  1
  Zn  Zn1  1  0.776295  0.776295  0.384712  1
  Zn  Zn2  1  0.223705  0.223705  0.615288  1
  Zn  Zn3  1  0.221645  0.634091  0.311306  1
  Zn  Zn4  1  0.365909  0.778355  0.688694  1
  Zn  Zn5  1  0.778355  0.365909  0.688694  1
  Zn  Zn6  1  0.634091  0.221645  0.311306  1
  Zn  Zn7  1  0.004415  0.641488  0.796579  1
  Zn  Zn8  1  0.358512  0.995585  0.203421  1
  Zn  Zn9  1  0.995585  0.358512  0.203421  1
  Zn  Zn10  1  0.641488  0.004415  0.796579  1
  Ru  Ru11  1  0.000000  0.000000  0.500000  1
  Au  Au12  1  0.376545  0.376545  0.939603  1
  Au  Au13  1  0.623455  0.623455  0.060397  1
