# generated using pymatgen
data_Pr6B2(CI)3
_symmetry_space_group_name_H-M   'P 1'
_cell_length_a   8.98500413
_cell_length_b   3.93824000
_cell_length_c   10.62316518
_cell_angle_alpha   90.00000000
_cell_angle_beta   114.20618682
_cell_angle_gamma   90.00000000
_symmetry_Int_Tables_number   1
_chemical_formula_structural   Pr6B2(CI)3
_chemical_formula_sum   'Pr6 B2 C3 I3'
_cell_volume   342.85094382
_cell_formula_units_Z   1
loop_
 _symmetry_equiv_pos_site_id
 _symmetry_equiv_pos_as_xyz
  1  'x, y, z'
loop_
 _atom_site_type_symbol
 _atom_site_label
 _atom_site_symmetry_multiplicity
 _atom_site_fract_x
 _atom_site_fract_y
 _atom_site_fract_z
 _atom_site_occupancy
  Pr  Pr0  1  0.368938  0.500001  0.230265  1
  Pr  Pr1  1  0.631061  0.500001  0.769734  1
  Pr  Pr2  1  0.955745  0.500001  0.159778  1
  Pr  Pr3  1  0.044255  0.500001  0.840222  1
  Pr  Pr4  1  0.293952  0.000000  0.478243  1
  Pr  Pr5  1  0.706048  0.000000  0.521757  1
  B  B6  1  0.088936  0.000000  0.067026  1
  B  B7  1  0.911066  0.000000  0.932975  1
  C  C8  1  0.169568  0.000000  0.223119  1
  C  C9  1  0.830432  0.000000  0.776880  1
  C  C10  1  0.500000  0.500001  0.500000  1
  I  I11  1  0.650171  0.000000  0.185710  1
  I  I12  1  0.349830  0.000000  0.814291  1
  I  I13  1  0.000000  0.500001  0.500000  1
