# generated using pymatgen
data_Li8Pr8SnBi2Pb5
_symmetry_space_group_name_H-M   'P 1'
_cell_length_a   9.71679357
_cell_length_b   9.71412496
_cell_length_c   7.71976903
_cell_angle_alpha   89.99999884
_cell_angle_beta   90.07048929
_cell_angle_gamma   119.99090733
_symmetry_Int_Tables_number   1
_chemical_formula_structural   Li8Pr8SnBi2Pb5
_chemical_formula_sum   'Li8 Pr8 Sn1 Bi2 Pb5'
_cell_volume   631.10402010
_cell_formula_units_Z   1
loop_
 _symmetry_equiv_pos_site_id
 _symmetry_equiv_pos_as_xyz
  1  'x, y, z'
loop_
 _atom_site_type_symbol
 _atom_site_label
 _atom_site_symmetry_multiplicity
 _atom_site_fract_x
 _atom_site_fract_y
 _atom_site_fract_z
 _atom_site_occupancy
  Li  Li0  1  0.831969  0.166266  0.719667  1
  Li  Li1  1  0.831969  0.665702  0.719667  1
  Li  Li2  1  0.335043  0.167521  0.715655  1
  Li  Li3  1  0.170117  0.833771  0.215075  1
  Li  Li4  1  0.170117  0.336347  0.215075  1
  Li  Li5  1  0.662380  0.831191  0.210017  1
  Li  Li6  1  0.664371  0.332185  0.330635  1
  Li  Li7  1  0.334113  0.667057  0.826415  1
  Pr  Pr8  1  0.484325  0.510692  0.505577  1
  Pr  Pr9  1  0.484325  0.973632  0.505577  1
  Pr  Pr10  1  0.027396  0.513698  0.506919  1
  Pr  Pr11  1  0.507611  0.487603  0.003886  1
  Pr  Pr12  1  0.507611  0.020008  0.003886  1
  Pr  Pr13  1  0.982364  0.491181  0.003044  1
  Pr  Pr14  1  0.002618  0.001309  0.503836  1
  Pr  Pr15  1  0.003379  0.001690  0.998321  1
  Sn  Sn16  1  0.332740  0.666370  0.234593  1
  Bi  Bi17  1  0.833595  0.167094  0.265830  1
  Bi  Bi18  1  0.833595  0.666501  0.265830  1
  Pb  Pb19  1  0.333329  0.166665  0.268884  1
  Pb  Pb20  1  0.166339  0.833212  0.767657  1
  Pb  Pb21  1  0.166339  0.333128  0.767657  1
  Pb  Pb22  1  0.666699  0.833349  0.768885  1
  Pb  Pb23  1  0.667655  0.333827  0.735418  1
