# generated using pymatgen
data_Er16AlIn6Au
_symmetry_space_group_name_H-M   'P 1'
_cell_length_a   10.58076200
_cell_length_b   10.58076091
_cell_length_c   6.75465600
_cell_angle_alpha   90.00000000
_cell_angle_beta   90.00000000
_cell_angle_gamma   119.99999716
_symmetry_Int_Tables_number   1
_chemical_formula_structural   Er16AlIn6Au
_chemical_formula_sum   'Er16 Al1 In6 Au1'
_cell_volume   654.88904681
_cell_formula_units_Z   1
loop_
 _symmetry_equiv_pos_site_id
 _symmetry_equiv_pos_as_xyz
  1  'x, y, z'
loop_
 _atom_site_type_symbol
 _atom_site_label
 _atom_site_symmetry_multiplicity
 _atom_site_fract_x
 _atom_site_fract_y
 _atom_site_fract_z
 _atom_site_occupancy
  Er  Er0  1  0.518789  0.037578  0.796753  1
  Er  Er1  1  0.962422  0.481211  0.796753  1
  Er  Er2  1  0.518789  0.481211  0.796753  1
  Er  Er3  1  0.479884  0.959769  0.293629  1
  Er  Er4  1  0.040231  0.520116  0.293629  1
  Er  Er5  1  0.479884  0.520116  0.293629  1
  Er  Er6  1  0.825996  0.651994  0.515263  1
  Er  Er7  1  0.348006  0.174004  0.515263  1
  Er  Er8  1  0.825996  0.174004  0.515263  1
  Er  Er9  1  0.170152  0.340303  0.016971  1
  Er  Er10  1  0.659697  0.829848  0.016971  1
  Er  Er11  1  0.170152  0.829848  0.016971  1
  Er  Er12  1  0.666667  0.333333  0.145865  1
  Er  Er13  1  0.333333  0.666667  0.625736  1
  Er  Er14  1  0.000000  0.000000  0.780425  1
  Er  Er15  1  0.000000  0.000000  0.282694  1
  Al  Al16  1  0.333333  0.666667  0.081299  1
  In  In17  1  0.835589  0.671181  0.029806  1
  In  In18  1  0.328819  0.164411  0.029806  1
  In  In19  1  0.835589  0.164411  0.029806  1
  In  In20  1  0.164307  0.328615  0.532625  1
  In  In21  1  0.671385  0.835693  0.532625  1
  In  In22  1  0.164307  0.835693  0.532625  1
  Au  Au23  1  0.666667  0.333333  0.564746  1
