# generated using pymatgen
data_Re6Se7Cl4
_symmetry_space_group_name_H-M   'P 1'
_cell_length_a   12.03778084
_cell_length_b   12.03778097
_cell_length_c   12.03778137
_cell_angle_alpha   50.43410860
_cell_angle_beta   50.43410730
_cell_angle_gamma   50.43410296
_symmetry_Int_Tables_number   1
_chemical_formula_structural   Re6Se7Cl4
_chemical_formula_sum   'Re12 Se14 Cl8'
_cell_volume   954.94013526
_cell_formula_units_Z   2
loop_
 _symmetry_equiv_pos_site_id
 _symmetry_equiv_pos_as_xyz
  1  'x, y, z'
loop_
 _atom_site_type_symbol
 _atom_site_label
 _atom_site_symmetry_multiplicity
 _atom_site_fract_x
 _atom_site_fract_y
 _atom_site_fract_z
 _atom_site_occupancy
  Re  Re0  1  0.536200  0.385896  0.682399  1
  Re  Re1  1  0.385896  0.682399  0.536200  1
  Re  Re2  1  0.682399  0.536200  0.385896  1
  Re  Re3  1  0.182399  0.885896  0.036200  1
  Re  Re4  1  0.885896  0.036200  0.182399  1
  Re  Re5  1  0.036200  0.182399  0.885896  1
  Re  Re6  1  0.465157  0.615065  0.317640  1
  Re  Re7  1  0.615065  0.317640  0.465157  1
  Re  Re8  1  0.317640  0.465157  0.615065  1
  Re  Re9  1  0.817640  0.115065  0.965157  1
  Re  Re10  1  0.115065  0.965157  0.817640  1
  Re  Re11  1  0.965157  0.817640  0.115065  1
  Se  Se12  1  0.818565  0.246338  0.529454  1
  Se  Se13  1  0.246338  0.529454  0.818565  1
  Se  Se14  1  0.529454  0.818565  0.246338  1
  Se  Se15  1  0.029454  0.746338  0.318565  1
  Se  Se16  1  0.746338  0.318565  0.029454  1
  Se  Se17  1  0.318565  0.029454  0.746338  1
  Se  Se18  1  0.181501  0.754353  0.468870  1
  Se  Se19  1  0.754353  0.468870  0.181501  1
  Se  Se20  1  0.468870  0.181501  0.754353  1
  Se  Se21  1  0.968870  0.254353  0.681501  1
  Se  Se22  1  0.254353  0.681501  0.968870  1
  Se  Se23  1  0.681501  0.968870  0.254353  1
  Se  Se24  1  0.599487  0.599487  0.599487  1
  Se  Se25  1  0.099487  0.099487  0.099487  1
  Cl  Cl26  1  0.934742  0.569912  0.242318  1
  Cl  Cl27  1  0.569912  0.242318  0.934742  1
  Cl  Cl28  1  0.242318  0.934742  0.569912  1
  Cl  Cl29  1  0.742318  0.069912  0.434742  1
  Cl  Cl30  1  0.069912  0.434742  0.742318  1
  Cl  Cl31  1  0.434742  0.742318  0.069912  1
  Cl  Cl32  1  0.402066  0.402066  0.402066  1
  Cl  Cl33  1  0.902066  0.902066  0.902066  1
