# generated using pymatgen
data_Ta2ZnB2IrRu4
_symmetry_space_group_name_H-M   'P 1'
_cell_length_a   9.34986204
_cell_length_b   9.28768313
_cell_length_c   3.00343900
_cell_angle_alpha   90.00000000
_cell_angle_beta   90.00000000
_cell_angle_gamma   90.18457182
_symmetry_Int_Tables_number   1
_chemical_formula_structural   Ta2ZnB2IrRu4
_chemical_formula_sum   'Ta4 Zn2 B4 Ir2 Ru8'
_cell_volume   260.81295249
_cell_formula_units_Z   2
loop_
 _symmetry_equiv_pos_site_id
 _symmetry_equiv_pos_as_xyz
  1  'x, y, z'
loop_
 _atom_site_type_symbol
 _atom_site_label
 _atom_site_symmetry_multiplicity
 _atom_site_fract_x
 _atom_site_fract_y
 _atom_site_fract_z
 _atom_site_occupancy
  Ta  Ta0  1  0.826900  0.675649  0.000000  1
  Ta  Ta1  1  0.173100  0.324351  0.000000  1
  Ta  Ta2  1  0.319865  0.823725  0.000000  1
  Ta  Ta3  1  0.680135  0.176275  0.000000  1
  Zn  Zn4  1  0.500000  0.500000  0.000000  1
  Zn  Zn5  1  0.000000  0.000000  0.000000  1
  B  B6  1  0.628163  0.877825  0.000000  1
  B  B7  1  0.371837  0.122175  0.000000  1
  B  B8  1  0.125861  0.625605  0.000000  1
  B  B9  1  0.874139  0.374395  0.000000  1
  Ir  Ir10  1  0.569813  0.716240  0.500000  1
  Ir  Ir11  1  0.430187  0.283760  0.500000  1
  Ru  Ru12  1  0.069986  0.784784  0.500000  1
  Ru  Ru13  1  0.930014  0.215216  0.500000  1
  Ru  Ru14  1  0.284268  0.569178  0.500000  1
  Ru  Ru15  1  0.715732  0.430822  0.500000  1
  Ru  Ru16  1  0.215534  0.069364  0.500000  1
  Ru  Ru17  1  0.784466  0.930636  0.500000  1
  Ru  Ru18  1  0.500000  0.000000  0.500000  1
  Ru  Ru19  1  0.000000  0.500000  0.500000  1
