# generated using pymatgen
data_Tb7HoSc12Si15Hg
_symmetry_space_group_name_H-M   'P 1'
_cell_length_a   7.14339189
_cell_length_b   7.40553448
_cell_length_c   14.10609142
_cell_angle_alpha   89.92132854
_cell_angle_beta   89.56749764
_cell_angle_gamma   90.14966898
_symmetry_Int_Tables_number   1
_chemical_formula_structural   Tb7HoSc12Si15Hg
_chemical_formula_sum   'Tb7 Ho1 Sc12 Si15 Hg1'
_cell_volume   746.19666320
_cell_formula_units_Z   1
loop_
 _symmetry_equiv_pos_site_id
 _symmetry_equiv_pos_as_xyz
  1  'x, y, z'
loop_
 _atom_site_type_symbol
 _atom_site_label
 _atom_site_symmetry_multiplicity
 _atom_site_fract_x
 _atom_site_fract_y
 _atom_site_fract_z
 _atom_site_occupancy
  Tb  Tb0  1  0.011936  0.175428  0.097212  1
  Tb  Tb1  1  0.987714  0.825472  0.904302  1
  Tb  Tb2  1  0.487526  0.676536  0.903985  1
  Tb  Tb3  1  0.989089  0.831201  0.598222  1
  Tb  Tb4  1  0.511768  0.323922  0.096397  1
  Tb  Tb5  1  0.007503  0.170972  0.398395  1
  Tb  Tb6  1  0.511475  0.322289  0.399147  1
  Ho  Ho7  1  0.496546  0.681944  0.600537  1
  Sc  Sc8  1  0.162659  0.501270  0.754197  1
  Sc  Sc9  1  0.837032  0.498625  0.249960  1
  Sc  Sc10  1  0.337359  0.000595  0.248755  1
  Sc  Sc11  1  0.664929  0.996984  0.751626  1
  Sc  Sc12  1  0.342482  0.168309  0.628984  1
  Sc  Sc13  1  0.663974  0.824322  0.372967  1
  Sc  Sc14  1  0.166507  0.677888  0.370622  1
  Sc  Sc15  1  0.669220  0.823738  0.124277  1
  Sc  Sc16  1  0.825537  0.325294  0.626334  1
  Sc  Sc17  1  0.329171  0.175080  0.876051  1
  Sc  Sc18  1  0.830273  0.322842  0.876098  1
  Sc  Sc19  1  0.168771  0.676766  0.124951  1
  Si  Si20  1  0.035769  0.120925  0.751427  1
  Si  Si21  1  0.963850  0.883390  0.247881  1
  Si  Si22  1  0.465767  0.615867  0.247886  1
  Si  Si23  1  0.533970  0.385881  0.752068  1
  Si  Si24  1  0.285312  0.872346  0.751605  1
  Si  Si25  1  0.712381  0.126966  0.247712  1
  Si  Si26  1  0.213112  0.371842  0.248146  1
  Si  Si27  1  0.788648  0.627782  0.752436  1
  Si  Si28  1  0.832689  0.538799  0.459184  1
  Si  Si29  1  0.339086  0.961783  0.460122  1
  Si  Si30  1  0.843899  0.535401  0.038901  1
  Si  Si31  1  0.659681  0.037108  0.537643  1
  Si  Si32  1  0.155810  0.464043  0.962127  1
  Si  Si33  1  0.655829  0.035077  0.960579  1
  Si  Si34  1  0.343111  0.964726  0.039806  1
  Hg  Hg35  1  0.169617  0.458585  0.539461  1
