# generated using pymatgen
data_Li3La3SnGe2
_symmetry_space_group_name_H-M   'P 1'
_cell_length_a   7.51634900
_cell_length_b   7.51634810
_cell_length_c   4.54850600
_cell_angle_alpha   90.00000000
_cell_angle_beta   90.00000000
_cell_angle_gamma   119.99999077
_symmetry_Int_Tables_number   1
_chemical_formula_structural   Li3La3SnGe2
_chemical_formula_sum   'Li3 La3 Sn1 Ge2'
_cell_volume   222.54265550
_cell_formula_units_Z   1
loop_
 _symmetry_equiv_pos_site_id
 _symmetry_equiv_pos_as_xyz
  1  'x, y, z'
loop_
 _atom_site_type_symbol
 _atom_site_label
 _atom_site_symmetry_multiplicity
 _atom_site_fract_x
 _atom_site_fract_y
 _atom_site_fract_z
 _atom_site_occupancy
  Li  Li0  1  0.236784  0.000000  0.500000  1
  Li  Li1  1  0.763216  0.763216  0.500000  1
  Li  Li2  1  0.000000  0.236784  0.500000  1
  La  La3  1  0.000000  0.562354  0.000000  1
  La  La4  1  0.562354  0.000000  0.000000  1
  La  La5  1  0.437646  0.437646  0.000000  1
  Sn  Sn6  1  0.000000  0.000000  0.000000  1
  Ge  Ge7  1  0.333333  0.666667  0.500000  1
  Ge  Ge8  1  0.666667  0.333333  0.500000  1
