# generated using pymatgen
data_LiTb3As6Ir7
_symmetry_space_group_name_H-M   'P 1'
_cell_length_a   7.22692665
_cell_length_b   7.22692615
_cell_length_c   7.30145200
_cell_angle_alpha   109.68024951
_cell_angle_beta   109.68024808
_cell_angle_gamma   109.26138817
_symmetry_Int_Tables_number   1
_chemical_formula_structural   LiTb3As6Ir7
_chemical_formula_sum   'Li1 Tb3 As6 Ir7'
_cell_volume   292.79775564
_cell_formula_units_Z   1
loop_
 _symmetry_equiv_pos_site_id
 _symmetry_equiv_pos_as_xyz
  1  'x, y, z'
loop_
 _atom_site_type_symbol
 _atom_site_label
 _atom_site_symmetry_multiplicity
 _atom_site_fract_x
 _atom_site_fract_y
 _atom_site_fract_z
 _atom_site_occupancy
  Li  Li0  1  0.000000  0.000000  0.500000  1
  Tb  Tb1  1  0.500000  0.000000  0.000000  1
  Tb  Tb2  1  0.000000  0.500000  0.000000  1
  Tb  Tb3  1  0.500000  0.500000  0.500000  1
  As  As4  1  0.687151  0.687151  0.010042  1
  As  As5  1  0.312849  0.312849  0.989958  1
  As  As6  1  0.000000  0.687151  0.677109  1
  As  As7  1  0.000000  0.312849  0.322891  1
  As  As8  1  0.687151  0.000000  0.677109  1
  As  As9  1  0.312849  0.000000  0.322891  1
  Ir  Ir10  1  0.000000  0.000000  0.000000  1
  Ir  Ir11  1  0.249230  0.498460  0.749230  1
  Ir  Ir12  1  0.750770  0.249230  0.500000  1
  Ir  Ir13  1  0.498460  0.249230  0.749230  1
  Ir  Ir14  1  0.501540  0.750770  0.250770  1
  Ir  Ir15  1  0.750770  0.501540  0.250770  1
  Ir  Ir16  1  0.249230  0.750770  0.500000  1
