# generated using pymatgen
data_Ba4AcTi5O15
_symmetry_space_group_name_H-M   'P 1'
_cell_length_a   4.03136000
_cell_length_b   4.03136000
_cell_length_c   20.22555500
_cell_angle_alpha   90.00000000
_cell_angle_beta   90.00000000
_cell_angle_gamma   90.00000000
_symmetry_Int_Tables_number   1
_chemical_formula_structural   Ba4AcTi5O15
_chemical_formula_sum   'Ba4 Ac1 Ti5 O15'
_cell_volume   328.70295805
_cell_formula_units_Z   1
loop_
 _symmetry_equiv_pos_site_id
 _symmetry_equiv_pos_as_xyz
  1  'x, y, z'
loop_
 _atom_site_type_symbol
 _atom_site_label
 _atom_site_symmetry_multiplicity
 _atom_site_fract_x
 _atom_site_fract_y
 _atom_site_fract_z
 _atom_site_occupancy
  Ba  Ba0  1  0.000000  0.000000  0.201686  1
  Ba  Ba1  1  0.000000  0.000000  0.400543  1
  Ba  Ba2  1  0.000000  0.000000  0.599457  1
  Ba  Ba3  1  0.000000  0.000000  0.798314  1
  Ac  Ac4  1  0.000000  0.000000  0.000000  1
  Ti  Ti5  1  0.500000  0.500000  0.100870  1
  Ti  Ti6  1  0.500000  0.500000  0.302706  1
  Ti  Ti7  1  0.500000  0.500000  0.500000  1
  Ti  Ti8  1  0.500000  0.500000  0.697294  1
  Ti  Ti9  1  0.500000  0.500000  0.899130  1
  O  O10  1  0.500000  0.500000  0.000000  1
  O  O11  1  0.500000  0.500000  0.194749  1
  O  O12  1  0.500000  0.500000  0.398289  1
  O  O13  1  0.500000  0.500000  0.601711  1
  O  O14  1  0.500000  0.500000  0.805251  1
  O  O15  1  0.500000  0.000000  0.092681  1
  O  O16  1  0.500000  0.000000  0.298060  1
  O  O17  1  0.500000  0.000000  0.500000  1
  O  O18  1  0.500000  0.000000  0.701940  1
  O  O19  1  0.500000  0.000000  0.907319  1
  O  O20  1  0.000000  0.500000  0.092681  1
  O  O21  1  0.000000  0.500000  0.298060  1
  O  O22  1  0.000000  0.500000  0.500000  1
  O  O23  1  0.000000  0.500000  0.701940  1
  O  O24  1  0.000000  0.500000  0.907319  1
