# generated using pymatgen
data_Ac6Cd23S
_symmetry_space_group_name_H-M   'P 1'
_cell_length_a   10.33530862
_cell_length_b   10.33530846
_cell_length_c   10.33530800
_cell_angle_alpha   60.00000146
_cell_angle_beta   60.00000198
_cell_angle_gamma   59.99999895
_symmetry_Int_Tables_number   1
_chemical_formula_structural   Ac6Cd23S
_chemical_formula_sum   'Ac6 Cd23 S1'
_cell_volume   780.64813333
_cell_formula_units_Z   1
loop_
 _symmetry_equiv_pos_site_id
 _symmetry_equiv_pos_as_xyz
  1  'x, y, z'
loop_
 _atom_site_type_symbol
 _atom_site_label
 _atom_site_symmetry_multiplicity
 _atom_site_fract_x
 _atom_site_fract_y
 _atom_site_fract_z
 _atom_site_occupancy
  Ac  Ac0  1  0.789898  0.789898  0.210102  1
  Ac  Ac1  1  0.210102  0.789898  0.210102  1
  Ac  Ac2  1  0.789898  0.210102  0.210102  1
  Ac  Ac3  1  0.210102  0.210102  0.789898  1
  Ac  Ac4  1  0.789898  0.210102  0.789898  1
  Ac  Ac5  1  0.210102  0.789898  0.789898  1
  Cd  Cd6  1  0.830317  0.830317  0.509048  1
  Cd  Cd7  1  0.830317  0.509048  0.830317  1
  Cd  Cd8  1  0.509048  0.830317  0.830317  1
  Cd  Cd9  1  0.830317  0.830317  0.830317  1
  Cd  Cd10  1  0.169683  0.169683  0.490952  1
  Cd  Cd11  1  0.169683  0.490952  0.169683  1
  Cd  Cd12  1  0.490952  0.169683  0.169683  1
  Cd  Cd13  1  0.169683  0.169683  0.169683  1
  Cd  Cd14  1  0.622175  0.622175  0.133473  1
  Cd  Cd15  1  0.622175  0.133473  0.622175  1
  Cd  Cd16  1  0.133473  0.622175  0.622175  1
  Cd  Cd17  1  0.622175  0.622175  0.622175  1
  Cd  Cd18  1  0.377825  0.377825  0.866527  1
  Cd  Cd19  1  0.377825  0.866527  0.377825  1
  Cd  Cd20  1  0.866527  0.377825  0.377825  1
  Cd  Cd21  1  0.377825  0.377825  0.377825  1
  Cd  Cd22  1  0.000000  0.000000  0.500000  1
  Cd  Cd23  1  0.500000  0.000000  0.500000  1
  Cd  Cd24  1  0.000000  0.500000  0.500000  1
  Cd  Cd25  1  0.500000  0.500000  0.000000  1
  Cd  Cd26  1  0.000000  0.500000  0.000000  1
  Cd  Cd27  1  0.500000  0.000000  0.000000  1
  Cd  Cd28  1  0.500000  0.500000  0.500000  1
  S  S29  1  0.000000  0.000000  0.000000  1
