# generated using pymatgen
data_Sm12CoOsI17
_symmetry_space_group_name_H-M   'P 1'
_cell_length_a   9.95051261
_cell_length_b   11.93167163
_cell_length_c   11.94452039
_cell_angle_alpha   93.45292764
_cell_angle_beta   104.75804305
_cell_angle_gamma   114.29711094
_symmetry_Int_Tables_number   1
_chemical_formula_structural   Sm12CoOsI17
_chemical_formula_sum   'Sm12 Co1 Os1 I17'
_cell_volume   1227.76573798
_cell_formula_units_Z   1
loop_
 _symmetry_equiv_pos_site_id
 _symmetry_equiv_pos_as_xyz
  1  'x, y, z'
loop_
 _atom_site_type_symbol
 _atom_site_label
 _atom_site_symmetry_multiplicity
 _atom_site_fract_x
 _atom_site_fract_y
 _atom_site_fract_z
 _atom_site_occupancy
  Sm  Sm0  1  0.052211  0.503990  0.320026  1
  Sm  Sm1  1  0.989825  0.810599  0.582690  1
  Sm  Sm2  1  0.650717  0.241730  0.282826  1
  Sm  Sm3  1  0.009183  0.192476  0.413544  1
  Sm  Sm4  1  0.223316  0.669950  0.989426  1
  Sm  Sm5  1  0.257736  0.985390  0.890441  1
  Sm  Sm6  1  0.354793  0.759233  0.715399  1
  Sm  Sm7  1  0.943670  0.490042  0.677939  1
  Sm  Sm8  1  0.745911  0.022306  0.110511  1
  Sm  Sm9  1  0.144852  0.286593  0.151425  1
  Sm  Sm10  1  0.779243  0.328439  0.016437  1
  Sm  Sm11  1  0.847598  0.712250  0.848551  1
  Co  Co12  1  0.896078  0.262219  0.214979  1
  Os  Os13  1  0.104099  0.737973  0.785732  1
  I  I14  1  0.785435  0.527741  0.416765  1
  I  I15  1  0.644078  0.417369  0.764737  1
  I  I16  1  0.843947  0.899120  0.324323  1
  I  I17  1  0.325561  0.212589  0.366415  1
  I  I18  1  0.154914  0.105566  0.670960  1
  I  I19  1  0.589596  0.054640  0.846372  1
  I  I20  1  0.755268  0.183459  0.535941  1
  I  I21  1  0.553040  0.714177  0.957608  1
  I  I22  1  0.355860  0.577504  0.241817  1
  I  I23  1  0.214225  0.470216  0.579006  1
  I  I24  1  0.052980  0.366536  0.898629  1
  I  I25  1  0.451598  0.292693  0.048089  1
  I  I26  1  0.000169  0.000877  0.001553  1
  I  I27  1  0.240137  0.809176  0.457992  1
  I  I28  1  0.417890  0.949122  0.156793  1
  I  I29  1  0.672780  0.787010  0.629742  1
  I  I30  1  0.943291  0.629013  0.103333  1
