# generated using pymatgen
data_Mg11Al9Pd8
_symmetry_space_group_name_H-M   'P 1'
_cell_length_a   8.44931596
_cell_length_b   8.44931514
_cell_length_c   7.99539686
_cell_angle_alpha   89.60347222
_cell_angle_beta   90.39652609
_cell_angle_gamma   120.09113058
_symmetry_Int_Tables_number   1
_chemical_formula_structural   Mg11Al9Pd8
_chemical_formula_sum   'Mg11 Al9 Pd8'
_cell_volume   493.85598286
_cell_formula_units_Z   1
loop_
 _symmetry_equiv_pos_site_id
 _symmetry_equiv_pos_as_xyz
  1  'x, y, z'
loop_
 _atom_site_type_symbol
 _atom_site_label
 _atom_site_symmetry_multiplicity
 _atom_site_fract_x
 _atom_site_fract_y
 _atom_site_fract_z
 _atom_site_occupancy
  Mg  Mg0  1  0.798375  0.597720  0.941395  1
  Mg  Mg1  1  0.402280  0.201625  0.941395  1
  Mg  Mg2  1  0.200368  0.799632  0.061311  1
  Mg  Mg3  1  0.198401  0.402809  0.059834  1
  Mg  Mg4  1  0.597191  0.801599  0.059834  1
  Mg  Mg5  1  0.536306  0.463694  0.272693  1
  Mg  Mg6  1  0.537212  0.075421  0.267995  1
  Mg  Mg7  1  0.924579  0.462788  0.267995  1
  Mg  Mg8  1  0.462384  0.537616  0.727045  1
  Mg  Mg9  1  0.463827  0.926557  0.731257  1
  Mg  Mg10  1  0.073443  0.536173  0.731257  1
  Al  Al11  1  0.181072  0.818928  0.434889  1
  Al  Al12  1  0.181647  0.363254  0.433642  1
  Al  Al13  1  0.636746  0.818353  0.433642  1
  Al  Al14  1  0.818648  0.181352  0.562016  1
  Al  Al15  1  0.816297  0.633888  0.568406  1
  Al  Al16  1  0.366112  0.183703  0.568406  1
  Al  Al17  1  0.805977  0.194023  0.932200  1
  Al  Al18  1  0.000094  0.999906  0.498209  1
  Al  Al19  1  0.000939  0.999061  0.000042  1
  Pd  Pd20  1  0.878239  0.121761  0.248270  1
  Pd  Pd21  1  0.879043  0.760493  0.257579  1
  Pd  Pd22  1  0.239507  0.120957  0.257579  1
  Pd  Pd23  1  0.119734  0.880266  0.743161  1
  Pd  Pd24  1  0.115488  0.237991  0.743818  1
  Pd  Pd25  1  0.762009  0.884512  0.743818  1
  Pd  Pd26  1  0.332316  0.667684  0.301727  1
  Pd  Pd27  1  0.671768  0.328232  0.710584  1
