# generated using pymatgen
data_Tb2Dy3(OsO6)2
_symmetry_space_group_name_H-M   'P 1'
_cell_length_a   6.89807220
_cell_length_b   6.89807224
_cell_length_c   7.51731356
_cell_angle_alpha   74.01126379
_cell_angle_beta   74.01126389
_cell_angle_gamma   48.47199097
_symmetry_Int_Tables_number   1
_chemical_formula_structural   Tb2Dy3(OsO6)2
_chemical_formula_sum   'Tb2 Dy3 Os2 O12'
_cell_volume   255.27549391
_cell_formula_units_Z   1
loop_
 _symmetry_equiv_pos_site_id
 _symmetry_equiv_pos_as_xyz
  1  'x, y, z'
loop_
 _atom_site_type_symbol
 _atom_site_label
 _atom_site_symmetry_multiplicity
 _atom_site_fract_x
 _atom_site_fract_y
 _atom_site_fract_z
 _atom_site_occupancy
  Tb  Tb0  1  0.301544  0.301544  0.357466  1
  Tb  Tb1  1  0.698456  0.698456  0.642534  1
  Dy  Dy2  1  0.311924  0.311924  0.829363  1
  Dy  Dy3  1  0.688076  0.688076  0.170637  1
  Dy  Dy4  1  0.000000  0.000000  0.500000  1
  Os  Os5  1  0.781077  0.218923  0.000000  1
  Os  Os6  1  0.218923  0.781077  0.000000  1
  O  O7  1  0.913776  0.417955  0.915614  1
  O  O8  1  0.417955  0.913776  0.915614  1
  O  O9  1  0.086224  0.582045  0.084386  1
  O  O10  1  0.582045  0.086224  0.084386  1
  O  O11  1  0.099082  0.596056  0.573970  1
  O  O12  1  0.596056  0.099082  0.573970  1
  O  O13  1  0.900918  0.403944  0.426030  1
  O  O14  1  0.403944  0.900918  0.426030  1
  O  O15  1  0.999259  0.999259  0.796477  1
  O  O16  1  0.000741  0.000741  0.203523  1
  O  O17  1  0.500515  0.500515  0.827092  1
  O  O18  1  0.499485  0.499485  0.172908  1
