# generated using pymatgen
data_DyThCu2(AsP)2
_symmetry_space_group_name_H-M   'P 1'
_cell_length_a   3.90975200
_cell_length_b   3.90975200
_cell_length_c   9.72446500
_cell_angle_alpha   90.00000000
_cell_angle_beta   90.00000000
_cell_angle_gamma   90.00000000
_symmetry_Int_Tables_number   1
_chemical_formula_structural   DyThCu2(AsP)2
_chemical_formula_sum   'Dy1 Th1 Cu2 As2 P2'
_cell_volume   148.64973473
_cell_formula_units_Z   1
loop_
 _symmetry_equiv_pos_site_id
 _symmetry_equiv_pos_as_xyz
  1  'x, y, z'
loop_
 _atom_site_type_symbol
 _atom_site_label
 _atom_site_symmetry_multiplicity
 _atom_site_fract_x
 _atom_site_fract_y
 _atom_site_fract_z
 _atom_site_occupancy
  Dy  Dy0  1  0.500000  0.000000  0.240897  1
  Th  Th1  1  0.000000  0.500000  0.760762  1
  Cu  Cu2  1  0.500000  0.500000  0.494297  1
  Cu  Cu3  1  0.000000  0.000000  0.494297  1
  As  As4  1  0.000000  0.000000  0.005778  1
  As  As5  1  0.500000  0.500000  0.005778  1
  P  P6  1  0.000000  0.500000  0.348761  1
  P  P7  1  0.500000  0.000000  0.649427  1
