# generated using pymatgen
data_Lu3Sc(ZnGa)4
_symmetry_space_group_name_H-M   'P 1'
_cell_length_a   4.38457000
_cell_length_b   7.04260599
_cell_length_c   7.57648900
_cell_angle_alpha   89.94719999
_cell_angle_beta   90.00000000
_cell_angle_gamma   90.00000000
_symmetry_Int_Tables_number   1
_chemical_formula_structural   Lu3Sc(ZnGa)4
_chemical_formula_sum   'Lu3 Sc1 Zn4 Ga4'
_cell_volume   233.95278122
_cell_formula_units_Z   1
loop_
 _symmetry_equiv_pos_site_id
 _symmetry_equiv_pos_as_xyz
  1  'x, y, z'
loop_
 _atom_site_type_symbol
 _atom_site_label
 _atom_site_symmetry_multiplicity
 _atom_site_fract_x
 _atom_site_fract_y
 _atom_site_fract_z
 _atom_site_occupancy
  Lu  Lu0  1  0.750000  0.502143  0.752351  1
  Lu  Lu1  1  0.750000  0.001592  0.743558  1
  Lu  Lu2  1  0.250000  0.002226  0.256665  1
  Sc  Sc3  1  0.250000  0.502031  0.247347  1
  Zn  Zn4  1  0.250000  0.706466  0.581458  1
  Zn  Zn5  1  0.750000  0.228437  0.415308  1
  Zn  Zn6  1  0.750000  0.707529  0.084874  1
  Zn  Zn7  1  0.250000  0.207813  0.918469  1
  Ga  Ga8  1  0.250000  0.787232  0.918009  1
  Ga  Ga9  1  0.750000  0.288148  0.084501  1
  Ga  Ga10  1  0.750000  0.776490  0.415008  1
  Ga  Ga11  1  0.250000  0.289893  0.582453  1
