# generated using pymatgen
data_TmLu3B3C4
_symmetry_space_group_name_H-M   'P 1'
_cell_length_a   3.42734209
_cell_length_b   3.51492441
_cell_length_c   11.74119681
_cell_angle_alpha   92.69616635
_cell_angle_beta   96.15791706
_cell_angle_gamma   90.17652947
_symmetry_Int_Tables_number   1
_chemical_formula_structural   TmLu3B3C4
_chemical_formula_sum   'Tm1 Lu3 B3 C4'
_cell_volume   140.46791080
_cell_formula_units_Z   1
loop_
 _symmetry_equiv_pos_site_id
 _symmetry_equiv_pos_as_xyz
  1  'x, y, z'
loop_
 _atom_site_type_symbol
 _atom_site_label
 _atom_site_symmetry_multiplicity
 _atom_site_fract_x
 _atom_site_fract_y
 _atom_site_fract_z
 _atom_site_occupancy
  Tm  Tm0  1  0.805242  0.024759  0.650748  1
  Lu  Lu1  1  0.385250  0.552886  0.859493  1
  Lu  Lu2  1  0.614586  0.447318  0.140703  1
  Lu  Lu3  1  0.194490  0.975143  0.348467  1
  B  B4  1  0.264806  0.506897  0.540335  1
  B  B5  1  0.735068  0.493160  0.459430  1
  B  B6  1  0.000164  0.999987  0.000281  1
  C  C7  1  0.887020  0.062312  0.878409  1
  C  C8  1  0.687683  0.471368  0.330783  1
  C  C9  1  0.312320  0.528552  0.669193  1
  C  C10  1  0.113371  0.937618  0.122157  1
