# generated using pymatgen
data_LiScZnB2Rh5
_symmetry_space_group_name_H-M   'P 1'
_cell_length_a   9.41506300
_cell_length_b   2.95504600
_cell_length_c   9.35942300
_cell_angle_alpha   90.00000000
_cell_angle_beta   90.00000000
_cell_angle_gamma   90.00000000
_symmetry_Int_Tables_number   1
_chemical_formula_structural   LiScZnB2Rh5
_chemical_formula_sum   'Li2 Sc2 Zn2 B4 Rh10'
_cell_volume   260.39734499
_cell_formula_units_Z   2
loop_
 _symmetry_equiv_pos_site_id
 _symmetry_equiv_pos_as_xyz
  1  'x, y, z'
loop_
 _atom_site_type_symbol
 _atom_site_label
 _atom_site_symmetry_multiplicity
 _atom_site_fract_x
 _atom_site_fract_y
 _atom_site_fract_z
 _atom_site_occupancy
  Li  Li0  1  0.677084  0.000000  0.178193  1
  Li  Li1  1  0.177083  0.000000  0.321806  1
  Sc  Sc2  1  0.824998  0.000000  0.671493  1
  Sc  Sc3  1  0.324997  0.000000  0.828508  1
  Zn  Zn4  1  0.000052  0.000000  0.999795  1
  Zn  Zn5  1  0.500052  0.000000  0.500205  1
  B  B6  1  0.371369  0.000000  0.132090  1
  B  B7  1  0.871370  0.000000  0.367910  1
  B  B8  1  0.124987  0.000000  0.621579  1
  B  B9  1  0.624987  0.000000  0.878422  1
  Rh  Rh10  1  0.502678  0.500001  0.004162  1
  Rh  Rh11  1  0.216640  0.500001  0.069702  1
  Rh  Rh12  1  0.927588  0.500001  0.214656  1
  Rh  Rh13  1  0.427588  0.500001  0.285343  1
  Rh  Rh14  1  0.716641  0.500001  0.430298  1
  Rh  Rh15  1  0.002678  0.500001  0.495838  1
  Rh  Rh16  1  0.284554  0.500001  0.574392  1
  Rh  Rh17  1  0.570051  0.500001  0.717719  1
  Rh  Rh18  1  0.070051  0.500001  0.782281  1
  Rh  Rh19  1  0.784554  0.500001  0.925608  1
