# generated using pymatgen
data_TbTmMnC2
_symmetry_space_group_name_H-M   'P 1'
_cell_length_a   5.01996600
_cell_length_b   6.36314500
_cell_length_c   9.58201600
_cell_angle_alpha   90.00000000
_cell_angle_beta   90.00000000
_cell_angle_gamma   90.00000000
_symmetry_Int_Tables_number   1
_chemical_formula_structural   TbTmMnC2
_chemical_formula_sum   'Tb4 Tm4 Mn4 C8'
_cell_volume   306.07614811
_cell_formula_units_Z   4
loop_
 _symmetry_equiv_pos_site_id
 _symmetry_equiv_pos_as_xyz
  1  'x, y, z'
loop_
 _atom_site_type_symbol
 _atom_site_label
 _atom_site_symmetry_multiplicity
 _atom_site_fract_x
 _atom_site_fract_y
 _atom_site_fract_z
 _atom_site_occupancy
  Tb  Tb0  1  0.750000  0.475286  0.789115  1
  Tb  Tb1  1  0.250000  0.024714  0.289115  1
  Tb  Tb2  1  0.750000  0.975286  0.710885  1
  Tb  Tb3  1  0.250000  0.524714  0.210885  1
  Tm  Tm4  1  0.750000  0.823142  0.056903  1
  Tm  Tm5  1  0.250000  0.676858  0.556903  1
  Tm  Tm6  1  0.750000  0.323142  0.443097  1
  Tm  Tm7  1  0.250000  0.176858  0.943097  1
  Mn  Mn8  1  0.750000  0.271307  0.141957  1
  Mn  Mn9  1  0.250000  0.228693  0.641957  1
  Mn  Mn10  1  0.750000  0.771307  0.358043  1
  Mn  Mn11  1  0.250000  0.728693  0.858043  1
  C  C12  1  0.750000  0.185174  0.963910  1
  C  C13  1  0.250000  0.814826  0.036090  1
  C  C14  1  0.750000  0.685174  0.536090  1
  C  C15  1  0.250000  0.314826  0.463910  1
  C  C16  1  0.750000  0.039056  0.261343  1
  C  C17  1  0.250000  0.460944  0.761343  1
  C  C18  1  0.750000  0.539056  0.238657  1
  C  C19  1  0.250000  0.960944  0.738657  1
