# generated using pymatgen
data_Gd3Ho3AuO12
_symmetry_space_group_name_H-M   'P 1'
_cell_length_a   6.52079214
_cell_length_b   6.51748140
_cell_length_c   6.52248864
_cell_angle_alpha   98.76196044
_cell_angle_beta   98.85126234
_cell_angle_gamma   98.88415923
_symmetry_Int_Tables_number   1
_chemical_formula_structural   Gd3Ho3AuO12
_chemical_formula_sum   'Gd3 Ho3 Au1 O12'
_cell_volume   266.17411134
_cell_formula_units_Z   1
loop_
 _symmetry_equiv_pos_site_id
 _symmetry_equiv_pos_as_xyz
  1  'x, y, z'
loop_
 _atom_site_type_symbol
 _atom_site_label
 _atom_site_symmetry_multiplicity
 _atom_site_fract_x
 _atom_site_fract_y
 _atom_site_fract_z
 _atom_site_occupancy
  Gd  Gd0  1  0.699805  0.862563  0.392633  1
  Gd  Gd1  1  0.391277  0.694171  0.857393  1
  Gd  Gd2  1  0.139939  0.606524  0.303706  1
  Ho  Ho3  1  0.858811  0.388307  0.698653  1
  Ho  Ho4  1  0.609649  0.299701  0.137367  1
  Ho  Ho5  1  0.304641  0.144149  0.612378  1
  Au  Au6  1  0.000932  0.001049  0.000122  1
  O  O7  1  0.941812  0.049119  0.692978  1
  O  O8  1  0.950901  0.307605  0.058206  1
  O  O9  1  0.588741  0.179594  0.437929  1
  O  O10  1  0.818742  0.559009  0.410083  1
  O  O11  1  0.309120  0.063852  0.953536  1
  O  O12  1  0.563209  0.406522  0.822627  1
  O  O13  1  0.438603  0.586720  0.177083  1
  O  O14  1  0.692790  0.942561  0.045929  1
  O  O15  1  0.174540  0.434943  0.589936  1
  O  O16  1  0.410042  0.825566  0.563424  1
  O  O17  1  0.043344  0.691286  0.936820  1
  O  O18  1  0.063102  0.956758  0.309196  1
