# generated using pymatgen
data_Tm5CoSb2
_symmetry_space_group_name_H-M   'P 1'
_cell_length_a   7.75738300
_cell_length_b   8.70774300
_cell_length_c   12.03911800
_cell_angle_alpha   90.00000000
_cell_angle_beta   90.00000000
_cell_angle_gamma   90.00000000
_symmetry_Int_Tables_number   1
_chemical_formula_structural   Tm5CoSb2
_chemical_formula_sum   'Tm20 Co4 Sb8'
_cell_volume   813.23396362
_cell_formula_units_Z   4
loop_
 _symmetry_equiv_pos_site_id
 _symmetry_equiv_pos_as_xyz
  1  'x, y, z'
loop_
 _atom_site_type_symbol
 _atom_site_label
 _atom_site_symmetry_multiplicity
 _atom_site_fract_x
 _atom_site_fract_y
 _atom_site_fract_z
 _atom_site_occupancy
  Tm  Tm0  1  0.154992  0.750000  0.203344  1
  Tm  Tm1  1  0.654992  0.250000  0.296656  1
  Tm  Tm2  1  0.845008  0.250000  0.796656  1
  Tm  Tm3  1  0.345008  0.750000  0.703344  1
  Tm  Tm4  1  0.451706  0.750000  0.997992  1
  Tm  Tm5  1  0.951706  0.250000  0.502008  1
  Tm  Tm6  1  0.548294  0.250000  0.002008  1
  Tm  Tm7  1  0.048294  0.750000  0.497992  1
  Tm  Tm8  1  0.620765  0.750000  0.307290  1
  Tm  Tm9  1  0.120765  0.250000  0.192710  1
  Tm  Tm10  1  0.379235  0.250000  0.692710  1
  Tm  Tm11  1  0.879235  0.750000  0.807290  1
  Tm  Tm12  1  0.822670  0.963329  0.064907  1
  Tm  Tm13  1  0.322670  0.036671  0.435093  1
  Tm  Tm14  1  0.177330  0.463329  0.935093  1
  Tm  Tm15  1  0.677330  0.536671  0.564907  1
  Tm  Tm16  1  0.177330  0.036671  0.935093  1
  Tm  Tm17  1  0.677330  0.963329  0.564907  1
  Tm  Tm18  1  0.822670  0.536671  0.064907  1
  Tm  Tm19  1  0.322670  0.463329  0.435093  1
  Co  Co20  1  0.432725  0.750000  0.490327  1
  Co  Co21  1  0.932725  0.250000  0.009673  1
  Co  Co22  1  0.567275  0.250000  0.509673  1
  Co  Co23  1  0.067275  0.750000  0.990327  1
  Sb  Sb24  1  0.929158  0.991398  0.327521  1
  Sb  Sb25  1  0.429158  0.008602  0.172479  1
  Sb  Sb26  1  0.070842  0.491398  0.672479  1
  Sb  Sb27  1  0.570842  0.508602  0.827521  1
  Sb  Sb28  1  0.070842  0.008602  0.672479  1
  Sb  Sb29  1  0.570842  0.991398  0.827521  1
  Sb  Sb30  1  0.929158  0.508602  0.327521  1
  Sb  Sb31  1  0.429158  0.491398  0.172479  1
