# generated using pymatgen
data_NaScCr3Ni9As7
_symmetry_space_group_name_H-M   'P 1'
_cell_length_a   9.47960900
_cell_length_b   9.47960857
_cell_length_c   3.74150200
_cell_angle_alpha   90.00000000
_cell_angle_beta   90.00000000
_cell_angle_gamma   119.99999802
_symmetry_Int_Tables_number   1
_chemical_formula_structural   NaScCr3Ni9As7
_chemical_formula_sum   'Na1 Sc1 Cr3 Ni9 As7'
_cell_volume   291.17725761
_cell_formula_units_Z   1
loop_
 _symmetry_equiv_pos_site_id
 _symmetry_equiv_pos_as_xyz
  1  'x, y, z'
loop_
 _atom_site_type_symbol
 _atom_site_label
 _atom_site_symmetry_multiplicity
 _atom_site_fract_x
 _atom_site_fract_y
 _atom_site_fract_z
 _atom_site_occupancy
  Na  Na0  1  0.666667  0.333333  0.500000  1
  Sc  Sc1  1  0.333333  0.666667  0.000000  1
  Cr  Cr2  1  0.224885  0.124710  0.500000  1
  Cr  Cr3  1  0.875290  0.100175  0.500000  1
  Cr  Cr4  1  0.899825  0.775115  0.500000  1
  Ni  Ni5  1  0.122081  0.281328  0.000000  1
  Ni  Ni6  1  0.718672  0.840753  0.000000  1
  Ni  Ni7  1  0.159247  0.877919  0.000000  1
  Ni  Ni8  1  0.428980  0.374257  0.000000  1
  Ni  Ni9  1  0.625743  0.054724  0.000000  1
  Ni  Ni10  1  0.945276  0.571020  0.000000  1
  Ni  Ni11  1  0.053656  0.435612  0.500000  1
  Ni  Ni12  1  0.564388  0.618044  0.500000  1
  Ni  Ni13  1  0.381956  0.946344  0.500000  1
  As  As14  1  0.292294  0.415584  0.500000  1
  As  As15  1  0.584416  0.876710  0.500000  1
  As  As16  1  0.123290  0.707706  0.500000  1
  As  As17  1  0.415721  0.119992  0.000000  1
  As  As18  1  0.880008  0.295729  0.000000  1
  As  As19  1  0.704271  0.584279  0.000000  1
  As  As20  1  0.000000  0.000000  0.000000  1
