# generated using pymatgen
data_VCo4Re3B4
_symmetry_space_group_name_H-M   'P 1'
_cell_length_a   3.20357300
_cell_length_b   5.68424506
_cell_length_c   6.51091816
_cell_angle_alpha   89.27954741
_cell_angle_beta   90.00000000
_cell_angle_gamma   90.00000000
_symmetry_Int_Tables_number   1
_chemical_formula_structural   VCo4Re3B4
_chemical_formula_sum   'V1 Co4 Re3 B4'
_cell_volume   118.55375651
_cell_formula_units_Z   1
loop_
 _symmetry_equiv_pos_site_id
 _symmetry_equiv_pos_as_xyz
  1  'x, y, z'
loop_
 _atom_site_type_symbol
 _atom_site_label
 _atom_site_symmetry_multiplicity
 _atom_site_fract_x
 _atom_site_fract_y
 _atom_site_fract_z
 _atom_site_occupancy
  V  V0  1  0.250000  0.527086  0.672224  1
  Co  Co1  1  0.750000  0.847487  0.556972  1
  Co  Co2  1  0.250000  0.145440  0.446101  1
  Co  Co3  1  0.750000  0.358036  0.941704  1
  Co  Co4  1  0.250000  0.646403  0.052360  1
  Re  Re5  1  0.750000  0.472160  0.333375  1
  Re  Re6  1  0.250000  0.029681  0.827025  1
  Re  Re7  1  0.750000  0.969440  0.171873  1
  B  B8  1  0.250000  0.273829  0.125523  1
  B  B9  1  0.750000  0.727901  0.871382  1
  B  B10  1  0.250000  0.768852  0.373311  1
  B  B11  1  0.750000  0.233684  0.628150  1
