# generated using pymatgen
data_Sr8Mg7CdSi15Ge
_symmetry_space_group_name_H-M   'P 1'
_cell_length_a   4.41889300
_cell_length_b   11.48093732
_cell_length_c   14.47172184
_cell_angle_alpha   89.97915275
_cell_angle_beta   90.00000000
_cell_angle_gamma   90.00000000
_symmetry_Int_Tables_number   1
_chemical_formula_structural   Sr8Mg7CdSi15Ge
_chemical_formula_sum   'Sr8 Mg7 Cd1 Si15 Ge1'
_cell_volume   734.19430093
_cell_formula_units_Z   1
loop_
 _symmetry_equiv_pos_site_id
 _symmetry_equiv_pos_as_xyz
  1  'x, y, z'
loop_
 _atom_site_type_symbol
 _atom_site_label
 _atom_site_symmetry_multiplicity
 _atom_site_fract_x
 _atom_site_fract_y
 _atom_site_fract_z
 _atom_site_occupancy
  Sr  Sr0  1  0.250000  0.524072  0.196716  1
  Sr  Sr1  1  0.250000  0.739905  0.938556  1
  Sr  Sr2  1  0.750000  0.259803  0.061507  1
  Sr  Sr3  1  0.750000  0.241607  0.560912  1
  Sr  Sr4  1  0.250000  0.758498  0.439196  1
  Sr  Sr5  1  0.250000  0.975279  0.696055  1
  Sr  Sr6  1  0.750000  0.024270  0.303618  1
  Sr  Sr7  1  0.750000  0.476882  0.802640  1
  Mg  Mg8  1  0.250000  0.442328  0.440996  1
  Mg  Mg9  1  0.750000  0.941476  0.060808  1
  Mg  Mg10  1  0.250000  0.059798  0.941518  1
  Mg  Mg11  1  0.250000  0.678948  0.689481  1
  Mg  Mg12  1  0.750000  0.319895  0.309881  1
  Mg  Mg13  1  0.750000  0.182078  0.809682  1
  Mg  Mg14  1  0.250000  0.820046  0.190033  1
  Cd  Cd15  1  0.750000  0.557728  0.558771  1
  Si  Si16  1  0.250000  0.451253  0.633678  1
  Si  Si17  1  0.750000  0.546971  0.365747  1
  Si  Si18  1  0.250000  0.028994  0.465552  1
  Si  Si19  1  0.250000  0.047831  0.132753  1
  Si  Si20  1  0.250000  0.273794  0.722189  1
  Si  Si21  1  0.750000  0.725882  0.277378  1
  Si  Si22  1  0.750000  0.770868  0.776535  1
  Si  Si23  1  0.250000  0.213214  0.393740  1
  Si  Si24  1  0.750000  0.970974  0.533835  1
  Si  Si25  1  0.750000  0.528576  0.034626  1
  Si  Si26  1  0.250000  0.471256  0.965810  1
  Si  Si27  1  0.250000  0.287590  0.893718  1
  Si  Si28  1  0.750000  0.788373  0.607088  1
  Si  Si29  1  0.750000  0.712617  0.106317  1
  Si  Si30  1  0.250000  0.225808  0.222733  1
  Ge  Ge31  1  0.750000  0.953389  0.867930  1
