# generated using pymatgen
data_La20Si3GePb8
_symmetry_space_group_name_H-M   'P 1'
_cell_length_a   8.32539630
_cell_length_b   9.53841400
_cell_length_c   12.81024600
_cell_angle_alpha   90.00000000
_cell_angle_beta   89.98468744
_cell_angle_gamma   90.00000000
_symmetry_Int_Tables_number   1
_chemical_formula_structural   La20Si3GePb8
_chemical_formula_sum   'La20 Si3 Ge1 Pb8'
_cell_volume   1017.27539001
_cell_formula_units_Z   1
loop_
 _symmetry_equiv_pos_site_id
 _symmetry_equiv_pos_as_xyz
  1  'x, y, z'
loop_
 _atom_site_type_symbol
 _atom_site_label
 _atom_site_symmetry_multiplicity
 _atom_site_fract_x
 _atom_site_fract_y
 _atom_site_fract_z
 _atom_site_occupancy
  La  La0  1  0.049514  0.750000  0.501804  1
  La  La1  1  0.949761  0.250000  0.498694  1
  La  La2  1  0.549959  0.250000  0.998273  1
  La  La3  1  0.453841  0.750000  0.001595  1
  La  La4  1  0.859490  0.750000  0.790930  1
  La  La5  1  0.138279  0.250000  0.207141  1
  La  La6  1  0.361901  0.250000  0.706905  1
  La  La7  1  0.638807  0.750000  0.292642  1
  La  La8  1  0.687624  0.544165  0.563428  1
  La  La9  1  0.311902  0.455450  0.436320  1
  La  La10  1  0.189530  0.453072  0.936013  1
  La  La11  1  0.311902  0.044550  0.436320  1
  La  La12  1  0.809845  0.542602  0.064337  1
  La  La13  1  0.687624  0.955835  0.563428  1
  La  La14  1  0.809845  0.957398  0.064337  1
  La  La15  1  0.189530  0.046928  0.936013  1
  La  La16  1  0.337193  0.750000  0.712980  1
  La  La17  1  0.662292  0.250000  0.287044  1
  La  La18  1  0.838091  0.250000  0.787282  1
  La  La19  1  0.163107  0.750000  0.215032  1
  Si  Si20  1  0.928207  0.250000  0.019766  1
  Si  Si21  1  0.571726  0.250000  0.519200  1
  Si  Si22  1  0.427949  0.750000  0.480240  1
  Ge  Ge23  1  0.072438  0.750000  0.979472  1
  Pb  Pb24  1  0.571290  0.508330  0.826528  1
  Pb  Pb25  1  0.428397  0.491781  0.173461  1
  Pb  Pb26  1  0.071267  0.491510  0.673542  1
  Pb  Pb27  1  0.428397  0.008219  0.173461  1
  Pb  Pb28  1  0.928869  0.508174  0.326869  1
  Pb  Pb29  1  0.571290  0.991670  0.826528  1
  Pb  Pb30  1  0.928869  0.991826  0.326869  1
  Pb  Pb31  1  0.071267  0.008490  0.673542  1
