# generated using pymatgen
data_Tb3YbLu4(B6Os)4
_symmetry_space_group_name_H-M   'P 1'
_cell_length_a   3.62292300
_cell_length_b   9.08789961
_cell_length_c   11.48703400
_cell_angle_alpha   89.94078980
_cell_angle_beta   90.00000000
_cell_angle_gamma   90.00000000
_symmetry_Int_Tables_number   1
_chemical_formula_structural   Tb3YbLu4(B6Os)4
_chemical_formula_sum   'Tb3 Yb1 Lu4 B24 Os4'
_cell_volume   378.20764175
_cell_formula_units_Z   1
loop_
 _symmetry_equiv_pos_site_id
 _symmetry_equiv_pos_as_xyz
  1  'x, y, z'
loop_
 _atom_site_type_symbol
 _atom_site_label
 _atom_site_symmetry_multiplicity
 _atom_site_fract_x
 _atom_site_fract_y
 _atom_site_fract_z
 _atom_site_occupancy
  Tb  Tb0  1  0.000000  0.676979  0.585030  1
  Tb  Tb1  1  0.000000  0.821732  0.086542  1
  Tb  Tb2  1  0.000000  0.178927  0.914422  1
  Yb  Yb3  1  0.000000  0.322228  0.413738  1
  Lu  Lu4  1  0.000000  0.944759  0.372262  1
  Lu  Lu5  1  0.000000  0.057425  0.626761  1
  Lu  Lu6  1  0.000000  0.443418  0.128802  1
  Lu  Lu7  1  0.000000  0.555680  0.872721  1
  B  B8  1  0.500000  0.553724  0.432081  1
  B  B9  1  0.500000  0.445209  0.567397  1
  B  B10  1  0.500000  0.053988  0.067228  1
  B  B11  1  0.500000  0.945401  0.932140  1
  B  B12  1  0.500000  0.749700  0.418554  1
  B  B13  1  0.500000  0.250658  0.580914  1
  B  B14  1  0.500000  0.249570  0.081526  1
  B  B15  1  0.500000  0.749813  0.918882  1
  B  B16  1  0.500000  0.792147  0.266169  1
  B  B17  1  0.500000  0.208766  0.733940  1
  B  B18  1  0.500000  0.291172  0.234472  1
  B  B19  1  0.500000  0.708398  0.766016  1
  B  B20  1  0.500000  0.630404  0.185448  1
  B  B21  1  0.500000  0.369638  0.815656  1
  B  B22  1  0.500000  0.130831  0.315100  1
  B  B23  1  0.500000  0.869582  0.684409  1
  B  B24  1  0.500000  0.983075  0.213152  1
  B  B25  1  0.500000  0.017234  0.786048  1
  B  B26  1  0.500000  0.482402  0.287142  1
  B  B27  1  0.500000  0.516912  0.713455  1
  B  B28  1  0.500000  0.602925  0.028602  1
  B  B29  1  0.500000  0.397143  0.972110  1
  B  B30  1  0.500000  0.102103  0.471766  1
  B  B31  1  0.500000  0.897675  0.528052  1
  Os  Os32  1  0.000000  0.639586  0.319758  1
  Os  Os33  1  0.000000  0.361430  0.680748  1
  Os  Os34  1  0.000000  0.137792  0.178856  1
  Os  Os35  1  0.000000  0.861571  0.820102  1
