# generated using pymatgen
data_Tb5Dy3Hf11Si16Ag
_symmetry_space_group_name_H-M   'P 1'
_cell_length_a   7.29658423
_cell_length_b   7.29604132
_cell_length_c   13.30533670
_cell_angle_alpha   89.81894844
_cell_angle_beta   90.15995087
_cell_angle_gamma   89.83339605
_symmetry_Int_Tables_number   1
_chemical_formula_structural   Tb5Dy3Hf11Si16Ag
_chemical_formula_sum   'Tb5 Dy3 Hf11 Si16 Ag1'
_cell_volume   708.31599060
_cell_formula_units_Z   1
loop_
 _symmetry_equiv_pos_site_id
 _symmetry_equiv_pos_as_xyz
  1  'x, y, z'
loop_
 _atom_site_type_symbol
 _atom_site_label
 _atom_site_symmetry_multiplicity
 _atom_site_fract_x
 _atom_site_fract_y
 _atom_site_fract_z
 _atom_site_occupancy
  Tb  Tb0  1  0.498946  0.847637  0.033210  1
  Tb  Tb1  1  0.847758  0.498958  0.966841  1
  Tb  Tb2  1  0.495459  0.155582  0.535096  1
  Tb  Tb3  1  0.344718  0.997717  0.788671  1
  Tb  Tb4  1  0.656092  0.004755  0.283667  1
  Dy  Dy5  1  0.998007  0.345062  0.211443  1
  Dy  Dy6  1  0.004558  0.655790  0.716219  1
  Dy  Dy7  1  0.155252  0.495820  0.464697  1
  Hf  Hf8  1  0.825081  0.824628  0.500085  1
  Hf  Hf9  1  0.323570  0.675972  0.249570  1
  Hf  Hf10  1  0.676255  0.323900  0.750450  1
  Hf  Hf11  1  0.146281  0.995953  0.374241  1
  Hf  Hf12  1  0.856151  0.003043  0.877877  1
  Hf  Hf13  1  0.504031  0.647183  0.625977  1
  Hf  Hf14  1  0.354356  0.492017  0.877443  1
  Hf  Hf15  1  0.491867  0.354526  0.122478  1
  Hf  Hf16  1  0.647242  0.504102  0.374027  1
  Hf  Hf17  1  0.996072  0.146317  0.625802  1
  Hf  Hf18  1  0.003072  0.856113  0.122055  1
  Si  Si19  1  0.359796  0.296112  0.316712  1
  Si  Si20  1  0.639070  0.704576  0.819226  1
  Si  Si21  1  0.206351  0.861292  0.568509  1
  Si  Si22  1  0.131771  0.777593  0.928290  1
  Si  Si23  1  0.778117  0.132129  0.071759  1
  Si  Si24  1  0.862065  0.206908  0.431524  1
  Si  Si25  1  0.295436  0.360635  0.683334  1
  Si  Si26  1  0.704845  0.638471  0.180692  1
  Si  Si27  1  0.295522  0.050766  0.189705  1
  Si  Si28  1  0.704967  0.950866  0.686480  1
  Si  Si29  1  0.450444  0.795174  0.435650  1
  Si  Si30  1  0.209663  0.564285  0.064596  1
  Si  Si31  1  0.564627  0.209931  0.935540  1
  Si  Si32  1  0.795916  0.450967  0.564320  1
  Si  Si33  1  0.050565  0.296193  0.810169  1
  Si  Si34  1  0.951436  0.704246  0.313569  1
  Ag  Ag35  1  0.174640  0.174778  0.000079  1
