# generated using pymatgen
data_Eu(FeI4)2
_symmetry_space_group_name_H-M   'P 1'
_cell_length_a   8.00694600
_cell_length_b   8.67548943
_cell_length_c   14.64631007
_cell_angle_alpha   85.48210343
_cell_angle_beta   90.00000000
_cell_angle_gamma   90.00000000
_symmetry_Int_Tables_number   1
_chemical_formula_structural   Eu(FeI4)2
_chemical_formula_sum   'Eu2 Fe4 I16'
_cell_volume   1014.23258328
_cell_formula_units_Z   2
loop_
 _symmetry_equiv_pos_site_id
 _symmetry_equiv_pos_as_xyz
  1  'x, y, z'
loop_
 _atom_site_type_symbol
 _atom_site_label
 _atom_site_symmetry_multiplicity
 _atom_site_fract_x
 _atom_site_fract_y
 _atom_site_fract_z
 _atom_site_occupancy
  Eu  Eu0  1  0.848930  0.500000  0.750000  1
  Eu  Eu1  1  0.151070  0.500000  0.250000  1
  Fe  Fe2  1  0.257030  0.669702  0.579849  1
  Fe  Fe3  1  0.742970  0.669702  0.079849  1
  Fe  Fe4  1  0.742970  0.330298  0.420151  1
  Fe  Fe5  1  0.257030  0.330298  0.920151  1
  I  I6  1  0.824753  0.391729  0.117683  1
  I  I7  1  0.824753  0.608271  0.382317  1
  I  I8  1  0.301905  0.736440  0.407947  1
  I  I9  1  0.301905  0.263560  0.092053  1
  I  I10  1  0.698095  0.263560  0.592053  1
  I  I11  1  0.698095  0.736440  0.907947  1
  I  I12  1  0.014974  0.830795  0.641351  1
  I  I13  1  0.014974  0.169205  0.858649  1
  I  I14  1  0.985026  0.169205  0.358649  1
  I  I15  1  0.985026  0.830795  0.141351  1
  I  I16  1  0.532167  0.737967  0.657647  1
  I  I17  1  0.532167  0.262033  0.842353  1
  I  I18  1  0.467833  0.262033  0.342353  1
  I  I19  1  0.467833  0.737967  0.157647  1
  I  I20  1  0.175247  0.391729  0.617683  1
  I  I21  1  0.175247  0.608271  0.882317  1
