# generated using pymatgen
data_K6DyYF12
_symmetry_space_group_name_H-M   'P 1'
_cell_length_a   6.62919413
_cell_length_b   6.39462371
_cell_length_c   11.12378660
_cell_angle_alpha   55.62283640
_cell_angle_beta   90.01342168
_cell_angle_gamma   89.99281825
_symmetry_Int_Tables_number   1
_chemical_formula_structural   K6DyYF12
_chemical_formula_sum   'K6 Dy1 Y1 F12'
_cell_volume   389.18895718
_cell_formula_units_Z   1
loop_
 _symmetry_equiv_pos_site_id
 _symmetry_equiv_pos_as_xyz
  1  'x, y, z'
loop_
 _atom_site_type_symbol
 _atom_site_label
 _atom_site_symmetry_multiplicity
 _atom_site_fract_x
 _atom_site_fract_y
 _atom_site_fract_z
 _atom_site_occupancy
  K  K0  1  0.500000  0.500000  0.000000  1
  K  K1  1  0.000000  0.500000  0.500000  1
  K  K2  1  0.051425  0.731142  0.755556  1
  K  K3  1  0.948575  0.268858  0.244444  1
  K  K4  1  0.551792  0.267987  0.745562  1
  K  K5  1  0.448208  0.732013  0.254438  1
  Dy  Dy6  1  0.000000  0.000000  0.000000  1
  Y  Y7  1  0.500000  0.000000  0.500000  1
  F  F8  1  0.774258  0.763941  0.570791  1
  F  F9  1  0.225742  0.236059  0.429209  1
  F  F10  1  0.273869  0.235404  0.929637  1
  F  F11  1  0.726131  0.764596  0.070363  1
  F  F12  1  0.440226  0.892172  0.722860  1
  F  F13  1  0.559774  0.107828  0.277140  1
  F  F14  1  0.940569  0.107637  0.777554  1
  F  F15  1  0.059431  0.892363  0.222446  1
  F  F16  1  0.325605  0.667394  0.551400  1
  F  F17  1  0.674395  0.332606  0.448600  1
  F  F18  1  0.825505  0.331733  0.948885  1
  F  F19  1  0.174495  0.668267  0.051115  1
