# generated using pymatgen
data_Rb8La3GdBr20
_symmetry_space_group_name_H-M   'P 1'
_cell_length_a   8.89301937
_cell_length_b   9.47344600
_cell_length_c   14.21351208
_cell_angle_alpha   90.00000000
_cell_angle_beta   89.53462085
_cell_angle_gamma   90.00000000
_symmetry_Int_Tables_number   1
_chemical_formula_structural   Rb8La3GdBr20
_chemical_formula_sum   'Rb8 La3 Gd1 Br20'
_cell_volume   1197.41391105
_cell_formula_units_Z   1
loop_
 _symmetry_equiv_pos_site_id
 _symmetry_equiv_pos_as_xyz
  1  'x, y, z'
loop_
 _atom_site_type_symbol
 _atom_site_label
 _atom_site_symmetry_multiplicity
 _atom_site_fract_x
 _atom_site_fract_y
 _atom_site_fract_z
 _atom_site_occupancy
  Rb  Rb0  1  0.944641  0.002953  0.829361  1
  Rb  Rb1  1  0.053973  0.995215  0.170677  1
  Rb  Rb2  1  0.446193  0.995732  0.673778  1
  Rb  Rb3  1  0.053973  0.504785  0.170677  1
  Rb  Rb4  1  0.554302  0.003159  0.326210  1
  Rb  Rb5  1  0.944641  0.497047  0.829361  1
  Rb  Rb6  1  0.554302  0.496841  0.326210  1
  Rb  Rb7  1  0.446193  0.504268  0.673778  1
  La  La8  1  0.927086  0.750000  0.504245  1
  La  La9  1  0.073888  0.250000  0.495579  1
  La  La10  1  0.428961  0.250000  0.995786  1
  Gd  Gd11  1  0.571487  0.750000  0.003152  1
  Br  Br12  1  0.120526  0.750000  0.676214  1
  Br  Br13  1  0.879499  0.250000  0.323910  1
  Br  Br14  1  0.622270  0.250000  0.822981  1
  Br  Br15  1  0.386606  0.750000  0.170493  1
  Br  Br16  1  0.837655  0.043402  0.575514  1
  Br  Br17  1  0.163311  0.956410  0.424156  1
  Br  Br18  1  0.340543  0.951412  0.928536  1
  Br  Br19  1  0.163311  0.543590  0.424156  1
  Br  Br20  1  0.659793  0.037118  0.071645  1
  Br  Br21  1  0.837655  0.456598  0.575514  1
  Br  Br22  1  0.659793  0.462882  0.071645  1
  Br  Br23  1  0.340543  0.548588  0.928536  1
  Br  Br24  1  0.587207  0.750000  0.511301  1
  Br  Br25  1  0.413507  0.250000  0.489727  1
  Br  Br26  1  0.090016  0.250000  0.988521  1
  Br  Br27  1  0.900469  0.750000  0.012051  1
  Br  Br28  1  0.654487  0.750000  0.806306  1
  Br  Br29  1  0.342404  0.250000  0.199254  1
  Br  Br30  1  0.157129  0.250000  0.699319  1
  Br  Br31  1  0.843638  0.750000  0.301410  1
