# generated using pymatgen
data_DyHo6TmC10
_symmetry_space_group_name_H-M   'P 1'
_cell_length_a   3.65725800
_cell_length_b   6.55376631
_cell_length_c   11.86171300
_cell_angle_alpha   89.98225289
_cell_angle_beta   90.00000000
_cell_angle_gamma   90.00000000
_symmetry_Int_Tables_number   1
_chemical_formula_structural   DyHo6TmC10
_chemical_formula_sum   'Dy1 Ho6 Tm1 C10'
_cell_volume   284.31118234
_cell_formula_units_Z   1
loop_
 _symmetry_equiv_pos_site_id
 _symmetry_equiv_pos_as_xyz
  1  'x, y, z'
loop_
 _atom_site_type_symbol
 _atom_site_label
 _atom_site_symmetry_multiplicity
 _atom_site_fract_x
 _atom_site_fract_y
 _atom_site_fract_z
 _atom_site_occupancy
  Dy  Dy0  1  0.500000  0.391195  0.303624  1
  Ho  Ho1  1  0.000000  0.751655  0.456522  1
  Ho  Ho2  1  0.000000  0.748359  0.955134  1
  Ho  Ho3  1  0.000000  0.235226  0.042140  1
  Ho  Ho4  1  0.500000  0.108497  0.803305  1
  Ho  Ho5  1  0.500000  0.892556  0.196144  1
  Ho  Ho6  1  0.500000  0.605892  0.697203  1
  Tm  Tm7  1  0.000000  0.266302  0.542373  1
  C  C8  1  0.500000  0.511903  0.501871  1
  C  C9  1  0.500000  0.986510  0.000052  1
  C  C10  1  0.000000  0.364810  0.734584  1
  C  C11  1  0.000000  0.644911  0.261868  1
  C  C12  1  0.000000  0.856952  0.760403  1
  C  C13  1  0.000000  0.132731  0.236775  1
  C  C14  1  0.000000  0.384519  0.846919  1
  C  C15  1  0.000000  0.574698  0.156407  1
  C  C16  1  0.000000  0.113028  0.349155  1
  C  C17  1  0.000000  0.930257  0.655523  1
