# generated using pymatgen
data_YPa2Al6CrCu2
_symmetry_space_group_name_H-M   'P 1'
_cell_length_a   9.20071671
_cell_length_b   9.20071614
_cell_length_c   9.20071762
_cell_angle_alpha   33.60337014
_cell_angle_beta   33.60337218
_cell_angle_gamma   33.60337586
_symmetry_Int_Tables_number   1
_chemical_formula_structural   YPa2Al6CrCu2
_chemical_formula_sum   'Y1 Pa2 Al6 Cr1 Cu2'
_cell_volume   212.51169735
_cell_formula_units_Z   1
loop_
 _symmetry_equiv_pos_site_id
 _symmetry_equiv_pos_as_xyz
  1  'x, y, z'
loop_
 _atom_site_type_symbol
 _atom_site_label
 _atom_site_symmetry_multiplicity
 _atom_site_fract_x
 _atom_site_fract_y
 _atom_site_fract_z
 _atom_site_occupancy
  Y  Y0  1  0.000000  0.000000  0.000000  1
  Pa  Pa1  1  0.849297  0.849297  0.849297  1
  Pa  Pa2  1  0.150703  0.150703  0.150703  1
  Al  Al3  1  0.420090  0.420090  0.920017  1
  Al  Al4  1  0.920017  0.420090  0.420090  1
  Al  Al5  1  0.420090  0.920017  0.420090  1
  Al  Al6  1  0.579910  0.079983  0.579910  1
  Al  Al7  1  0.079983  0.579910  0.579910  1
  Al  Al8  1  0.579910  0.579910  0.079983  1
  Cr  Cr9  1  0.500000  0.500000  0.500000  1
  Cu  Cu10  1  0.665753  0.665753  0.665753  1
  Cu  Cu11  1  0.334247  0.334247  0.334247  1
