# generated using pymatgen
data_CaNd9(GeSb2)2
_symmetry_space_group_name_H-M   'P 1'
_cell_length_a   8.24406300
_cell_length_b   9.37052500
_cell_length_c   12.45728200
_cell_angle_alpha   90.00000000
_cell_angle_beta   90.00000000
_cell_angle_gamma   90.00000000
_symmetry_Int_Tables_number   1
_chemical_formula_structural   CaNd9(GeSb2)2
_chemical_formula_sum   'Ca2 Nd18 Ge4 Sb8'
_cell_volume   962.33996384
_cell_formula_units_Z   2
loop_
 _symmetry_equiv_pos_site_id
 _symmetry_equiv_pos_as_xyz
  1  'x, y, z'
loop_
 _atom_site_type_symbol
 _atom_site_label
 _atom_site_symmetry_multiplicity
 _atom_site_fract_x
 _atom_site_fract_y
 _atom_site_fract_z
 _atom_site_occupancy
  Ca  Ca0  1  0.461380  0.250000  0.500249  1
  Ca  Ca1  1  0.961380  0.750000  0.999751  1
  Nd  Nd2  1  0.309856  0.958002  0.065610  1
  Nd  Nd3  1  0.809856  0.041998  0.434390  1
  Nd  Nd4  1  0.691214  0.457092  0.936011  1
  Nd  Nd5  1  0.191214  0.542908  0.563989  1
  Nd  Nd6  1  0.691214  0.042908  0.936011  1
  Nd  Nd7  1  0.191214  0.957092  0.563989  1
  Nd  Nd8  1  0.309856  0.541998  0.065610  1
  Nd  Nd9  1  0.809856  0.458002  0.434390  1
  Nd  Nd10  1  0.658669  0.750000  0.212073  1
  Nd  Nd11  1  0.158669  0.250000  0.287927  1
  Nd  Nd12  1  0.339498  0.250000  0.786279  1
  Nd  Nd13  1  0.839498  0.750000  0.713721  1
  Nd  Nd14  1  0.140873  0.750000  0.292278  1
  Nd  Nd15  1  0.640873  0.250000  0.207722  1
  Nd  Nd16  1  0.859676  0.250000  0.708967  1
  Nd  Nd17  1  0.359676  0.750000  0.791033  1
  Nd  Nd18  1  0.532833  0.750000  0.500668  1
  Nd  Nd19  1  0.032833  0.250000  0.999332  1
  Ge  Ge20  1  0.573679  0.750000  0.980416  1
  Ge  Ge21  1  0.073679  0.250000  0.519584  1
  Ge  Ge22  1  0.428999  0.250000  0.016712  1
  Ge  Ge23  1  0.928999  0.750000  0.483288  1
  Sb  Sb24  1  0.929126  0.007378  0.173795  1
  Sb  Sb25  1  0.429126  0.992622  0.326205  1
  Sb  Sb26  1  0.072001  0.508993  0.827235  1
  Sb  Sb27  1  0.572001  0.491007  0.672765  1
  Sb  Sb28  1  0.072001  0.991007  0.827235  1
  Sb  Sb29  1  0.572001  0.008993  0.672765  1
  Sb  Sb30  1  0.929126  0.492622  0.173795  1
  Sb  Sb31  1  0.429126  0.507378  0.326205  1
