# generated using pymatgen
data_Nd2RuC4
_symmetry_space_group_name_H-M   'P 1'
_cell_length_a   6.89059692
_cell_length_b   6.89059676
_cell_length_c   6.89057144
_cell_angle_alpha   133.56748741
_cell_angle_beta   110.44747464
_cell_angle_gamma   87.79052417
_symmetry_Int_Tables_number   1
_chemical_formula_structural   Nd2RuC4
_chemical_formula_sum   'Nd4 Ru2 C8'
_cell_volume   212.03474529
_cell_formula_units_Z   2
loop_
 _symmetry_equiv_pos_site_id
 _symmetry_equiv_pos_as_xyz
  1  'x, y, z'
loop_
 _atom_site_type_symbol
 _atom_site_label
 _atom_site_symmetry_multiplicity
 _atom_site_fract_x
 _atom_site_fract_y
 _atom_site_fract_z
 _atom_site_occupancy
  Nd  Nd0  1  0.200279  0.350025  0.850256  1
  Nd  Nd1  1  0.799721  0.649975  0.149744  1
  Nd  Nd2  1  0.499768  0.850022  0.649744  1
  Nd  Nd3  1  0.500232  0.149978  0.350256  1
  Ru  Ru4  1  0.000001  0.250001  0.250000  1
  Ru  Ru5  1  0.999999  0.749999  0.750000  1
  C  C6  1  0.791029  0.124590  0.666435  1
  C  C7  1  0.208971  0.875410  0.333565  1
  C  C8  1  0.458155  0.624595  0.833565  1
  C  C9  1  0.541845  0.375405  0.166435  1
  C  C10  1  0.902867  0.074922  0.827943  1
  C  C11  1  0.097133  0.925078  0.172057  1
  C  C12  1  0.246978  0.574923  0.672057  1
  C  C13  1  0.753022  0.425077  0.327943  1
