# generated using pymatgen
data_ErTm15Cd4Ni3Ru
_symmetry_space_group_name_H-M   'P 1'
_cell_length_a   9.46139855
_cell_length_b   9.46139772
_cell_length_c   9.46408050
_cell_angle_alpha   59.79672121
_cell_angle_beta   59.79672428
_cell_angle_gamma   59.76970719
_symmetry_Int_Tables_number   1
_chemical_formula_structural   ErTm15Cd4Ni3Ru
_chemical_formula_sum   'Er1 Tm15 Cd4 Ni3 Ru1'
_cell_volume   596.17796104
_cell_formula_units_Z   1
loop_
 _symmetry_equiv_pos_site_id
 _symmetry_equiv_pos_as_xyz
  1  'x, y, z'
loop_
 _atom_site_type_symbol
 _atom_site_label
 _atom_site_symmetry_multiplicity
 _atom_site_fract_x
 _atom_site_fract_y
 _atom_site_fract_z
 _atom_site_occupancy
  Er  Er0  1  0.937926  0.937926  0.559188  1
  Tm  Tm1  1  0.347999  0.347999  0.347897  1
  Tm  Tm2  1  0.349668  0.349668  0.956036  1
  Tm  Tm3  1  0.349845  0.956123  0.349434  1
  Tm  Tm4  1  0.956123  0.349845  0.349434  1
  Tm  Tm5  1  0.810813  0.188225  0.187902  1
  Tm  Tm6  1  0.188130  0.810739  0.811006  1
  Tm  Tm7  1  0.188225  0.810813  0.187902  1
  Tm  Tm8  1  0.810739  0.188130  0.811006  1
  Tm  Tm9  1  0.188028  0.188028  0.810997  1
  Tm  Tm10  1  0.810984  0.810984  0.187832  1
  Tm  Tm11  1  0.935912  0.564236  0.564580  1
  Tm  Tm12  1  0.558746  0.938048  0.938318  1
  Tm  Tm13  1  0.564236  0.935912  0.564580  1
  Tm  Tm14  1  0.938048  0.558746  0.938318  1
  Tm  Tm15  1  0.564696  0.564696  0.935801  1
  Cd  Cd16  1  0.580940  0.580940  0.580876  1
  Cd  Cd17  1  0.580919  0.580919  0.255479  1
  Cd  Cd18  1  0.580481  0.255777  0.580936  1
  Cd  Cd19  1  0.255777  0.580481  0.580936  1
  Ni  Ni20  1  0.142227  0.142227  0.574711  1
  Ni  Ni21  1  0.142159  0.574555  0.142079  1
  Ni  Ni22  1  0.574555  0.142159  0.142079  1
  Ru  Ru23  1  0.142823  0.142823  0.142671  1
