# generated using pymatgen
data_La2Pr14AlCd3Ir4
_symmetry_space_group_name_H-M   'P 1'
_cell_length_a   10.02372997
_cell_length_b   10.02374014
_cell_length_c   10.03734693
_cell_angle_alpha   60.05512734
_cell_angle_beta   60.04791703
_cell_angle_gamma   59.94526757
_symmetry_Int_Tables_number   1
_chemical_formula_structural   La2Pr14AlCd3Ir4
_chemical_formula_sum   'La2 Pr14 Al1 Cd3 Ir4'
_cell_volume   713.37949274
_cell_formula_units_Z   1
loop_
 _symmetry_equiv_pos_site_id
 _symmetry_equiv_pos_as_xyz
  1  'x, y, z'
loop_
 _atom_site_type_symbol
 _atom_site_label
 _atom_site_symmetry_multiplicity
 _atom_site_fract_x
 _atom_site_fract_y
 _atom_site_fract_z
 _atom_site_occupancy
  La  La0  1  0.346246  0.346206  0.346682  1
  La  La1  1  0.348388  0.348419  0.957172  1
  Pr  Pr2  1  0.349601  0.952189  0.350388  1
  Pr  Pr3  1  0.952195  0.349594  0.350367  1
  Pr  Pr4  1  0.810634  0.189266  0.189388  1
  Pr  Pr5  1  0.191399  0.807534  0.806760  1
  Pr  Pr6  1  0.189301  0.810551  0.189441  1
  Pr  Pr7  1  0.807494  0.191463  0.806680  1
  Pr  Pr8  1  0.189550  0.189549  0.809910  1
  Pr  Pr9  1  0.807037  0.807057  0.192110  1
  Pr  Pr10  1  0.937118  0.562274  0.561988  1
  Pr  Pr11  1  0.560938  0.938387  0.938799  1
  Pr  Pr12  1  0.562262  0.937136  0.562069  1
  Pr  Pr13  1  0.938340  0.561004  0.938736  1
  Pr  Pr14  1  0.562627  0.562629  0.936898  1
  Pr  Pr15  1  0.939022  0.939006  0.560628  1
  Al  Al16  1  0.580009  0.580028  0.578991  1
  Cd  Cd17  1  0.579927  0.579909  0.264369  1
  Cd  Cd18  1  0.580142  0.264382  0.579405  1
  Cd  Cd19  1  0.264357  0.580152  0.579413  1
  Ir  Ir20  1  0.142324  0.142217  0.141130  1
  Ir  Ir21  1  0.142933  0.142911  0.574931  1
  Ir  Ir22  1  0.143283  0.574851  0.141889  1
  Ir  Ir23  1  0.574868  0.143283  0.141855  1
