# generated using pymatgen
data_PrNd2Si2BiO10
_symmetry_space_group_name_H-M   'P 1'
_cell_length_a   7.38392012
_cell_length_b   6.96388556
_cell_length_c   9.41525977
_cell_angle_alpha   71.26299818
_cell_angle_beta   89.98328471
_cell_angle_gamma   90.00597444
_symmetry_Int_Tables_number   1
_chemical_formula_structural   PrNd2Si2BiO10
_chemical_formula_sum   'Pr2 Nd4 Si4 Bi2 O20'
_cell_volume   458.48197044
_cell_formula_units_Z   2
loop_
 _symmetry_equiv_pos_site_id
 _symmetry_equiv_pos_as_xyz
  1  'x, y, z'
loop_
 _atom_site_type_symbol
 _atom_site_label
 _atom_site_symmetry_multiplicity
 _atom_site_fract_x
 _atom_site_fract_y
 _atom_site_fract_z
 _atom_site_occupancy
  Pr  Pr0  1  0.654356  0.096743  0.606168  1
  Pr  Pr1  1  0.847615  0.592381  0.610495  1
  Nd  Nd2  1  0.157100  0.402700  0.393429  1
  Nd  Nd3  1  0.345027  0.907287  0.388741  1
  Nd  Nd4  1  0.878225  0.731296  0.978236  1
  Nd  Nd5  1  0.377636  0.768849  0.023069  1
  Si  Si6  1  0.080767  0.038960  0.700508  1
  Si  Si7  1  0.579303  0.461425  0.298886  1
  Si  Si8  1  0.416197  0.546455  0.703033  1
  Si  Si9  1  0.917763  0.953885  0.296505  1
  Bi  Bi10  1  0.631650  0.215932  0.981191  1
  Bi  Bi11  1  0.132059  0.284009  0.020105  1
  O  O12  1  0.566475  0.363961  0.711861  1
  O  O13  1  0.356310  0.512403  0.879060  1
  O  O14  1  0.381641  0.046030  0.117918  1
  O  O15  1  0.858396  0.989088  0.120158  1
  O  O16  1  0.248233  0.057802  0.585150  1
  O  O17  1  0.748254  0.941226  0.408410  1
  O  O18  1  0.041222  0.746397  0.364638  1
  O  O19  1  0.139252  0.975580  0.878417  1
  O  O20  1  0.459654  0.250228  0.363620  1
  O  O21  1  0.627187  0.958387  0.884688  1
  O  O22  1  0.067898  0.136038  0.289710  1
  O  O23  1  0.127245  0.540594  0.117654  1
  O  O24  1  0.747379  0.441555  0.413477  1
  O  O25  1  0.538274  0.754319  0.633128  1
  O  O26  1  0.962706  0.250626  0.634184  1
  O  O27  1  0.923460  0.865425  0.704501  1
  O  O28  1  0.637260  0.525654  0.120705  1
  O  O29  1  0.881772  0.452180  0.884925  1
  O  O30  1  0.422350  0.634680  0.296958  1
  O  O31  1  0.247335  0.557903  0.590473  1
