# generated using pymatgen
data_Sm8Ge(IO8)3
_symmetry_space_group_name_H-M   'P 1'
_cell_length_a   5.53217241
_cell_length_b   7.90147686
_cell_length_c   11.90368148
_cell_angle_alpha   76.72736624
_cell_angle_beta   91.27506222
_cell_angle_gamma   90.43825795
_symmetry_Int_Tables_number   1
_chemical_formula_structural   Sm8Ge(IO8)3
_chemical_formula_sum   'Sm8 Ge1 I3 O24'
_cell_volume   506.31162880
_cell_formula_units_Z   1
loop_
 _symmetry_equiv_pos_site_id
 _symmetry_equiv_pos_as_xyz
  1  'x, y, z'
loop_
 _atom_site_type_symbol
 _atom_site_label
 _atom_site_symmetry_multiplicity
 _atom_site_fract_x
 _atom_site_fract_y
 _atom_site_fract_z
 _atom_site_occupancy
  Sm  Sm0  1  0.737775  0.984521  0.751594  1
  Sm  Sm1  1  0.253128  0.009852  0.254739  1
  Sm  Sm2  1  0.222060  0.780441  0.592973  1
  Sm  Sm3  1  0.791094  0.804962  0.059603  1
  Sm  Sm4  1  0.699050  0.509102  0.763982  1
  Sm  Sm5  1  0.304206  0.509102  0.239275  1
  Sm  Sm6  1  0.186856  0.197999  0.926233  1
  Sm  Sm7  1  0.796539  0.221914  0.423484  1
  Ge  Ge8  1  0.254026  0.675577  0.908204  1
  I  I9  1  0.748351  0.735605  0.378130  1
  I  I10  1  0.252748  0.269957  0.619513  1
  I  I11  1  0.742805  0.276897  0.116225  1
  O  O12  1  0.960754  0.976116  0.906294  1
  O  O13  1  0.496018  0.826192  0.913357  1
  O  O14  1  0.915947  0.953218  0.384062  1
  O  O15  1  0.561814  0.770521  0.688859  1
  O  O16  1  0.464573  0.830036  0.430592  1
  O  O17  1  0.033605  0.713676  0.786721  1
  O  O18  1  0.565042  0.809915  0.230726  1
  O  O19  1  0.884148  0.645065  0.522889  1
  O  O20  1  0.375875  0.477631  0.885361  1
  O  O21  1  0.015629  0.711798  0.279860  1
  O  O22  1  0.389368  0.486696  0.620985  1
  O  O23  1  0.857324  0.360543  0.961716  1
  O  O24  1  0.134270  0.643316  0.052156  1
  O  O25  1  0.626190  0.512625  0.375424  1
  O  O26  1  0.982423  0.307383  0.711365  1
  O  O27  1  0.618803  0.506714  0.109188  1
  O  O28  1  0.141735  0.358509  0.466633  1
  O  O29  1  0.418870  0.183281  0.766067  1
  O  O30  1  0.020337  0.294611  0.240956  1
  O  O31  1  0.522911  0.165407  0.565945  1
  O  O32  1  0.522372  0.226774  0.273622  1
  O  O33  1  0.068632  0.059185  0.608713  1
  O  O34  1  0.472894  0.141080  0.072761  1
  O  O35  1  0.961830  0.063780  0.111794  1
