# generated using pymatgen
data_Y21Er3Ru14
_symmetry_space_group_name_H-M   'P 1'
_cell_length_a   11.36775407
_cell_length_b   8.42468041
_cell_length_c   11.28092114
_cell_angle_alpha   56.39010845
_cell_angle_beta   89.98726027
_cell_angle_gamma   89.99118070
_symmetry_Int_Tables_number   1
_chemical_formula_structural   Y21Er3Ru14
_chemical_formula_sum   'Y21 Er3 Ru14'
_cell_volume   899.76018270
_cell_formula_units_Z   1
loop_
 _symmetry_equiv_pos_site_id
 _symmetry_equiv_pos_as_xyz
  1  'x, y, z'
loop_
 _atom_site_type_symbol
 _atom_site_label
 _atom_site_symmetry_multiplicity
 _atom_site_fract_x
 _atom_site_fract_y
 _atom_site_fract_z
 _atom_site_occupancy
  Y  Y0  1  0.705605  0.240499  0.533213  1
  Y  Y1  1  0.205850  0.759466  0.966959  1
  Y  Y2  1  0.843984  0.507125  0.656243  1
  Y  Y3  1  0.344004  0.492729  0.844013  1
  Y  Y4  1  0.156421  0.492571  0.344409  1
  Y  Y5  1  0.654927  0.507364  0.155707  1
  Y  Y6  1  0.006450  0.852428  0.360492  1
  Y  Y7  1  0.506098  0.146686  0.139771  1
  Y  Y8  1  0.993985  0.146435  0.640361  1
  Y  Y9  1  0.493780  0.853524  0.859893  1
  Y  Y10  1  0.793799  0.240721  0.032072  1
  Y  Y11  1  0.294384  0.759494  0.467112  1
  Y  Y12  1  0.931261  0.777712  0.089168  1
  Y  Y13  1  0.431319  0.223160  0.410611  1
  Y  Y14  1  0.068895  0.223790  0.910520  1
  Y  Y15  1  0.568644  0.776319  0.589808  1
  Y  Y16  1  0.301742  0.242736  0.675471  1
  Y  Y17  1  0.801399  0.757025  0.824822  1
  Y  Y18  1  0.698372  0.757166  0.324490  1
  Y  Y19  1  0.199133  0.242710  0.175427  1
  Y  Y20  1  0.926216  0.281035  0.292824  1
  Er  Er21  1  0.426252  0.719417  0.205833  1
  Er  Er22  1  0.073710  0.719962  0.705318  1
  Er  Er23  1  0.573591  0.280606  0.794023  1
  Ru  Ru24  1  0.499885  0.499982  0.499908  1
  Ru  Ru25  1  0.000940  0.501455  0.997717  1
  Ru  Ru26  1  0.646745  0.925547  0.031975  1
  Ru  Ru27  1  0.148608  0.074410  0.468380  1
  Ru  Ru28  1  0.352944  0.074464  0.967944  1
  Ru  Ru29  1  0.851611  0.923710  0.532959  1
  Ru  Ru30  1  0.398481  0.486871  0.103132  1
  Ru  Ru31  1  0.898769  0.514443  0.397999  1
  Ru  Ru32  1  0.601335  0.513324  0.896670  1
  Ru  Ru33  1  0.101774  0.486352  0.603355  1
  Ru  Ru34  1  0.816013  0.096802  0.849051  1
  Ru  Ru35  1  0.316949  0.902460  0.651859  1
  Ru  Ru36  1  0.184048  0.903569  0.150597  1
  Ru  Ru37  1  0.682076  0.095927  0.349898  1
