# generated using pymatgen
data_Tb3DyY6Cd3In5Pt4
_symmetry_space_group_name_H-M   'P 1'
_cell_length_a   3.63896700
_cell_length_b   8.18662407
_cell_length_c   18.31043800
_cell_angle_alpha   90.02931758
_cell_angle_beta   90.00000000
_cell_angle_gamma   90.00000000
_symmetry_Int_Tables_number   1
_chemical_formula_structural   Tb3DyY6Cd3In5Pt4
_chemical_formula_sum   'Tb3 Dy1 Y6 Cd3 In5 Pt4'
_cell_volume   545.48352908
_cell_formula_units_Z   1
loop_
 _symmetry_equiv_pos_site_id
 _symmetry_equiv_pos_as_xyz
  1  'x, y, z'
loop_
 _atom_site_type_symbol
 _atom_site_label
 _atom_site_symmetry_multiplicity
 _atom_site_fract_x
 _atom_site_fract_y
 _atom_site_fract_z
 _atom_site_occupancy
  Tb  Tb0  1  0.000000  0.245079  0.221066  1
  Tb  Tb1  1  0.000000  0.756958  0.779403  1
  Tb  Tb2  1  0.000000  0.256597  0.720405  1
  Dy  Dy3  1  0.000000  0.741641  0.279646  1
  Y  Y4  1  0.000000  0.116765  0.414461  1
  Y  Y5  1  0.000000  0.882951  0.585525  1
  Y  Y6  1  0.000000  0.384354  0.914951  1
  Y  Y7  1  0.000000  0.616798  0.085359  1
  Y  Y8  1  0.000000  0.999976  0.000253  1
  Y  Y9  1  0.000000  0.500161  0.499708  1
  Cd  Cd10  1  0.500000  0.426817  0.352645  1
  Cd  Cd11  1  0.500000  0.573109  0.646838  1
  Cd  Cd12  1  0.500000  0.071891  0.852832  1
  In  In13  1  0.500000  0.924698  0.148251  1
  In  In14  1  0.500000  0.291505  0.066590  1
  In  In15  1  0.500000  0.711485  0.933159  1
  In  In16  1  0.500000  0.211363  0.566595  1
  In  In17  1  0.500000  0.789122  0.432787  1
  Pt  Pt18  1  0.500000  0.022059  0.302501  1
  Pt  Pt19  1  0.500000  0.975745  0.697087  1
  Pt  Pt20  1  0.500000  0.476197  0.803030  1
  Pt  Pt21  1  0.500000  0.524730  0.196905  1
