# generated using pymatgen
data_Hf18Re6NiRhW2
_symmetry_space_group_name_H-M   'P 1'
_cell_length_a   8.66662000
_cell_length_b   8.66661993
_cell_length_c   8.48791200
_cell_angle_alpha   90.00000000
_cell_angle_beta   90.00000000
_cell_angle_gamma   120.00000028
_symmetry_Int_Tables_number   1
_chemical_formula_structural   Hf18Re6NiRhW2
_chemical_formula_sum   'Hf18 Re6 Ni1 Rh1 W2'
_cell_volume   552.11685382
_cell_formula_units_Z   1
loop_
 _symmetry_equiv_pos_site_id
 _symmetry_equiv_pos_as_xyz
  1  'x, y, z'
loop_
 _atom_site_type_symbol
 _atom_site_label
 _atom_site_symmetry_multiplicity
 _atom_site_fract_x
 _atom_site_fract_y
 _atom_site_fract_z
 _atom_site_occupancy
  Hf  Hf0  1  0.196564  0.803436  0.445988  1
  Hf  Hf1  1  0.196564  0.393128  0.445988  1
  Hf  Hf2  1  0.606872  0.803436  0.445988  1
  Hf  Hf3  1  0.801633  0.198367  0.557561  1
  Hf  Hf4  1  0.801633  0.603265  0.557561  1
  Hf  Hf5  1  0.396735  0.198367  0.557561  1
  Hf  Hf6  1  0.801633  0.198367  0.942439  1
  Hf  Hf7  1  0.801633  0.603265  0.942439  1
  Hf  Hf8  1  0.396735  0.198367  0.942439  1
  Hf  Hf9  1  0.196564  0.803436  0.054012  1
  Hf  Hf10  1  0.196564  0.393128  0.054012  1
  Hf  Hf11  1  0.606872  0.803436  0.054012  1
  Hf  Hf12  1  0.542585  0.457415  0.250000  1
  Hf  Hf13  1  0.542585  0.085169  0.250000  1
  Hf  Hf14  1  0.914831  0.457415  0.250000  1
  Hf  Hf15  1  0.458760  0.541240  0.750000  1
  Hf  Hf16  1  0.458760  0.917521  0.750000  1
  Hf  Hf17  1  0.082479  0.541240  0.750000  1
  Re  Re18  1  0.888456  0.111544  0.250000  1
  Re  Re19  1  0.888456  0.776910  0.250000  1
  Re  Re20  1  0.223090  0.111544  0.250000  1
  Re  Re21  1  0.111089  0.888911  0.750000  1
  Re  Re22  1  0.111089  0.222180  0.750000  1
  Re  Re23  1  0.777820  0.888911  0.750000  1
  Ni  Ni24  1  0.666667  0.333333  0.750000  1
  Rh  Rh25  1  0.333333  0.666667  0.250000  1
  W  W26  1  0.000000  0.000000  0.499532  1
  W  W27  1  0.000000  0.000000  0.000468  1
