# generated using pymatgen
data_Ir2PdRu(Pb2O7)2
_symmetry_space_group_name_H-M   'P 1'
_cell_length_a   7.34301898
_cell_length_b   7.37279063
_cell_length_c   7.34301718
_cell_angle_alpha   60.35512161
_cell_angle_beta   60.20593143
_cell_angle_gamma   60.35512253
_symmetry_Int_Tables_number   1
_chemical_formula_structural   Ir2PdRu(Pb2O7)2
_chemical_formula_sum   'Ir2 Pd1 Ru1 Pb4 O14'
_cell_volume   283.04471007
_cell_formula_units_Z   1
loop_
 _symmetry_equiv_pos_site_id
 _symmetry_equiv_pos_as_xyz
  1  'x, y, z'
loop_
 _atom_site_type_symbol
 _atom_site_label
 _atom_site_symmetry_multiplicity
 _atom_site_fract_x
 _atom_site_fract_y
 _atom_site_fract_z
 _atom_site_occupancy
  Ir  Ir0  1  0.125000  0.625000  0.625000  1
  Ir  Ir1  1  0.625000  0.625000  0.125000  1
  Pd  Pd2  1  0.625000  0.625000  0.625000  1
  Ru  Ru3  1  0.625000  0.125000  0.625000  1
  Pb  Pb4  1  0.625000  0.125000  0.125000  1
  Pb  Pb5  1  0.125000  0.625000  0.125000  1
  Pb  Pb6  1  0.125000  0.125000  0.625000  1
  Pb  Pb7  1  0.125000  0.125000  0.125000  1
  O  O8  1  0.707188  0.704827  0.287832  1
  O  O9  1  0.298132  0.299966  0.704851  1
  O  O10  1  0.703875  0.288279  0.703875  1
  O  O11  1  0.297464  0.704396  0.297464  1
  O  O12  1  0.287832  0.704827  0.707188  1
  O  O13  1  0.704851  0.299966  0.298132  1
  O  O14  1  0.542812  0.545173  0.962168  1
  O  O15  1  0.951868  0.950034  0.545149  1
  O  O16  1  0.546125  0.961721  0.546125  1
  O  O17  1  0.952536  0.545604  0.952536  1
  O  O18  1  0.962168  0.545173  0.542812  1
  O  O19  1  0.545149  0.950034  0.951868  1
  O  O20  1  0.248119  0.257360  0.248119  1
  O  O21  1  0.001881  0.992640  0.001881  1
