# generated using pymatgen
data_Pr4Ho(SnSb)2
_symmetry_space_group_name_H-M   'P 1'
_cell_length_a   8.29764600
_cell_length_b   8.35382400
_cell_length_c   15.83035200
_cell_angle_alpha   90.00000000
_cell_angle_beta   90.00000000
_cell_angle_gamma   90.00000000
_symmetry_Int_Tables_number   1
_chemical_formula_structural   Pr4Ho(SnSb)2
_chemical_formula_sum   'Pr16 Ho4 Sn8 Sb8'
_cell_volume   1097.31368575
_cell_formula_units_Z   4
loop_
 _symmetry_equiv_pos_site_id
 _symmetry_equiv_pos_as_xyz
  1  'x, y, z'
loop_
 _atom_site_type_symbol
 _atom_site_label
 _atom_site_symmetry_multiplicity
 _atom_site_fract_x
 _atom_site_fract_y
 _atom_site_fract_z
 _atom_site_occupancy
  Pr  Pr0  1  0.394030  0.837838  0.883301  1
  Pr  Pr1  1  0.894030  0.662162  0.616699  1
  Pr  Pr2  1  0.605970  0.162162  0.383301  1
  Pr  Pr3  1  0.105970  0.337838  0.116699  1
  Pr  Pr4  1  0.605970  0.162162  0.116699  1
  Pr  Pr5  1  0.105970  0.337838  0.383301  1
  Pr  Pr6  1  0.394030  0.837838  0.616699  1
  Pr  Pr7  1  0.894030  0.662162  0.883301  1
  Pr  Pr8  1  0.554826  0.328239  0.893435  1
  Pr  Pr9  1  0.054826  0.171761  0.606565  1
  Pr  Pr10  1  0.445174  0.671761  0.393435  1
  Pr  Pr11  1  0.945174  0.828239  0.106565  1
  Pr  Pr12  1  0.445174  0.671761  0.106565  1
  Pr  Pr13  1  0.945174  0.828239  0.393435  1
  Pr  Pr14  1  0.554826  0.328239  0.606565  1
  Pr  Pr15  1  0.054826  0.171761  0.893435  1
  Ho  Ho16  1  0.223637  0.497909  0.750000  1
  Ho  Ho17  1  0.723637  0.002091  0.750000  1
  Ho  Ho18  1  0.776363  0.502091  0.250000  1
  Ho  Ho19  1  0.276363  0.997909  0.250000  1
  Sn  Sn20  1  0.590508  0.625429  0.750000  1
  Sn  Sn21  1  0.090508  0.874571  0.750000  1
  Sn  Sn22  1  0.409492  0.374571  0.250000  1
  Sn  Sn23  1  0.909492  0.125429  0.250000  1
  Sn  Sn24  1  0.357545  0.140537  0.750000  1
  Sn  Sn25  1  0.857545  0.359463  0.750000  1
  Sn  Sn26  1  0.642455  0.859463  0.250000  1
  Sn  Sn27  1  0.142455  0.640537  0.250000  1
  Sb  Sb28  1  0.266753  0.015495  0.050920  1
  Sb  Sb29  1  0.766753  0.484505  0.449080  1
  Sb  Sb30  1  0.733247  0.984505  0.550920  1
  Sb  Sb31  1  0.233247  0.515495  0.949080  1
  Sb  Sb32  1  0.733247  0.984505  0.949080  1
  Sb  Sb33  1  0.233247  0.515495  0.550920  1
  Sb  Sb34  1  0.266753  0.015495  0.449080  1
  Sb  Sb35  1  0.766753  0.484505  0.050920  1
