# generated using pymatgen
data_Hf7Sc6Al9Os7
_symmetry_space_group_name_H-M   'P 1'
_cell_length_a   9.13622178
_cell_length_b   9.13622241
_cell_length_c   9.13622280
_cell_angle_alpha   59.59286629
_cell_angle_beta   59.59286661
_cell_angle_gamma   59.59286383
_symmetry_Int_Tables_number   1
_chemical_formula_structural   Hf7Sc6Al9Os7
_chemical_formula_sum   'Hf7 Sc6 Al9 Os7'
_cell_volume   534.25336610
_cell_formula_units_Z   1
loop_
 _symmetry_equiv_pos_site_id
 _symmetry_equiv_pos_as_xyz
  1  'x, y, z'
loop_
 _atom_site_type_symbol
 _atom_site_label
 _atom_site_symmetry_multiplicity
 _atom_site_fract_x
 _atom_site_fract_y
 _atom_site_fract_z
 _atom_site_occupancy
  Hf  Hf0  1  0.880485  0.880485  0.365188  1
  Hf  Hf1  1  0.880485  0.365188  0.880485  1
  Hf  Hf2  1  0.365188  0.880485  0.880485  1
  Hf  Hf3  1  0.876410  0.876410  0.876410  1
  Hf  Hf4  1  0.123971  0.123971  0.629390  1
  Hf  Hf5  1  0.123971  0.629390  0.123971  1
  Hf  Hf6  1  0.629390  0.123971  0.123971  1
  Sc  Sc7  1  0.699359  0.699359  0.301492  1
  Sc  Sc8  1  0.296620  0.712806  0.296620  1
  Sc  Sc9  1  0.712806  0.296620  0.296620  1
  Sc  Sc10  1  0.296620  0.296620  0.712806  1
  Sc  Sc11  1  0.699359  0.301492  0.699359  1
  Sc  Sc12  1  0.301492  0.699359  0.699359  1
  Al  Al13  1  0.119755  0.119755  0.119755  1
  Al  Al14  1  0.662462  0.662462  0.010814  1
  Al  Al15  1  0.662462  0.010814  0.662462  1
  Al  Al16  1  0.010814  0.662462  0.662462  1
  Al  Al17  1  0.664193  0.664193  0.664193  1
  Al  Al18  1  0.331536  0.331536  0.994673  1
  Al  Al19  1  0.331536  0.994673  0.331536  1
  Al  Al20  1  0.994673  0.331536  0.331536  1
  Al  Al21  1  0.339904  0.339904  0.339904  1
  Os  Os22  1  0.998381  0.998381  0.998381  1
  Os  Os23  1  0.000224  0.000224  0.499234  1
  Os  Os24  1  0.499840  0.998763  0.499840  1
  Os  Os25  1  0.998763  0.499840  0.499840  1
  Os  Os26  1  0.499840  0.499840  0.998763  1
  Os  Os27  1  0.000224  0.499234  0.000224  1
  Os  Os28  1  0.499234  0.000224  0.000224  1
