# generated using pymatgen
data_Hf8Ta4Nb8Si15Ge
_symmetry_space_group_name_H-M   'P 1'
_cell_length_a   6.67025700
_cell_length_b   6.86421705
_cell_length_c   13.08397900
_cell_angle_alpha   90.00000000
_cell_angle_beta   90.00000000
_cell_angle_gamma   89.99487363
_symmetry_Int_Tables_number   1
_chemical_formula_structural   Hf8Ta4Nb8Si15Ge
_chemical_formula_sum   'Hf8 Ta4 Nb8 Si15 Ge1'
_cell_volume   599.06426176
_cell_formula_units_Z   1
loop_
 _symmetry_equiv_pos_site_id
 _symmetry_equiv_pos_as_xyz
  1  'x, y, z'
loop_
 _atom_site_type_symbol
 _atom_site_label
 _atom_site_symmetry_multiplicity
 _atom_site_fract_x
 _atom_site_fract_y
 _atom_site_fract_z
 _atom_site_occupancy
  Hf  Hf0  1  0.496500  0.673719  0.594329  1
  Hf  Hf1  1  0.996288  0.826037  0.906304  1
  Hf  Hf2  1  0.501465  0.326617  0.092859  1
  Hf  Hf3  1  0.006487  0.170739  0.408703  1
  Hf  Hf4  1  0.501465  0.326617  0.407141  1
  Hf  Hf5  1  0.006487  0.170739  0.091297  1
  Hf  Hf6  1  0.496500  0.673719  0.905671  1
  Hf  Hf7  1  0.996288  0.826037  0.593696  1
  Ta  Ta8  1  0.836854  0.498800  0.750000  1
  Ta  Ta9  1  0.337137  0.002178  0.750000  1
  Ta  Ta10  1  0.165879  0.502975  0.250000  1
  Ta  Ta11  1  0.660871  0.994275  0.250000  1
  Nb  Nb12  1  0.662450  0.170593  0.623707  1
  Nb  Nb13  1  0.162410  0.329477  0.876286  1
  Nb  Nb14  1  0.336657  0.830426  0.123349  1
  Nb  Nb15  1  0.838017  0.672970  0.377029  1
  Nb  Nb16  1  0.336657  0.830426  0.376651  1
  Nb  Nb17  1  0.838017  0.672970  0.122971  1
  Nb  Nb18  1  0.662450  0.170593  0.876293  1
  Nb  Nb19  1  0.162410  0.329477  0.623714  1
  Si  Si20  1  0.671778  0.963718  0.461566  1
  Si  Si21  1  0.171960  0.536931  0.038756  1
  Si  Si22  1  0.327670  0.036619  0.960621  1
  Si  Si23  1  0.827181  0.463364  0.538837  1
  Si  Si24  1  0.327670  0.036619  0.539379  1
  Si  Si25  1  0.827181  0.463364  0.961163  1
  Si  Si26  1  0.671778  0.963718  0.038434  1
  Si  Si27  1  0.171960  0.536931  0.461244  1
  Si  Si28  1  0.461520  0.387820  0.750000  1
  Si  Si29  1  0.961125  0.113224  0.750000  1
  Si  Si30  1  0.537709  0.614676  0.250000  1
  Si  Si31  1  0.038487  0.887533  0.250000  1
  Si  Si32  1  0.703187  0.860732  0.750000  1
  Si  Si33  1  0.202636  0.639708  0.750000  1
  Si  Si34  1  0.297009  0.140301  0.250000  1
  Ge  Ge35  1  0.799859  0.355356  0.250000  1
