# generated using pymatgen
data_Ca4CuSi6Ag
_symmetry_space_group_name_H-M   'P 1'
_cell_length_a   8.33608130
_cell_length_b   8.21611503
_cell_length_c   5.98479933
_cell_angle_alpha   69.87804663
_cell_angle_beta   67.73626418
_cell_angle_gamma   42.38569229
_symmetry_Int_Tables_number   1
_chemical_formula_structural   Ca4CuSi6Ag
_chemical_formula_sum   'Ca4 Cu1 Si6 Ag1'
_cell_volume   254.36456591
_cell_formula_units_Z   1
loop_
 _symmetry_equiv_pos_site_id
 _symmetry_equiv_pos_as_xyz
  1  'x, y, z'
loop_
 _atom_site_type_symbol
 _atom_site_label
 _atom_site_symmetry_multiplicity
 _atom_site_fract_x
 _atom_site_fract_y
 _atom_site_fract_z
 _atom_site_occupancy
  Ca  Ca0  1  0.748967  0.748967  0.751033  1
  Ca  Ca1  1  0.753899  0.248045  0.751955  1
  Ca  Ca2  1  0.248967  0.248967  0.251033  1
  Ca  Ca3  1  0.248045  0.753899  0.246101  1
  Cu  Cu4  1  0.666815  0.666815  0.333185  1
  Si  Si5  1  0.831397  0.336114  0.168603  1
  Si  Si6  1  0.676266  0.162201  0.323734  1
  Si  Si7  1  0.162201  0.676266  0.837799  1
  Si  Si8  1  0.336114  0.831397  0.663886  1
  Si  Si9  1  0.161540  0.161540  0.838460  1
  Si  Si10  1  0.832475  0.832475  0.167525  1
  Ag  Ag11  1  0.333313  0.333313  0.666687  1
