# generated using pymatgen
data_Li8La7PrSn7Bi
_symmetry_space_group_name_H-M   'P 1'
_cell_length_a   9.69448287
_cell_length_b   9.69448252
_cell_length_c   7.85434056
_cell_angle_alpha   89.91504030
_cell_angle_beta   90.08495793
_cell_angle_gamma   119.98163727
_symmetry_Int_Tables_number   1
_chemical_formula_structural   Li8La7PrSn7Bi
_chemical_formula_sum   'Li8 La7 Pr1 Sn7 Bi1'
_cell_volume   639.39514174
_cell_formula_units_Z   1
loop_
 _symmetry_equiv_pos_site_id
 _symmetry_equiv_pos_as_xyz
  1  'x, y, z'
loop_
 _atom_site_type_symbol
 _atom_site_label
 _atom_site_symmetry_multiplicity
 _atom_site_fract_x
 _atom_site_fract_y
 _atom_site_fract_z
 _atom_site_occupancy
  Li  Li0  1  0.833305  0.166695  0.715716  1
  Li  Li1  1  0.832325  0.665865  0.712233  1
  Li  Li2  1  0.334135  0.167675  0.712233  1
  Li  Li3  1  0.166698  0.833302  0.212751  1
  Li  Li4  1  0.170075  0.334904  0.209900  1
  Li  Li5  1  0.665096  0.829925  0.209900  1
  Li  Li6  1  0.665098  0.334902  0.334245  1
  Li  Li7  1  0.333688  0.666312  0.832814  1
  La  La8  1  0.488123  0.511877  0.504952  1
  La  La9  1  0.483438  0.974358  0.507344  1
  La  La10  1  0.025642  0.516562  0.507344  1
  La  La11  1  0.511951  0.488049  0.003771  1
  La  La12  1  0.506922  0.020836  0.002527  1
  La  La13  1  0.979164  0.493078  0.002527  1
  La  La14  1  0.002319  0.997681  0.503617  1
  Pr  Pr15  1  0.002023  0.997977  0.998607  1
  Sn  Sn16  1  0.834171  0.667378  0.271032  1
  Sn  Sn17  1  0.332622  0.165829  0.271032  1
  Sn  Sn18  1  0.165945  0.834055  0.771499  1
  Sn  Sn19  1  0.165389  0.331954  0.772199  1
  Sn  Sn20  1  0.668046  0.834611  0.772199  1
  Sn  Sn21  1  0.667297  0.332703  0.730393  1
  Sn  Sn22  1  0.333037  0.666963  0.230735  1
  Bi  Bi23  1  0.833491  0.166509  0.268437  1
