# generated using pymatgen
data_TbHo2Fe2Co7P6
_symmetry_space_group_name_H-M   'P 1'
_cell_length_a   3.69891900
_cell_length_b   10.55740400
_cell_length_c   12.11100800
_cell_angle_alpha   90.00000000
_cell_angle_beta   90.00000000
_cell_angle_gamma   90.00000000
_symmetry_Int_Tables_number   1
_chemical_formula_structural   TbHo2Fe2Co7P6
_chemical_formula_sum   'Tb2 Ho4 Fe4 Co14 P12'
_cell_volume   472.94675839
_cell_formula_units_Z   2
loop_
 _symmetry_equiv_pos_site_id
 _symmetry_equiv_pos_as_xyz
  1  'x, y, z'
loop_
 _atom_site_type_symbol
 _atom_site_label
 _atom_site_symmetry_multiplicity
 _atom_site_fract_x
 _atom_site_fract_y
 _atom_site_fract_z
 _atom_site_occupancy
  Tb  Tb0  1  0.000000  0.500000  0.522897  1
  Tb  Tb1  1  0.500000  0.000000  0.477103  1
  Ho  Ho2  1  0.500000  0.819266  0.203875  1
  Ho  Ho3  1  0.500000  0.180734  0.203875  1
  Ho  Ho4  1  0.000000  0.680734  0.796125  1
  Ho  Ho5  1  0.000000  0.319266  0.796125  1
  Fe  Fe6  1  0.000000  0.500000  0.988632  1
  Fe  Fe7  1  0.500000  0.000000  0.011368  1
  Fe  Fe8  1  0.500000  0.500000  0.155713  1
  Fe  Fe9  1  0.000000  0.000000  0.844287  1
  Co  Co10  1  0.500000  0.296590  0.430061  1
  Co  Co11  1  0.500000  0.703410  0.430061  1
  Co  Co12  1  0.000000  0.203410  0.569939  1
  Co  Co13  1  0.000000  0.796590  0.569939  1
  Co  Co14  1  0.500000  0.878898  0.709742  1
  Co  Co15  1  0.500000  0.121102  0.709742  1
  Co  Co16  1  0.000000  0.621102  0.290258  1
  Co  Co17  1  0.000000  0.378898  0.290258  1
  Co  Co18  1  0.500000  0.331779  0.994568  1
  Co  Co19  1  0.500000  0.668221  0.994568  1
  Co  Co20  1  0.000000  0.168221  0.005432  1
  Co  Co21  1  0.000000  0.831779  0.005432  1
  Co  Co22  1  0.500000  0.500000  0.702079  1
  Co  Co23  1  0.000000  0.000000  0.297921  1
  P  P24  1  0.500000  0.309848  0.617028  1
  P  P25  1  0.500000  0.690152  0.617028  1
  P  P26  1  0.000000  0.190152  0.382972  1
  P  P27  1  0.000000  0.809848  0.382972  1
  P  P28  1  0.500000  0.500000  0.884680  1
  P  P29  1  0.000000  0.000000  0.115320  1
  P  P30  1  0.500000  0.847292  0.893392  1
  P  P31  1  0.500000  0.152708  0.893392  1
  P  P32  1  0.000000  0.652708  0.106608  1
  P  P33  1  0.000000  0.347292  0.106608  1
  P  P34  1  0.500000  0.500000  0.341638  1
  P  P35  1  0.000000  0.000000  0.658362  1
