# generated using pymatgen
data_Ho5Ir2Os
_symmetry_space_group_name_H-M   'P 1'
_cell_length_a   10.80776200
_cell_length_b   10.80776200
_cell_length_c   6.39022400
_cell_angle_alpha   90.00000000
_cell_angle_beta   90.00000000
_cell_angle_gamma   90.00000000
_symmetry_Int_Tables_number   1
_chemical_formula_structural   Ho5Ir2Os
_chemical_formula_sum   'Ho20 Ir8 Os4'
_cell_volume   746.42749221
_cell_formula_units_Z   4
loop_
 _symmetry_equiv_pos_site_id
 _symmetry_equiv_pos_as_xyz
  1  'x, y, z'
loop_
 _atom_site_type_symbol
 _atom_site_label
 _atom_site_symmetry_multiplicity
 _atom_site_fract_x
 _atom_site_fract_y
 _atom_site_fract_z
 _atom_site_occupancy
  Ho  Ho0  1  0.293683  0.086261  0.377046  1
  Ho  Ho1  1  0.293683  0.913739  0.877046  1
  Ho  Ho2  1  0.706317  0.086261  0.877046  1
  Ho  Ho3  1  0.706317  0.913739  0.377046  1
  Ho  Ho4  1  0.586261  0.793683  0.877046  1
  Ho  Ho5  1  0.586261  0.206317  0.377046  1
  Ho  Ho6  1  0.413739  0.793683  0.377046  1
  Ho  Ho7  1  0.413739  0.206317  0.877046  1
  Ho  Ho8  1  0.206317  0.413739  0.622954  1
  Ho  Ho9  1  0.206317  0.586261  0.122954  1
  Ho  Ho10  1  0.793683  0.413739  0.122954  1
  Ho  Ho11  1  0.793683  0.586261  0.622954  1
  Ho  Ho12  1  0.913739  0.706317  0.122954  1
  Ho  Ho13  1  0.913739  0.293683  0.622954  1
  Ho  Ho14  1  0.086261  0.706317  0.622954  1
  Ho  Ho15  1  0.086261  0.293683  0.122954  1
  Ho  Ho16  1  0.000000  0.000000  0.500000  1
  Ho  Ho17  1  0.000000  0.000000  0.000000  1
  Ho  Ho18  1  0.500000  0.500000  0.000000  1
  Ho  Ho19  1  0.500000  0.500000  0.500000  1
  Ir  Ir20  1  0.847564  0.152436  0.250000  1
  Ir  Ir21  1  0.847564  0.847564  0.750000  1
  Ir  Ir22  1  0.152436  0.152436  0.750000  1
  Ir  Ir23  1  0.152436  0.847564  0.250000  1
  Ir  Ir24  1  0.652436  0.347564  0.750000  1
  Ir  Ir25  1  0.652436  0.652436  0.250000  1
  Ir  Ir26  1  0.347564  0.347564  0.250000  1
  Ir  Ir27  1  0.347564  0.652436  0.750000  1
  Os  Os28  1  0.500000  0.000000  0.122060  1
  Os  Os29  1  0.500000  0.000000  0.622060  1
  Os  Os30  1  0.000000  0.500000  0.877940  1
  Os  Os31  1  0.000000  0.500000  0.377940  1
