# generated using pymatgen
data_TbYbZn19Cu3
_symmetry_space_group_name_H-M   'P 1'
_cell_length_a   8.18652906
_cell_length_b   8.19024831
_cell_length_c   8.19024770
_cell_angle_alpha   99.73797788
_cell_angle_beta   99.54082947
_cell_angle_gamma   131.71949613
_symmetry_Int_Tables_number   1
_chemical_formula_structural   TbYbZn19Cu3
_chemical_formula_sum   'Tb1 Yb1 Zn19 Cu3'
_cell_volume   373.96268551
_cell_formula_units_Z   1
loop_
 _symmetry_equiv_pos_site_id
 _symmetry_equiv_pos_as_xyz
  1  'x, y, z'
loop_
 _atom_site_type_symbol
 _atom_site_label
 _atom_site_symmetry_multiplicity
 _atom_site_fract_x
 _atom_site_fract_y
 _atom_site_fract_z
 _atom_site_occupancy
  Tb  Tb0  1  0.500830  0.500649  0.000181  1
  Yb  Yb1  1  0.750550  0.250171  0.500379  1
  Zn  Zn2  1  0.397818  0.074155  0.078978  1
  Zn  Zn3  1  0.990054  0.314304  0.917603  1
  Zn  Zn4  1  0.260516  0.677623  0.825542  1
  Zn  Zn5  1  0.850785  0.430216  0.174888  1
  Zn  Zn6  1  0.924280  0.597607  0.912049  1
  Zn  Zn7  1  0.685771  0.008664  0.080734  1
  Zn  Zn8  1  0.325431  0.737144  0.172015  1
  Zn  Zn9  1  0.565113  0.146258  0.824160  1
  Zn  Zn10  1  0.850785  0.675898  0.420569  1
  Zn  Zn11  1  0.260516  0.434973  0.582892  1
  Zn  Zn12  1  0.990054  0.072453  0.675751  1
  Zn  Zn13  1  0.397818  0.318841  0.323662  1
  Zn  Zn14  1  0.325431  0.153416  0.588287  1
  Zn  Zn15  1  0.565113  0.740952  0.418855  1
  Zn  Zn16  1  0.924280  0.012231  0.326673  1
  Zn  Zn17  1  0.685771  0.605038  0.677107  1
  Zn  Zn18  1  0.250787  0.746507  0.504281  1
  Zn  Zn19  1  0.998974  0.003186  0.995787  1
  Zn  Zn20  1  0.125362  0.874820  0.250542  1
  Cu  Cu21  1  0.125037  0.874034  0.749057  1
  Cu  Cu22  1  0.125037  0.375979  0.251002  1
  Cu  Cu23  1  0.623888  0.874882  0.749006  1
