# generated using pymatgen
data_K2Ge4Pt5
_symmetry_space_group_name_H-M   'P 1'
_cell_length_a   8.94318043
_cell_length_b   8.94318075
_cell_length_c   6.02301000
_cell_angle_alpha   90.00000000
_cell_angle_beta   90.00000000
_cell_angle_gamma   103.98976284
_symmetry_Int_Tables_number   1
_chemical_formula_structural   K2Ge4Pt5
_chemical_formula_sum   'K4 Ge8 Pt10'
_cell_volume   467.43480110
_cell_formula_units_Z   2
loop_
 _symmetry_equiv_pos_site_id
 _symmetry_equiv_pos_as_xyz
  1  'x, y, z'
loop_
 _atom_site_type_symbol
 _atom_site_label
 _atom_site_symmetry_multiplicity
 _atom_site_fract_x
 _atom_site_fract_y
 _atom_site_fract_z
 _atom_site_occupancy
  K  K0  1  0.364860  0.635140  0.025583  1
  K  K1  1  0.635140  0.364860  0.974417  1
  K  K2  1  0.135140  0.864860  0.525583  1
  K  K3  1  0.864860  0.135140  0.474417  1
  Ge  Ge4  1  0.953903  0.706580  0.056252  1
  Ge  Ge5  1  0.706580  0.953903  0.943748  1
  Ge  Ge6  1  0.206580  0.453903  0.556252  1
  Ge  Ge7  1  0.453903  0.206580  0.443748  1
  Ge  Ge8  1  0.046097  0.293420  0.943748  1
  Ge  Ge9  1  0.293420  0.046097  0.056252  1
  Ge  Ge10  1  0.793420  0.546097  0.443748  1
  Ge  Ge11  1  0.546097  0.793420  0.556252  1
  Pt  Pt12  1  0.021309  0.478691  0.250000  1
  Pt  Pt13  1  0.478691  0.021309  0.750000  1
  Pt  Pt14  1  0.978691  0.521309  0.750000  1
  Pt  Pt15  1  0.521309  0.978691  0.250000  1
  Pt  Pt16  1  0.224812  0.275188  0.250000  1
  Pt  Pt17  1  0.275188  0.224812  0.750000  1
  Pt  Pt18  1  0.775188  0.724812  0.750000  1
  Pt  Pt19  1  0.724812  0.775188  0.250000  1
  Pt  Pt20  1  0.000000  0.000000  0.000000  1
  Pt  Pt21  1  0.500000  0.500000  0.500000  1
