# generated using pymatgen
data_Nd4BBr5
_symmetry_space_group_name_H-M   'P 1'
_cell_length_a   9.49752130
_cell_length_b   9.49752037
_cell_length_c   8.47173109
_cell_angle_alpha   103.04676004
_cell_angle_beta   103.04675904
_cell_angle_gamma   24.98912393
_symmetry_Int_Tables_number   1
_chemical_formula_structural   Nd4BBr5
_chemical_formula_sum   'Nd4 B1 Br5'
_cell_volume   314.07453078
_cell_formula_units_Z   1
loop_
 _symmetry_equiv_pos_site_id
 _symmetry_equiv_pos_as_xyz
  1  'x, y, z'
loop_
 _atom_site_type_symbol
 _atom_site_label
 _atom_site_symmetry_multiplicity
 _atom_site_fract_x
 _atom_site_fract_y
 _atom_site_fract_z
 _atom_site_occupancy
  Nd  Nd0  1  0.644456  0.644456  0.078584  1
  Nd  Nd1  1  0.999225  0.999225  0.211357  1
  Nd  Nd2  1  0.000775  0.000775  0.788643  1
  Nd  Nd3  1  0.355544  0.355544  0.921417  1
  B  B4  1  0.500000  0.500000  0.000000  1
  Br  Br5  1  0.829131  0.829131  0.164795  1
  Br  Br6  1  0.164995  0.164995  0.340015  1
  Br  Br7  1  0.500000  0.500000  0.500000  1
  Br  Br8  1  0.835004  0.835004  0.659984  1
  Br  Br9  1  0.170869  0.170869  0.835204  1
