# generated using pymatgen
data_Tb3MgPaInRh3
_symmetry_space_group_name_H-M   'P 1'
_cell_length_a   7.54275038
_cell_length_b   7.57481963
_cell_length_c   4.11798800
_cell_angle_alpha   90.00000000
_cell_angle_beta   90.00000000
_cell_angle_gamma   120.89362794
_symmetry_Int_Tables_number   1
_chemical_formula_structural   Tb3MgPaInRh3
_chemical_formula_sum   'Tb3 Mg1 Pa1 In1 Rh3'
_cell_volume   201.89992202
_cell_formula_units_Z   1
loop_
 _symmetry_equiv_pos_site_id
 _symmetry_equiv_pos_as_xyz
  1  'x, y, z'
loop_
 _atom_site_type_symbol
 _atom_site_label
 _atom_site_symmetry_multiplicity
 _atom_site_fract_x
 _atom_site_fract_y
 _atom_site_fract_z
 _atom_site_occupancy
  Tb  Tb0  1  0.032086  0.594000  0.500000  1
  Tb  Tb1  1  0.373911  0.373577  0.500000  1
  Tb  Tb2  1  0.591317  0.028562  0.500000  1
  Mg  Mg3  1  0.997032  0.247760  0.000000  1
  Pa  Pa4  1  0.735224  0.730127  0.000000  1
  In  In5  1  0.250524  0.997125  0.000000  1
  Rh  Rh6  1  0.371623  0.680090  0.000000  1
  Rh  Rh7  1  0.969658  0.980783  0.500000  1
  Rh  Rh8  1  0.678623  0.367973  0.000000  1
