# generated using pymatgen
data_NaPr(Te3O8)2
_symmetry_space_group_name_H-M   'P 1'
_cell_length_a   6.99523875
_cell_length_b   6.99523874
_cell_length_c   10.29158300
_cell_angle_alpha   66.18929920
_cell_angle_beta   66.18929924
_cell_angle_gamma   49.81650469
_symmetry_Int_Tables_number   1
_chemical_formula_structural   NaPr(Te3O8)2
_chemical_formula_sum   'Na1 Pr1 Te6 O16'
_cell_volume   344.52592802
_cell_formula_units_Z   1
loop_
 _symmetry_equiv_pos_site_id
 _symmetry_equiv_pos_as_xyz
  1  'x, y, z'
loop_
 _atom_site_type_symbol
 _atom_site_label
 _atom_site_symmetry_multiplicity
 _atom_site_fract_x
 _atom_site_fract_y
 _atom_site_fract_z
 _atom_site_occupancy
  Na  Na0  1  0.429142  0.570858  0.750000  1
  Pr  Pr1  1  0.566004  0.433996  0.250000  1
  Te  Te2  1  0.698251  0.882925  0.851645  1
  Te  Te3  1  0.871255  0.683299  0.365143  1
  Te  Te4  1  0.002065  0.989455  0.503432  1
  Te  Te5  1  0.010545  0.997935  0.996568  1
  Te  Te6  1  0.117075  0.301749  0.648355  1
  Te  Te7  1  0.316701  0.128745  0.134857  1
  O  O8  1  0.983036  0.818422  0.905938  1
  O  O9  1  0.803026  0.980911  0.406488  1
  O  O10  1  0.342871  0.881022  0.876474  1
  O  O11  1  0.791591  0.565503  0.585917  1
  O  O12  1  0.867500  0.308608  0.841704  1
  O  O13  1  0.857200  0.330792  0.381586  1
  O  O14  1  0.579401  0.788806  0.096739  1
  O  O15  1  0.297096  0.858696  0.343267  1
  O  O16  1  0.691392  0.132500  0.658296  1
  O  O17  1  0.434497  0.208409  0.914083  1
  O  O18  1  0.118978  0.657129  0.623526  1
  O  O19  1  0.141304  0.702904  0.156733  1
  O  O20  1  0.211194  0.420599  0.403261  1
  O  O21  1  0.669208  0.142800  0.118414  1
  O  O22  1  0.181578  0.016964  0.594062  1
  O  O23  1  0.019089  0.196974  0.093512  1
