# generated using pymatgen
data_Ca4In3Pb
_symmetry_space_group_name_H-M   'P 1'
_cell_length_a   6.73361281
_cell_length_b   6.73361298
_cell_length_c   6.74628895
_cell_angle_alpha   109.26059186
_cell_angle_beta   109.26059290
_cell_angle_gamma   109.81764714
_symmetry_Int_Tables_number   1
_chemical_formula_structural   Ca4In3Pb
_chemical_formula_sum   'Ca4 In3 Pb1'
_cell_volume   235.68366431
_cell_formula_units_Z   1
loop_
 _symmetry_equiv_pos_site_id
 _symmetry_equiv_pos_as_xyz
  1  'x, y, z'
loop_
 _atom_site_type_symbol
 _atom_site_label
 _atom_site_symmetry_multiplicity
 _atom_site_fract_x
 _atom_site_fract_y
 _atom_site_fract_z
 _atom_site_occupancy
  Ca  Ca0  1  0.754723  0.254723  0.509445  1
  Ca  Ca1  1  0.254723  0.754723  0.509445  1
  Ca  Ca2  1  0.741861  0.741861  0.990602  1
  Ca  Ca3  1  0.248741  0.248741  0.990602  1
  In  In4  1  0.758333  0.252759  0.011093  1
  In  In5  1  0.252759  0.758333  0.011093  1
  In  In6  1  0.243265  0.243265  0.486530  1
  Pb  Pb7  1  0.745595  0.745595  0.491190  1
