# generated using pymatgen
data_Tb4LuCoRu
_symmetry_space_group_name_H-M   'P 1'
_cell_length_a   6.32804896
_cell_length_b   7.10583091
_cell_length_c   8.56502373
_cell_angle_alpha   96.41474742
_cell_angle_beta   112.30630374
_cell_angle_gamma   89.69810415
_symmetry_Int_Tables_number   1
_chemical_formula_structural   Tb4LuCoRu
_chemical_formula_sum   'Tb8 Lu2 Co2 Ru2'
_cell_volume   353.79498992
_cell_formula_units_Z   2
loop_
 _symmetry_equiv_pos_site_id
 _symmetry_equiv_pos_as_xyz
  1  'x, y, z'
loop_
 _atom_site_type_symbol
 _atom_site_label
 _atom_site_symmetry_multiplicity
 _atom_site_fract_x
 _atom_site_fract_y
 _atom_site_fract_z
 _atom_site_occupancy
  Tb  Tb0  1  0.527019  0.088370  0.817130  1
  Tb  Tb1  1  0.472981  0.911630  0.182870  1
  Tb  Tb2  1  0.700683  0.417798  0.187900  1
  Tb  Tb3  1  0.299317  0.582202  0.812100  1
  Tb  Tb4  1  0.287445  0.319609  0.429138  1
  Tb  Tb5  1  0.712555  0.680391  0.570862  1
  Tb  Tb6  1  0.857433  0.186852  0.568057  1
  Tb  Tb7  1  0.142567  0.813148  0.431943  1
  Lu  Lu8  1  0.073954  0.258284  0.000201  1
  Lu  Lu9  1  0.926046  0.741716  0.999799  1
  Co  Co10  1  0.322294  0.576431  0.224422  1
  Co  Co11  1  0.677706  0.423569  0.775578  1
  Ru  Ru12  1  0.104291  0.927466  0.787346  1
  Ru  Ru13  1  0.895709  0.072534  0.212654  1
