# generated using pymatgen
data_Ce12Sc7Re(WN4)12
_symmetry_space_group_name_H-M   'P 1'
_cell_length_a   11.29304477
_cell_length_b   11.19487211
_cell_length_c   11.29304428
_cell_angle_alpha   109.29521817
_cell_angle_beta   109.64664960
_cell_angle_gamma   109.29521633
_symmetry_Int_Tables_number   1
_chemical_formula_structural   Ce12Sc7Re(WN4)12
_chemical_formula_sum   'Ce12 Sc7 Re1 W12 N48'
_cell_volume   1101.43292811
_cell_formula_units_Z   1
loop_
 _symmetry_equiv_pos_site_id
 _symmetry_equiv_pos_as_xyz
  1  'x, y, z'
loop_
 _atom_site_type_symbol
 _atom_site_label
 _atom_site_symmetry_multiplicity
 _atom_site_fract_x
 _atom_site_fract_y
 _atom_site_fract_z
 _atom_site_occupancy
  Ce  Ce0  1  0.250484  0.375493  0.123936  1
  Ce  Ce1  1  0.376065  0.751557  0.126548  1
  Ce  Ce2  1  0.373452  0.125010  0.249516  1
  Ce  Ce3  1  0.875382  0.624424  0.249743  1
  Ce  Ce4  1  0.749743  0.125319  0.374362  1
  Ce  Ce5  1  0.125639  0.250957  0.375382  1
  Ce  Ce6  1  0.874361  0.749043  0.624618  1
  Ce  Ce7  1  0.250257  0.874681  0.625639  1
  Ce  Ce8  1  0.124618  0.375577  0.750257  1
  Ce  Ce9  1  0.626548  0.874990  0.750484  1
  Ce  Ce10  1  0.623936  0.248443  0.873452  1
  Ce  Ce11  1  0.749516  0.624507  0.876064  1
  Sc  Sc12  1  0.000000  0.000000  0.000000  1
  Sc  Sc13  1  0.500000  0.000000  0.000000  1
  Sc  Sc14  1  0.000000  0.500000  0.000000  1
  Sc  Sc15  1  0.500000  0.500000  0.000000  1
  Sc  Sc16  1  0.000000  0.000000  0.500000  1
  Sc  Sc17  1  0.500000  0.000000  0.500000  1
  Sc  Sc18  1  0.500000  0.500000  0.500000  1
  Re  Re19  1  0.000000  0.500000  0.500000  1
  W  W20  1  0.873627  0.251531  0.126199  1
  W  W21  1  0.750997  0.876013  0.125306  1
  W  W22  1  0.626199  0.374667  0.252572  1
  W  W23  1  0.125690  0.874982  0.250997  1
  W  W24  1  0.247428  0.622096  0.373627  1
  W  W25  1  0.625306  0.749292  0.374310  1
  W  W26  1  0.374694  0.250708  0.625690  1
  W  W27  1  0.752572  0.377904  0.626373  1
  W  W28  1  0.874309  0.125018  0.749003  1
  W  W29  1  0.373801  0.625333  0.747428  1
  W  W30  1  0.249003  0.123986  0.874694  1
  W  W31  1  0.126373  0.748469  0.873800  1
  N  N32  1  0.213996  0.128008  0.027156  1
  N  N33  1  0.312686  0.898465  0.024706  1
  N  N34  1  0.873343  0.398909  0.085469  1
  N  N35  1  0.714421  0.687433  0.087644  1
  N  N36  1  0.628203  0.414613  0.104402  1
  N  N37  1  0.974126  0.687969  0.101619  1
  N  N38  1  0.023802  0.213590  0.128204  1
  N  N39  1  0.601619  0.913652  0.127494  1
  N  N40  1  0.212020  0.585779  0.187314  1
  N  N41  1  0.472844  0.600852  0.186840  1
  N  N42  1  0.126778  0.026988  0.214421  1
  N  N43  1  0.585469  0.186560  0.212126  1
  N  N44  1  0.475294  0.373759  0.287980  1
  N  N45  1  0.313159  0.914010  0.286004  1
  N  N46  1  0.899729  0.029220  0.312757  1
  N  N47  1  0.918023  0.303459  0.321168  1
  N  N48  1  0.287874  0.474434  0.373343  1
  N  N49  1  0.587643  0.900210  0.373223  1
  N  N50  1  0.821169  0.517710  0.403146  1
  N  N51  1  0.086973  0.870509  0.399729  1
  N  N52  1  0.096855  0.614564  0.418023  1
  N  N53  1  0.812757  0.783537  0.413028  1
  N  N54  1  0.604402  0.189789  0.476198  1
  N  N55  1  0.372507  0.286157  0.474125  1
  N  N56  1  0.627494  0.713844  0.525875  1
  N  N57  1  0.395599  0.810211  0.523802  1
  N  N58  1  0.187243  0.216463  0.586973  1
  N  N59  1  0.903145  0.385436  0.581976  1
  N  N60  1  0.913028  0.129492  0.600272  1
  N  N61  1  0.178831  0.482290  0.596855  1
  N  N62  1  0.412356  0.099790  0.626777  1
  N  N63  1  0.712127  0.525566  0.626658  1
  N  N64  1  0.081977  0.696541  0.678831  1
  N  N65  1  0.100272  0.970781  0.687244  1
  N  N66  1  0.686840  0.085990  0.713996  1
  N  N67  1  0.524706  0.626242  0.712021  1
  N  N68  1  0.414532  0.813440  0.787874  1
  N  N69  1  0.873223  0.973013  0.785579  1
  N  N70  1  0.527156  0.399149  0.813160  1
  N  N71  1  0.787980  0.414222  0.812686  1
  N  N72  1  0.398382  0.086349  0.872507  1
  N  N73  1  0.976199  0.786410  0.871797  1
  N  N74  1  0.025875  0.312032  0.898382  1
  N  N75  1  0.371797  0.585386  0.895598  1
  N  N76  1  0.285579  0.312566  0.912356  1
  N  N77  1  0.126658  0.601092  0.914532  1
  N  N78  1  0.687315  0.101536  0.975295  1
  N  N79  1  0.786004  0.871993  0.972845  1
