# generated using pymatgen
data_Cu4Bi3Pb(SO)4
_symmetry_space_group_name_H-M   'P 1'
_cell_length_a   9.70372564
_cell_length_b   9.70372601
_cell_length_c   9.70372521
_cell_angle_alpha   146.90716622
_cell_angle_beta   146.90716946
_cell_angle_gamma   47.50125353
_symmetry_Int_Tables_number   1
_chemical_formula_structural   Cu4Bi3Pb(SO)4
_chemical_formula_sum   'Cu4 Bi3 Pb1 S4 O4'
_cell_volume   271.33006419
_cell_formula_units_Z   1
loop_
 _symmetry_equiv_pos_site_id
 _symmetry_equiv_pos_as_xyz
  1  'x, y, z'
loop_
 _atom_site_type_symbol
 _atom_site_label
 _atom_site_symmetry_multiplicity
 _atom_site_fract_x
 _atom_site_fract_y
 _atom_site_fract_z
 _atom_site_occupancy
  Cu  Cu0  1  0.500431  0.998020  0.000000  1
  Cu  Cu1  1  0.998020  0.500431  0.000000  1
  Cu  Cu2  1  0.500431  0.500431  0.502412  1
  Cu  Cu3  1  0.998020  0.998020  0.497588  1
  Bi  Bi4  1  0.934666  0.934666  0.000000  1
  Bi  Bi5  1  0.571388  0.071388  0.500000  1
  Bi  Bi6  1  0.071388  0.571388  0.500000  1
  Pb  Pb7  1  0.419577  0.419577  0.000000  1
  S  S8  1  0.670032  0.670032  0.000000  1
  S  S9  1  0.171850  0.171850  0.000000  1
  S  S10  1  0.325631  0.825631  0.500000  1
  S  S11  1  0.825631  0.325631  0.500000  1
  O  O12  1  0.248361  0.758110  0.000000  1
  O  O13  1  0.758110  0.248361  0.000000  1
  O  O14  1  0.248361  0.248361  0.490251  1
  O  O15  1  0.758110  0.758110  0.509749  1
