# generated using pymatgen
data_Tb5DyNiI10
_symmetry_space_group_name_H-M   'P 1'
_cell_length_a   7.73593090
_cell_length_b   9.72693066
_cell_length_c   9.75076291
_cell_angle_alpha   107.19136721
_cell_angle_beta   96.98202321
_cell_angle_gamma   104.68266033
_symmetry_Int_Tables_number   1
_chemical_formula_structural   Tb5DyNiI10
_chemical_formula_sum   'Tb5 Dy1 Ni1 I10'
_cell_volume   662.54356450
_cell_formula_units_Z   1
loop_
 _symmetry_equiv_pos_site_id
 _symmetry_equiv_pos_as_xyz
  1  'x, y, z'
loop_
 _atom_site_type_symbol
 _atom_site_label
 _atom_site_symmetry_multiplicity
 _atom_site_fract_x
 _atom_site_fract_y
 _atom_site_fract_z
 _atom_site_occupancy
  Tb  Tb0  1  0.887872  0.959914  0.236036  1
  Tb  Tb1  1  0.112914  0.040247  0.764155  1
  Tb  Tb2  1  0.030971  0.720117  0.916252  1
  Tb  Tb3  1  0.969577  0.279935  0.083938  1
  Tb  Tb4  1  0.659031  0.878722  0.837711  1
  Dy  Dy5  1  0.340372  0.121090  0.161866  1
  Ni  Ni6  1  0.000356  0.000094  0.000082  1
  I  I7  1  0.647389  0.548593  0.727983  1
  I  I8  1  0.353112  0.450525  0.272076  1
  I  I9  1  0.741133  0.912140  0.537714  1
  I  I10  1  0.259400  0.088124  0.461787  1
  I  I11  1  0.085169  0.371634  0.819358  1
  I  I12  1  0.914836  0.628293  0.180659  1
  I  I13  1  0.454012  0.815964  0.093030  1
  I  I14  1  0.545722  0.185072  0.907953  1
  I  I15  1  0.223297  0.742834  0.654544  1
  I  I16  1  0.774837  0.256704  0.344855  1
