# generated using pymatgen
data_Er5Be4NbIr10
_symmetry_space_group_name_H-M   'P 1'
_cell_length_a   9.78479500
_cell_length_b   9.78479500
_cell_length_c   3.30944700
_cell_angle_alpha   90.00000000
_cell_angle_beta   90.00000000
_cell_angle_gamma   90.00000000
_symmetry_Int_Tables_number   1
_chemical_formula_structural   Er5Be4NbIr10
_chemical_formula_sum   'Er5 Be4 Nb1 Ir10'
_cell_volume   316.85378022
_cell_formula_units_Z   1
loop_
 _symmetry_equiv_pos_site_id
 _symmetry_equiv_pos_as_xyz
  1  'x, y, z'
loop_
 _atom_site_type_symbol
 _atom_site_label
 _atom_site_symmetry_multiplicity
 _atom_site_fract_x
 _atom_site_fract_y
 _atom_site_fract_z
 _atom_site_occupancy
  Er  Er0  1  0.176791  0.674933  0.000000  1
  Er  Er1  1  0.325067  0.176791  0.000000  1
  Er  Er2  1  0.823209  0.325067  0.000000  1
  Er  Er3  1  0.500000  0.500000  0.000000  1
  Er  Er4  1  0.674933  0.823209  0.000000  1
  Be  Be5  1  0.380235  0.879718  0.000000  1
  Be  Be6  1  0.120282  0.380235  0.000000  1
  Be  Be7  1  0.879718  0.619765  0.000000  1
  Be  Be8  1  0.619765  0.120282  0.000000  1
  Nb  Nb9  1  0.000000  0.000000  0.000000  1
  Ir  Ir10  1  0.212556  0.935188  0.500000  1
  Ir  Ir11  1  0.935188  0.787444  0.500000  1
  Ir  Ir12  1  0.425799  0.723935  0.500000  1
  Ir  Ir13  1  0.574201  0.276065  0.500000  1
  Ir  Ir14  1  0.723935  0.574201  0.500000  1
  Ir  Ir15  1  0.276065  0.425799  0.500000  1
  Ir  Ir16  1  0.064812  0.212556  0.500000  1
  Ir  Ir17  1  0.000000  0.500000  0.500000  1
  Ir  Ir18  1  0.500000  0.000000  0.500000  1
  Ir  Ir19  1  0.787444  0.064812  0.500000  1
