# generated using pymatgen
data_CeI2Br
_symmetry_space_group_name_H-M   'P 1'
_cell_length_a   7.85871400
_cell_length_b   7.85871417
_cell_length_c   10.10044900
_cell_angle_alpha   90.00000000
_cell_angle_beta   90.00000000
_cell_angle_gamma   147.53898747
_symmetry_Int_Tables_number   1
_chemical_formula_structural   CeI2Br
_chemical_formula_sum   'Ce2 I4 Br2'
_cell_volume   334.80810240
_cell_formula_units_Z   2
loop_
 _symmetry_equiv_pos_site_id
 _symmetry_equiv_pos_as_xyz
  1  'x, y, z'
loop_
 _atom_site_type_symbol
 _atom_site_label
 _atom_site_symmetry_multiplicity
 _atom_site_fract_x
 _atom_site_fract_y
 _atom_site_fract_z
 _atom_site_occupancy
  Ce  Ce0  1  0.259565  0.740435  0.250000  1
  Ce  Ce1  1  0.740435  0.259565  0.750000  1
  I  I2  1  0.650297  0.349703  0.434442  1
  I  I3  1  0.349703  0.650297  0.565558  1
  I  I4  1  0.650297  0.349703  0.065558  1
  I  I5  1  0.349703  0.650297  0.934442  1
  Br  Br6  1  0.109804  0.890196  0.750000  1
  Br  Br7  1  0.890196  0.109804  0.250000  1
