# generated using pymatgen
data_Ba8TbTl3(FeO5)4
_symmetry_space_group_name_H-M   'P 1'
_cell_length_a   6.09276028
_cell_length_b   8.09657052
_cell_length_c   12.77578504
_cell_angle_alpha   91.64947695
_cell_angle_beta   89.98414468
_cell_angle_gamma   89.92797426
_symmetry_Int_Tables_number   1
_chemical_formula_structural   Ba8TbTl3(FeO5)4
_chemical_formula_sum   'Ba8 Tb1 Tl3 Fe4 O20'
_cell_volume   629.97371615
_cell_formula_units_Z   1
loop_
 _symmetry_equiv_pos_site_id
 _symmetry_equiv_pos_as_xyz
  1  'x, y, z'
loop_
 _atom_site_type_symbol
 _atom_site_label
 _atom_site_symmetry_multiplicity
 _atom_site_fract_x
 _atom_site_fract_y
 _atom_site_fract_z
 _atom_site_occupancy
  Ba  Ba0  1  0.766649  0.484752  0.344452  1
  Ba  Ba1  1  0.738601  0.984097  0.844588  1
  Ba  Ba2  1  0.231177  0.513082  0.652588  1
  Ba  Ba3  1  0.266715  0.014998  0.155501  1
  Ba  Ba4  1  0.763484  0.992423  0.378009  1
  Ba  Ba5  1  0.741613  0.493000  0.878992  1
  Ba  Ba6  1  0.235234  0.007643  0.620696  1
  Ba  Ba7  1  0.263901  0.508190  0.122928  1
  Tb  Tb8  1  0.251252  0.233382  0.873109  1
  Tl  Tl9  1  0.746693  0.267279  0.627499  1
  Tl  Tl10  1  0.750644  0.768016  0.125089  1
  Tl  Tl11  1  0.250608  0.731842  0.374905  1
  Fe  Fe12  1  0.735223  0.742150  0.583411  1
  Fe  Fe13  1  0.767533  0.242103  0.082627  1
  Fe  Fe14  1  0.265839  0.257530  0.416861  1
  Fe  Fe15  1  0.235885  0.755844  0.915599  1
  O  O16  1  0.774349  0.960925  0.634083  1
  O  O17  1  0.726433  0.462679  0.133685  1
  O  O18  1  0.226429  0.037771  0.366757  1
  O  O19  1  0.266807  0.529481  0.869574  1
  O  O20  1  0.727170  0.071324  0.179015  1
  O  O21  1  0.772260  0.575861  0.681259  1
  O  O22  1  0.265158  0.940062  0.827871  1
  O  O23  1  0.227997  0.427113  0.320704  1
  O  O24  1  0.540773  0.746813  0.276080  1
  O  O25  1  0.958003  0.247844  0.771815  1
  O  O26  1  0.451871  0.252550  0.725417  1
  O  O27  1  0.042098  0.754175  0.223354  1
  O  O28  1  0.559330  0.220233  0.971119  1
  O  O29  1  0.946297  0.718087  0.472526  1
  O  O30  1  0.446466  0.779202  0.025807  1
  O  O31  1  0.055101  0.280512  0.527107  1
  O  O32  1  0.056166  0.233289  0.023966  1
  O  O33  1  0.443480  0.732963  0.528422  1
  O  O34  1  0.945588  0.765592  0.971393  1
  O  O35  1  0.557174  0.267196  0.473192  1
