# generated using pymatgen
data_Er2Tm10Ru3Rh
_symmetry_space_group_name_H-M   'P 1'
_cell_length_a   6.24460503
_cell_length_b   7.23965742
_cell_length_c   9.04116900
_cell_angle_alpha   90.00000000
_cell_angle_beta   90.00000000
_cell_angle_gamma   90.03014700
_symmetry_Int_Tables_number   1
_chemical_formula_structural   Er2Tm10Ru3Rh
_chemical_formula_sum   'Er2 Tm10 Ru3 Rh1'
_cell_volume   408.74035493
_cell_formula_units_Z   1
loop_
 _symmetry_equiv_pos_site_id
 _symmetry_equiv_pos_as_xyz
  1  'x, y, z'
loop_
 _atom_site_type_symbol
 _atom_site_label
 _atom_site_symmetry_multiplicity
 _atom_site_fract_x
 _atom_site_fract_y
 _atom_site_fract_z
 _atom_site_occupancy
  Er  Er0  1  0.631890  0.038311  0.250000  1
  Er  Er1  1  0.868934  0.540255  0.250000  1
  Tm  Tm2  1  0.368508  0.960007  0.750000  1
  Tm  Tm3  1  0.132173  0.460548  0.750000  1
  Tm  Tm4  1  0.167806  0.174798  0.062273  1
  Tm  Tm5  1  0.829892  0.823379  0.935611  1
  Tm  Tm6  1  0.672309  0.322981  0.933767  1
  Tm  Tm7  1  0.829892  0.823379  0.564389  1
  Tm  Tm8  1  0.329689  0.678753  0.062069  1
  Tm  Tm9  1  0.167806  0.174798  0.437727  1
  Tm  Tm10  1  0.329689  0.678753  0.437931  1
  Tm  Tm11  1  0.672309  0.322981  0.566233  1
  Ru  Ru12  1  0.537270  0.614759  0.750000  1
  Ru  Ru13  1  0.963550  0.115686  0.750000  1
  Ru  Ru14  1  0.040517  0.885057  0.250000  1
  Rh  Rh15  1  0.457766  0.385553  0.250000  1
