# generated using pymatgen
data_Tb2Mn2Br
_symmetry_space_group_name_H-M   'P 1'
_cell_length_a   3.83010400
_cell_length_b   3.83010405
_cell_length_c   17.11128100
_cell_angle_alpha   90.00000000
_cell_angle_beta   90.00000000
_cell_angle_gamma   119.99998228
_symmetry_Int_Tables_number   1
_chemical_formula_structural   Tb2Mn2Br
_chemical_formula_sum   'Tb4 Mn4 Br2'
_cell_volume   217.38740169
_cell_formula_units_Z   2
loop_
 _symmetry_equiv_pos_site_id
 _symmetry_equiv_pos_as_xyz
  1  'x, y, z'
loop_
 _atom_site_type_symbol
 _atom_site_label
 _atom_site_symmetry_multiplicity
 _atom_site_fract_x
 _atom_site_fract_y
 _atom_site_fract_z
 _atom_site_occupancy
  Tb  Tb0  1  0.000000  0.000000  0.114902  1
  Tb  Tb1  1  0.000000  0.000000  0.614902  1
  Tb  Tb2  1  0.000000  0.000000  0.385098  1
  Tb  Tb3  1  0.000000  0.000000  0.885098  1
  Mn  Mn4  1  0.666667  0.333333  0.989602  1
  Mn  Mn5  1  0.333333  0.666667  0.010398  1
  Mn  Mn6  1  0.666667  0.333333  0.510398  1
  Mn  Mn7  1  0.333333  0.666667  0.489602  1
  Br  Br8  1  0.666667  0.333333  0.250000  1
  Br  Br9  1  0.333333  0.666667  0.750000  1
