# generated using pymatgen
data_Tb20Ir9RhAu2
_symmetry_space_group_name_H-M   'P 1'
_cell_length_a   11.06368804
_cell_length_b   11.08895697
_cell_length_c   6.34915234
_cell_angle_alpha   89.89218846
_cell_angle_beta   90.02363663
_cell_angle_gamma   90.22308132
_symmetry_Int_Tables_number   1
_chemical_formula_structural   Tb20Ir9RhAu2
_chemical_formula_sum   'Tb20 Ir9 Rh1 Au2'
_cell_volume   778.93688733
_cell_formula_units_Z   1
loop_
 _symmetry_equiv_pos_site_id
 _symmetry_equiv_pos_as_xyz
  1  'x, y, z'
loop_
 _atom_site_type_symbol
 _atom_site_label
 _atom_site_symmetry_multiplicity
 _atom_site_fract_x
 _atom_site_fract_y
 _atom_site_fract_z
 _atom_site_occupancy
  Tb  Tb0  1  0.294868  0.083233  0.360720  1
  Tb  Tb1  1  0.296049  0.903913  0.876196  1
  Tb  Tb2  1  0.703501  0.085733  0.862022  1
  Tb  Tb3  1  0.701928  0.904221  0.374254  1
  Tb  Tb4  1  0.586588  0.789724  0.876866  1
  Tb  Tb5  1  0.580690  0.210605  0.377571  1
  Tb  Tb6  1  0.409725  0.790287  0.378353  1
  Tb  Tb7  1  0.418778  0.210807  0.876868  1
  Tb  Tb8  1  0.211259  0.421513  0.622092  1
  Tb  Tb9  1  0.209862  0.591426  0.121724  1
  Tb  Tb10  1  0.789843  0.420512  0.122659  1
  Tb  Tb11  1  0.790320  0.589480  0.624563  1
  Tb  Tb12  1  0.911974  0.707405  0.129691  1
  Tb  Tb13  1  0.908189  0.301194  0.635329  1
  Tb  Tb14  1  0.091029  0.707006  0.626402  1
  Tb  Tb15  1  0.092251  0.301962  0.135612  1
  Tb  Tb16  1  0.997543  0.989872  0.501100  1
  Tb  Tb17  1  0.001481  0.991062  0.998947  1
  Tb  Tb18  1  0.499547  0.499973  0.000673  1
  Tb  Tb19  1  0.501135  0.501085  0.499245  1
  Ir  Ir20  1  0.152759  0.847059  0.249153  1
  Ir  Ir21  1  0.653678  0.345514  0.750865  1
  Ir  Ir22  1  0.655258  0.653012  0.247622  1
  Ir  Ir23  1  0.346489  0.343691  0.252469  1
  Ir  Ir24  1  0.347149  0.652686  0.749500  1
  Ir  Ir25  1  0.500706  0.000501  0.117563  1
  Ir  Ir26  1  0.498811  0.000508  0.618509  1
  Ir  Ir27  1  0.999736  0.500150  0.881509  1
  Ir  Ir28  1  0.000760  0.499804  0.382418  1
  Rh  Rh29  1  0.845560  0.845413  0.749627  1
  Au  Au30  1  0.846139  0.154170  0.250232  1
  Au  Au31  1  0.156399  0.156478  0.749645  1
