# generated using pymatgen
data_Dy19Ho(Bi2Ru)4
_symmetry_space_group_name_H-M   'P 1'
_cell_length_a   7.97769401
_cell_length_b   9.03082201
_cell_length_c   12.47560201
_cell_angle_alpha   90.00379371
_cell_angle_beta   89.99701359
_cell_angle_gamma   89.99715685
_symmetry_Int_Tables_number   1
_chemical_formula_structural   Dy19Ho(Bi2Ru)4
_chemical_formula_sum   'Dy19 Ho1 Bi8 Ru4'
_cell_volume   898.80642172
_cell_formula_units_Z   1
loop_
 _symmetry_equiv_pos_site_id
 _symmetry_equiv_pos_as_xyz
  1  'x, y, z'
loop_
 _atom_site_type_symbol
 _atom_site_label
 _atom_site_symmetry_multiplicity
 _atom_site_fract_x
 _atom_site_fract_y
 _atom_site_fract_z
 _atom_site_occupancy
  Dy  Dy0  1  0.840108  0.749980  0.792493  1
  Dy  Dy1  1  0.159932  0.250008  0.207502  1
  Dy  Dy2  1  0.340057  0.250011  0.707536  1
  Dy  Dy3  1  0.659936  0.749995  0.292476  1
  Dy  Dy4  1  0.375219  0.749992  0.690410  1
  Dy  Dy5  1  0.624776  0.250006  0.309595  1
  Dy  Dy6  1  0.875275  0.250024  0.809619  1
  Dy  Dy7  1  0.124782  0.749964  0.190367  1
  Dy  Dy8  1  0.945853  0.749999  0.504331  1
  Dy  Dy9  1  0.054158  0.249998  0.495675  1
  Dy  Dy10  1  0.445806  0.250029  0.995659  1
  Dy  Dy11  1  0.554111  0.749983  0.004330  1
  Dy  Dy12  1  0.674733  0.041511  0.564858  1
  Dy  Dy13  1  0.325258  0.958493  0.435146  1
  Dy  Dy14  1  0.174724  0.958473  0.935147  1
  Dy  Dy15  1  0.325262  0.541510  0.435144  1
  Dy  Dy16  1  0.825241  0.041516  0.064862  1
  Dy  Dy17  1  0.674735  0.458488  0.564859  1
  Dy  Dy18  1  0.825348  0.458515  0.064824  1
  Ho  Ho19  1  0.174572  0.541513  0.935167  1
  Bi  Bi20  1  0.567130  0.493223  0.827385  1
  Bi  Bi21  1  0.432817  0.506786  0.172634  1
  Bi  Bi22  1  0.067201  0.506786  0.672662  1
  Bi  Bi23  1  0.432806  0.993211  0.172638  1
  Bi  Bi24  1  0.932808  0.493219  0.327357  1
  Bi  Bi25  1  0.567192  0.006786  0.827359  1
  Bi  Bi26  1  0.932813  0.006784  0.327358  1
  Bi  Bi27  1  0.067182  0.993215  0.672641  1
  Ru  Ru28  1  0.574221  0.750008  0.510080  1
  Ru  Ru29  1  0.425774  0.249999  0.489914  1
  Ru  Ru30  1  0.074259  0.250065  0.989914  1
  Ru  Ru31  1  0.925910  0.749912  0.010058  1
