# generated using pymatgen
data_Yb3HoSnSb3O14
_symmetry_space_group_name_H-M   'P 1'
_cell_length_a   7.38538163
_cell_length_b   7.35408378
_cell_length_c   7.38538200
_cell_angle_alpha   59.85911594
_cell_angle_beta   59.99999834
_cell_angle_gamma   59.85911650
_symmetry_Int_Tables_number   1
_chemical_formula_structural   Yb3HoSnSb3O14
_chemical_formula_sum   'Yb3 Ho1 Sn1 Sb3 O14'
_cell_volume   283.02928486
_cell_formula_units_Z   1
loop_
 _symmetry_equiv_pos_site_id
 _symmetry_equiv_pos_as_xyz
  1  'x, y, z'
loop_
 _atom_site_type_symbol
 _atom_site_label
 _atom_site_symmetry_multiplicity
 _atom_site_fract_x
 _atom_site_fract_y
 _atom_site_fract_z
 _atom_site_occupancy
  Yb  Yb0  1  0.625000  0.625000  0.125000  1
  Yb  Yb1  1  0.125000  0.625000  0.625000  1
  Yb  Yb2  1  0.625000  0.625000  0.625000  1
  Ho  Ho3  1  0.625000  0.125000  0.625000  1
  Sn  Sn4  1  0.125000  0.625000  0.125000  1
  Sb  Sb5  1  0.125000  0.125000  0.625000  1
  Sb  Sb6  1  0.625000  0.125000  0.125000  1
  Sb  Sb7  1  0.125000  0.125000  0.125000  1
  O  O8  1  0.745364  0.763910  0.745364  1
  O  O9  1  0.504636  0.486090  0.504636  1
  O  O10  1  0.043465  0.449531  0.043465  1
  O  O11  1  0.798119  0.194962  0.798119  1
  O  O12  1  0.041199  0.055038  0.451881  1
  O  O13  1  0.451881  0.055038  0.041199  1
  O  O14  1  0.043465  0.449531  0.463538  1
  O  O15  1  0.463538  0.449531  0.043465  1
  O  O16  1  0.451881  0.055038  0.451881  1
  O  O17  1  0.206535  0.800469  0.786462  1
  O  O18  1  0.798119  0.194962  0.208801  1
  O  O19  1  0.206535  0.800469  0.206535  1
  O  O20  1  0.786462  0.800469  0.206535  1
  O  O21  1  0.208801  0.194962  0.798119  1
