# generated using pymatgen
data_LaPa3(Co2Sn)2
_symmetry_space_group_name_H-M   'P 1'
_cell_length_a   7.49326972
_cell_length_b   7.49326942
_cell_length_c   3.54703200
_cell_angle_alpha   90.00000000
_cell_angle_beta   90.00000000
_cell_angle_gamma   91.51505858
_symmetry_Int_Tables_number   1
_chemical_formula_structural   LaPa3(Co2Sn)2
_chemical_formula_sum   'La1 Pa3 Co4 Sn2'
_cell_volume   199.09298974
_cell_formula_units_Z   1
loop_
 _symmetry_equiv_pos_site_id
 _symmetry_equiv_pos_as_xyz
  1  'x, y, z'
loop_
 _atom_site_type_symbol
 _atom_site_label
 _atom_site_symmetry_multiplicity
 _atom_site_fract_x
 _atom_site_fract_y
 _atom_site_fract_z
 _atom_site_occupancy
  La  La0  1  0.829276  0.670724  0.500000  1
  Pa  Pa1  1  0.676185  0.166799  0.500000  1
  Pa  Pa2  1  0.333201  0.823815  0.500000  1
  Pa  Pa3  1  0.171309  0.328691  0.500000  1
  Co  Co4  1  0.873674  0.339549  0.000000  1
  Co  Co5  1  0.160451  0.626326  0.000000  1
  Co  Co6  1  0.351722  0.148278  0.000000  1
  Co  Co7  1  0.594906  0.905094  0.000000  1
  Sn  Sn8  1  0.500776  0.491499  0.000000  1
  Sn  Sn9  1  0.008501  0.999224  0.000000  1
