# generated using pymatgen
data_Ho2Pd6Pt2Se
_symmetry_space_group_name_H-M   'P 1'
_cell_length_a   4.12989700
_cell_length_b   4.12989700
_cell_length_c   11.31862000
_cell_angle_alpha   90.00000000
_cell_angle_beta   90.00000000
_cell_angle_gamma   90.00000000
_symmetry_Int_Tables_number   1
_chemical_formula_structural   Ho2Pd6Pt2Se
_chemical_formula_sum   'Ho2 Pd6 Pt2 Se1'
_cell_volume   193.05093994
_cell_formula_units_Z   1
loop_
 _symmetry_equiv_pos_site_id
 _symmetry_equiv_pos_as_xyz
  1  'x, y, z'
loop_
 _atom_site_type_symbol
 _atom_site_label
 _atom_site_symmetry_multiplicity
 _atom_site_fract_x
 _atom_site_fract_y
 _atom_site_fract_z
 _atom_site_occupancy
  Ho  Ho0  1  0.500000  0.500000  0.821972  1
  Ho  Ho1  1  0.500000  0.500000  0.178028  1
  Pd  Pd2  1  0.500000  0.000000  0.637624  1
  Pd  Pd3  1  0.000000  0.500000  0.637624  1
  Pd  Pd4  1  0.500000  0.000000  0.362376  1
  Pd  Pd5  1  0.000000  0.500000  0.362376  1
  Pd  Pd6  1  0.000000  0.000000  0.818728  1
  Pd  Pd7  1  0.000000  0.000000  0.181272  1
  Pt  Pt8  1  0.500000  0.000000  0.000000  1
  Pt  Pt9  1  0.000000  0.500000  0.000000  1
  Se  Se10  1  0.000000  0.000000  0.500000  1
