# generated using pymatgen
data_Dy10CdIn2Ru
_symmetry_space_group_name_H-M   'P 1'
_cell_length_a   9.66656067
_cell_length_b   9.66656572
_cell_length_c   9.83053600
_cell_angle_alpha   90.00000000
_cell_angle_beta   90.00000000
_cell_angle_gamma   119.95722212
_symmetry_Int_Tables_number   1
_chemical_formula_structural   Dy10CdIn2Ru
_chemical_formula_sum   'Dy20 Cd2 In4 Ru2'
_cell_volume   795.86437285
_cell_formula_units_Z   2
loop_
 _symmetry_equiv_pos_site_id
 _symmetry_equiv_pos_as_xyz
  1  'x, y, z'
loop_
 _atom_site_type_symbol
 _atom_site_label
 _atom_site_symmetry_multiplicity
 _atom_site_fract_x
 _atom_site_fract_y
 _atom_site_fract_z
 _atom_site_occupancy
  Dy  Dy0  1  0.997768  0.002231  0.504144  1
  Dy  Dy1  1  0.997768  0.002231  0.995856  1
  Dy  Dy2  1  0.209343  0.790657  0.440626  1
  Dy  Dy3  1  0.210510  0.419274  0.438479  1
  Dy  Dy4  1  0.580727  0.789490  0.438479  1
  Dy  Dy5  1  0.789221  0.210779  0.558972  1
  Dy  Dy6  1  0.791046  0.580632  0.560207  1
  Dy  Dy7  1  0.419368  0.208954  0.560207  1
  Dy  Dy8  1  0.789221  0.210779  0.941028  1
  Dy  Dy9  1  0.791046  0.580632  0.939793  1
  Dy  Dy10  1  0.419368  0.208954  0.939793  1
  Dy  Dy11  1  0.209343  0.790657  0.059374  1
  Dy  Dy12  1  0.210510  0.419274  0.061521  1
  Dy  Dy13  1  0.580727  0.789490  0.061521  1
  Dy  Dy14  1  0.539980  0.460020  0.250000  1
  Dy  Dy15  1  0.538400  0.077267  0.250000  1
  Dy  Dy16  1  0.922733  0.461600  0.250000  1
  Dy  Dy17  1  0.461200  0.538800  0.750000  1
  Dy  Dy18  1  0.462479  0.917842  0.750000  1
  Dy  Dy19  1  0.082157  0.537521  0.750000  1
  Cd  Cd20  1  0.114847  0.230507  0.750000  1
  Cd  Cd21  1  0.769493  0.885153  0.750000  1
  In  In22  1  0.885181  0.114819  0.250000  1
  In  In23  1  0.886709  0.772421  0.250000  1
  In  In24  1  0.227579  0.113291  0.250000  1
  In  In25  1  0.115299  0.884702  0.750000  1
  Ru  Ru26  1  0.332572  0.667428  0.250000  1
  Ru  Ru27  1  0.665408  0.334594  0.750000  1
