# generated using pymatgen
data_Ti8Al14SiOs2Rh5
_symmetry_space_group_name_H-M   'P 1'
_cell_length_a   8.63637189
_cell_length_b   8.63907761
_cell_length_c   8.63637117
_cell_angle_alpha   119.97268291
_cell_angle_beta   119.80780101
_cell_angle_gamma   90.18123995
_symmetry_Int_Tables_number   1
_chemical_formula_structural   Ti8Al14SiOs2Rh5
_chemical_formula_sum   'Ti8 Al14 Si1 Os2 Rh5'
_cell_volume   456.42089728
_cell_formula_units_Z   1
loop_
 _symmetry_equiv_pos_site_id
 _symmetry_equiv_pos_as_xyz
  1  'x, y, z'
loop_
 _atom_site_type_symbol
 _atom_site_label
 _atom_site_symmetry_multiplicity
 _atom_site_fract_x
 _atom_site_fract_y
 _atom_site_fract_z
 _atom_site_occupancy
  Ti  Ti0  1  0.793362  0.293170  0.086906  1
  Ti  Ti1  1  0.206263  0.293170  0.499807  1
  Ti  Ti2  1  0.201328  0.709313  0.507984  1
  Ti  Ti3  1  0.214746  0.717422  0.914652  1
  Ti  Ti4  1  0.802770  0.717422  0.502677  1
  Ti  Ti5  1  0.789046  0.279108  0.490062  1
  Ti  Ti6  1  0.375516  0.118325  0.742809  1
  Ti  Ti7  1  0.379285  0.637186  0.257901  1
  Al  Al8  1  0.154579  0.342784  0.188205  1
  Al  Al9  1  0.158169  0.980859  0.822691  1
  Al  Al10  1  0.153532  0.347536  0.810844  1
  Al  Al11  1  0.536691  0.347536  0.194004  1
  Al  Al12  1  0.845077  0.650994  0.805918  1
  Al  Al13  1  0.842982  0.024969  0.181986  1
  Al  Al14  1  0.841161  0.654719  0.181412  1
  Al  Al15  1  0.473307  0.654719  0.813559  1
  Al  Al16  1  0.380813  0.122729  0.261705  1
  Al  Al17  1  0.861025  0.122729  0.741915  1
  Al  Al18  1  0.620739  0.876430  0.255690  1
  Al  Al19  1  0.620668  0.361114  0.740446  1
  Al  Al20  1  0.619538  0.878270  0.741366  1
  Al  Al21  1  0.136904  0.878270  0.258732  1
  Si  Si22  1  0.995767  0.496309  0.500542  1
  Os  Os23  1  0.001404  0.000161  0.502124  1
  Os  Os24  1  0.498036  0.000161  0.998757  1
  Rh  Rh25  1  0.498026  0.497792  0.999767  1
  Rh  Rh26  1  0.498308  0.500518  0.497920  1
  Rh  Rh27  1  0.002599  0.500518  0.002210  1
  Rh  Rh28  1  0.999328  0.998125  0.998797  1
  Rh  Rh29  1  0.499024  0.997641  0.498617  1
