# generated using pymatgen
data_SmDy3Fe4(WO6)4
_symmetry_space_group_name_H-M   'P 1'
_cell_length_a   5.25768148
_cell_length_b   7.46397423
_cell_length_c   11.10540847
_cell_angle_alpha   90.08233037
_cell_angle_beta   90.07925932
_cell_angle_gamma   89.96818350
_symmetry_Int_Tables_number   1
_chemical_formula_structural   SmDy3Fe4(WO6)4
_chemical_formula_sum   'Sm1 Dy3 Fe4 W4 O24'
_cell_volume   435.81082112
_cell_formula_units_Z   1
loop_
 _symmetry_equiv_pos_site_id
 _symmetry_equiv_pos_as_xyz
  1  'x, y, z'
loop_
 _atom_site_type_symbol
 _atom_site_label
 _atom_site_symmetry_multiplicity
 _atom_site_fract_x
 _atom_site_fract_y
 _atom_site_fract_z
 _atom_site_occupancy
  Sm  Sm0  1  0.457390  0.751279  0.955374  1
  Dy  Dy1  1  0.547253  0.251307  0.045448  1
  Dy  Dy2  1  0.045664  0.751194  0.454901  1
  Dy  Dy3  1  0.954399  0.251276  0.544645  1
  Fe  Fe4  1  0.043743  0.997441  0.140049  1
  Fe  Fe5  1  0.544334  0.495955  0.361067  1
  Fe  Fe6  1  0.456542  0.996567  0.638250  1
  Fe  Fe7  1  0.957233  0.494590  0.860496  1
  W  W8  1  0.052283  0.505675  0.143557  1
  W  W9  1  0.551981  0.006499  0.357713  1
  W  W10  1  0.448019  0.506546  0.641307  1
  W  W11  1  0.948828  0.008921  0.857033  1
  O  O12  1  0.759878  0.966043  0.020690  1
  O  O13  1  0.765190  0.541094  0.029862  1
  O  O14  1  0.168676  0.748373  0.119106  1
  O  O15  1  0.934894  0.258091  0.145869  1
  O  O16  1  0.375834  0.434112  0.207023  1
  O  O17  1  0.391901  0.066817  0.212063  1
  O  O18  1  0.891068  0.566405  0.288800  1
  O  O19  1  0.873755  0.933617  0.293345  1
  O  O20  1  0.434713  0.758682  0.356657  1
  O  O21  1  0.675150  0.248153  0.383327  1
  O  O22  1  0.262990  0.045532  0.470719  1
  O  O23  1  0.256452  0.461022  0.479218  1
  O  O24  1  0.743634  0.961022  0.520104  1
  O  O25  1  0.736946  0.545709  0.528542  1
  O  O26  1  0.324150  0.748593  0.616836  1
  O  O27  1  0.565215  0.258897  0.642031  1
  O  O28  1  0.126775  0.433934  0.706780  1
  O  O29  1  0.110420  0.068303  0.712143  1
  O  O30  1  0.611671  0.565696  0.785883  1
  O  O31  1  0.626980  0.937723  0.791155  1
  O  O32  1  0.056292  0.759149  0.856630  1
  O  O33  1  0.822268  0.249548  0.882310  1
  O  O34  1  0.236215  0.048221  0.970595  1
  O  O35  1  0.241261  0.458412  0.980472  1
