# generated using pymatgen
data_Y5Er7Ni4
_symmetry_space_group_name_H-M   'P 1'
_cell_length_a   6.34087143
_cell_length_b   6.81705117
_cell_length_c   9.51532470
_cell_angle_alpha   89.98140553
_cell_angle_beta   90.18645266
_cell_angle_gamma   90.06468936
_symmetry_Int_Tables_number   1
_chemical_formula_structural   Y5Er7Ni4
_chemical_formula_sum   'Y5 Er7 Ni4'
_cell_volume   411.30739192
_cell_formula_units_Z   1
loop_
 _symmetry_equiv_pos_site_id
 _symmetry_equiv_pos_as_xyz
  1  'x, y, z'
loop_
 _atom_site_type_symbol
 _atom_site_label
 _atom_site_symmetry_multiplicity
 _atom_site_fract_x
 _atom_site_fract_y
 _atom_site_fract_z
 _atom_site_occupancy
  Y  Y0  1  0.320773  0.676935  0.065563  1
  Y  Y1  1  0.861965  0.529581  0.250065  1
  Y  Y2  1  0.637663  0.030322  0.249601  1
  Y  Y3  1  0.137465  0.470006  0.749189  1
  Y  Y4  1  0.363005  0.970916  0.749729  1
  Er  Er5  1  0.179695  0.177605  0.434589  1
  Er  Er6  1  0.679270  0.322381  0.564971  1
  Er  Er7  1  0.820699  0.822617  0.932526  1
  Er  Er8  1  0.681257  0.322064  0.932414  1
  Er  Er9  1  0.820161  0.822573  0.565290  1
  Er  Er10  1  0.319742  0.677978  0.435106  1
  Er  Er11  1  0.179387  0.177672  0.066708  1
  Ni  Ni12  1  0.055660  0.893275  0.252179  1
  Ni  Ni13  1  0.442465  0.390287  0.254537  1
  Ni  Ni14  1  0.942271  0.108046  0.749359  1
  Ni  Ni15  1  0.558522  0.607743  0.748172  1
