# generated using pymatgen
data_Zr10AlZn2Bi5
_symmetry_space_group_name_H-M   'P 1'
_cell_length_a   8.79600984
_cell_length_b   8.75776196
_cell_length_c   5.95230800
_cell_angle_alpha   90.00000000
_cell_angle_beta   90.00000000
_cell_angle_gamma   119.85625848
_symmetry_Int_Tables_number   1
_chemical_formula_structural   Zr10AlZn2Bi5
_chemical_formula_sum   'Zr10 Al1 Zn2 Bi5'
_cell_volume   397.66932966
_cell_formula_units_Z   1
loop_
 _symmetry_equiv_pos_site_id
 _symmetry_equiv_pos_as_xyz
  1  'x, y, z'
loop_
 _atom_site_type_symbol
 _atom_site_label
 _atom_site_symmetry_multiplicity
 _atom_site_fract_x
 _atom_site_fract_y
 _atom_site_fract_z
 _atom_site_occupancy
  Zr  Zr0  1  0.673501  0.334475  0.004004  1
  Zr  Zr1  1  0.326499  0.660974  0.004004  1
  Zr  Zr2  1  0.326499  0.660974  0.495996  1
  Zr  Zr3  1  0.673501  0.334475  0.495996  1
  Zr  Zr4  1  0.736619  0.735287  0.750000  1
  Zr  Zr5  1  0.263381  0.998668  0.750000  1
  Zr  Zr6  1  0.000000  0.264736  0.750000  1
  Zr  Zr7  1  0.258671  0.271817  0.250000  1
  Zr  Zr8  1  0.741329  0.013146  0.250000  1
  Zr  Zr9  1  0.000000  0.725656  0.250000  1
  Al  Al10  1  0.000000  0.385862  0.250000  1
  Zn  Zn11  1  0.000000  0.000113  0.005274  1
  Zn  Zn12  1  0.000000  0.000113  0.494726  1
  Bi  Bi13  1  0.386604  0.384734  0.750000  1
  Bi  Bi14  1  0.613396  0.998129  0.750000  1
  Bi  Bi15  1  0.000000  0.610133  0.750000  1
  Bi  Bi16  1  0.616747  0.618727  0.250000  1
  Bi  Bi17  1  0.383253  0.001980  0.250000  1
