# generated using pymatgen
data_Na6Eu7ThAu20
_symmetry_space_group_name_H-M   'P 1'
_cell_length_a   8.92185205
_cell_length_b   8.92195107
_cell_length_c   10.49608600
_cell_angle_alpha   90.00599162
_cell_angle_beta   90.00635774
_cell_angle_gamma   108.42537887
_symmetry_Int_Tables_number   1
_chemical_formula_structural   Na6Eu7ThAu20
_chemical_formula_sum   'Na6 Eu7 Th1 Au20'
_cell_volume   792.66129987
_cell_formula_units_Z   1
loop_
 _symmetry_equiv_pos_site_id
 _symmetry_equiv_pos_as_xyz
  1  'x, y, z'
loop_
 _atom_site_type_symbol
 _atom_site_label
 _atom_site_symmetry_multiplicity
 _atom_site_fract_x
 _atom_site_fract_y
 _atom_site_fract_z
 _atom_site_occupancy
  Na  Na0  1  0.510978  0.011300  0.253208  1
  Na  Na1  1  0.988832  0.489084  0.746738  1
  Na  Na2  1  0.000399  0.999838  0.000084  1
  Na  Na3  1  0.016326  0.515524  0.251654  1
  Na  Na4  1  0.484542  0.983749  0.748321  1
  Na  Na5  1  0.500406  0.499486  0.499843  1
  Eu  Eu6  1  0.199724  0.800256  0.500004  1
  Eu  Eu7  1  0.801890  0.803379  0.297981  1
  Eu  Eu8  1  0.301024  0.302435  0.201491  1
  Eu  Eu9  1  0.800072  0.199850  0.499996  1
  Eu  Eu10  1  0.300430  0.699558  0.000007  1
  Eu  Eu11  1  0.697355  0.698741  0.798410  1
  Eu  Eu12  1  0.196667  0.198176  0.702081  1
  Th  Th13  1  0.701218  0.298760  0.000000  1
  Au  Au14  1  0.151864  0.431668  0.488589  1
  Au  Au15  1  0.902838  0.903222  0.596637  1
  Au  Au16  1  0.568300  0.848027  0.511481  1
  Au  Au17  1  0.878601  0.163697  0.206024  1
  Au  Au18  1  0.383321  0.659703  0.292015  1
  Au  Au19  1  0.662341  0.377484  0.285924  1
  Au  Au20  1  0.400416  0.401756  0.906987  1
  Au  Au21  1  0.930112  0.642737  0.008735  1
  Au  Au22  1  0.340299  0.616676  0.707907  1
  Au  Au23  1  0.357239  0.069958  0.991221  1
  Au  Au24  1  0.598212  0.599495  0.093069  1
  Au  Au25  1  0.651398  0.935967  0.014011  1
  Au  Au26  1  0.096742  0.097150  0.403490  1
  Au  Au27  1  0.622535  0.337755  0.714015  1
  Au  Au28  1  0.118709  0.841569  0.793684  1
  Au  Au29  1  0.064039  0.348639  0.985899  1
  Au  Au30  1  0.845258  0.567040  0.509995  1
  Au  Au31  1  0.158517  0.881331  0.206353  1
  Au  Au32  1  0.432980  0.154643  0.490124  1
  Au  Au33  1  0.836413  0.121350  0.794022  1
