# generated using pymatgen
data_CeTh4Si3C
_symmetry_space_group_name_H-M   'P 1'
_cell_length_a   8.83231700
_cell_length_b   8.83231684
_cell_length_c   6.33946400
_cell_angle_alpha   90.00000000
_cell_angle_beta   90.00000000
_cell_angle_gamma   119.99999685
_symmetry_Int_Tables_number   1
_chemical_formula_structural   CeTh4Si3C
_chemical_formula_sum   'Ce2 Th8 Si6 C2'
_cell_volume   428.28461454
_cell_formula_units_Z   2
loop_
 _symmetry_equiv_pos_site_id
 _symmetry_equiv_pos_as_xyz
  1  'x, y, z'
loop_
 _atom_site_type_symbol
 _atom_site_label
 _atom_site_symmetry_multiplicity
 _atom_site_fract_x
 _atom_site_fract_y
 _atom_site_fract_z
 _atom_site_occupancy
  Ce  Ce0  1  0.666667  0.333333  0.000000  1
  Ce  Ce1  1  0.333333  0.666667  0.000000  1
  Th  Th2  1  0.333333  0.666667  0.500000  1
  Th  Th3  1  0.666667  0.333333  0.500000  1
  Th  Th4  1  0.766430  0.766430  0.750303  1
  Th  Th5  1  0.233570  0.000000  0.750303  1
  Th  Th6  1  0.000000  0.233570  0.750303  1
  Th  Th7  1  0.233570  0.233570  0.249697  1
  Th  Th8  1  0.766430  0.000000  0.249697  1
  Th  Th9  1  0.000000  0.766430  0.249697  1
  Si  Si10  1  0.397622  0.397622  0.750623  1
  Si  Si11  1  0.602378  0.000000  0.750623  1
  Si  Si12  1  0.000000  0.602378  0.750623  1
  Si  Si13  1  0.602378  0.602378  0.249377  1
  Si  Si14  1  0.397622  0.000000  0.249377  1
  Si  Si15  1  0.000000  0.397622  0.249377  1
  C  C16  1  0.000000  0.000000  0.000000  1
  C  C17  1  0.000000  0.000000  0.500000  1
