# generated using pymatgen
data_HoEr3(ScSe3)4
_symmetry_space_group_name_H-M   'P 1'
_cell_length_a   12.98526899
_cell_length_b   12.37837103
_cell_length_c   6.92392500
_cell_angle_alpha   79.05435593
_cell_angle_beta   69.37740262
_cell_angle_gamma   31.50853610
_symmetry_Int_Tables_number   1
_chemical_formula_structural   HoEr3(ScSe3)4
_chemical_formula_sum   'Ho1 Er3 Sc4 Se12'
_cell_volume   530.32485322
_cell_formula_units_Z   1
loop_
 _symmetry_equiv_pos_site_id
 _symmetry_equiv_pos_as_xyz
  1  'x, y, z'
loop_
 _atom_site_type_symbol
 _atom_site_label
 _atom_site_symmetry_multiplicity
 _atom_site_fract_x
 _atom_site_fract_y
 _atom_site_fract_z
 _atom_site_occupancy
  Ho  Ho0  1  0.996778  0.996778  0.503222  1
  Er  Er1  1  0.503193  0.503193  0.996807  1
  Er  Er2  1  0.253104  0.253104  0.746896  1
  Er  Er3  1  0.746850  0.746850  0.253150  1
  Sc  Sc4  1  0.333175  0.333175  0.166825  1
  Sc  Sc5  1  0.166735  0.166735  0.333265  1
  Sc  Sc6  1  0.916593  0.916593  0.083407  1
  Sc  Sc7  1  0.083361  0.083361  0.916639  1
  Se  Se8  1  0.013000  0.486996  0.487118  1
  Se  Se9  1  0.486996  0.013000  0.012886  1
  Se  Se10  1  0.237587  0.762432  0.763606  1
  Se  Se11  1  0.762432  0.237587  0.236375  1
  Se  Se12  1  0.663899  0.167044  0.850757  1
  Se  Se13  1  0.849268  0.320029  0.665539  1
  Se  Se14  1  0.320029  0.849268  0.165166  1
  Se  Se15  1  0.167044  0.663899  0.318301  1
  Se  Se16  1  0.585196  0.083421  0.400453  1
  Se  Se17  1  0.400331  0.931007  0.585069  1
  Se  Se18  1  0.931007  0.400331  0.083594  1
  Se  Se19  1  0.083421  0.585196  0.930931  1
