# generated using pymatgen
data_Li3La16MgOs4
_symmetry_space_group_name_H-M   'P 1'
_cell_length_a   10.13869100
_cell_length_b   10.15705171
_cell_length_c   10.15705000
_cell_angle_alpha   59.99999906
_cell_angle_beta   59.94007506
_cell_angle_gamma   59.94007740
_symmetry_Int_Tables_number   1
_chemical_formula_structural   Li3La16MgOs4
_chemical_formula_sum   'Li3 La16 Mg1 Os4'
_cell_volume   738.93831290
_cell_formula_units_Z   1
loop_
 _symmetry_equiv_pos_site_id
 _symmetry_equiv_pos_as_xyz
  1  'x, y, z'
loop_
 _atom_site_type_symbol
 _atom_site_label
 _atom_site_symmetry_multiplicity
 _atom_site_fract_x
 _atom_site_fract_y
 _atom_site_fract_z
 _atom_site_occupancy
  Li  Li0  1  0.577348  0.577873  0.577873  1
  Li  Li1  1  0.577348  0.266909  0.577873  1
  Li  Li2  1  0.577348  0.577873  0.266909  1
  La  La3  1  0.558174  0.941588  0.558649  1
  La  La4  1  0.186529  0.187522  0.812974  1
  La  La5  1  0.558174  0.558649  0.941588  1
  La  La6  1  0.968811  0.343730  0.343730  1
  La  La7  1  0.813995  0.186165  0.813676  1
  La  La8  1  0.186529  0.812974  0.187522  1
  La  La9  1  0.343101  0.344268  0.968365  1
  La  La10  1  0.343101  0.968365  0.344268  1
  La  La11  1  0.942269  0.941160  0.558285  1
  La  La12  1  0.942269  0.558285  0.558285  1
  La  La13  1  0.343101  0.344268  0.344268  1
  La  La14  1  0.813995  0.813676  0.186165  1
  La  La15  1  0.813995  0.186165  0.186165  1
  La  La16  1  0.558174  0.941588  0.941588  1
  La  La17  1  0.942269  0.558285  0.941160  1
  La  La18  1  0.186529  0.812974  0.812974  1
  Mg  Mg19  1  0.266111  0.577964  0.577964  1
  Os  Os20  1  0.138446  0.585048  0.138254  1
  Os  Os21  1  0.585495  0.138169  0.138169  1
  Os  Os22  1  0.138446  0.138254  0.585048  1
  Os  Os23  1  0.138446  0.138254  0.138254  1
