# generated using pymatgen
data_SmHf3(Al3Rh)6
_symmetry_space_group_name_H-M   'P 1'
_cell_length_a   7.48897800
_cell_length_b   7.47849773
_cell_length_c   9.30513200
_cell_angle_alpha   90.00000000
_cell_angle_beta   90.00000000
_cell_angle_gamma   119.67733817
_symmetry_Int_Tables_number   1
_chemical_formula_structural   SmHf3(Al3Rh)6
_chemical_formula_sum   'Sm1 Hf3 Al18 Rh6'
_cell_volume   452.78598279
_cell_formula_units_Z   1
loop_
 _symmetry_equiv_pos_site_id
 _symmetry_equiv_pos_as_xyz
  1  'x, y, z'
loop_
 _atom_site_type_symbol
 _atom_site_label
 _atom_site_symmetry_multiplicity
 _atom_site_fract_x
 _atom_site_fract_y
 _atom_site_fract_z
 _atom_site_occupancy
  Sm  Sm0  1  0.329151  0.006684  0.750000  1
  Hf  Hf1  1  0.993539  0.671613  0.250000  1
  Hf  Hf2  1  0.005616  0.329075  0.750000  1
  Hf  Hf3  1  0.672230  0.994378  0.250000  1
  Al  Al4  1  0.121310  0.123008  0.250000  1
  Al  Al5  1  0.870485  0.875554  0.750000  1
  Al  Al6  1  0.996440  0.334910  0.078758  1
  Al  Al7  1  0.999323  0.661332  0.927604  1
  Al  Al8  1  0.999323  0.661332  0.572396  1
  Al  Al9  1  0.335297  0.997056  0.416607  1
  Al  Al10  1  0.996440  0.334910  0.421242  1
  Al  Al11  1  0.669075  0.002715  0.572346  1
  Al  Al12  1  0.669075  0.002715  0.927654  1
  Al  Al13  1  0.335297  0.997056  0.083393  1
  Al  Al14  1  0.330858  0.334323  0.551496  1
  Al  Al15  1  0.669007  0.669087  0.438782  1
  Al  Al16  1  0.669007  0.669087  0.061218  1
  Al  Al17  1  0.330858  0.334323  0.948504  1
  Al  Al18  1  0.338453  0.554427  0.250000  1
  Al  Al19  1  0.668048  0.452911  0.750000  1
  Al  Al20  1  0.556060  0.340043  0.250000  1
  Al  Al21  1  0.445369  0.654432  0.750000  1
  Rh  Rh22  1  0.673442  0.328345  0.002264  1
  Rh  Rh23  1  0.328104  0.673058  0.002617  1
  Rh  Rh24  1  0.328104  0.673058  0.497383  1
  Rh  Rh25  1  0.673442  0.328345  0.497736  1
  Rh  Rh26  1  0.998323  0.998110  0.002655  1
  Rh  Rh27  1  0.998323  0.998110  0.497345  1
