# generated using pymatgen
data_Yb12Ho7TmGe16
_symmetry_space_group_name_H-M   'P 1'
_cell_length_a   7.37271612
_cell_length_b   7.89036207
_cell_length_c   15.14763114
_cell_angle_alpha   90.00390038
_cell_angle_beta   89.98509246
_cell_angle_gamma   89.98553424
_symmetry_Int_Tables_number   1
_chemical_formula_structural   Yb12Ho7TmGe16
_chemical_formula_sum   'Yb12 Ho7 Tm1 Ge16'
_cell_volume   881.18913941
_cell_formula_units_Z   1
loop_
 _symmetry_equiv_pos_site_id
 _symmetry_equiv_pos_as_xyz
  1  'x, y, z'
loop_
 _atom_site_type_symbol
 _atom_site_label
 _atom_site_symmetry_multiplicity
 _atom_site_fract_x
 _atom_site_fract_y
 _atom_site_fract_z
 _atom_site_occupancy
  Yb  Yb0  1  0.981387  0.812982  0.405638  1
  Yb  Yb1  1  0.481454  0.687047  0.094304  1
  Yb  Yb2  1  0.518622  0.312980  0.594383  1
  Yb  Yb3  1  0.018517  0.186937  0.905618  1
  Yb  Yb4  1  0.018602  0.186985  0.594389  1
  Yb  Yb5  1  0.518698  0.312934  0.905633  1
  Yb  Yb6  1  0.481366  0.687020  0.405636  1
  Yb  Yb7  1  0.981309  0.813008  0.094326  1
  Yb  Yb8  1  0.342842  0.020985  0.750049  1
  Yb  Yb9  1  0.842690  0.479059  0.750062  1
  Yb  Yb10  1  0.157256  0.521052  0.250010  1
  Yb  Yb11  1  0.657277  0.978925  0.249991  1
  Ho  Ho12  1  0.318094  0.171411  0.121241  1
  Ho  Ho13  1  0.818033  0.328561  0.378711  1
  Ho  Ho14  1  0.181959  0.671570  0.878675  1
  Ho  Ho15  1  0.681935  0.828521  0.621364  1
  Ho  Ho16  1  0.318029  0.171434  0.378714  1
  Ho  Ho17  1  0.818037  0.328578  0.121259  1
  Ho  Ho18  1  0.181999  0.671474  0.621338  1
  Tm  Tm19  1  0.681944  0.828737  0.878642  1
  Ge  Ge20  1  0.843980  0.534134  0.540055  1
  Ge  Ge21  1  0.344412  0.965667  0.959823  1
  Ge  Ge22  1  0.656038  0.034147  0.459953  1
  Ge  Ge23  1  0.156003  0.465924  0.040040  1
  Ge  Ge24  1  0.156041  0.465854  0.459948  1
  Ge  Ge25  1  0.656206  0.033861  0.039802  1
  Ge  Ge26  1  0.343927  0.965829  0.540049  1
  Ge  Ge27  1  0.843484  0.534467  0.959795  1
  Ge  Ge28  1  0.976751  0.875316  0.750219  1
  Ge  Ge29  1  0.477340  0.624879  0.750122  1
  Ge  Ge30  1  0.522952  0.375441  0.249993  1
  Ge  Ge31  1  0.022959  0.124542  0.249997  1
  Ge  Ge32  1  0.237511  0.386676  0.750038  1
  Ge  Ge33  1  0.737275  0.113090  0.750196  1
  Ge  Ge34  1  0.262544  0.886647  0.249995  1
  Ge  Ge35  1  0.762528  0.613327  0.249994  1
