# generated using pymatgen
data_YCuAuO4
_symmetry_space_group_name_H-M   'P 1'
_cell_length_a   6.48812782
_cell_length_b   6.48812800
_cell_length_c   6.44876600
_cell_angle_alpha   126.02287105
_cell_angle_beta   125.93341808
_cell_angle_gamma   80.33863108
_symmetry_Int_Tables_number   1
_chemical_formula_structural   YCuAuO4
_chemical_formula_sum   'Y2 Cu2 Au2 O8'
_cell_volume   171.13536040
_cell_formula_units_Z   2
loop_
 _symmetry_equiv_pos_site_id
 _symmetry_equiv_pos_as_xyz
  1  'x, y, z'
loop_
 _atom_site_type_symbol
 _atom_site_label
 _atom_site_symmetry_multiplicity
 _atom_site_fract_x
 _atom_site_fract_y
 _atom_site_fract_z
 _atom_site_occupancy
  Y  Y0  1  0.999956  0.999956  0.000000  1
  Y  Y1  1  0.750044  0.250044  0.500000  1
  Cu  Cu2  1  0.875000  0.625000  0.250000  1
  Cu  Cu3  1  0.375000  0.625000  0.750000  1
  Au  Au4  1  0.375000  0.125000  0.750000  1
  Au  Au5  1  0.375000  0.625000  0.250000  1
  O  O6  1  0.349938  0.989740  0.954146  1
  O  O7  1  0.035594  0.395792  0.045854  1
  O  O8  1  0.714406  0.854208  0.454146  1
  O  O9  1  0.400062  0.260260  0.545854  1
  O  O10  1  0.137432  0.599786  0.840641  1
  O  O11  1  0.759144  0.296790  0.159359  1
  O  O12  1  0.612568  0.650214  0.659359  1
  O  O13  1  0.990856  0.953210  0.340641  1
