# generated using pymatgen
data_Rb2Zn3(CdSb2)2
_symmetry_space_group_name_H-M   'P 1'
_cell_length_a   7.51926501
_cell_length_b   7.52987629
_cell_length_c   13.08713708
_cell_angle_alpha   89.94317071
_cell_angle_beta   89.89251507
_cell_angle_gamma   117.14261173
_symmetry_Int_Tables_number   1
_chemical_formula_structural   Rb2Zn3(CdSb2)2
_chemical_formula_sum   'Rb4 Zn6 Cd4 Sb8'
_cell_volume   659.37820168
_cell_formula_units_Z   2
loop_
 _symmetry_equiv_pos_site_id
 _symmetry_equiv_pos_as_xyz
  1  'x, y, z'
loop_
 _atom_site_type_symbol
 _atom_site_label
 _atom_site_symmetry_multiplicity
 _atom_site_fract_x
 _atom_site_fract_y
 _atom_site_fract_z
 _atom_site_occupancy
  Rb  Rb0  1  0.221985  0.779855  0.501331  1
  Rb  Rb1  1  0.220507  0.777249  0.998986  1
  Rb  Rb2  1  0.777743  0.219607  0.503897  1
  Rb  Rb3  1  0.775203  0.218077  0.996625  1
  Zn  Zn4  1  0.746039  0.460363  0.750775  1
  Zn  Zn5  1  0.458789  0.745607  0.750735  1
  Zn  Zn6  1  0.257430  0.533686  0.246709  1
  Zn  Zn7  1  0.340068  0.342452  0.891123  1
  Zn  Zn8  1  0.004636  0.004045  0.245709  1
  Zn  Zn9  1  0.003158  0.003718  0.754243  1
  Cd  Cd10  1  0.540118  0.257597  0.247325  1
  Cd  Cd11  1  0.662846  0.655962  0.398589  1
  Cd  Cd12  1  0.339714  0.341345  0.607581  1
  Cd  Cd13  1  0.660196  0.653586  0.102306  1
  Sb  Sb14  1  0.602911  0.913527  0.250268  1
  Sb  Sb15  1  0.079104  0.401213  0.756817  1
  Sb  Sb16  1  0.401204  0.080434  0.756778  1
  Sb  Sb17  1  0.942317  0.616318  0.250038  1
  Sb  Sb18  1  0.254140  0.270445  0.393734  1
  Sb  Sb19  1  0.732307  0.731411  0.611402  1
  Sb  Sb20  1  0.259108  0.273361  0.095252  1
  Sb  Sb21  1  0.720476  0.720142  0.889777  1
