# generated using pymatgen
data_Li2MgSn3O8
_symmetry_space_group_name_H-M   'P 1'
_cell_length_a   6.21322615
_cell_length_b   6.21322648
_cell_length_c   6.21322655
_cell_angle_alpha   61.04256590
_cell_angle_beta   61.04256670
_cell_angle_gamma   61.04256550
_symmetry_Int_Tables_number   1
_chemical_formula_structural   Li2MgSn3O8
_chemical_formula_sum   'Li2 Mg1 Sn3 O8'
_cell_volume   173.58595370
_cell_formula_units_Z   1
loop_
 _symmetry_equiv_pos_site_id
 _symmetry_equiv_pos_as_xyz
  1  'x, y, z'
loop_
 _atom_site_type_symbol
 _atom_site_label
 _atom_site_symmetry_multiplicity
 _atom_site_fract_x
 _atom_site_fract_y
 _atom_site_fract_z
 _atom_site_occupancy
  Li  Li0  1  0.119010  0.119010  0.119010  1
  Li  Li1  1  0.880990  0.880990  0.880990  1
  Mg  Mg2  1  0.500000  0.500000  0.500000  1
  Sn  Sn3  1  0.500000  0.000000  0.500000  1
  Sn  Sn4  1  0.000000  0.500000  0.500000  1
  Sn  Sn5  1  0.500000  0.500000  0.000000  1
  O  O6  1  0.257055  0.257055  0.257055  1
  O  O7  1  0.259383  0.259383  0.712652  1
  O  O8  1  0.712652  0.259383  0.259383  1
  O  O9  1  0.259383  0.712652  0.259383  1
  O  O10  1  0.740617  0.287348  0.740617  1
  O  O11  1  0.287348  0.740617  0.740617  1
  O  O12  1  0.740617  0.740617  0.287348  1
  O  O13  1  0.742945  0.742945  0.742945  1
