# generated using pymatgen
data_NdEu3(Ir2I)2
_symmetry_space_group_name_H-M   'P 1'
_cell_length_a   4.36988500
_cell_length_b   4.36988525
_cell_length_c   17.43589500
_cell_angle_alpha   90.00000000
_cell_angle_beta   90.00000000
_cell_angle_gamma   119.99999053
_symmetry_Int_Tables_number   1
_chemical_formula_structural   NdEu3(Ir2I)2
_chemical_formula_sum   'Nd1 Eu3 Ir4 I2'
_cell_volume   288.34668250
_cell_formula_units_Z   1
loop_
 _symmetry_equiv_pos_site_id
 _symmetry_equiv_pos_as_xyz
  1  'x, y, z'
loop_
 _atom_site_type_symbol
 _atom_site_label
 _atom_site_symmetry_multiplicity
 _atom_site_fract_x
 _atom_site_fract_y
 _atom_site_fract_z
 _atom_site_occupancy
  Nd  Nd0  1  0.000000  0.000000  0.396430  1
  Eu  Eu1  1  0.000000  0.000000  0.107013  1
  Eu  Eu2  1  0.000000  0.000000  0.892216  1
  Eu  Eu3  1  0.000000  0.000000  0.608813  1
  Ir  Ir4  1  0.333333  0.666667  0.498074  1
  Ir  Ir5  1  0.666667  0.333333  0.496113  1
  Ir  Ir6  1  0.666667  0.333333  0.000793  1
  Ir  Ir7  1  0.333333  0.666667  0.999225  1
  I  I8  1  0.333333  0.666667  0.251509  1
  I  I9  1  0.666667  0.333333  0.749815  1
