# generated using pymatgen
data_Tb4Hf3RuF28
_symmetry_space_group_name_H-M   'P 1'
_cell_length_a   5.68629652
_cell_length_b   9.03690311
_cell_length_c   12.16152405
_cell_angle_alpha   62.66345948
_cell_angle_beta   90.03363210
_cell_angle_gamma   89.87277927
_symmetry_Int_Tables_number   1
_chemical_formula_structural   Tb4Hf3RuF28
_chemical_formula_sum   'Tb4 Hf3 Ru1 F28'
_cell_volume   555.14574286
_cell_formula_units_Z   1
loop_
 _symmetry_equiv_pos_site_id
 _symmetry_equiv_pos_as_xyz
  1  'x, y, z'
loop_
 _atom_site_type_symbol
 _atom_site_label
 _atom_site_symmetry_multiplicity
 _atom_site_fract_x
 _atom_site_fract_y
 _atom_site_fract_z
 _atom_site_occupancy
  Tb  Tb0  1  0.257794  0.812059  0.262020  1
  Tb  Tb1  1  0.742097  0.187833  0.732235  1
  Tb  Tb2  1  0.756806  0.183634  0.234091  1
  Tb  Tb3  1  0.243370  0.813265  0.769652  1
  Hf  Hf4  1  0.244622  0.274064  0.956723  1
  Hf  Hf5  1  0.255271  0.273954  0.454919  1
  Hf  Hf6  1  0.744108  0.726721  0.543755  1
  Ru  Ru7  1  0.756482  0.726369  0.044427  1
  F  F8  1  0.960652  0.708975  0.420713  1
  F  F9  1  0.041085  0.292948  0.578645  1
  F  F10  1  0.461454  0.290317  0.080405  1
  F  F11  1  0.553467  0.709187  0.919204  1
  F  F12  1  0.478398  0.729714  0.139490  1
  F  F13  1  0.520295  0.264324  0.856959  1
  F  F14  1  0.981504  0.270159  0.351910  1
  F  F15  1  0.016094  0.732918  0.647031  1
  F  F16  1  0.955469  0.742390  0.172637  1
  F  F17  1  0.035069  0.251909  0.830546  1
  F  F18  1  0.462323  0.254290  0.327291  1
  F  F19  1  0.534777  0.746905  0.670624  1
  F  F20  1  0.764943  0.488434  0.138609  1
  F  F21  1  0.233443  0.522424  0.859189  1
  F  F22  1  0.273699  0.522227  0.358745  1
  F  F23  1  0.727175  0.477801  0.640988  1
  F  F24  1  0.954294  0.283450  0.049079  1
  F  F25  1  0.042576  0.719363  0.953801  1
  F  F26  1  0.453424  0.722064  0.449852  1
  F  F27  1  0.549037  0.279441  0.546932  1
  F  F28  1  0.740972  0.975387  0.443000  1
  F  F29  1  0.258396  0.026562  0.557555  1
  F  F30  1  0.238175  0.026121  0.055811  1
  F  F31  1  0.757430  0.963742  0.952362  1
  F  F32  1  0.577968  0.970742  0.231680  1
  F  F33  1  0.424058  0.029705  0.768362  1
  F  F34  1  0.077913  0.026573  0.266325  1
  F  F35  1  0.925359  0.974027  0.734434  1
