# generated using pymatgen
data_Sc4ReB8(Ru2W)3
_symmetry_space_group_name_H-M   'P 1'
_cell_length_a   3.06263400
_cell_length_b   8.64925138
_cell_length_c   10.02961295
_cell_angle_alpha   89.79510614
_cell_angle_beta   90.00000000
_cell_angle_gamma   90.00000000
_symmetry_Int_Tables_number   1
_chemical_formula_structural   Sc4ReB8(Ru2W)3
_chemical_formula_sum   'Sc4 Re1 B8 Ru6 W3'
_cell_volume   265.67764667
_cell_formula_units_Z   1
loop_
 _symmetry_equiv_pos_site_id
 _symmetry_equiv_pos_as_xyz
  1  'x, y, z'
loop_
 _atom_site_type_symbol
 _atom_site_label
 _atom_site_symmetry_multiplicity
 _atom_site_fract_x
 _atom_site_fract_y
 _atom_site_fract_z
 _atom_site_occupancy
  Sc  Sc0  1  0.500000  0.840056  0.180238  1
  Sc  Sc1  1  0.500000  0.157479  0.819489  1
  Sc  Sc2  1  0.500000  0.657582  0.682027  1
  Sc  Sc3  1  0.500000  0.339559  0.318828  1
  Re  Re4  1  0.000000  0.662593  0.952418  1
  B  B5  1  0.500000  0.964689  0.586615  1
  B  B6  1  0.500000  0.033313  0.414212  1
  B  B7  1  0.500000  0.850471  0.900672  1
  B  B8  1  0.500000  0.148730  0.100404  1
  B  B9  1  0.500000  0.646561  0.397526  1
  B  B10  1  0.500000  0.353509  0.601653  1
  B  B11  1  0.500000  0.472116  0.910023  1
  B  B12  1  0.500000  0.540146  0.085721  1
  Ru  Ru13  1  0.000000  0.999417  0.000479  1
  Ru  Ru14  1  0.000000  0.404636  0.761241  1
  Ru  Ru15  1  0.000000  0.594067  0.239443  1
  Ru  Ru16  1  0.000000  0.498673  0.499640  1
  Ru  Ru17  1  0.000000  0.904037  0.740382  1
  Ru  Ru18  1  0.000000  0.093283  0.261145  1
  W  W19  1  0.000000  0.340314  0.046502  1
  W  W20  1  0.000000  0.835757  0.452464  1
  W  W21  1  0.000000  0.163013  0.548876  1
