# generated using pymatgen
data_Cs2ScTi6CBr18
_symmetry_space_group_name_H-M   'P 1'
_cell_length_a   10.77579831
_cell_length_b   10.77579822
_cell_length_c   10.77579801
_cell_angle_alpha   55.50909222
_cell_angle_beta   55.50908528
_cell_angle_gamma   55.50908820
_symmetry_Int_Tables_number   1
_chemical_formula_structural   Cs2ScTi6CBr18
_chemical_formula_sum   'Cs2 Sc1 Ti6 C1 Br18'
_cell_volume   792.52325156
_cell_formula_units_Z   1
loop_
 _symmetry_equiv_pos_site_id
 _symmetry_equiv_pos_as_xyz
  1  'x, y, z'
loop_
 _atom_site_type_symbol
 _atom_site_label
 _atom_site_symmetry_multiplicity
 _atom_site_fract_x
 _atom_site_fract_y
 _atom_site_fract_z
 _atom_site_occupancy
  Cs  Cs0  1  0.775408  0.775408  0.775408  1
  Cs  Cs1  1  0.224592  0.224592  0.224592  1
  Sc  Sc2  1  0.500000  0.500000  0.500000  1
  Ti  Ti3  1  0.147510  0.908574  0.808563  1
  Ti  Ti4  1  0.852490  0.091426  0.191437  1
  Ti  Ti5  1  0.091426  0.191437  0.852490  1
  Ti  Ti6  1  0.191437  0.852490  0.091426  1
  Ti  Ti7  1  0.908574  0.808563  0.147510  1
  Ti  Ti8  1  0.808563  0.147510  0.908574  1
  C  C9  1  0.000000  0.000000  0.000000  1
  Br  Br10  1  0.212013  0.465182  0.651399  1
  Br  Br11  1  0.787987  0.534818  0.348601  1
  Br  Br12  1  0.334641  0.052825  0.933640  1
  Br  Br13  1  0.665359  0.947175  0.066360  1
  Br  Br14  1  0.933640  0.334641  0.052825  1
  Br  Br15  1  0.718332  0.881288  0.399925  1
  Br  Br16  1  0.348601  0.787987  0.534818  1
  Br  Br17  1  0.600075  0.281668  0.118712  1
  Br  Br18  1  0.281668  0.118712  0.600075  1
  Br  Br19  1  0.118712  0.600075  0.281668  1
  Br  Br20  1  0.947175  0.066360  0.665359  1
  Br  Br21  1  0.399925  0.718332  0.881288  1
  Br  Br22  1  0.881288  0.399925  0.718332  1
  Br  Br23  1  0.066360  0.665359  0.947175  1
  Br  Br24  1  0.465182  0.651399  0.212013  1
  Br  Br25  1  0.651399  0.212013  0.465182  1
  Br  Br26  1  0.534818  0.348601  0.787987  1
  Br  Br27  1  0.052825  0.933640  0.334641  1
