# generated using pymatgen
data_RbEuSe4
_symmetry_space_group_name_H-M   'P 1'
_cell_length_a   6.31780500
_cell_length_b   6.31780500
_cell_length_c   9.06391700
_cell_angle_alpha   90.00000000
_cell_angle_beta   90.00000000
_cell_angle_gamma   90.00000000
_symmetry_Int_Tables_number   1
_chemical_formula_structural   RbEuSe4
_chemical_formula_sum   'Rb2 Eu2 Se8'
_cell_volume   361.78316549
_cell_formula_units_Z   2
loop_
 _symmetry_equiv_pos_site_id
 _symmetry_equiv_pos_as_xyz
  1  'x, y, z'
loop_
 _atom_site_type_symbol
 _atom_site_label
 _atom_site_symmetry_multiplicity
 _atom_site_fract_x
 _atom_site_fract_y
 _atom_site_fract_z
 _atom_site_occupancy
  Rb  Rb0  1  0.500000  0.500000  0.500000  1
  Rb  Rb1  1  0.000000  0.000000  0.500000  1
  Eu  Eu2  1  0.000000  0.000000  0.000000  1
  Eu  Eu3  1  0.500000  0.500000  0.000000  1
  Se  Se4  1  0.637196  0.866862  0.210771  1
  Se  Se5  1  0.133138  0.637196  0.210771  1
  Se  Se6  1  0.866862  0.362804  0.210771  1
  Se  Se7  1  0.637196  0.133138  0.789229  1
  Se  Se8  1  0.362804  0.866862  0.789229  1
  Se  Se9  1  0.362804  0.133138  0.210771  1
  Se  Se10  1  0.866862  0.637196  0.789229  1
  Se  Se11  1  0.133138  0.362804  0.789229  1
