# generated using pymatgen
data_Tb2DyMg3CdPb2
_symmetry_space_group_name_H-M   'P 1'
_cell_length_a   7.61019695
_cell_length_b   7.61019722
_cell_length_c   4.64606400
_cell_angle_alpha   90.00000000
_cell_angle_beta   90.00000000
_cell_angle_gamma   119.89949121
_symmetry_Int_Tables_number   1
_chemical_formula_structural   Tb2DyMg3CdPb2
_chemical_formula_sum   'Tb2 Dy1 Mg3 Cd1 Pb2'
_cell_volume   233.26339253
_cell_formula_units_Z   1
loop_
 _symmetry_equiv_pos_site_id
 _symmetry_equiv_pos_as_xyz
  1  'x, y, z'
loop_
 _atom_site_type_symbol
 _atom_site_label
 _atom_site_symmetry_multiplicity
 _atom_site_fract_x
 _atom_site_fract_y
 _atom_site_fract_z
 _atom_site_occupancy
  Tb  Tb0  1  0.582034  0.999597  0.000000  1
  Tb  Tb1  1  0.999597  0.582034  0.000000  1
  Dy  Dy2  1  0.417579  0.417579  0.000000  1
  Mg  Mg3  1  0.237489  0.999892  0.500000  1
  Mg  Mg4  1  0.999892  0.237489  0.500000  1
  Mg  Mg5  1  0.762677  0.762677  0.500000  1
  Cd  Cd6  1  0.000894  0.000894  0.000000  1
  Pb  Pb7  1  0.333626  0.666212  0.500000  1
  Pb  Pb8  1  0.666212  0.333626  0.500000  1
