# generated using pymatgen
data_Al11CuTc3
_symmetry_space_group_name_H-M   'P 1'
_cell_length_a   5.15557649
_cell_length_b   5.14755156
_cell_length_c   9.05539468
_cell_angle_alpha   105.22414065
_cell_angle_beta   87.07219142
_cell_angle_gamma   100.26746247
_symmetry_Int_Tables_number   1
_chemical_formula_structural   Al11CuTc3
_chemical_formula_sum   'Al11 Cu1 Tc3'
_cell_volume   228.16814532
_cell_formula_units_Z   1
loop_
 _symmetry_equiv_pos_site_id
 _symmetry_equiv_pos_as_xyz
  1  'x, y, z'
loop_
 _atom_site_type_symbol
 _atom_site_label
 _atom_site_symmetry_multiplicity
 _atom_site_fract_x
 _atom_site_fract_y
 _atom_site_fract_z
 _atom_site_occupancy
  Al  Al0  1  0.016258  0.989754  0.982826  1
  Al  Al1  1  0.932166  0.838016  0.663016  1
  Al  Al2  1  0.024805  0.143671  0.298502  1
  Al  Al3  1  0.866164  0.300116  0.613277  1
  Al  Al4  1  0.842350  0.541997  0.133528  1
  Al  Al5  1  0.153328  0.462796  0.877650  1
  Al  Al6  1  0.482813  0.897738  0.130805  1
  Al  Al7  1  0.546395  0.107973  0.883392  1
  Al  Al8  1  0.548550  0.323722  0.374154  1
  Al  Al9  1  0.413245  0.668632  0.632299  1
  Al  Al10  1  0.155055  0.711039  0.382477  1
  Cu  Cu11  1  0.351627  0.163717  0.627323  1
  Tc  Tc12  1  0.670773  0.854315  0.400907  1
  Tc  Tc13  1  0.670579  0.612767  0.866909  1
  Tc  Tc14  1  0.325895  0.383749  0.132935  1
