# generated using pymatgen
data_HoPa5(Sb4Pt3)2
_symmetry_space_group_name_H-M   'P 1'
_cell_length_a   8.47166855
_cell_length_b   8.47166718
_cell_length_c   8.47166857
_cell_angle_alpha   109.52384055
_cell_angle_beta   109.36604585
_cell_angle_gamma   109.52382890
_symmetry_Int_Tables_number   1
_chemical_formula_structural   HoPa5(Sb4Pt3)2
_chemical_formula_sum   'Ho1 Pa5 Sb8 Pt6'
_cell_volume   468.04089160
_cell_formula_units_Z   1
loop_
 _symmetry_equiv_pos_site_id
 _symmetry_equiv_pos_as_xyz
  1  'x, y, z'
loop_
 _atom_site_type_symbol
 _atom_site_label
 _atom_site_symmetry_multiplicity
 _atom_site_fract_x
 _atom_site_fract_y
 _atom_site_fract_z
 _atom_site_occupancy
  Ho  Ho0  1  0.875000  0.250000  0.125000  1
  Pa  Pa1  1  0.625000  0.750000  0.375000  1
  Pa  Pa2  1  0.249885  0.124786  0.875582  1
  Pa  Pa3  1  0.750796  0.375214  0.625100  1
  Pa  Pa4  1  0.124418  0.874304  0.249204  1
  Pa  Pa5  1  0.374900  0.625696  0.750115  1
  Sb  Sb6  1  0.678901  0.500613  0.000239  1
  Sb  Sb7  1  0.499626  0.999387  0.678288  1
  Sb  Sb8  1  0.998909  0.676122  0.497609  1
  Sb  Sb9  1  0.821487  0.823878  0.822787  1
  Sb  Sb10  1  0.502391  0.001300  0.178513  1
  Sb  Sb11  1  0.177213  0.498700  0.001091  1
  Sb  Sb12  1  0.999761  0.178662  0.500374  1
  Sb  Sb13  1  0.321712  0.321338  0.321099  1
  Pt  Pt14  1  0.375000  0.250000  0.625000  1
  Pt  Pt15  1  0.125000  0.750000  0.875000  1
  Pt  Pt16  1  0.253574  0.627097  0.376861  1
  Pt  Pt17  1  0.749764  0.872903  0.126477  1
  Pt  Pt18  1  0.623139  0.376713  0.250236  1
  Pt  Pt19  1  0.873523  0.123287  0.746426  1
