# generated using pymatgen
data_Tb7Ho9(CdIr)4
_symmetry_space_group_name_H-M   'P 1'
_cell_length_a   9.62524611
_cell_length_b   9.62524650
_cell_length_c   9.62933800
_cell_angle_alpha   59.98593748
_cell_angle_beta   59.98593613
_cell_angle_gamma   60.00412659
_symmetry_Int_Tables_number   1
_chemical_formula_structural   Tb7Ho9(CdIr)4
_chemical_formula_sum   'Tb7 Ho9 Cd4 Ir4'
_cell_volume   630.70507405
_cell_formula_units_Z   1
loop_
 _symmetry_equiv_pos_site_id
 _symmetry_equiv_pos_as_xyz
  1  'x, y, z'
loop_
 _atom_site_type_symbol
 _atom_site_label
 _atom_site_symmetry_multiplicity
 _atom_site_fract_x
 _atom_site_fract_y
 _atom_site_fract_z
 _atom_site_occupancy
  Tb  Tb0  1  0.060852  0.060852  0.439148  1
  Tb  Tb1  1  0.188772  0.811314  0.812042  1
  Tb  Tb2  1  0.811314  0.188772  0.187872  1
  Tb  Tb3  1  0.811314  0.188772  0.812042  1
  Tb  Tb4  1  0.188772  0.811314  0.187872  1
  Tb  Tb5  1  0.811800  0.811800  0.188200  1
  Tb  Tb6  1  0.188353  0.188353  0.811647  1
  Ho  Ho7  1  0.599024  0.599024  0.598271  1
  Ho  Ho8  1  0.599024  0.599024  0.203682  1
  Ho  Ho9  1  0.598944  0.203231  0.598913  1
  Ho  Ho10  1  0.203231  0.598944  0.598913  1
  Ho  Ho11  1  0.060530  0.438853  0.439666  1
  Ho  Ho12  1  0.438853  0.060530  0.060951  1
  Ho  Ho13  1  0.438853  0.060530  0.439666  1
  Ho  Ho14  1  0.060530  0.438853  0.060951  1
  Ho  Ho15  1  0.439096  0.439096  0.060904  1
  Cd  Cd16  1  0.830654  0.830654  0.831169  1
  Cd  Cd17  1  0.830654  0.830654  0.507525  1
  Cd  Cd18  1  0.830927  0.506812  0.831131  1
  Cd  Cd19  1  0.506812  0.830927  0.831131  1
  Ir  Ir20  1  0.392059  0.392059  0.391155  1
  Ir  Ir21  1  0.392059  0.392059  0.824728  1
  Ir  Ir22  1  0.393211  0.824367  0.391211  1
  Ir  Ir23  1  0.824367  0.393211  0.391211  1
