# generated using pymatgen
data_Dy3Ho2(MnB3)2
_symmetry_space_group_name_H-M   'P 1'
_cell_length_a   5.42188866
_cell_length_b   5.42188878
_cell_length_c   8.28111730
_cell_angle_alpha   70.89111834
_cell_angle_beta   70.89111864
_cell_angle_gamma   59.99999080
_symmetry_Int_Tables_number   1
_chemical_formula_structural   Dy3Ho2(MnB3)2
_chemical_formula_sum   'Dy3 Ho2 Mn2 B6'
_cell_volume   195.18167211
_cell_formula_units_Z   1
loop_
 _symmetry_equiv_pos_site_id
 _symmetry_equiv_pos_as_xyz
  1  'x, y, z'
loop_
 _atom_site_type_symbol
 _atom_site_label
 _atom_site_symmetry_multiplicity
 _atom_site_fract_x
 _atom_site_fract_y
 _atom_site_fract_z
 _atom_site_occupancy
  Dy  Dy0  1  0.000000  0.000000  0.000000  1
  Dy  Dy1  1  0.250942  0.250942  0.247173  1
  Dy  Dy2  1  0.749058  0.749058  0.752827  1
  Ho  Ho3  1  0.416777  0.416777  0.749669  1
  Ho  Ho4  1  0.583223  0.583223  0.250331  1
  Mn  Mn5  1  0.115174  0.115174  0.654476  1
  Mn  Mn6  1  0.884826  0.884826  0.345524  1
  B  B7  1  0.166641  0.833359  0.500000  1
  B  B8  1  0.833359  0.500000  0.500000  1
  B  B9  1  0.500000  0.166641  0.500000  1
  B  B10  1  0.166641  0.500000  0.500000  1
  B  B11  1  0.500000  0.833359  0.500000  1
  B  B12  1  0.833359  0.166641  0.500000  1
