# generated using pymatgen
data_Yb7HoZn(Si4Pd)3
_symmetry_space_group_name_H-M   'P 1'
_cell_length_a   8.23648100
_cell_length_b   8.23648007
_cell_length_c   8.25083100
_cell_angle_alpha   90.00000000
_cell_angle_beta   90.00000000
_cell_angle_gamma   119.99999971
_symmetry_Int_Tables_number   1
_chemical_formula_structural   Yb7HoZn(Si4Pd)3
_chemical_formula_sum   'Yb7 Ho1 Zn1 Si12 Pd3'
_cell_volume   484.74314642
_cell_formula_units_Z   1
loop_
 _symmetry_equiv_pos_site_id
 _symmetry_equiv_pos_as_xyz
  1  'x, y, z'
loop_
 _atom_site_type_symbol
 _atom_site_label
 _atom_site_symmetry_multiplicity
 _atom_site_fract_x
 _atom_site_fract_y
 _atom_site_fract_z
 _atom_site_occupancy
  Yb  Yb0  1  0.503372  0.006743  0.256703  1
  Yb  Yb1  1  0.500848  0.001699  0.743873  1
  Yb  Yb2  1  0.993257  0.496628  0.256703  1
  Yb  Yb3  1  0.998301  0.499152  0.743873  1
  Yb  Yb4  1  0.503372  0.496628  0.256703  1
  Yb  Yb5  1  0.500848  0.499152  0.743873  1
  Yb  Yb6  1  0.000000  0.000000  0.251967  1
  Ho  Ho7  1  0.000000  0.000000  0.747176  1
  Zn  Zn8  1  0.333333  0.666667  0.003377  1
  Si  Si9  1  0.161203  0.322405  0.997545  1
  Si  Si10  1  0.833727  0.667455  0.995699  1
  Si  Si11  1  0.677595  0.838797  0.997545  1
  Si  Si12  1  0.836591  0.673184  0.503518  1
  Si  Si13  1  0.332545  0.166273  0.995699  1
  Si  Si14  1  0.164329  0.328660  0.503080  1
  Si  Si15  1  0.161203  0.838797  0.997545  1
  Si  Si16  1  0.326816  0.163409  0.503518  1
  Si  Si17  1  0.833727  0.166273  0.995699  1
  Si  Si18  1  0.671340  0.835671  0.503080  1
  Si  Si19  1  0.836591  0.163409  0.503518  1
  Si  Si20  1  0.164329  0.835671  0.503080  1
  Pd  Pd21  1  0.666667  0.333333  0.997376  1
  Pd  Pd22  1  0.666667  0.333333  0.502886  1
  Pd  Pd23  1  0.333333  0.666667  0.495958  1
