# generated using pymatgen
data_PrHo2RuI3
_symmetry_space_group_name_H-M   'P 1'
_cell_length_a   4.28109100
_cell_length_b   8.92555243
_cell_length_c   12.44723230
_cell_angle_alpha   85.20060902
_cell_angle_beta   90.00000000
_cell_angle_gamma   90.00000000
_symmetry_Int_Tables_number   1
_chemical_formula_structural   PrHo2RuI3
_chemical_formula_sum   'Pr2 Ho4 Ru2 I6'
_cell_volume   473.95481308
_cell_formula_units_Z   2
loop_
 _symmetry_equiv_pos_site_id
 _symmetry_equiv_pos_as_xyz
  1  'x, y, z'
loop_
 _atom_site_type_symbol
 _atom_site_label
 _atom_site_symmetry_multiplicity
 _atom_site_fract_x
 _atom_site_fract_y
 _atom_site_fract_z
 _atom_site_occupancy
  Pr  Pr0  1  0.250000  0.892945  0.818345  1
  Pr  Pr1  1  0.750000  0.107055  0.181655  1
  Ho  Ho2  1  0.250000  0.263476  0.400098  1
  Ho  Ho3  1  0.750000  0.736524  0.599902  1
  Ho  Ho4  1  0.250000  0.871854  0.379436  1
  Ho  Ho5  1  0.750000  0.128146  0.620564  1
  Ru  Ru6  1  0.250000  0.943130  0.590460  1
  Ru  Ru7  1  0.750000  0.056870  0.409540  1
  I  I8  1  0.250000  0.420057  0.628456  1
  I  I9  1  0.750000  0.579943  0.371544  1
  I  I10  1  0.250000  0.852417  0.114748  1
  I  I11  1  0.750000  0.147583  0.885252  1
  I  I12  1  0.250000  0.374190  0.144850  1
  I  I13  1  0.750000  0.625810  0.855150  1
