# generated using pymatgen
data_Ce3HoAl18PtRh5
_symmetry_space_group_name_H-M   'P 1'
_cell_length_a   7.64648390
_cell_length_b   7.63953046
_cell_length_c   9.46660811
_cell_angle_alpha   89.99244359
_cell_angle_beta   89.98970910
_cell_angle_gamma   119.55226347
_symmetry_Int_Tables_number   1
_chemical_formula_structural   Ce3HoAl18PtRh5
_chemical_formula_sum   'Ce3 Ho1 Al18 Pt1 Rh5'
_cell_volume   481.05554978
_cell_formula_units_Z   1
loop_
 _symmetry_equiv_pos_site_id
 _symmetry_equiv_pos_as_xyz
  1  'x, y, z'
loop_
 _atom_site_type_symbol
 _atom_site_label
 _atom_site_symmetry_multiplicity
 _atom_site_fract_x
 _atom_site_fract_y
 _atom_site_fract_z
 _atom_site_occupancy
  Ce  Ce0  1  0.003234  0.327930  0.749689  1
  Ce  Ce1  1  0.671470  0.997945  0.250324  1
  Ce  Ce2  1  0.330552  0.005202  0.749403  1
  Ho  Ho3  1  0.993867  0.670110  0.250319  1
  Al  Al4  1  0.006244  0.337890  0.077742  1
  Al  Al5  1  0.001573  0.668214  0.925988  1
  Al  Al6  1  0.999159  0.664701  0.572653  1
  Al  Al7  1  0.332914  0.998707  0.423606  1
  Al  Al8  1  0.002540  0.337730  0.423337  1
  Al  Al9  1  0.664774  0.996807  0.574803  1
  Al  Al10  1  0.664323  0.993383  0.924112  1
  Al  Al11  1  0.329489  0.996396  0.077501  1
  Al  Al12  1  0.334058  0.334133  0.545975  1
  Al  Al13  1  0.668446  0.666983  0.447500  1
  Al  Al14  1  0.667350  0.669197  0.055073  1
  Al  Al15  1  0.331733  0.334842  0.950925  1
  Al  Al16  1  0.127330  0.126155  0.250514  1
  Al  Al17  1  0.871425  0.868905  0.749680  1
  Al  Al18  1  0.341224  0.551787  0.250553  1
  Al  Al19  1  0.658837  0.454613  0.746721  1
  Al  Al20  1  0.547558  0.342259  0.253333  1
  Al  Al21  1  0.449837  0.656776  0.749643  1
  Pt  Pt22  1  0.672496  0.328025  0.000498  1
  Rh  Rh23  1  0.328488  0.671901  0.000259  1
  Rh  Rh24  1  0.328603  0.671703  0.499927  1
  Rh  Rh25  1  0.672454  0.328046  0.499697  1
  Rh  Rh26  1  0.999844  0.999956  0.000280  1
  Rh  Rh27  1  0.000178  0.999704  0.499944  1
