# generated using pymatgen
data_SrLaY2(AsPt)4
_symmetry_space_group_name_H-M   'P 1'
_cell_length_a   4.32699100
_cell_length_b   4.32699064
_cell_length_c   16.38070300
_cell_angle_alpha   90.00000000
_cell_angle_beta   90.00000000
_cell_angle_gamma   119.99999511
_symmetry_Int_Tables_number   1
_chemical_formula_structural   SrLaY2(AsPt)4
_chemical_formula_sum   'Sr1 La1 Y2 As4 Pt4'
_cell_volume   265.60432142
_cell_formula_units_Z   1
loop_
 _symmetry_equiv_pos_site_id
 _symmetry_equiv_pos_as_xyz
  1  'x, y, z'
loop_
 _atom_site_type_symbol
 _atom_site_label
 _atom_site_symmetry_multiplicity
 _atom_site_fract_x
 _atom_site_fract_y
 _atom_site_fract_z
 _atom_site_occupancy
  Sr  Sr0  1  0.000000  0.000000  0.000000  1
  La  La1  1  0.000000  0.000000  0.500000  1
  Y  Y2  1  0.000000  0.000000  0.253577  1
  Y  Y3  1  0.000000  0.000000  0.746423  1
  As  As4  1  0.333333  0.666667  0.870316  1
  As  As5  1  0.666667  0.333333  0.380823  1
  As  As6  1  0.666667  0.333333  0.129684  1
  As  As7  1  0.333333  0.666667  0.619177  1
  Pt  Pt8  1  0.333333  0.666667  0.362420  1
  Pt  Pt9  1  0.666667  0.333333  0.852683  1
  Pt  Pt10  1  0.666667  0.333333  0.637580  1
  Pt  Pt11  1  0.333333  0.666667  0.147317  1
