# generated using pymatgen
data_Lu3ZrSc2TiTe2
_symmetry_space_group_name_H-M   'P 1'
_cell_length_a   7.89709143
_cell_length_b   7.78644579
_cell_length_c   4.19159800
_cell_angle_alpha   90.00000000
_cell_angle_beta   90.00000000
_cell_angle_gamma   119.53758930
_symmetry_Int_Tables_number   1
_chemical_formula_structural   Lu3ZrSc2TiTe2
_chemical_formula_sum   'Lu3 Zr1 Sc2 Ti1 Te2'
_cell_volume   224.24434840
_cell_formula_units_Z   1
loop_
 _symmetry_equiv_pos_site_id
 _symmetry_equiv_pos_as_xyz
  1  'x, y, z'
loop_
 _atom_site_type_symbol
 _atom_site_label
 _atom_site_symmetry_multiplicity
 _atom_site_fract_x
 _atom_site_fract_y
 _atom_site_fract_z
 _atom_site_occupancy
  Lu  Lu0  1  0.000000  0.604041  0.000000  1
  Lu  Lu1  1  0.611052  0.000204  0.000000  1
  Lu  Lu2  1  0.388948  0.389151  0.000000  1
  Zr  Zr3  1  0.000000  0.237342  0.500000  1
  Sc  Sc4  1  0.768499  0.767768  0.500000  1
  Sc  Sc5  1  0.231501  0.999269  0.500000  1
  Ti  Ti6  1  0.000000  0.003602  0.000000  1
  Te  Te7  1  0.661095  0.329858  0.500000  1
  Te  Te8  1  0.338905  0.668765  0.500000  1
