# generated using pymatgen
data_Dy5Ge2P10Ir14Rh5
_symmetry_space_group_name_H-M   'P 1'
_cell_length_a   12.78663635
_cell_length_b   12.83915052
_cell_length_c   3.96503100
_cell_angle_alpha   90.00000000
_cell_angle_beta   90.00000000
_cell_angle_gamma   120.10583635
_symmetry_Int_Tables_number   1
_chemical_formula_structural   Dy5Ge2P10Ir14Rh5
_chemical_formula_sum   'Dy5 Ge2 P10 Ir14 Rh5'
_cell_volume   563.12611669
_cell_formula_units_Z   1
loop_
 _symmetry_equiv_pos_site_id
 _symmetry_equiv_pos_as_xyz
  1  'x, y, z'
loop_
 _atom_site_type_symbol
 _atom_site_label
 _atom_site_symmetry_multiplicity
 _atom_site_fract_x
 _atom_site_fract_y
 _atom_site_fract_z
 _atom_site_occupancy
  Dy  Dy0  1  0.333866  0.665865  0.500000  1
  Dy  Dy1  1  0.668870  0.334736  0.500000  1
  Dy  Dy2  1  0.002231  0.818829  0.000000  1
  Dy  Dy3  1  0.182329  0.180424  0.000000  1
  Dy  Dy4  1  0.813664  0.999647  0.000000  1
  Ge  Ge5  1  0.002198  0.638601  0.500000  1
  Ge  Ge6  1  0.360614  0.360886  0.500000  1
  P  P7  1  0.637820  0.997303  0.500000  1
  P  P8  1  0.517380  0.687569  0.000000  1
  P  P9  1  0.311119  0.825144  0.000000  1
  P  P10  1  0.169750  0.481679  0.000000  1
  P  P11  1  0.485980  0.173158  0.000000  1
  P  P12  1  0.686715  0.519446  0.000000  1
  P  P13  1  0.834082  0.317350  0.000000  1
  P  P14  1  0.999597  0.177184  0.500000  1
  P  P15  1  0.821800  0.823223  0.500000  1
  P  P16  1  0.182519  0.999625  0.500000  1
  Ir  Ir17  1  0.358802  0.493961  0.000000  1
  Ir  Ir18  1  0.494735  0.361809  0.000000  1
  Ir  Ir19  1  0.862798  0.508672  0.000000  1
  Ir  Ir20  1  0.644579  0.137822  0.000000  1
  Ir  Ir21  1  0.995602  0.278005  0.000000  1
  Ir  Ir22  1  0.718103  0.721337  0.000000  1
  Ir  Ir23  1  0.283961  0.000689  0.000000  1
  Ir  Ir24  1  0.626145  0.808024  0.500000  1
  Ir  Ir25  1  0.208177  0.826281  0.500000  1
  Ir  Ir26  1  0.172483  0.377042  0.500000  1
  Ir  Ir27  1  0.380517  0.175799  0.500000  1
  Ir  Ir28  1  0.798202  0.625986  0.500000  1
  Ir  Ir29  1  0.816704  0.184384  0.500000  1
  Ir  Ir30  1  0.002922  0.000051  0.500000  1
  Rh  Rh31  1  0.508729  0.868309  0.000000  1
  Rh  Rh32  1  0.130905  0.636190  0.000000  1
  Rh  Rh33  1  0.976524  0.435316  0.500000  1
  Rh  Rh34  1  0.546048  0.555963  0.500000  1
  Rh  Rh35  1  0.463528  0.003692  0.500000  1
