# generated using pymatgen
data_Ho5ThCoNi
_symmetry_space_group_name_H-M   'P 1'
_cell_length_a   6.27178500
_cell_length_b   6.87954900
_cell_length_c   9.48686700
_cell_angle_alpha   90.00000000
_cell_angle_beta   90.00000000
_cell_angle_gamma   90.00000000
_symmetry_Int_Tables_number   1
_chemical_formula_structural   Ho5ThCoNi
_chemical_formula_sum   'Ho10 Th2 Co2 Ni2'
_cell_volume   409.33034590
_cell_formula_units_Z   2
loop_
 _symmetry_equiv_pos_site_id
 _symmetry_equiv_pos_as_xyz
  1  'x, y, z'
loop_
 _atom_site_type_symbol
 _atom_site_label
 _atom_site_symmetry_multiplicity
 _atom_site_fract_x
 _atom_site_fract_y
 _atom_site_fract_z
 _atom_site_occupancy
  Ho  Ho0  1  0.328379  0.675534  0.069049  1
  Ho  Ho1  1  0.171621  0.175534  0.430951  1
  Ho  Ho2  1  0.675622  0.323449  0.568122  1
  Ho  Ho3  1  0.824378  0.823449  0.931878  1
  Ho  Ho4  1  0.675622  0.323449  0.931878  1
  Ho  Ho5  1  0.824378  0.823449  0.568122  1
  Ho  Ho6  1  0.328379  0.675534  0.430951  1
  Ho  Ho7  1  0.171621  0.175534  0.069049  1
  Ho  Ho8  1  0.144193  0.465767  0.750000  1
  Ho  Ho9  1  0.355807  0.965767  0.750000  1
  Th  Th10  1  0.847764  0.550196  0.250000  1
  Th  Th11  1  0.652236  0.050196  0.250000  1
  Co  Co12  1  0.033131  0.873260  0.250000  1
  Co  Co13  1  0.466869  0.373260  0.250000  1
  Ni  Ni14  1  0.944933  0.112813  0.750000  1
  Ni  Ni15  1  0.555067  0.612813  0.750000  1
