# generated using pymatgen
data_Sr2DyC2(O2F)3
_symmetry_space_group_name_H-M   'P 1'
_cell_length_a   9.45639800
_cell_length_b   6.76050200
_cell_length_c   11.32967700
_cell_angle_alpha   90.00000000
_cell_angle_beta   90.00000000
_cell_angle_gamma   90.00000000
_symmetry_Int_Tables_number   1
_chemical_formula_structural   Sr2DyC2(O2F)3
_chemical_formula_sum   'Sr8 Dy4 C8 O24 F12'
_cell_volume   724.30622333
_cell_formula_units_Z   4
loop_
 _symmetry_equiv_pos_site_id
 _symmetry_equiv_pos_as_xyz
  1  'x, y, z'
loop_
 _atom_site_type_symbol
 _atom_site_label
 _atom_site_symmetry_multiplicity
 _atom_site_fract_x
 _atom_site_fract_y
 _atom_site_fract_z
 _atom_site_occupancy
  Sr  Sr0  1  0.382228  0.237986  0.071133  1
  Sr  Sr1  1  0.117771  0.737987  0.071133  1
  Sr  Sr2  1  0.617771  0.237986  0.428867  1
  Sr  Sr3  1  0.882229  0.737987  0.428867  1
  Sr  Sr4  1  0.117771  0.262013  0.571133  1
  Sr  Sr5  1  0.382228  0.762013  0.571133  1
  Sr  Sr6  1  0.882229  0.262013  0.928866  1
  Sr  Sr7  1  0.617771  0.762013  0.928866  1
  Dy  Dy8  1  0.000000  0.273791  0.250000  1
  Dy  Dy9  1  0.500000  0.773790  0.250000  1
  Dy  Dy10  1  0.500000  0.226210  0.750000  1
  Dy  Dy11  1  0.000000  0.726210  0.750000  1
  C  C12  1  0.694466  0.476037  0.175650  1
  C  C13  1  0.805534  0.976037  0.175650  1
  C  C14  1  0.305535  0.476037  0.324349  1
  C  C15  1  0.194465  0.976037  0.324349  1
  C  C16  1  0.805534  0.023964  0.675650  1
  C  C17  1  0.694466  0.523963  0.675650  1
  C  C18  1  0.194465  0.023964  0.824349  1
  C  C19  1  0.305535  0.523963  0.824349  1
  O  O20  1  0.913815  0.017153  0.108735  1
  O  O21  1  0.586185  0.517152  0.108735  1
  O  O22  1  0.800557  0.380032  0.135781  1
  O  O23  1  0.699444  0.880031  0.135781  1
  O  O24  1  0.189204  0.038035  0.214827  1
  O  O25  1  0.310796  0.538035  0.214827  1
  O  O26  1  0.810795  0.038035  0.285173  1
  O  O27  1  0.689204  0.538035  0.285173  1
  O  O28  1  0.199444  0.380032  0.364218  1
  O  O29  1  0.300556  0.880031  0.364218  1
  O  O30  1  0.086185  0.017153  0.391265  1
  O  O31  1  0.413815  0.517152  0.391265  1
  O  O32  1  0.586185  0.482847  0.608735  1
  O  O33  1  0.913815  0.982848  0.608735  1
  O  O34  1  0.699444  0.119968  0.635781  1
  O  O35  1  0.800557  0.619969  0.635781  1
  O  O36  1  0.310796  0.461966  0.714827  1
  O  O37  1  0.189204  0.961965  0.714827  1
  O  O38  1  0.689204  0.461966  0.785173  1
  O  O39  1  0.810795  0.961965  0.785173  1
  O  O40  1  0.300556  0.119968  0.864218  1
  O  O41  1  0.199444  0.619969  0.864218  1
  O  O42  1  0.413815  0.482847  0.891266  1
  O  O43  1  0.086185  0.982848  0.891266  1
  F  F44  1  0.095896  0.356491  0.070647  1
  F  F45  1  0.404104  0.856490  0.070647  1
  F  F46  1  0.500000  0.116453  0.250000  1
  F  F47  1  0.000000  0.616453  0.250000  1
  F  F48  1  0.904103  0.356491  0.429353  1
  F  F49  1  0.595896  0.856490  0.429353  1
  F  F50  1  0.404104  0.143510  0.570647  1
  F  F51  1  0.095896  0.643510  0.570647  1
  F  F52  1  0.000000  0.383548  0.750000  1
  F  F53  1  0.500000  0.883547  0.750000  1
  F  F54  1  0.595896  0.143510  0.929352  1
  F  F55  1  0.904103  0.643510  0.929352  1
