# generated using pymatgen
data_Ho6UO12
_symmetry_space_group_name_H-M   'P 1'
_cell_length_a   6.55170043
_cell_length_b   6.55170039
_cell_length_c   6.55170119
_cell_angle_alpha   99.04084335
_cell_angle_beta   99.04084367
_cell_angle_gamma   99.04084377
_symmetry_Int_Tables_number   1
_chemical_formula_structural   Ho6UO12
_chemical_formula_sum   'Ho6 U1 O12'
_cell_volume   269.47708649
_cell_formula_units_Z   1
loop_
 _symmetry_equiv_pos_site_id
 _symmetry_equiv_pos_as_xyz
  1  'x, y, z'
loop_
 _atom_site_type_symbol
 _atom_site_label
 _atom_site_symmetry_multiplicity
 _atom_site_fract_x
 _atom_site_fract_y
 _atom_site_fract_z
 _atom_site_occupancy
  Ho  Ho0  1  0.390130  0.677482  0.854549  1
  Ho  Ho1  1  0.854549  0.390130  0.677482  1
  Ho  Ho2  1  0.677482  0.854549  0.390130  1
  Ho  Ho3  1  0.609870  0.322518  0.145451  1
  Ho  Ho4  1  0.145451  0.609870  0.322518  1
  Ho  Ho5  1  0.322518  0.145451  0.609870  1
  U  U6  1  0.000000  0.000000  0.000000  1
  O  O7  1  0.177618  0.427456  0.587643  1
  O  O8  1  0.587643  0.177618  0.427456  1
  O  O9  1  0.427456  0.587643  0.177618  1
  O  O10  1  0.822382  0.572544  0.412357  1
  O  O11  1  0.412357  0.822382  0.572544  1
  O  O12  1  0.572544  0.412357  0.822382  1
  O  O13  1  0.919546  0.047239  0.690840  1
  O  O14  1  0.952761  0.309160  0.080454  1
  O  O15  1  0.309160  0.080454  0.952761  1
  O  O16  1  0.080454  0.952761  0.309160  1
  O  O17  1  0.047239  0.690840  0.919546  1
  O  O18  1  0.690840  0.919546  0.047239  1
