# generated using pymatgen
data_Mo2Ir4OsRh
_symmetry_space_group_name_H-M   'P 1'
_cell_length_a   5.54393863
_cell_length_b   5.51053899
_cell_length_c   4.42269700
_cell_angle_alpha   90.00000000
_cell_angle_beta   90.00000000
_cell_angle_gamma   119.85043388
_symmetry_Int_Tables_number   1
_chemical_formula_structural   Mo2Ir4OsRh
_chemical_formula_sum   'Mo2 Ir4 Os1 Rh1'
_cell_volume   117.18792892
_cell_formula_units_Z   1
loop_
 _symmetry_equiv_pos_site_id
 _symmetry_equiv_pos_as_xyz
  1  'x, y, z'
loop_
 _atom_site_type_symbol
 _atom_site_label
 _atom_site_symmetry_multiplicity
 _atom_site_fract_x
 _atom_site_fract_y
 _atom_site_fract_z
 _atom_site_occupancy
  Mo  Mo0  1  0.335411  0.667533  0.250000  1
  Mo  Mo1  1  0.664831  0.332065  0.750000  1
  Ir  Ir2  1  0.833175  0.667590  0.250000  1
  Ir  Ir3  1  0.165735  0.833029  0.750000  1
  Ir  Ir4  1  0.333665  0.167787  0.250000  1
  Ir  Ir5  1  0.834710  0.166582  0.250000  1
  Os  Os6  1  0.666925  0.833235  0.750000  1
  Rh  Rh7  1  0.165547  0.332178  0.750000  1
