# generated using pymatgen
data_CsMgGaAs2
_symmetry_space_group_name_H-M   'P 1'
_cell_length_a   8.32188395
_cell_length_b   8.32188411
_cell_length_c   8.32188469
_cell_angle_alpha   149.88827433
_cell_angle_beta   149.88827516
_cell_angle_gamma   43.10543014
_symmetry_Int_Tables_number   1
_chemical_formula_structural   CsMgGaAs2
_chemical_formula_sum   'Cs1 Mg1 Ga1 As2'
_cell_volume   144.67455166
_cell_formula_units_Z   1
loop_
 _symmetry_equiv_pos_site_id
 _symmetry_equiv_pos_as_xyz
  1  'x, y, z'
loop_
 _atom_site_type_symbol
 _atom_site_label
 _atom_site_symmetry_multiplicity
 _atom_site_fract_x
 _atom_site_fract_y
 _atom_site_fract_z
 _atom_site_occupancy
  Cs  Cs0  1  0.000000  0.000000  0.000000  1
  Mg  Mg1  1  0.750000  0.250000  0.500000  1
  Ga  Ga2  1  0.250000  0.750000  0.500000  1
  As  As3  1  0.651602  0.651602  0.000000  1
  As  As4  1  0.348398  0.348398  0.000000  1
