# generated using pymatgen
data_Cs2Ta5NbPbBr18
_symmetry_space_group_name_H-M   'P 1'
_cell_length_a   11.04969542
_cell_length_b   11.04668222
_cell_length_c   11.05235298
_cell_angle_alpha   54.97742963
_cell_angle_beta   54.98769332
_cell_angle_gamma   55.00137809
_symmetry_Int_Tables_number   1
_chemical_formula_structural   Cs2Ta5NbPbBr18
_chemical_formula_sum   'Cs2 Ta5 Nb1 Pb1 Br18'
_cell_volume   842.71208970
_cell_formula_units_Z   1
loop_
 _symmetry_equiv_pos_site_id
 _symmetry_equiv_pos_as_xyz
  1  'x, y, z'
loop_
 _atom_site_type_symbol
 _atom_site_label
 _atom_site_symmetry_multiplicity
 _atom_site_fract_x
 _atom_site_fract_y
 _atom_site_fract_z
 _atom_site_occupancy
  Cs  Cs0  1  0.276830  0.276709  0.276832  1
  Cs  Cs1  1  0.723225  0.723583  0.723105  1
  Ta  Ta2  1  0.361965  0.576429  0.689513  1
  Ta  Ta3  1  0.689568  0.361895  0.576415  1
  Ta  Ta4  1  0.638091  0.423584  0.310419  1
  Ta  Ta5  1  0.576080  0.688777  0.362503  1
  Ta  Ta6  1  0.310476  0.638114  0.423536  1
  Nb  Nb7  1  0.422918  0.308911  0.639138  1
  Pb  Pb8  1  0.000854  0.000138  0.999619  1
  Br  Br9  1  0.640898  0.095025  0.767470  1
  Br  Br10  1  0.767493  0.638856  0.095434  1
  Br  Br11  1  0.096032  0.767106  0.638610  1
  Br  Br12  1  0.825840  0.322570  0.043616  1
  Br  Br13  1  0.168401  0.437585  0.575655  1
  Br  Br14  1  0.677529  0.955960  0.174409  1
  Br  Br15  1  0.903938  0.232832  0.361434  1
  Br  Br16  1  0.564467  0.422993  0.829814  1
  Br  Br17  1  0.422965  0.830261  0.564566  1
  Br  Br18  1  0.956314  0.174339  0.677543  1
  Br  Br19  1  0.174165  0.677916  0.956187  1
  Br  Br20  1  0.043818  0.826115  0.322057  1
  Br  Br21  1  0.320942  0.041464  0.827614  1
  Br  Br22  1  0.231722  0.362796  0.905656  1
  Br  Br23  1  0.578510  0.169890  0.433227  1
  Br  Br24  1  0.435502  0.576951  0.170252  1
  Br  Br25  1  0.361192  0.904603  0.232441  1
  Br  Br26  1  0.830265  0.564597  0.422933  1
