# generated using pymatgen
data_Dy5YTiAl23Os8
_symmetry_space_group_name_H-M   'P 1'
_cell_length_a   8.85067302
_cell_length_b   8.85067309
_cell_length_c   9.55809502
_cell_angle_alpha   90.00567043
_cell_angle_beta   89.99432912
_cell_angle_gamma   120.00367993
_symmetry_Int_Tables_number   1
_chemical_formula_structural   Dy5YTiAl23Os8
_chemical_formula_sum   'Dy5 Y1 Ti1 Al23 Os8'
_cell_volume   648.39321669
_cell_formula_units_Z   1
loop_
 _symmetry_equiv_pos_site_id
 _symmetry_equiv_pos_as_xyz
  1  'x, y, z'
loop_
 _atom_site_type_symbol
 _atom_site_label
 _atom_site_symmetry_multiplicity
 _atom_site_fract_x
 _atom_site_fract_y
 _atom_site_fract_z
 _atom_site_occupancy
  Dy  Dy0  1  0.193811  0.387692  0.250193  1
  Dy  Dy1  1  0.806959  0.614013  0.748267  1
  Dy  Dy2  1  0.612308  0.806189  0.250193  1
  Dy  Dy3  1  0.385987  0.193041  0.748267  1
  Dy  Dy4  1  0.193888  0.806112  0.250211  1
  Y  Y5  1  0.807064  0.192936  0.748440  1
  Ti  Ti6  1  0.333290  0.666710  0.991842  1
  Al  Al7  1  0.666633  0.333367  0.981373  1
  Al  Al8  1  0.666663  0.333337  0.516615  1
  Al  Al9  1  0.333314  0.666686  0.482225  1
  Al  Al10  1  0.162480  0.324912  0.574952  1
  Al  Al11  1  0.837318  0.674512  0.424601  1
  Al  Al12  1  0.675088  0.837520  0.574952  1
  Al  Al13  1  0.836888  0.673698  0.076604  1
  Al  Al14  1  0.325488  0.162682  0.424601  1
  Al  Al15  1  0.159760  0.319343  0.926200  1
  Al  Al16  1  0.162406  0.837594  0.575065  1
  Al  Al17  1  0.326302  0.163112  0.076604  1
  Al  Al18  1  0.837245  0.162755  0.424499  1
  Al  Al19  1  0.680657  0.840240  0.926200  1
  Al  Al20  1  0.836836  0.163164  0.076744  1
  Al  Al21  1  0.159641  0.840359  0.926056  1
  Al  Al22  1  0.561579  0.123140  0.253036  1
  Al  Al23  1  0.440938  0.882115  0.750061  1
  Al  Al24  1  0.876860  0.438421  0.253036  1
  Al  Al25  1  0.117885  0.559062  0.750061  1
  Al  Al26  1  0.561577  0.438423  0.253031  1
  Al  Al27  1  0.441054  0.558946  0.750098  1
  Al  Al28  1  0.000024  0.999976  0.250096  1
  Al  Al29  1  0.000242  0.999758  0.749484  1
  Os  Os30  1  0.498957  0.998087  0.002848  1
  Os  Os31  1  0.001913  0.501043  0.002848  1
  Os  Os32  1  0.499394  0.999049  0.502635  1
  Os  Os33  1  0.499079  0.500921  0.002735  1
  Os  Os34  1  0.000951  0.500606  0.502635  1
  Os  Os35  1  0.499576  0.500424  0.502804  1
  Os  Os36  1  0.999974  0.000026  0.000186  1
  Os  Os37  1  0.999972  0.000028  0.499703  1
