# generated using pymatgen
data_Sc5Pd11
_symmetry_space_group_name_H-M   'P 1'
_cell_length_a   4.11234300
_cell_length_b   5.65734052
_cell_length_c   11.27517800
_cell_angle_alpha   92.41424367
_cell_angle_beta   90.00000000
_cell_angle_gamma   90.00000000
_symmetry_Int_Tables_number   1
_chemical_formula_structural   Sc5Pd11
_chemical_formula_sum   'Sc5 Pd11'
_cell_volume   262.08333217
_cell_formula_units_Z   1
loop_
 _symmetry_equiv_pos_site_id
 _symmetry_equiv_pos_as_xyz
  1  'x, y, z'
loop_
 _atom_site_type_symbol
 _atom_site_label
 _atom_site_symmetry_multiplicity
 _atom_site_fract_x
 _atom_site_fract_y
 _atom_site_fract_z
 _atom_site_occupancy
  Sc  Sc0  1  0.000000  0.000000  0.000000  1
  Sc  Sc1  1  0.500000  0.235347  0.376087  1
  Sc  Sc2  1  0.500000  0.764653  0.623913  1
  Sc  Sc3  1  0.500000  0.692057  0.144104  1
  Sc  Sc4  1  0.500000  0.307943  0.855896  1
  Pd  Pd5  1  0.000000  0.500000  0.500000  1
  Pd  Pd6  1  0.500000  0.207955  0.114364  1
  Pd  Pd7  1  0.500000  0.792045  0.885636  1
  Pd  Pd8  1  0.500000  0.737109  0.378316  1
  Pd  Pd9  1  0.500000  0.262891  0.621684  1
  Pd  Pd10  1  0.000000  0.000000  0.500000  1
  Pd  Pd11  1  0.000000  0.500000  0.000000  1
  Pd  Pd12  1  0.000000  0.963554  0.246221  1
  Pd  Pd13  1  0.000000  0.036446  0.753779  1
  Pd  Pd14  1  0.000000  0.463352  0.249912  1
  Pd  Pd15  1  0.000000  0.536648  0.750088  1
