# generated using pymatgen
data_YHo2Ga8Ag3
_symmetry_space_group_name_H-M   'P 1'
_cell_length_a   4.34201319
_cell_length_b   8.35180000
_cell_length_c   8.35180015
_cell_angle_alpha   69.91692281
_cell_angle_beta   74.93321929
_cell_angle_gamma   74.93321450
_symmetry_Int_Tables_number   1
_chemical_formula_structural   YHo2Ga8Ag3
_chemical_formula_sum   'Y1 Ho2 Ga8 Ag3'
_cell_volume   269.76411116
_cell_formula_units_Z   1
loop_
 _symmetry_equiv_pos_site_id
 _symmetry_equiv_pos_as_xyz
  1  'x, y, z'
loop_
 _atom_site_type_symbol
 _atom_site_label
 _atom_site_symmetry_multiplicity
 _atom_site_fract_x
 _atom_site_fract_y
 _atom_site_fract_z
 _atom_site_occupancy
  Y  Y0  1  0.000000  0.000000  0.000000  1
  Ho  Ho1  1  0.299732  0.700268  0.700268  1
  Ho  Ho2  1  0.700268  0.299732  0.299732  1
  Ga  Ga3  1  0.341096  0.289802  0.028005  1
  Ga  Ga4  1  0.658904  0.710198  0.971995  1
  Ga  Ga5  1  0.341096  0.028005  0.289802  1
  Ga  Ga6  1  0.658904  0.971995  0.710198  1
  Ga  Ga7  1  0.142975  0.575790  0.138261  1
  Ga  Ga8  1  0.857025  0.424210  0.861739  1
  Ga  Ga9  1  0.142975  0.138261  0.575790  1
  Ga  Ga10  1  0.857025  0.861739  0.424210  1
  Ag  Ag11  1  0.500000  0.306932  0.693068  1
  Ag  Ag12  1  0.500000  0.693068  0.306932  1
  Ag  Ag13  1  0.000000  0.500000  0.500000  1
