# generated using pymatgen
data_HoBi3Pb4F28
_symmetry_space_group_name_H-M   'P 1'
_cell_length_a   5.82920211
_cell_length_b   9.28775977
_cell_length_c   12.43315000
_cell_angle_alpha   62.08161722
_cell_angle_beta   90.01111671
_cell_angle_gamma   89.99881395
_symmetry_Int_Tables_number   1
_chemical_formula_structural   HoBi3Pb4F28
_chemical_formula_sum   'Ho1 Bi3 Pb4 F28'
_cell_volume   594.79122347
_cell_formula_units_Z   1
loop_
 _symmetry_equiv_pos_site_id
 _symmetry_equiv_pos_as_xyz
  1  'x, y, z'
loop_
 _atom_site_type_symbol
 _atom_site_label
 _atom_site_symmetry_multiplicity
 _atom_site_fract_x
 _atom_site_fract_y
 _atom_site_fract_z
 _atom_site_occupancy
  Ho  Ho0  1  0.757338  0.813257  0.765517  1
  Bi  Bi1  1  0.741187  0.815198  0.264355  1
  Bi  Bi2  1  0.240990  0.182619  0.235419  1
  Bi  Bi3  1  0.258375  0.178095  0.735267  1
  Pb  Pb4  1  0.744475  0.269295  0.458317  1
  Pb  Pb5  1  0.244107  0.726699  0.039874  1
  Pb  Pb6  1  0.256994  0.727284  0.547382  1
  Pb  Pb7  1  0.756338  0.277229  0.954385  1
  F  F8  1  0.468012  0.708859  0.914118  1
  F  F9  1  0.958993  0.293391  0.584094  1
  F  F10  1  0.542290  0.295497  0.082580  1
  F  F11  1  0.039759  0.709030  0.419598  1
  F  F12  1  0.437841  0.281396  0.544550  1
  F  F13  1  0.943057  0.719705  0.946950  1
  F  F14  1  0.558692  0.719526  0.455579  1
  F  F15  1  0.060283  0.285722  0.043217  1
  F  F16  1  0.768092  0.531934  0.853596  1
  F  F17  1  0.271451  0.476128  0.646503  1
  F  F18  1  0.226570  0.475263  0.142455  1
  F  F19  1  0.727889  0.522476  0.356867  1
  F  F20  1  0.761218  0.020171  0.056198  1
  F  F21  1  0.260124  0.982478  0.445963  1
  F  F22  1  0.239003  0.982481  0.943862  1
  F  F23  1  0.740901  0.014124  0.560412  1
  F  F24  1  0.978507  0.733354  0.653319  1
  F  F25  1  0.473407  0.269923  0.853408  1
  F  F26  1  0.030147  0.270011  0.354816  1
  F  F27  1  0.527490  0.729388  0.143859  1
  F  F28  1  0.041304  0.745142  0.173810  1
  F  F29  1  0.545683  0.251202  0.323235  1
  F  F30  1  0.956732  0.256204  0.822038  1
  F  F31  1  0.467015  0.749363  0.678001  1
  F  F32  1  0.412757  0.966421  0.233057  1
  F  F33  1  0.912938  0.032392  0.266604  1
  F  F34  1  0.578645  0.021953  0.765083  1
  F  F35  1  0.071394  0.966790  0.735712  1
