# generated using pymatgen
data_LaTh7Zn8(RuRh3)2
_symmetry_space_group_name_H-M   'P 1'
_cell_length_a   3.95762000
_cell_length_b   7.51836926
_cell_length_c   16.56857706
_cell_angle_alpha   89.56224682
_cell_angle_beta   90.00000000
_cell_angle_gamma   90.00000000
_symmetry_Int_Tables_number   1
_chemical_formula_structural   LaTh7Zn8(RuRh3)2
_chemical_formula_sum   'La1 Th7 Zn8 Ru2 Rh6'
_cell_volume   492.98111243
_cell_formula_units_Z   1
loop_
 _symmetry_equiv_pos_site_id
 _symmetry_equiv_pos_as_xyz
  1  'x, y, z'
loop_
 _atom_site_type_symbol
 _atom_site_label
 _atom_site_symmetry_multiplicity
 _atom_site_fract_x
 _atom_site_fract_y
 _atom_site_fract_z
 _atom_site_occupancy
  La  La0  1  0.750000  0.944476  0.285555  1
  Th  Th1  1  0.750000  0.325447  0.437785  1
  Th  Th2  1  0.250000  0.064055  0.716570  1
  Th  Th3  1  0.250000  0.556015  0.785485  1
  Th  Th4  1  0.250000  0.673538  0.560140  1
  Th  Th5  1  0.750000  0.823670  0.060012  1
  Th  Th6  1  0.250000  0.174808  0.937541  1
  Th  Th7  1  0.750000  0.437029  0.216315  1
  Zn  Zn8  1  0.250000  0.113565  0.152876  1
  Zn  Zn9  1  0.250000  0.998287  0.440601  1
  Zn  Zn10  1  0.750000  0.886902  0.847485  1
  Zn  Zn11  1  0.750000  0.005810  0.560097  1
  Zn  Zn12  1  0.250000  0.490941  0.058037  1
  Zn  Zn13  1  0.750000  0.387068  0.653355  1
  Zn  Zn14  1  0.750000  0.503099  0.940509  1
  Zn  Zn15  1  0.250000  0.615151  0.348429  1
  Ru  Ru16  1  0.750000  0.258321  0.815137  1
  Ru  Ru17  1  0.250000  0.258453  0.315469  1
  Rh  Rh18  1  0.250000  0.753982  0.937534  1
  Rh  Rh19  1  0.250000  0.257123  0.562292  1
  Rh  Rh20  1  0.250000  0.728702  0.180285  1
  Rh  Rh21  1  0.750000  0.743825  0.441106  1
  Rh  Rh22  1  0.750000  0.239772  0.061039  1
  Rh  Rh23  1  0.750000  0.759961  0.686345  1
