# generated using pymatgen
data_Sc8V12Si15Sn
_symmetry_space_group_name_H-M   'P 1'
_cell_length_a   6.51275226
_cell_length_b   6.65380994
_cell_length_c   12.67341511
_cell_angle_alpha   90.09272953
_cell_angle_beta   90.19421203
_cell_angle_gamma   89.87735481
_symmetry_Int_Tables_number   1
_chemical_formula_structural   Sc8V12Si15Sn
_chemical_formula_sum   'Sc8 V12 Si15 Sn1'
_cell_volume   549.19244763
_cell_formula_units_Z   1
loop_
 _symmetry_equiv_pos_site_id
 _symmetry_equiv_pos_as_xyz
  1  'x, y, z'
loop_
 _atom_site_type_symbol
 _atom_site_label
 _atom_site_symmetry_multiplicity
 _atom_site_fract_x
 _atom_site_fract_y
 _atom_site_fract_z
 _atom_site_occupancy
  Sc  Sc0  1  0.003069  0.172305  0.093515  1
  Sc  Sc1  1  0.496024  0.323637  0.398572  1
  Sc  Sc2  1  0.496576  0.670977  0.907555  1
  Sc  Sc3  1  0.998987  0.836460  0.596106  1
  Sc  Sc4  1  0.997928  0.829056  0.907800  1
  Sc  Sc5  1  0.481312  0.681202  0.598892  1
  Sc  Sc6  1  0.504399  0.329478  0.094217  1
  Sc  Sc7  1  0.008457  0.166131  0.400057  1
  V  V8  1  0.666821  0.990104  0.249191  1
  V  V9  1  0.165109  0.511543  0.248456  1
  V  V10  1  0.836210  0.486589  0.759192  1
  V  V11  1  0.336703  0.010640  0.749713  1
  V  V12  1  0.837514  0.671130  0.125606  1
  V  V13  1  0.338806  0.831943  0.370986  1
  V  V14  1  0.663585  0.171014  0.875257  1
  V  V15  1  0.172935  0.326901  0.629074  1
  V  V16  1  0.160869  0.329755  0.874740  1
  V  V17  1  0.647366  0.152183  0.633425  1
  V  V18  1  0.340912  0.827593  0.124381  1
  V  V19  1  0.843563  0.680776  0.366923  1
  Si  Si20  1  0.802830  0.367552  0.248646  1
  Si  Si21  1  0.303067  0.132293  0.245738  1
  Si  Si22  1  0.701119  0.859612  0.753747  1
  Si  Si23  1  0.194613  0.633720  0.752099  1
  Si  Si24  1  0.042675  0.877225  0.245286  1
  Si  Si25  1  0.539979  0.625285  0.248559  1
  Si  Si26  1  0.462165  0.377740  0.753194  1
  Si  Si27  1  0.960767  0.124617  0.751194  1
  Si  Si28  1  0.833486  0.460607  0.960753  1
  Si  Si29  1  0.330755  0.042208  0.537822  1
  Si  Si30  1  0.667860  0.961361  0.041731  1
  Si  Si31  1  0.175777  0.543130  0.455939  1
  Si  Si32  1  0.167018  0.538973  0.042149  1
  Si  Si33  1  0.667605  0.959235  0.459395  1
  Si  Si34  1  0.334406  0.040252  0.958269  1
  Sn  Sn35  1  0.818730  0.456773  0.541825  1
