# generated using pymatgen
data_LaTbLu2(NiAs)4
_symmetry_space_group_name_H-M   'P 1'
_cell_length_a   4.05144200
_cell_length_b   4.05144227
_cell_length_c   15.60923800
_cell_angle_alpha   90.00000000
_cell_angle_beta   90.00000000
_cell_angle_gamma   119.99999784
_symmetry_Int_Tables_number   1
_chemical_formula_structural   LaTbLu2(NiAs)4
_chemical_formula_sum   'La1 Tb1 Lu2 Ni4 As4'
_cell_volume   221.88688028
_cell_formula_units_Z   1
loop_
 _symmetry_equiv_pos_site_id
 _symmetry_equiv_pos_as_xyz
  1  'x, y, z'
loop_
 _atom_site_type_symbol
 _atom_site_label
 _atom_site_symmetry_multiplicity
 _atom_site_fract_x
 _atom_site_fract_y
 _atom_site_fract_z
 _atom_site_occupancy
  La  La0  1  0.000000  0.000000  0.500000  1
  Tb  Tb1  1  0.000000  0.000000  0.000000  1
  Lu  Lu2  1  0.000000  0.000000  0.244082  1
  Lu  Lu3  1  0.000000  0.000000  0.755918  1
  Ni  Ni4  1  0.333333  0.666667  0.138311  1
  Ni  Ni5  1  0.666667  0.333333  0.861689  1
  Ni  Ni6  1  0.666667  0.333333  0.648959  1
  Ni  Ni7  1  0.333333  0.666667  0.351041  1
  As  As8  1  0.333333  0.666667  0.631285  1
  As  As9  1  0.666667  0.333333  0.368715  1
  As  As10  1  0.666667  0.333333  0.119228  1
  As  As11  1  0.333333  0.666667  0.880772  1
