# generated using pymatgen
data_Nd8Cd2RuAu
_symmetry_space_group_name_H-M   'P 1'
_cell_length_a   10.01548090
_cell_length_b   10.01548129
_cell_length_c   9.97400600
_cell_angle_alpha   60.13688619
_cell_angle_beta   60.13688490
_cell_angle_gamma   60.48324997
_symmetry_Int_Tables_number   1
_chemical_formula_structural   Nd8Cd2RuAu
_chemical_formula_sum   'Nd16 Cd4 Ru2 Au2'
_cell_volume   711.47782962
_cell_formula_units_Z   2
loop_
 _symmetry_equiv_pos_site_id
 _symmetry_equiv_pos_as_xyz
  1  'x, y, z'
loop_
 _atom_site_type_symbol
 _atom_site_label
 _atom_site_symmetry_multiplicity
 _atom_site_fract_x
 _atom_site_fract_y
 _atom_site_fract_z
 _atom_site_occupancy
  Nd  Nd0  1  0.898027  0.898027  0.909242  1
  Nd  Nd1  1  0.438372  0.438372  0.061628  1
  Nd  Nd2  1  0.055874  0.055874  0.444126  1
  Nd  Nd3  1  0.451859  0.058587  0.058889  1
  Nd  Nd4  1  0.309761  0.683829  0.315281  1
  Nd  Nd5  1  0.684961  0.684961  0.315039  1
  Nd  Nd6  1  0.683829  0.309761  0.315281  1
  Nd  Nd7  1  0.312550  0.883625  0.901914  1
  Nd  Nd8  1  0.883625  0.312550  0.901914  1
  Nd  Nd9  1  0.309761  0.683829  0.691130  1
  Nd  Nd10  1  0.898027  0.898027  0.294705  1
  Nd  Nd11  1  0.058587  0.451859  0.058889  1
  Nd  Nd12  1  0.310325  0.310325  0.689675  1
  Nd  Nd13  1  0.058587  0.451859  0.430665  1
  Nd  Nd14  1  0.451859  0.058587  0.430665  1
  Nd  Nd15  1  0.683829  0.309761  0.691130  1
  Cd  Cd16  1  0.669857  0.669857  0.992623  1
  Cd  Cd17  1  0.990331  0.671183  0.669242  1
  Cd  Cd18  1  0.671183  0.990331  0.669242  1
  Cd  Cd19  1  0.669857  0.669857  0.667662  1
  Ru  Ru20  1  0.111580  0.677172  0.105624  1
  Ru  Ru21  1  0.677172  0.111580  0.105624  1
  Au  Au22  1  0.110096  0.110096  0.681055  1
  Au  Au23  1  0.110096  0.110096  0.098753  1
