# generated using pymatgen
data_Ti11NbSn9Pd
_symmetry_space_group_name_H-M   'P 1'
_cell_length_a   9.29135961
_cell_length_b   9.29135940
_cell_length_c   5.68594680
_cell_angle_alpha   90.34142239
_cell_angle_beta   89.65857909
_cell_angle_gamma   120.22365700
_symmetry_Int_Tables_number   1
_chemical_formula_structural   Ti11NbSn9Pd
_chemical_formula_sum   'Ti11 Nb1 Sn9 Pd1'
_cell_volume   424.12951866
_cell_formula_units_Z   1
loop_
 _symmetry_equiv_pos_site_id
 _symmetry_equiv_pos_as_xyz
  1  'x, y, z'
loop_
 _atom_site_type_symbol
 _atom_site_label
 _atom_site_symmetry_multiplicity
 _atom_site_fract_x
 _atom_site_fract_y
 _atom_site_fract_z
 _atom_site_occupancy
  Ti  Ti0  1  0.843910  0.689742  0.751531  1
  Ti  Ti1  1  0.155465  0.844535  0.252705  1
  Ti  Ti2  1  0.689742  0.843910  0.248469  1
  Ti  Ti3  1  0.310258  0.156090  0.751531  1
  Ti  Ti4  1  0.844535  0.155465  0.747295  1
  Ti  Ti5  1  0.156090  0.310258  0.248469  1
  Ti  Ti6  1  0.500000  0.000000  0.500000  1
  Ti  Ti7  1  0.000000  0.500000  0.000000  1
  Ti  Ti8  1  0.000000  0.500000  0.500000  1
  Ti  Ti9  1  0.500000  0.000000  0.000000  1
  Ti  Ti10  1  0.500000  0.500000  0.500000  1
  Nb  Nb11  1  0.500000  0.500000  0.000000  1
  Sn  Sn12  1  0.197182  0.398790  0.746602  1
  Sn  Sn13  1  0.799635  0.200365  0.248481  1
  Sn  Sn14  1  0.398790  0.197182  0.253398  1
  Sn  Sn15  1  0.601210  0.802818  0.746602  1
  Sn  Sn16  1  0.200365  0.799635  0.751519  1
  Sn  Sn17  1  0.802818  0.601210  0.253398  1
  Sn  Sn18  1  0.667289  0.332711  0.749718  1
  Sn  Sn19  1  0.332711  0.667289  0.250282  1
  Sn  Sn20  1  0.000000  0.000000  0.000000  1
  Pd  Pd21  1  0.000000  0.000000  0.500000  1
