# generated using pymatgen
data_La3Zn3Co2
_symmetry_space_group_name_H-M   'P 1'
_cell_length_a   8.71335719
_cell_length_b   8.71335720
_cell_length_c   5.08494979
_cell_angle_alpha   99.36530432
_cell_angle_beta   99.36530502
_cell_angle_gamma   27.68996859
_symmetry_Int_Tables_number   1
_chemical_formula_structural   La3Zn3Co2
_chemical_formula_sum   'La3 Zn3 Co2'
_cell_volume   176.86076287
_cell_formula_units_Z   1
loop_
 _symmetry_equiv_pos_site_id
 _symmetry_equiv_pos_as_xyz
  1  'x, y, z'
loop_
 _atom_site_type_symbol
 _atom_site_label
 _atom_site_symmetry_multiplicity
 _atom_site_fract_x
 _atom_site_fract_y
 _atom_site_fract_z
 _atom_site_occupancy
  La  La0  1  0.000000  0.000000  0.000000  1
  La  La1  1  0.837494  0.837494  0.419715  1
  La  La2  1  0.162506  0.162506  0.580286  1
  Zn  Zn3  1  0.641742  0.641742  0.066963  1
  Zn  Zn4  1  0.500000  0.500000  0.499999  1
  Zn  Zn5  1  0.358258  0.358258  0.933038  1
  Co  Co6  1  0.219687  0.219687  0.061229  1
  Co  Co7  1  0.780313  0.780313  0.938772  1
