# generated using pymatgen
data_Rb4Mg5MnSe8
_symmetry_space_group_name_H-M   'P 1'
_cell_length_a   9.87133986
_cell_length_b   9.88333353
_cell_length_c   9.87134000
_cell_angle_alpha   142.93802688
_cell_angle_beta   105.35820633
_cell_angle_gamma   86.34612649
_symmetry_Int_Tables_number   1
_chemical_formula_structural   Rb4Mg5MnSe8
_chemical_formula_sum   'Rb4 Mg5 Mn1 Se8'
_cell_volume   541.33427975
_cell_formula_units_Z   1
loop_
 _symmetry_equiv_pos_site_id
 _symmetry_equiv_pos_as_xyz
  1  'x, y, z'
loop_
 _atom_site_type_symbol
 _atom_site_label
 _atom_site_symmetry_multiplicity
 _atom_site_fract_x
 _atom_site_fract_y
 _atom_site_fract_z
 _atom_site_occupancy
  Rb  Rb0  1  0.122539  0.238610  0.360686  1
  Rb  Rb1  1  0.377299  0.735949  0.112645  1
  Rb  Rb2  1  0.622076  0.261390  0.883928  1
  Rb  Rb3  1  0.876695  0.764051  0.641350  1
  Mg  Mg4  1  0.978396  0.750000  0.228396  1
  Mg  Mg5  1  0.478713  0.250000  0.228713  1
  Mg  Mg6  1  0.749242  0.250000  0.499242  1
  Mg  Mg7  1  0.250827  0.750000  0.500827  1
  Mg  Mg8  1  0.022692  0.250000  0.772692  1
  Mn  Mn9  1  0.520289  0.750000  0.770289  1
  Se  Se10  1  0.222193  0.075148  0.587751  1
  Se  Se11  1  0.280873  0.865850  0.854184  1
  Se  Se12  1  0.012603  0.424852  0.147045  1
  Se  Se13  1  0.488335  0.634150  0.415023  1
  Se  Se14  1  0.778673  0.924724  0.412735  1
  Se  Se15  1  0.718684  0.127257  0.139117  1
  Se  Se16  1  0.988011  0.575276  0.853949  1
  Se  Se17  1  0.511861  0.372743  0.591427  1
