# generated using pymatgen
data_Pr3Y(Ga5Pd3)2
_symmetry_space_group_name_H-M   'P 1'
_cell_length_a   8.74645057
_cell_length_b   8.74471273
_cell_length_c   8.74471300
_cell_angle_alpha   140.64524371
_cell_angle_beta   107.86880139
_cell_angle_gamma   85.40464651
_symmetry_Int_Tables_number   1
_chemical_formula_structural   Pr3Y(Ga5Pd3)2
_chemical_formula_sum   'Pr3 Y1 Ga10 Pd6'
_cell_volume   389.74383882
_cell_formula_units_Z   1
loop_
 _symmetry_equiv_pos_site_id
 _symmetry_equiv_pos_as_xyz
  1  'x, y, z'
loop_
 _atom_site_type_symbol
 _atom_site_label
 _atom_site_symmetry_multiplicity
 _atom_site_fract_x
 _atom_site_fract_y
 _atom_site_fract_z
 _atom_site_occupancy
  Pr  Pr0  1  0.636851  0.862324  0.774525  1
  Pr  Pr1  1  0.363396  0.137751  0.225645  1
  Pr  Pr2  1  0.087619  0.361976  0.725642  1
  Y  Y3  1  0.913206  0.638385  0.274820  1
  Ga  Ga4  1  0.288836  0.039568  0.749470  1
  Ga  Ga5  1  0.710672  0.958869  0.250250  1
  Ga  Ga6  1  0.710672  0.460422  0.751803  1
  Ga  Ga7  1  0.288836  0.539365  0.249267  1
  Ga  Ga8  1  0.431884  0.596891  0.834993  1
  Ga  Ga9  1  0.569072  0.403985  0.165086  1
  Ga  Ga10  1  0.762944  0.097207  0.665736  1
  Ga  Ga11  1  0.238722  0.902802  0.335920  1
  Ga  Ga12  1  0.999391  0.749958  0.748398  1
  Ga  Ga13  1  0.999391  0.250992  0.249433  1
  Pd  Pd14  1  0.239086  0.643786  0.595302  1
  Pd  Pd15  1  0.759411  0.355715  0.403695  1
  Pd  Pd16  1  0.045525  0.143758  0.901767  1
  Pd  Pd17  1  0.952900  0.855647  0.097253  1
  Pd  Pd18  1  0.500794  0.750176  0.250377  1
  Pd  Pd19  1  0.500794  0.250417  0.750618  1
