# generated using pymatgen
data_Sc6Ta4Al12Ir6Ru
_symmetry_space_group_name_H-M   'P 1'
_cell_length_a   8.84723589
_cell_length_b   8.84723685
_cell_length_c   8.84723600
_cell_angle_alpha   60.00000318
_cell_angle_beta   59.99999958
_cell_angle_gamma   60.00000331
_symmetry_Int_Tables_number   1
_chemical_formula_structural   Sc6Ta4Al12Ir6Ru
_chemical_formula_sum   'Sc6 Ta4 Al12 Ir6 Ru1'
_cell_volume   489.67495826
_cell_formula_units_Z   1
loop_
 _symmetry_equiv_pos_site_id
 _symmetry_equiv_pos_as_xyz
  1  'x, y, z'
loop_
 _atom_site_type_symbol
 _atom_site_label
 _atom_site_symmetry_multiplicity
 _atom_site_fract_x
 _atom_site_fract_y
 _atom_site_fract_z
 _atom_site_occupancy
  Sc  Sc0  1  0.699734  0.699734  0.300266  1
  Sc  Sc1  1  0.300266  0.699734  0.300266  1
  Sc  Sc2  1  0.699734  0.300266  0.300266  1
  Sc  Sc3  1  0.300266  0.300266  0.699734  1
  Sc  Sc4  1  0.699734  0.300266  0.699734  1
  Sc  Sc5  1  0.300266  0.699734  0.699734  1
  Ta  Ta6  1  0.879289  0.879289  0.362135  1
  Ta  Ta7  1  0.879289  0.362135  0.879289  1
  Ta  Ta8  1  0.362135  0.879289  0.879289  1
  Ta  Ta9  1  0.879289  0.879289  0.879289  1
  Al  Al10  1  0.119813  0.119813  0.640559  1
  Al  Al11  1  0.119813  0.640559  0.119813  1
  Al  Al12  1  0.640559  0.119813  0.119813  1
  Al  Al13  1  0.119813  0.119813  0.119813  1
  Al  Al14  1  0.656426  0.656426  0.030724  1
  Al  Al15  1  0.656426  0.030724  0.656426  1
  Al  Al16  1  0.030724  0.656426  0.656426  1
  Al  Al17  1  0.656426  0.656426  0.656426  1
  Al  Al18  1  0.332132  0.332132  0.003604  1
  Al  Al19  1  0.332132  0.003604  0.332132  1
  Al  Al20  1  0.003604  0.332132  0.332132  1
  Al  Al21  1  0.332132  0.332132  0.332132  1
  Ir  Ir22  1  0.997408  0.997408  0.502592  1
  Ir  Ir23  1  0.502592  0.997408  0.502592  1
  Ir  Ir24  1  0.997408  0.502592  0.502592  1
  Ir  Ir25  1  0.502592  0.502592  0.997408  1
  Ir  Ir26  1  0.997408  0.502592  0.997408  1
  Ir  Ir27  1  0.502592  0.997408  0.997408  1
  Ru  Ru28  1  0.000000  0.000000  0.000000  1
