# generated using pymatgen
data_TbPrEr2(WN3)4
_symmetry_space_group_name_H-M   'P 1'
_cell_length_a   7.28546797
_cell_length_b   7.28546839
_cell_length_c   6.21709200
_cell_angle_alpha   75.62275216
_cell_angle_beta   75.62276755
_cell_angle_gamma   82.94216745
_symmetry_Int_Tables_number   1
_chemical_formula_structural   TbPrEr2(WN3)4
_chemical_formula_sum   'Tb1 Pr1 Er2 W4 N12'
_cell_volume   308.98572935
_cell_formula_units_Z   1
loop_
 _symmetry_equiv_pos_site_id
 _symmetry_equiv_pos_as_xyz
  1  'x, y, z'
loop_
 _atom_site_type_symbol
 _atom_site_label
 _atom_site_symmetry_multiplicity
 _atom_site_fract_x
 _atom_site_fract_y
 _atom_site_fract_z
 _atom_site_occupancy
  Tb  Tb0  1  0.297813  0.702187  0.250000  1
  Pr  Pr1  1  0.696190  0.303810  0.750000  1
  Er  Er2  1  0.089158  0.910842  0.750000  1
  Er  Er3  1  0.914367  0.085633  0.250000  1
  W  W4  1  0.380562  0.198336  0.251427  1
  W  W5  1  0.617332  0.801651  0.751625  1
  W  W6  1  0.801664  0.619438  0.248573  1
  W  W7  1  0.198349  0.382668  0.748375  1
  N  N8  1  0.622127  0.107281  0.166143  1
  N  N9  1  0.367442  0.350639  0.470780  1
  N  N10  1  0.005901  0.213593  0.854873  1
  N  N11  1  0.376433  0.894092  0.842945  1
  N  N12  1  0.786407  0.994099  0.645127  1
  N  N13  1  0.105908  0.623567  0.657055  1
  N  N14  1  0.892719  0.377873  0.333856  1
  N  N15  1  0.633048  0.654952  0.525660  1
  N  N16  1  0.649361  0.632558  0.029220  1
  N  N17  1  0.345048  0.366952  0.974340  1
  N  N18  1  0.001681  0.781507  0.146346  1
  N  N19  1  0.218493  0.998319  0.353654  1
