# generated using pymatgen
data_Li2Tb8Sc9Si16Tc
_symmetry_space_group_name_H-M   'P 1'
_cell_length_a   6.96006400
_cell_length_b   7.35033708
_cell_length_c   13.99369800
_cell_angle_alpha   90.00000000
_cell_angle_beta   90.00000000
_cell_angle_gamma   90.10089602
_symmetry_Int_Tables_number   1
_chemical_formula_structural   Li2Tb8Sc9Si16Tc
_chemical_formula_sum   'Li2 Tb8 Sc9 Si16 Tc1'
_cell_volume   715.89991806
_cell_formula_units_Z   1
loop_
 _symmetry_equiv_pos_site_id
 _symmetry_equiv_pos_as_xyz
  1  'x, y, z'
loop_
 _atom_site_type_symbol
 _atom_site_label
 _atom_site_symmetry_multiplicity
 _atom_site_fract_x
 _atom_site_fract_y
 _atom_site_fract_z
 _atom_site_occupancy
  Li  Li0  1  0.842439  0.495839  0.250000  1
  Li  Li1  1  0.341582  0.004528  0.250000  1
  Tb  Tb2  1  0.015691  0.182134  0.097178  1
  Tb  Tb3  1  0.992384  0.819756  0.900458  1
  Tb  Tb4  1  0.487117  0.672311  0.901797  1
  Tb  Tb5  1  0.992384  0.819756  0.599542  1
  Tb  Tb6  1  0.515595  0.319317  0.099000  1
  Tb  Tb7  1  0.015691  0.182134  0.402822  1
  Tb  Tb8  1  0.515595  0.319317  0.401000  1
  Tb  Tb9  1  0.487117  0.672311  0.598203  1
  Sc  Sc10  1  0.658454  0.997152  0.750000  1
  Sc  Sc11  1  0.324991  0.178871  0.627063  1
  Sc  Sc12  1  0.669485  0.823110  0.373769  1
  Sc  Sc13  1  0.170470  0.677168  0.375322  1
  Sc  Sc14  1  0.669485  0.823110  0.126231  1
  Sc  Sc15  1  0.827750  0.329670  0.628105  1
  Sc  Sc16  1  0.324991  0.178871  0.872937  1
  Sc  Sc17  1  0.827750  0.329670  0.871895  1
  Sc  Sc18  1  0.170470  0.677168  0.124678  1
  Si  Si19  1  0.030003  0.122469  0.750000  1
  Si  Si20  1  0.969695  0.892627  0.250000  1
  Si  Si21  1  0.468196  0.606020  0.250000  1
  Si  Si22  1  0.518939  0.393671  0.750000  1
  Si  Si23  1  0.285861  0.865957  0.750000  1
  Si  Si24  1  0.721654  0.118985  0.250000  1
  Si  Si25  1  0.218160  0.382037  0.250000  1
  Si  Si26  1  0.794862  0.626184  0.750000  1
  Si  Si27  1  0.152108  0.464955  0.545914  1
  Si  Si28  1  0.842146  0.538232  0.465608  1
  Si  Si29  1  0.344952  0.961747  0.465974  1
  Si  Si30  1  0.842146  0.538232  0.034392  1
  Si  Si31  1  0.656539  0.034144  0.539360  1
  Si  Si32  1  0.152108  0.464955  0.954086  1
  Si  Si33  1  0.656539  0.034144  0.960640  1
  Si  Si34  1  0.344952  0.961747  0.034026  1
  Tc  Tc35  1  0.151701  0.491701  0.750000  1
