# generated using pymatgen
data_RbCe(CuSb)2
_symmetry_space_group_name_H-M   'P 1'
_cell_length_a   4.51136200
_cell_length_b   9.59757380
_cell_length_c   7.79334751
_cell_angle_alpha   90.39179614
_cell_angle_beta   90.00000000
_cell_angle_gamma   90.00000000
_symmetry_Int_Tables_number   1
_chemical_formula_structural   RbCe(CuSb)2
_chemical_formula_sum   'Rb2 Ce2 Cu4 Sb4'
_cell_volume   337.42948249
_cell_formula_units_Z   2
loop_
 _symmetry_equiv_pos_site_id
 _symmetry_equiv_pos_as_xyz
  1  'x, y, z'
loop_
 _atom_site_type_symbol
 _atom_site_label
 _atom_site_symmetry_multiplicity
 _atom_site_fract_x
 _atom_site_fract_y
 _atom_site_fract_z
 _atom_site_occupancy
  Rb  Rb0  1  0.250000  0.499393  0.250230  1
  Rb  Rb1  1  0.750000  0.500607  0.749770  1
  Ce  Ce2  1  0.250000  0.000004  0.250227  1
  Ce  Ce3  1  0.750000  0.999996  0.749773  1
  Cu  Cu4  1  0.250000  0.817819  0.580757  1
  Cu  Cu5  1  0.750000  0.182181  0.419243  1
  Cu  Cu6  1  0.250000  0.182192  0.917905  1
  Cu  Cu7  1  0.750000  0.817808  0.082095  1
  Sb  Sb8  1  0.750000  0.791000  0.415206  1
  Sb  Sb9  1  0.250000  0.209000  0.584794  1
  Sb  Sb10  1  0.750000  0.207825  0.084856  1
  Sb  Sb11  1  0.250000  0.792175  0.915144  1
