# generated using pymatgen
data_V11TcOs4
_symmetry_space_group_name_H-M   'P 1'
_cell_length_a   5.97976838
_cell_length_b   5.97976875
_cell_length_c   5.97976900
_cell_angle_alpha   89.96113701
_cell_angle_beta   89.96113701
_cell_angle_gamma   89.96113940
_symmetry_Int_Tables_number   1
_chemical_formula_structural   V11TcOs4
_chemical_formula_sum   'V11 Tc1 Os4'
_cell_volume   213.82223221
_cell_formula_units_Z   1
loop_
 _symmetry_equiv_pos_site_id
 _symmetry_equiv_pos_as_xyz
  1  'x, y, z'
loop_
 _atom_site_type_symbol
 _atom_site_label
 _atom_site_symmetry_multiplicity
 _atom_site_fract_x
 _atom_site_fract_y
 _atom_site_fract_z
 _atom_site_occupancy
  V  V0  1  0.998699  0.998699  0.998699  1
  V  V1  1  0.501272  0.998768  0.998768  1
  V  V2  1  0.998768  0.501272  0.998768  1
  V  V3  1  0.501237  0.501237  0.998733  1
  V  V4  1  0.749967  0.749967  0.250032  1
  V  V5  1  0.998768  0.998768  0.501272  1
  V  V6  1  0.501237  0.998733  0.501237  1
  V  V7  1  0.998733  0.501237  0.501237  1
  V  V8  1  0.501286  0.501286  0.501286  1
  V  V9  1  0.749967  0.250032  0.749967  1
  V  V10  1  0.250032  0.749967  0.749967  1
  Tc  Tc11  1  0.250027  0.250027  0.250027  1
  Os  Os12  1  0.750022  0.249989  0.249989  1
  Os  Os13  1  0.249989  0.750022  0.249989  1
  Os  Os14  1  0.249989  0.249989  0.750022  1
  Os  Os15  1  0.750009  0.750009  0.750009  1
