# generated using pymatgen
data_La8Tl3In3Au20
_symmetry_space_group_name_H-M   'P 1'
_cell_length_a   8.89255779
_cell_length_b   8.89256045
_cell_length_c   10.50008700
_cell_angle_alpha   90.07081628
_cell_angle_beta   89.92918370
_cell_angle_gamma   108.46471852
_symmetry_Int_Tables_number   1
_chemical_formula_structural   La8Tl3In3Au20
_chemical_formula_sum   'La8 Tl3 In3 Au20'
_cell_volume   787.57494029
_cell_formula_units_Z   1
loop_
 _symmetry_equiv_pos_site_id
 _symmetry_equiv_pos_as_xyz
  1  'x, y, z'
loop_
 _atom_site_type_symbol
 _atom_site_label
 _atom_site_symmetry_multiplicity
 _atom_site_fract_x
 _atom_site_fract_y
 _atom_site_fract_z
 _atom_site_occupancy
  La  La0  1  0.704074  0.296371  0.000620  1
  La  La1  1  0.202072  0.795738  0.499145  1
  La  La2  1  0.799729  0.800668  0.297442  1
  La  La3  1  0.300668  0.299729  0.202558  1
  La  La4  1  0.796371  0.204074  0.499380  1
  La  La5  1  0.295738  0.702072  0.000855  1
  La  La6  1  0.700733  0.700147  0.797568  1
  La  La7  1  0.200147  0.200733  0.702432  1
  Tl  Tl8  1  0.520073  0.020073  0.250000  1
  Tl  Tl9  1  0.980250  0.480250  0.750000  1
  Tl  Tl10  1  0.018817  0.518817  0.250000  1
  In  In11  1  0.999641  0.000102  0.999183  1
  In  In12  1  0.484141  0.984141  0.750000  1
  In  In13  1  0.500102  0.499641  0.500817  1
  Au  Au14  1  0.161853  0.427538  0.477806  1
  Au  Au15  1  0.905255  0.905421  0.593119  1
  Au  Au16  1  0.571276  0.841057  0.526970  1
  Au  Au17  1  0.895813  0.165460  0.207340  1
  Au  Au18  1  0.396364  0.666803  0.292892  1
  Au  Au19  1  0.665460  0.395813  0.292660  1
  Au  Au20  1  0.405421  0.405255  0.906881  1
  Au  Au21  1  0.927538  0.661853  0.022194  1
  Au  Au22  1  0.336041  0.608305  0.708959  1
  Au  Au23  1  0.341057  0.071276  0.973030  1
  Au  Au24  1  0.595201  0.594671  0.093785  1
  Au  Au25  1  0.658081  0.925743  0.021308  1
  Au  Au26  1  0.094671  0.095201  0.406215  1
  Au  Au27  1  0.602737  0.328510  0.708830  1
  Au  Au28  1  0.108305  0.836041  0.791041  1
  Au  Au29  1  0.073114  0.338201  0.976572  1
  Au  Au30  1  0.838201  0.573114  0.523428  1
  Au  Au31  1  0.166803  0.896364  0.207108  1
  Au  Au32  1  0.425743  0.158081  0.478692  1
  Au  Au33  1  0.828510  0.102737  0.791170  1
