# generated using pymatgen
data_Dy3Ho2Er7Rh4
_symmetry_space_group_name_H-M   'P 1'
_cell_length_a   6.29670541
_cell_length_b   7.14914519
_cell_length_c   9.33585540
_cell_angle_alpha   90.00849751
_cell_angle_beta   89.96753789
_cell_angle_gamma   89.95433893
_symmetry_Int_Tables_number   1
_chemical_formula_structural   Dy3Ho2Er7Rh4
_chemical_formula_sum   'Dy3 Ho2 Er7 Rh4'
_cell_volume   420.26323257
_cell_formula_units_Z   1
loop_
 _symmetry_equiv_pos_site_id
 _symmetry_equiv_pos_as_xyz
  1  'x, y, z'
loop_
 _atom_site_type_symbol
 _atom_site_label
 _atom_site_symmetry_multiplicity
 _atom_site_fract_x
 _atom_site_fract_y
 _atom_site_fract_z
 _atom_site_occupancy
  Dy  Dy0  1  0.867671  0.966235  0.749919  1
  Dy  Dy1  1  0.367210  0.534145  0.250044  1
  Dy  Dy2  1  0.632101  0.466066  0.749935  1
  Ho  Ho3  1  0.672445  0.178016  0.062967  1
  Ho  Ho4  1  0.132913  0.033980  0.250096  1
  Er  Er5  1  0.171728  0.321727  0.937019  1
  Er  Er6  1  0.828196  0.678175  0.436869  1
  Er  Er7  1  0.327694  0.822091  0.562761  1
  Er  Er8  1  0.327648  0.821995  0.937219  1
  Er  Er9  1  0.828363  0.678194  0.063145  1
  Er  Er10  1  0.171762  0.321721  0.562889  1
  Er  Er11  1  0.672399  0.177978  0.436984  1
  Rh  Rh12  1  0.054266  0.615798  0.750011  1
  Rh  Rh13  1  0.553440  0.884432  0.250181  1
  Rh  Rh14  1  0.445547  0.115714  0.749897  1
  Rh  Rh15  1  0.946616  0.383730  0.250065  1
