# generated using pymatgen
data_Pu3MgH11
_symmetry_space_group_name_H-M   'P 1'
_cell_length_a   6.31370339
_cell_length_b   6.31370323
_cell_length_c   6.31370359
_cell_angle_alpha   130.76031652
_cell_angle_beta   134.81171809
_cell_angle_gamma   69.04248880
_symmetry_Int_Tables_number   1
_chemical_formula_structural   Pu3MgH11
_chemical_formula_sum   'Pu3 Mg1 H11'
_cell_volume   132.76042432
_cell_formula_units_Z   1
loop_
 _symmetry_equiv_pos_site_id
 _symmetry_equiv_pos_as_xyz
  1  'x, y, z'
loop_
 _atom_site_type_symbol
 _atom_site_label
 _atom_site_symmetry_multiplicity
 _atom_site_fract_x
 _atom_site_fract_y
 _atom_site_fract_z
 _atom_site_occupancy
  Pu  Pu0  1  0.263306  0.263306  0.000000  1
  Pu  Pu1  1  0.000000  0.500000  0.500000  1
  Pu  Pu2  1  0.736694  0.736694  0.000000  1
  Mg  Mg3  1  0.500000  0.000000  0.500000  1
  H  H4  1  0.639366  0.104172  0.974604  1
  H  H5  1  0.360634  0.335238  0.464805  1
  H  H6  1  0.129568  0.664762  0.025396  1
  H  H7  1  0.870432  0.895828  0.535195  1
  H  H8  1  0.870432  0.335238  0.974604  1
  H  H9  1  0.639366  0.664762  0.535195  1
  H  H10  1  0.360634  0.895828  0.025396  1
  H  H11  1  0.129568  0.104172  0.464805  1
  H  H12  1  0.775206  0.275206  0.500000  1
  H  H13  1  0.500000  0.500000  0.000000  1
  H  H14  1  0.224794  0.724794  0.500000  1
