# generated using pymatgen
data_CeLu3(Si3Ir)2
_symmetry_space_group_name_H-M   'P 1'
_cell_length_a   8.13838500
_cell_length_b   8.13838512
_cell_length_c   3.95550800
_cell_angle_alpha   90.00000000
_cell_angle_beta   90.00000000
_cell_angle_gamma   120.00000360
_symmetry_Int_Tables_number   1
_chemical_formula_structural   CeLu3(Si3Ir)2
_chemical_formula_sum   'Ce1 Lu3 Si6 Ir2'
_cell_volume   226.88686347
_cell_formula_units_Z   1
loop_
 _symmetry_equiv_pos_site_id
 _symmetry_equiv_pos_as_xyz
  1  'x, y, z'
loop_
 _atom_site_type_symbol
 _atom_site_label
 _atom_site_symmetry_multiplicity
 _atom_site_fract_x
 _atom_site_fract_y
 _atom_site_fract_z
 _atom_site_occupancy
  Ce  Ce0  1  0.000000  0.000000  0.500000  1
  Lu  Lu1  1  0.000000  0.500000  0.500000  1
  Lu  Lu2  1  0.500000  0.500000  0.500000  1
  Lu  Lu3  1  0.500000  0.000000  0.500000  1
  Si  Si4  1  0.333614  0.166808  0.000000  1
  Si  Si5  1  0.833192  0.166808  0.000000  1
  Si  Si6  1  0.833192  0.666386  0.000000  1
  Si  Si7  1  0.166808  0.333614  0.000000  1
  Si  Si8  1  0.166808  0.833192  0.000000  1
  Si  Si9  1  0.666386  0.833192  0.000000  1
  Ir  Ir10  1  0.666667  0.333333  0.000000  1
  Ir  Ir11  1  0.333333  0.666667  0.000000  1
