# generated using pymatgen
data_YbCo3B4Os
_symmetry_space_group_name_H-M   'P 1'
_cell_length_a   7.17642466
_cell_length_b   6.98917375
_cell_length_c   3.86871900
_cell_angle_alpha   90.00000000
_cell_angle_beta   90.00000000
_cell_angle_gamma   91.32807393
_symmetry_Int_Tables_number   1
_chemical_formula_structural   YbCo3B4Os
_chemical_formula_sum   'Yb2 Co6 B8 Os2'
_cell_volume   193.99229219
_cell_formula_units_Z   2
loop_
 _symmetry_equiv_pos_site_id
 _symmetry_equiv_pos_as_xyz
  1  'x, y, z'
loop_
 _atom_site_type_symbol
 _atom_site_label
 _atom_site_symmetry_multiplicity
 _atom_site_fract_x
 _atom_site_fract_y
 _atom_site_fract_z
 _atom_site_occupancy
  Yb  Yb0  1  0.000000  0.000000  0.945415  1
  Yb  Yb1  1  0.500000  0.500000  0.421615  1
  Co  Co2  1  0.344795  0.884394  0.396752  1
  Co  Co3  1  0.655205  0.115606  0.396752  1
  Co  Co4  1  0.115666  0.375906  0.622079  1
  Co  Co5  1  0.884334  0.624094  0.622079  1
  Co  Co6  1  0.125638  0.624886  0.120501  1
  Co  Co7  1  0.874362  0.375114  0.120501  1
  B  B8  1  0.817966  0.657340  0.117900  1
  B  B9  1  0.182034  0.342660  0.117900  1
  B  B10  1  0.834370  0.312408  0.616478  1
  B  B11  1  0.165630  0.687592  0.616478  1
  B  B12  1  0.725573  0.827077  0.399778  1
  B  B13  1  0.274427  0.172923  0.399778  1
  B  B14  1  0.668454  0.203185  0.898413  1
  B  B15  1  0.331546  0.796815  0.898413  1
  Os  Os16  1  0.380419  0.144237  0.894584  1
  Os  Os17  1  0.619581  0.855763  0.894584  1
