# generated using pymatgen
data_HfPa3(Co4P3)2
_symmetry_space_group_name_H-M   'P 1'
_cell_length_a   3.79678100
_cell_length_b   10.67762800
_cell_length_c   12.34724400
_cell_angle_alpha   90.00000000
_cell_angle_beta   90.00000000
_cell_angle_gamma   90.00000000
_symmetry_Int_Tables_number   1
_chemical_formula_structural   HfPa3(Co4P3)2
_chemical_formula_sum   'Hf2 Pa6 Co16 P12'
_cell_volume   500.56486674
_cell_formula_units_Z   2
loop_
 _symmetry_equiv_pos_site_id
 _symmetry_equiv_pos_as_xyz
  1  'x, y, z'
loop_
 _atom_site_type_symbol
 _atom_site_label
 _atom_site_symmetry_multiplicity
 _atom_site_fract_x
 _atom_site_fract_y
 _atom_site_fract_z
 _atom_site_occupancy
  Hf  Hf0  1  0.500000  0.500000  0.153732  1
  Hf  Hf1  1  0.000000  0.000000  0.846268  1
  Pa  Pa2  1  0.000000  0.500000  0.530754  1
  Pa  Pa3  1  0.500000  0.000000  0.469246  1
  Pa  Pa4  1  0.500000  0.822918  0.206823  1
  Pa  Pa5  1  0.500000  0.177082  0.206823  1
  Pa  Pa6  1  0.000000  0.677082  0.793177  1
  Pa  Pa7  1  0.000000  0.322918  0.793177  1
  Co  Co8  1  0.500000  0.500000  0.701202  1
  Co  Co9  1  0.000000  0.000000  0.298798  1
  Co  Co10  1  0.000000  0.500000  0.984889  1
  Co  Co11  1  0.500000  0.000000  0.015111  1
  Co  Co12  1  0.500000  0.330825  0.993114  1
  Co  Co13  1  0.500000  0.669175  0.993114  1
  Co  Co14  1  0.000000  0.169175  0.006886  1
  Co  Co15  1  0.000000  0.830825  0.006886  1
  Co  Co16  1  0.500000  0.297959  0.430873  1
  Co  Co17  1  0.500000  0.702041  0.430873  1
  Co  Co18  1  0.000000  0.202041  0.569127  1
  Co  Co19  1  0.000000  0.797959  0.569127  1
  Co  Co20  1  0.500000  0.876566  0.707390  1
  Co  Co21  1  0.500000  0.123434  0.707390  1
  Co  Co22  1  0.000000  0.623434  0.292610  1
  Co  Co23  1  0.000000  0.376566  0.292610  1
  P  P24  1  0.500000  0.500000  0.885473  1
  P  P25  1  0.000000  0.000000  0.114527  1
  P  P26  1  0.500000  0.500000  0.359557  1
  P  P27  1  0.000000  0.000000  0.640443  1
  P  P28  1  0.500000  0.307803  0.613498  1
  P  P29  1  0.500000  0.692197  0.613498  1
  P  P30  1  0.000000  0.192197  0.386502  1
  P  P31  1  0.000000  0.807803  0.386502  1
  P  P32  1  0.500000  0.839891  0.895898  1
  P  P33  1  0.500000  0.160109  0.895898  1
  P  P34  1  0.000000  0.660109  0.104102  1
  P  P35  1  0.000000  0.339891  0.104102  1
