# generated using pymatgen
data_Hf4TaSn3As
_symmetry_space_group_name_H-M   'P 1'
_cell_length_a   8.55213900
_cell_length_b   8.55213957
_cell_length_c   5.81783500
_cell_angle_alpha   90.00000000
_cell_angle_beta   90.00000000
_cell_angle_gamma   120.00000166
_symmetry_Int_Tables_number   1
_chemical_formula_structural   Hf4TaSn3As
_chemical_formula_sum   'Hf8 Ta2 Sn6 As2'
_cell_volume   368.50344756
_cell_formula_units_Z   2
loop_
 _symmetry_equiv_pos_site_id
 _symmetry_equiv_pos_as_xyz
  1  'x, y, z'
loop_
 _atom_site_type_symbol
 _atom_site_label
 _atom_site_symmetry_multiplicity
 _atom_site_fract_x
 _atom_site_fract_y
 _atom_site_fract_z
 _atom_site_occupancy
  Hf  Hf0  1  0.734101  0.734101  0.749521  1
  Hf  Hf1  1  0.265899  0.000000  0.749521  1
  Hf  Hf2  1  0.000000  0.265899  0.749521  1
  Hf  Hf3  1  0.265899  0.265899  0.250479  1
  Hf  Hf4  1  0.734101  0.000000  0.250479  1
  Hf  Hf5  1  0.000000  0.734101  0.250479  1
  Hf  Hf6  1  0.333333  0.666667  0.500000  1
  Hf  Hf7  1  0.666667  0.333333  0.500000  1
  Ta  Ta8  1  0.666667  0.333333  0.000000  1
  Ta  Ta9  1  0.333333  0.666667  0.000000  1
  Sn  Sn10  1  0.394202  0.394202  0.754429  1
  Sn  Sn11  1  0.605798  0.000000  0.754429  1
  Sn  Sn12  1  0.000000  0.605798  0.754429  1
  Sn  Sn13  1  0.605798  0.605798  0.245571  1
  Sn  Sn14  1  0.394202  0.000000  0.245571  1
  Sn  Sn15  1  0.000000  0.394202  0.245571  1
  As  As16  1  0.000000  0.000000  0.000000  1
  As  As17  1  0.000000  0.000000  0.500000  1
