# generated using pymatgen
data_LiEu3HfNb3O14
_symmetry_space_group_name_H-M   'P 1'
_cell_length_a   7.43028205
_cell_length_b   7.57085510
_cell_length_c   7.57085500
_cell_angle_alpha   59.99999606
_cell_angle_beta   59.37216398
_cell_angle_gamma   59.37216181
_symmetry_Int_Tables_number   1
_chemical_formula_structural   LiEu3HfNb3O14
_chemical_formula_sum   'Li1 Eu3 Hf1 Nb3 O14'
_cell_volume   298.25858182
_cell_formula_units_Z   1
loop_
 _symmetry_equiv_pos_site_id
 _symmetry_equiv_pos_as_xyz
  1  'x, y, z'
loop_
 _atom_site_type_symbol
 _atom_site_label
 _atom_site_symmetry_multiplicity
 _atom_site_fract_x
 _atom_site_fract_y
 _atom_site_fract_z
 _atom_site_occupancy
  Li  Li0  1  0.625000  0.125000  0.125000  1
  Eu  Eu1  1  0.125000  0.625000  0.125000  1
  Eu  Eu2  1  0.125000  0.125000  0.625000  1
  Eu  Eu3  1  0.125000  0.125000  0.125000  1
  Hf  Hf4  1  0.125000  0.625000  0.625000  1
  Nb  Nb5  1  0.625000  0.125000  0.625000  1
  Nb  Nb6  1  0.625000  0.625000  0.125000  1
  Nb  Nb7  1  0.625000  0.625000  0.625000  1
  O  O8  1  0.255641  0.248120  0.248120  1
  O  O9  1  0.994359  0.001880  0.001880  1
  O  O10  1  0.691017  0.686630  0.311176  1
  O  O11  1  0.299364  0.294442  0.703098  1
  O  O12  1  0.691017  0.311176  0.686630  1
  O  O13  1  0.299364  0.703098  0.294442  1
  O  O14  1  0.299364  0.703098  0.703098  1
  O  O15  1  0.691017  0.311176  0.311176  1
  O  O16  1  0.558983  0.563370  0.938824  1
  O  O17  1  0.950636  0.955558  0.546902  1
  O  O18  1  0.558983  0.938824  0.563370  1
  O  O19  1  0.950636  0.546902  0.955558  1
  O  O20  1  0.950636  0.546902  0.546902  1
  O  O21  1  0.558983  0.938824  0.938824  1
