# generated using pymatgen
data_Tm9Lu2PaGa20
_symmetry_space_group_name_H-M   'P 1'
_cell_length_a   6.06590934
_cell_length_b   9.55748771
_cell_length_c   11.35196603
_cell_angle_alpha   89.99117012
_cell_angle_beta   89.82206210
_cell_angle_gamma   89.95730329
_symmetry_Int_Tables_number   1
_chemical_formula_structural   Tm9Lu2PaGa20
_chemical_formula_sum   'Tm9 Lu2 Pa1 Ga20'
_cell_volume   658.12520851
_cell_formula_units_Z   1
loop_
 _symmetry_equiv_pos_site_id
 _symmetry_equiv_pos_as_xyz
  1  'x, y, z'
loop_
 _atom_site_type_symbol
 _atom_site_label
 _atom_site_symmetry_multiplicity
 _atom_site_fract_x
 _atom_site_fract_y
 _atom_site_fract_z
 _atom_site_occupancy
  Tm  Tm0  1  0.150872  0.249911  0.925478  1
  Tm  Tm1  1  0.352072  0.252279  0.426761  1
  Tm  Tm2  1  0.608980  0.988690  0.852310  1
  Tm  Tm3  1  0.111634  0.009871  0.648158  1
  Tm  Tm4  1  0.389653  0.489900  0.148339  1
  Tm  Tm5  1  0.109766  0.490191  0.648695  1
  Tm  Tm6  1  0.389790  0.010766  0.148298  1
  Tm  Tm7  1  0.889945  0.990114  0.352235  1
  Tm  Tm8  1  0.608886  0.510008  0.851452  1
  Lu  Lu9  1  0.849753  0.748762  0.073583  1
  Lu  Lu10  1  0.651843  0.749574  0.573677  1
  Pa  Pa11  1  0.887748  0.510465  0.353027  1
  Ga  Ga12  1  0.873747  0.051752  0.091795  1
  Ga  Ga13  1  0.627301  0.447051  0.590293  1
  Ga  Ga14  1  0.126633  0.552890  0.908460  1
  Ga  Ga15  1  0.373584  0.949419  0.408543  1
  Ga  Ga16  1  0.126141  0.947286  0.909434  1
  Ga  Ga17  1  0.378082  0.553158  0.408602  1
  Ga  Ga18  1  0.873999  0.446812  0.090113  1
  Ga  Ga19  1  0.627108  0.051521  0.592037  1
  Ga  Ga20  1  0.171594  0.750045  0.252390  1
  Ga  Ga21  1  0.326215  0.749957  0.751570  1
  Ga  Ga22  1  0.824663  0.248955  0.749348  1
  Ga  Ga23  1  0.673137  0.249259  0.246590  1
  Ga  Ga24  1  0.375820  0.750268  0.006375  1
  Ga  Ga25  1  0.123508  0.749581  0.503727  1
  Ga  Ga26  1  0.623662  0.249274  0.993378  1
  Ga  Ga27  1  0.875940  0.249292  0.494990  1
  Ga  Ga28  1  0.604496  0.751663  0.297755  1
  Ga  Ga29  1  0.895450  0.750088  0.798181  1
  Ga  Ga30  1  0.395167  0.249601  0.701075  1
  Ga  Ga31  1  0.102811  0.251596  0.203329  1
