# generated using pymatgen
data_LaNdDy2(NiAs)4
_symmetry_space_group_name_H-M   'P 1'
_cell_length_a   4.08978600
_cell_length_b   4.08978550
_cell_length_c   15.90872000
_cell_angle_alpha   90.00000000
_cell_angle_beta   90.00000000
_cell_angle_gamma   120.00000401
_symmetry_Int_Tables_number   1
_chemical_formula_structural   LaNdDy2(NiAs)4
_chemical_formula_sum   'La1 Nd1 Dy2 Ni4 As4'
_cell_volume   230.44482912
_cell_formula_units_Z   1
loop_
 _symmetry_equiv_pos_site_id
 _symmetry_equiv_pos_as_xyz
  1  'x, y, z'
loop_
 _atom_site_type_symbol
 _atom_site_label
 _atom_site_symmetry_multiplicity
 _atom_site_fract_x
 _atom_site_fract_y
 _atom_site_fract_z
 _atom_site_occupancy
  La  La0  1  0.000000  0.000000  0.500000  1
  Nd  Nd1  1  0.000000  0.000000  0.000000  1
  Dy  Dy2  1  0.000000  0.000000  0.249155  1
  Dy  Dy3  1  0.000000  0.000000  0.750845  1
  Ni  Ni4  1  0.333333  0.666667  0.137198  1
  Ni  Ni5  1  0.666667  0.333333  0.862802  1
  Ni  Ni6  1  0.666667  0.333333  0.639568  1
  Ni  Ni7  1  0.333333  0.666667  0.360432  1
  As  As8  1  0.333333  0.666667  0.627883  1
  As  As9  1  0.666667  0.333333  0.372117  1
  As  As10  1  0.666667  0.333333  0.124701  1
  As  As11  1  0.333333  0.666667  0.875299  1
