# generated using pymatgen
data_GdPa(WN3)2
_symmetry_space_group_name_H-M   'P 1'
_cell_length_a   5.46551100
_cell_length_b   5.69267800
_cell_length_c   7.89163000
_cell_angle_alpha   90.00000000
_cell_angle_beta   90.00000000
_cell_angle_gamma   90.00000000
_symmetry_Int_Tables_number   1
_chemical_formula_structural   GdPa(WN3)2
_chemical_formula_sum   'Gd2 Pa2 W4 N12'
_cell_volume   245.53539530
_cell_formula_units_Z   2
loop_
 _symmetry_equiv_pos_site_id
 _symmetry_equiv_pos_as_xyz
  1  'x, y, z'
loop_
 _atom_site_type_symbol
 _atom_site_label
 _atom_site_symmetry_multiplicity
 _atom_site_fract_x
 _atom_site_fract_y
 _atom_site_fract_z
 _atom_site_occupancy
  Gd  Gd0  1  0.513141  0.558584  0.750000  1
  Gd  Gd1  1  0.986859  0.058584  0.750000  1
  Pa  Pa2  1  0.489554  0.428084  0.250000  1
  Pa  Pa3  1  0.010446  0.928084  0.250000  1
  W  W4  1  0.504597  0.999066  0.505990  1
  W  W5  1  0.995403  0.499066  0.994010  1
  W  W6  1  0.995403  0.499066  0.505990  1
  W  W7  1  0.504597  0.999066  0.994010  1
  N  N8  1  0.698469  0.295811  0.542148  1
  N  N9  1  0.303981  0.697618  0.059970  1
  N  N10  1  0.196019  0.197618  0.059970  1
  N  N11  1  0.420791  0.984684  0.750000  1
  N  N12  1  0.882927  0.543657  0.250000  1
  N  N13  1  0.303981  0.697618  0.440030  1
  N  N14  1  0.801531  0.795811  0.957852  1
  N  N15  1  0.698469  0.295811  0.957852  1
  N  N16  1  0.801531  0.795811  0.542148  1
  N  N17  1  0.079209  0.484684  0.750000  1
  N  N18  1  0.196019  0.197618  0.440030  1
  N  N19  1  0.617073  0.043657  0.250000  1
