# generated using pymatgen
data_Ho4InPd11
_symmetry_space_group_name_H-M   'P 1'
_cell_length_a   4.19036400
_cell_length_b   5.85122342
_cell_length_c   11.65683445
_cell_angle_alpha   86.77823640
_cell_angle_beta   90.00000000
_cell_angle_gamma   90.00000000
_symmetry_Int_Tables_number   1
_chemical_formula_structural   Ho4InPd11
_chemical_formula_sum   'Ho4 In1 Pd11'
_cell_volume   285.35935165
_cell_formula_units_Z   1
loop_
 _symmetry_equiv_pos_site_id
 _symmetry_equiv_pos_as_xyz
  1  'x, y, z'
loop_
 _atom_site_type_symbol
 _atom_site_label
 _atom_site_symmetry_multiplicity
 _atom_site_fract_x
 _atom_site_fract_y
 _atom_site_fract_z
 _atom_site_occupancy
  Ho  Ho0  1  0.500000  0.754732  0.377227  1
  Ho  Ho1  1  0.500000  0.715687  0.859133  1
  Ho  Ho2  1  0.500000  0.284313  0.140867  1
  Ho  Ho3  1  0.500000  0.245268  0.622773  1
  In  In4  1  0.000000  0.000000  0.000000  1
  Pd  Pd5  1  0.000000  0.011330  0.249103  1
  Pd  Pd6  1  0.000000  0.988670  0.750897  1
  Pd  Pd7  1  0.000000  0.500000  0.000000  1
  Pd  Pd8  1  0.000000  0.500000  0.500000  1
  Pd  Pd9  1  0.000000  0.516348  0.250839  1
  Pd  Pd10  1  0.000000  0.483652  0.749161  1
  Pd  Pd11  1  0.500000  0.252944  0.377756  1
  Pd  Pd12  1  0.500000  0.226985  0.882227  1
  Pd  Pd13  1  0.500000  0.773015  0.117773  1
  Pd  Pd14  1  0.500000  0.747056  0.622244  1
  Pd  Pd15  1  0.000000  0.000000  0.500000  1
