# generated using pymatgen
data_NdHo2In3Ag2Ir
_symmetry_space_group_name_H-M   'P 1'
_cell_length_a   7.99505341
_cell_length_b   7.98229301
_cell_length_c   3.82405600
_cell_angle_alpha   90.00000000
_cell_angle_beta   90.00000000
_cell_angle_gamma   120.38836633
_symmetry_Int_Tables_number   1
_chemical_formula_structural   NdHo2In3Ag2Ir
_chemical_formula_sum   'Nd1 Ho2 In3 Ag2 Ir1'
_cell_volume   210.51884999
_cell_formula_units_Z   1
loop_
 _symmetry_equiv_pos_site_id
 _symmetry_equiv_pos_as_xyz
  1  'x, y, z'
loop_
 _atom_site_type_symbol
 _atom_site_label
 _atom_site_symmetry_multiplicity
 _atom_site_fract_x
 _atom_site_fract_y
 _atom_site_fract_z
 _atom_site_occupancy
  Nd  Nd0  1  0.581981  0.609415  0.000000  1
  Ho  Ho1  1  0.387023  0.965693  0.000000  1
  Ho  Ho2  1  0.033684  0.422741  0.000000  1
  In  In3  1  0.994406  0.725451  0.500000  1
  In  In4  1  0.272024  0.263992  0.500000  1
  In  In5  1  0.734463  0.011607  0.500000  1
  Ag  Ag6  1  0.002280  0.002520  0.000000  1
  Ag  Ag7  1  0.667274  0.329321  0.500000  1
  Ir  Ir8  1  0.326866  0.669260  0.500000  1
