# generated using pymatgen
data_Ce8Al8Os3Rh5
_symmetry_space_group_name_H-M   'P 1'
_cell_length_a   7.14206557
_cell_length_b   4.17767600
_cell_length_c   15.92394551
_cell_angle_alpha   90.00000000
_cell_angle_beta   90.46842276
_cell_angle_gamma   90.00000000
_symmetry_Int_Tables_number   1
_chemical_formula_structural   Ce8Al8Os3Rh5
_chemical_formula_sum   'Ce8 Al8 Os3 Rh5'
_cell_volume   475.11064087
_cell_formula_units_Z   1
loop_
 _symmetry_equiv_pos_site_id
 _symmetry_equiv_pos_as_xyz
  1  'x, y, z'
loop_
 _atom_site_type_symbol
 _atom_site_label
 _atom_site_symmetry_multiplicity
 _atom_site_fract_x
 _atom_site_fract_y
 _atom_site_fract_z
 _atom_site_occupancy
  Ce  Ce0  1  0.161955  0.249998  0.441734  1
  Ce  Ce1  1  0.335055  0.749999  0.942688  1
  Ce  Ce2  1  0.653851  0.249998  0.060197  1
  Ce  Ce3  1  0.839032  0.749999  0.557784  1
  Ce  Ce4  1  0.036726  0.249998  0.218376  1
  Ce  Ce5  1  0.462243  0.749999  0.718093  1
  Ce  Ce6  1  0.537838  0.249998  0.282253  1
  Ce  Ce7  1  0.964901  0.749999  0.778794  1
  Al  Al8  1  0.138041  0.249998  0.649272  1
  Al  Al9  1  0.362739  0.749999  0.151085  1
  Al  Al10  1  0.637653  0.249998  0.849535  1
  Al  Al11  1  0.863183  0.749999  0.349938  1
  Al  Al12  1  0.000222  0.249998  0.938026  1
  Al  Al13  1  0.498977  0.749999  0.438018  1
  Al  Al14  1  0.502363  0.249998  0.562214  1
  Al  Al15  1  0.998225  0.749999  0.062262  1
  Os  Os16  1  0.231379  0.249998  0.070480  1
  Os  Os17  1  0.268598  0.749999  0.569508  1
  Os  Os18  1  0.733094  0.249998  0.430561  1
  Rh  Rh19  1  0.773275  0.749999  0.929062  1
  Rh  Rh20  1  0.759367  0.249998  0.686321  1
  Rh  Rh21  1  0.744253  0.749999  0.182487  1
  Rh  Rh22  1  0.255564  0.249998  0.816105  1
  Rh  Rh23  1  0.241465  0.749999  0.315206  1
