# generated using pymatgen
data_Tl2Re2OF10
_symmetry_space_group_name_H-M   'P 1'
_cell_length_a   8.02402500
_cell_length_b   8.38809943
_cell_length_c   15.22694300
_cell_angle_alpha   90.00000000
_cell_angle_beta   90.00000000
_cell_angle_gamma   96.54890409
_symmetry_Int_Tables_number   1
_chemical_formula_structural   Tl2Re2OF10
_chemical_formula_sum   'Tl8 Re8 O4 F40'
_cell_volume   1018.18208547
_cell_formula_units_Z   4
loop_
 _symmetry_equiv_pos_site_id
 _symmetry_equiv_pos_as_xyz
  1  'x, y, z'
loop_
 _atom_site_type_symbol
 _atom_site_label
 _atom_site_symmetry_multiplicity
 _atom_site_fract_x
 _atom_site_fract_y
 _atom_site_fract_z
 _atom_site_occupancy
  Tl  Tl0  1  0.236618  0.033942  0.685376  1
  Tl  Tl1  1  0.703976  0.168868  0.043571  1
  Tl  Tl2  1  0.203976  0.668868  0.456429  1
  Tl  Tl3  1  0.796024  0.331132  0.543571  1
  Tl  Tl4  1  0.296024  0.831132  0.956429  1
  Tl  Tl5  1  0.263382  0.466058  0.185376  1
  Tl  Tl6  1  0.763382  0.966058  0.314624  1
  Tl  Tl7  1  0.736618  0.533942  0.814624  1
  Re  Re8  1  0.764048  0.696212  0.069128  1
  Re  Re9  1  0.286942  0.949634  0.241408  1
  Re  Re10  1  0.235952  0.303788  0.930872  1
  Re  Re11  1  0.213058  0.550366  0.741408  1
  Re  Re12  1  0.713058  0.050366  0.758592  1
  Re  Re13  1  0.264048  0.196212  0.430872  1
  Re  Re14  1  0.786942  0.449634  0.258592  1
  Re  Re15  1  0.735952  0.803788  0.569128  1
  O  O16  1  0.337276  0.074935  0.340421  1
  O  O17  1  0.662724  0.925065  0.659579  1
  O  O18  1  0.837276  0.574935  0.159579  1
  O  O19  1  0.162724  0.425065  0.840421  1
  F  F20  1  0.671783  0.602430  0.629920  1
  F  F21  1  0.997408  0.515410  0.317365  1
  F  F22  1  0.842304  0.682162  0.482462  1
  F  F23  1  0.878809  0.265027  0.207762  1
  F  F24  1  0.002592  0.484590  0.682635  1
  F  F25  1  0.171783  0.102430  0.870080  1
  F  F26  1  0.802582  0.997000  0.500366  1
  F  F27  1  0.697418  0.503000  0.000366  1
  F  F28  1  0.310711  0.375573  0.687325  1
  F  F29  1  0.031911  0.278054  0.999439  1
  F  F30  1  0.952656  0.821661  0.626178  1
  F  F31  1  0.197418  0.003000  0.499634  1
  F  F32  1  0.810711  0.875573  0.812675  1
  F  F33  1  0.047344  0.178339  0.373822  1
  F  F34  1  0.121191  0.734973  0.792238  1
  F  F35  1  0.924374  0.133235  0.702673  1
  F  F36  1  0.689289  0.624427  0.312675  1
  F  F37  1  0.547344  0.678339  0.126178  1
  F  F38  1  0.189289  0.124427  0.187325  1
  F  F39  1  0.621191  0.234973  0.707762  1
  F  F40  1  0.531911  0.778054  0.500561  1
  F  F41  1  0.212869  0.818779  0.142309  1
  F  F42  1  0.328217  0.397570  0.370080  1
  F  F43  1  0.378809  0.765027  0.292238  1
  F  F44  1  0.342304  0.182162  0.017538  1
  F  F45  1  0.452656  0.321661  0.873822  1
  F  F46  1  0.712869  0.318779  0.357691  1
  F  F47  1  0.575626  0.366765  0.202673  1
  F  F48  1  0.502592  0.984590  0.817365  1
  F  F49  1  0.828217  0.897570  0.129920  1
  F  F50  1  0.468089  0.221946  0.499439  1
  F  F51  1  0.424374  0.633235  0.797327  1
  F  F52  1  0.075626  0.866765  0.297327  1
  F  F53  1  0.287131  0.681221  0.642309  1
  F  F54  1  0.157696  0.317838  0.517538  1
  F  F55  1  0.657696  0.817838  0.982462  1
  F  F56  1  0.497408  0.015410  0.182635  1
  F  F57  1  0.968089  0.721946  0.000561  1
  F  F58  1  0.787131  0.181221  0.857691  1
  F  F59  1  0.302582  0.497000  0.999634  1
