# generated using pymatgen
data_Nd8Co3Si12Au
_symmetry_space_group_name_H-M   'P 1'
_cell_length_a   8.15132900
_cell_length_b   8.15133049
_cell_length_c   8.49458100
_cell_angle_alpha   90.00000000
_cell_angle_beta   90.00000000
_cell_angle_gamma   119.99998989
_symmetry_Int_Tables_number   1
_chemical_formula_structural   Nd8Co3Si12Au
_chemical_formula_sum   'Nd8 Co3 Si12 Au1'
_cell_volume   488.79815943
_cell_formula_units_Z   1
loop_
 _symmetry_equiv_pos_site_id
 _symmetry_equiv_pos_as_xyz
  1  'x, y, z'
loop_
 _atom_site_type_symbol
 _atom_site_label
 _atom_site_symmetry_multiplicity
 _atom_site_fract_x
 _atom_site_fract_y
 _atom_site_fract_z
 _atom_site_occupancy
  Nd  Nd0  1  0.495841  0.504159  0.755737  1
  Nd  Nd1  1  0.497780  0.502220  0.244992  1
  Nd  Nd2  1  0.008318  0.504159  0.755737  1
  Nd  Nd3  1  0.004440  0.502220  0.244992  1
  Nd  Nd4  1  0.495841  0.991682  0.755737  1
  Nd  Nd5  1  0.497780  0.995560  0.244992  1
  Nd  Nd6  1  0.000000  0.000000  0.752195  1
  Nd  Nd7  1  0.000000  0.000000  0.246738  1
  Co  Co8  1  0.666667  0.333333  0.992169  1
  Co  Co9  1  0.333333  0.666667  0.008266  1
  Co  Co10  1  0.333333  0.666667  0.493547  1
  Si  Si11  1  0.827655  0.172345  0.000781  1
  Si  Si12  1  0.171026  0.828974  0.999423  1
  Si  Si13  1  0.344690  0.172345  0.000781  1
  Si  Si14  1  0.173694  0.826306  0.501280  1
  Si  Si15  1  0.657949  0.828974  0.999423  1
  Si  Si16  1  0.839755  0.160245  0.498284  1
  Si  Si17  1  0.827655  0.655310  0.000781  1
  Si  Si18  1  0.652612  0.826306  0.501280  1
  Si  Si19  1  0.171026  0.342051  0.999423  1
  Si  Si20  1  0.320489  0.160245  0.498284  1
  Si  Si21  1  0.173694  0.347388  0.501280  1
  Si  Si22  1  0.839755  0.679511  0.498284  1
  Au  Au23  1  0.666667  0.333333  0.505593  1
