# generated using pymatgen
data_LaCeNi7Rh3
_symmetry_space_group_name_H-M   'P 1'
_cell_length_a   4.03530600
_cell_length_b   5.07598650
_cell_length_c   8.81984270
_cell_angle_alpha   93.06316423
_cell_angle_beta   90.00000000
_cell_angle_gamma   90.00000000
_symmetry_Int_Tables_number   1
_chemical_formula_structural   LaCeNi7Rh3
_chemical_formula_sum   'La1 Ce1 Ni7 Rh3'
_cell_volume   180.40011949
_cell_formula_units_Z   1
loop_
 _symmetry_equiv_pos_site_id
 _symmetry_equiv_pos_as_xyz
  1  'x, y, z'
loop_
 _atom_site_type_symbol
 _atom_site_label
 _atom_site_symmetry_multiplicity
 _atom_site_fract_x
 _atom_site_fract_y
 _atom_site_fract_z
 _atom_site_occupancy
  La  La0  1  0.000000  0.000000  0.500000  1
  Ce  Ce1  1  0.000000  0.500000  0.000000  1
  Ni  Ni2  1  0.000000  0.480912  0.319361  1
  Ni  Ni3  1  0.000000  0.984152  0.846370  1
  Ni  Ni4  1  0.000000  0.015848  0.153630  1
  Ni  Ni5  1  0.000000  0.519088  0.680639  1
  Ni  Ni6  1  0.500000  0.000000  0.000000  1
  Ni  Ni7  1  0.500000  0.244860  0.243307  1
  Ni  Ni8  1  0.500000  0.755140  0.756693  1
  Rh  Rh9  1  0.500000  0.500000  0.500000  1
  Rh  Rh10  1  0.500000  0.746065  0.238423  1
  Rh  Rh11  1  0.500000  0.253935  0.761577  1
