# generated using pymatgen
data_SrLaBi2(Pt2O7)2
_symmetry_space_group_name_H-M   'P 1'
_cell_length_a   7.47949457
_cell_length_b   7.39017076
_cell_length_c   7.47949449
_cell_angle_alpha   59.95705731
_cell_angle_beta   60.53436422
_cell_angle_gamma   59.95705296
_symmetry_Int_Tables_number   1
_chemical_formula_structural   SrLaBi2(Pt2O7)2
_chemical_formula_sum   'Sr1 La1 Bi2 Pt4 O14'
_cell_volume   293.30717921
_cell_formula_units_Z   1
loop_
 _symmetry_equiv_pos_site_id
 _symmetry_equiv_pos_as_xyz
  1  'x, y, z'
loop_
 _atom_site_type_symbol
 _atom_site_label
 _atom_site_symmetry_multiplicity
 _atom_site_fract_x
 _atom_site_fract_y
 _atom_site_fract_z
 _atom_site_occupancy
  Sr  Sr0  1  0.125000  0.625000  0.125000  1
  La  La1  1  0.125000  0.125000  0.125000  1
  Bi  Bi2  1  0.125000  0.125000  0.625000  1
  Bi  Bi3  1  0.625000  0.125000  0.125000  1
  Pt  Pt4  1  0.625000  0.625000  0.125000  1
  Pt  Pt5  1  0.625000  0.125000  0.625000  1
  Pt  Pt6  1  0.125000  0.625000  0.625000  1
  Pt  Pt7  1  0.625000  0.625000  0.625000  1
  O  O8  1  0.259568  0.232945  0.259568  1
  O  O9  1  0.990432  0.017055  0.990432  1
  O  O10  1  0.544261  0.956567  0.544261  1
  O  O11  1  0.293943  0.710377  0.293943  1
  O  O12  1  0.548701  0.539430  0.955259  1
  O  O13  1  0.955259  0.539430  0.548701  1
  O  O14  1  0.544767  0.958913  0.955355  1
  O  O15  1  0.955355  0.958913  0.544767  1
  O  O16  1  0.956057  0.539623  0.956057  1
  O  O17  1  0.705233  0.291087  0.294645  1
  O  O18  1  0.294741  0.710570  0.701299  1
  O  O19  1  0.705739  0.293433  0.705739  1
  O  O20  1  0.294645  0.291087  0.705233  1
  O  O21  1  0.701299  0.710570  0.294741  1
