# generated using pymatgen
data_Th8Ge3Os5
_symmetry_space_group_name_H-M   'P 1'
_cell_length_a   4.17939900
_cell_length_b   5.99067240
_cell_length_c   15.61977937
_cell_angle_alpha   88.23226930
_cell_angle_beta   90.00000000
_cell_angle_gamma   90.00000000
_symmetry_Int_Tables_number   1
_chemical_formula_structural   Th8Ge3Os5
_chemical_formula_sum   'Th8 Ge3 Os5'
_cell_volume   390.89270644
_cell_formula_units_Z   1
loop_
 _symmetry_equiv_pos_site_id
 _symmetry_equiv_pos_as_xyz
  1  'x, y, z'
loop_
 _atom_site_type_symbol
 _atom_site_label
 _atom_site_symmetry_multiplicity
 _atom_site_fract_x
 _atom_site_fract_y
 _atom_site_fract_z
 _atom_site_occupancy
  Th  Th0  1  0.250000  0.513509  0.275124  1
  Th  Th1  1  0.750000  0.494799  0.726678  1
  Th  Th2  1  0.750000  0.029924  0.210882  1
  Th  Th3  1  0.250000  0.993206  0.779094  1
  Th  Th4  1  0.250000  0.725550  0.047658  1
  Th  Th5  1  0.750000  0.255248  0.966858  1
  Th  Th6  1  0.750000  0.233256  0.449597  1
  Th  Th7  1  0.250000  0.777924  0.546808  1
  Ge  Ge8  1  0.750000  0.753392  0.899546  1
  Ge  Ge9  1  0.750000  0.742386  0.396630  1
  Ge  Ge10  1  0.250000  0.270083  0.601065  1
  Os  Os11  1  0.250000  0.015829  0.350363  1
  Os  Os12  1  0.750000  0.985699  0.647653  1
  Os  Os13  1  0.750000  0.530408  0.151889  1
  Os  Os14  1  0.250000  0.477529  0.856558  1
  Os  Os15  1  0.250000  0.201259  0.093598  1
