# generated using pymatgen
data_Hf18CrRe7Pd2
_symmetry_space_group_name_H-M   'P 1'
_cell_length_a   8.66329000
_cell_length_b   8.66328944
_cell_length_c   8.48612500
_cell_angle_alpha   90.00000000
_cell_angle_beta   90.00000000
_cell_angle_gamma   120.00000976
_symmetry_Int_Tables_number   1
_chemical_formula_structural   Hf18CrRe7Pd2
_chemical_formula_sum   'Hf18 Cr1 Re7 Pd2'
_cell_volume   551.57641856
_cell_formula_units_Z   1
loop_
 _symmetry_equiv_pos_site_id
 _symmetry_equiv_pos_as_xyz
  1  'x, y, z'
loop_
 _atom_site_type_symbol
 _atom_site_label
 _atom_site_symmetry_multiplicity
 _atom_site_fract_x
 _atom_site_fract_y
 _atom_site_fract_z
 _atom_site_occupancy
  Hf  Hf0  1  0.192669  0.807331  0.446787  1
  Hf  Hf1  1  0.192669  0.385338  0.446787  1
  Hf  Hf2  1  0.614662  0.807331  0.446787  1
  Hf  Hf3  1  0.807331  0.192669  0.553213  1
  Hf  Hf4  1  0.807331  0.614662  0.553213  1
  Hf  Hf5  1  0.385338  0.192669  0.553213  1
  Hf  Hf6  1  0.806002  0.193998  0.946555  1
  Hf  Hf7  1  0.806002  0.612005  0.946555  1
  Hf  Hf8  1  0.387995  0.193998  0.946555  1
  Hf  Hf9  1  0.193998  0.806002  0.053445  1
  Hf  Hf10  1  0.193998  0.387995  0.053445  1
  Hf  Hf11  1  0.612005  0.806002  0.053445  1
  Hf  Hf12  1  0.542990  0.457010  0.250445  1
  Hf  Hf13  1  0.542990  0.085979  0.250445  1
  Hf  Hf14  1  0.914021  0.457010  0.250445  1
  Hf  Hf15  1  0.457010  0.542990  0.749555  1
  Hf  Hf16  1  0.457010  0.914021  0.749555  1
  Hf  Hf17  1  0.085979  0.542990  0.749555  1
  Cr  Cr18  1  0.000000  0.000000  0.500000  1
  Re  Re19  1  0.890787  0.109213  0.253668  1
  Re  Re20  1  0.890787  0.781573  0.253668  1
  Re  Re21  1  0.218427  0.109213  0.253668  1
  Re  Re22  1  0.109213  0.890787  0.746332  1
  Re  Re23  1  0.109213  0.218427  0.746332  1
  Re  Re24  1  0.781573  0.890787  0.746332  1
  Re  Re25  1  0.000000  0.000000  0.000000  1
  Pd  Pd26  1  0.333333  0.666667  0.250743  1
  Pd  Pd27  1  0.666667  0.333333  0.749257  1
