# generated using pymatgen
data_GaBi(BrO3)6
_symmetry_space_group_name_H-M   'P 1'
_cell_length_a   9.50451600
_cell_length_b   9.50451450
_cell_length_c   5.97760300
_cell_angle_alpha   90.00000000
_cell_angle_beta   90.00000000
_cell_angle_gamma   120.00000012
_symmetry_Int_Tables_number   1
_chemical_formula_structural   GaBi(BrO3)6
_chemical_formula_sum   'Ga1 Bi1 Br6 O18'
_cell_volume   467.64645138
_cell_formula_units_Z   1
loop_
 _symmetry_equiv_pos_site_id
 _symmetry_equiv_pos_as_xyz
  1  'x, y, z'
loop_
 _atom_site_type_symbol
 _atom_site_label
 _atom_site_symmetry_multiplicity
 _atom_site_fract_x
 _atom_site_fract_y
 _atom_site_fract_z
 _atom_site_occupancy
  Ga  Ga0  1  0.333333  0.666667  0.200722  1
  Bi  Bi1  1  0.666667  0.333333  0.686112  1
  Br  Br2  1  0.660993  0.002814  0.352212  1
  Br  Br3  1  0.310536  0.956134  0.881131  1
  Br  Br4  1  0.043866  0.354402  0.881131  1
  Br  Br5  1  0.341822  0.339007  0.352212  1
  Br  Br6  1  0.997186  0.658178  0.352212  1
  Br  Br7  1  0.645598  0.689464  0.881131  1
  O  O8  1  0.763326  0.844958  0.039718  1
  O  O9  1  0.959935  0.766221  0.529811  1
  O  O10  1  0.806286  0.040065  0.529811  1
  O  O11  1  0.155042  0.918368  0.039718  1
  O  O12  1  0.081632  0.236674  0.039718  1
  O  O13  1  0.233779  0.193714  0.529811  1
  O  O14  1  0.706628  0.549982  0.931208  1
  O  O15  1  0.199614  0.719636  0.406479  1
  O  O16  1  0.537367  0.437527  0.460421  1
  O  O17  1  0.134612  0.547339  0.002542  1
  O  O18  1  0.412727  0.865388  0.002542  1
  O  O19  1  0.562473  0.099840  0.460421  1
  O  O20  1  0.900160  0.462633  0.460421  1
  O  O21  1  0.452661  0.587273  0.002542  1
  O  O22  1  0.280364  0.479978  0.406479  1
  O  O23  1  0.843354  0.293372  0.931208  1
  O  O24  1  0.450018  0.156646  0.931208  1
  O  O25  1  0.520022  0.800386  0.406479  1
