# generated using pymatgen
data_U8PS17
_symmetry_space_group_name_H-M   'P 1'
_cell_length_a   7.77010037
_cell_length_b   7.78240840
_cell_length_c   10.39608799
_cell_angle_alpha   80.19670991
_cell_angle_beta   99.87326445
_cell_angle_gamma   115.00708981
_symmetry_Int_Tables_number   1
_chemical_formula_structural   U8PS17
_chemical_formula_sum   'U8 P1 S17'
_cell_volume   557.90566431
_cell_formula_units_Z   1
loop_
 _symmetry_equiv_pos_site_id
 _symmetry_equiv_pos_as_xyz
  1  'x, y, z'
loop_
 _atom_site_type_symbol
 _atom_site_label
 _atom_site_symmetry_multiplicity
 _atom_site_fract_x
 _atom_site_fract_y
 _atom_site_fract_z
 _atom_site_occupancy
  U  U0  1  0.694344  0.818988  0.301653  1
  U  U1  1  0.818996  0.694299  0.698176  1
  U  U2  1  0.305720  0.181141  0.698468  1
  U  U3  1  0.181093  0.305745  0.301703  1
  U  U4  1  0.677987  0.321510  0.017241  1
  U  U5  1  0.321576  0.677980  0.982767  1
  U  U6  1  0.203647  0.797203  0.455671  1
  U  U7  1  0.796308  0.202955  0.544346  1
  P  P8  1  0.998923  0.998935  0.999951  1
  S  S9  1  0.052294  0.947938  0.226451  1
  S  S10  1  0.947817  0.052139  0.773598  1
  S  S11  1  0.432896  0.179015  0.463768  1
  S  S12  1  0.178739  0.432825  0.536268  1
  S  S13  1  0.566972  0.820896  0.536301  1
  S  S14  1  0.821274  0.567209  0.463637  1
  S  S15  1  0.520102  0.480024  0.170853  1
  S  S16  1  0.480039  0.520090  0.829111  1
  S  S17  1  0.299569  0.700392  0.244295  1
  S  S18  1  0.700372  0.299409  0.755806  1
  S  S19  1  0.000042  0.000008  0.499968  1
  S  S20  1  0.681205  0.946780  0.031974  1
  S  S21  1  0.946756  0.681206  0.968137  1
  S  S22  1  0.319647  0.053911  0.967744  1
  S  S23  1  0.053836  0.319562  0.032131  1
  S  S24  1  0.214851  0.784922  0.719999  1
  S  S25  1  0.785011  0.214920  0.279984  1
