# generated using pymatgen
data_ErLu6Th(InRh)2
_symmetry_space_group_name_H-M   'P 1'
_cell_length_a   9.55698957
_cell_length_b   9.55698906
_cell_length_c   9.56471200
_cell_angle_alpha   59.97326487
_cell_angle_beta   59.97326665
_cell_angle_gamma   60.15261408
_symmetry_Int_Tables_number   1
_chemical_formula_structural   ErLu6Th(InRh)2
_chemical_formula_sum   'Er2 Lu12 Th2 In4 Rh4'
_cell_volume   618.18930472
_cell_formula_units_Z   2
loop_
 _symmetry_equiv_pos_site_id
 _symmetry_equiv_pos_as_xyz
  1  'x, y, z'
loop_
 _atom_site_type_symbol
 _atom_site_label
 _atom_site_symmetry_multiplicity
 _atom_site_fract_x
 _atom_site_fract_y
 _atom_site_fract_z
 _atom_site_occupancy
  Er  Er0  1  0.603439  0.192747  0.601907  1
  Er  Er1  1  0.192747  0.603439  0.601907  1
  Lu  Lu2  1  0.062723  0.439558  0.437779  1
  Lu  Lu3  1  0.439558  0.062723  0.059940  1
  Lu  Lu4  1  0.439558  0.062723  0.437779  1
  Lu  Lu5  1  0.062723  0.439558  0.059940  1
  Lu  Lu6  1  0.436527  0.436527  0.063473  1
  Lu  Lu7  1  0.060086  0.060086  0.439914  1
  Lu  Lu8  1  0.185490  0.816045  0.813086  1
  Lu  Lu9  1  0.816045  0.185490  0.185379  1
  Lu  Lu10  1  0.816045  0.185490  0.813086  1
  Lu  Lu11  1  0.185490  0.816045  0.185379  1
  Lu  Lu12  1  0.815401  0.815401  0.184599  1
  Lu  Lu13  1  0.190648  0.190648  0.809352  1
  Th  Th14  1  0.596376  0.596376  0.600194  1
  Th  Th15  1  0.596376  0.596376  0.207055  1
  In  In16  1  0.835592  0.835592  0.832762  1
  In  In17  1  0.835592  0.835592  0.496053  1
  In  In18  1  0.834907  0.497129  0.833982  1
  In  In19  1  0.497129  0.834907  0.833982  1
  Rh  Rh20  1  0.389964  0.389964  0.395954  1
  Rh  Rh21  1  0.389964  0.389964  0.824118  1
  Rh  Rh22  1  0.392600  0.825017  0.391191  1
  Rh  Rh23  1  0.825017  0.392600  0.391191  1
