# generated using pymatgen
data_YbPr4GaSi2
_symmetry_space_group_name_H-M   'P 1'
_cell_length_a   7.82073900
_cell_length_b   9.10755743
_cell_length_c   7.82073900
_cell_angle_alpha   115.42659674
_cell_angle_beta   90.00000000
_cell_angle_gamma   115.42659674
_symmetry_Int_Tables_number   1
_chemical_formula_structural   YbPr4GaSi2
_chemical_formula_sum   'Yb2 Pr8 Ga2 Si4'
_cell_volume   442.60741981
_cell_formula_units_Z   2
loop_
 _symmetry_equiv_pos_site_id
 _symmetry_equiv_pos_as_xyz
  1  'x, y, z'
loop_
 _atom_site_type_symbol
 _atom_site_label
 _atom_site_symmetry_multiplicity
 _atom_site_fract_x
 _atom_site_fract_y
 _atom_site_fract_z
 _atom_site_occupancy
  Yb  Yb0  1  0.000000  0.000000  0.000000  1
  Yb  Yb1  1  0.500000  0.000000  0.500000  1
  Pr  Pr2  1  0.537321  0.715211  0.677891  1
  Pr  Pr3  1  0.177891  0.715211  0.037321  1
  Pr  Pr4  1  0.677891  0.715211  0.177891  1
  Pr  Pr5  1  0.037321  0.715211  0.537321  1
  Pr  Pr6  1  0.462679  0.284789  0.322109  1
  Pr  Pr7  1  0.822109  0.284789  0.962679  1
  Pr  Pr8  1  0.322109  0.284789  0.822109  1
  Pr  Pr9  1  0.962679  0.284789  0.462679  1
  Ga  Ga10  1  0.750000  0.500000  0.750000  1
  Ga  Ga11  1  0.250000  0.500000  0.250000  1
  Si  Si12  1  0.888010  0.000000  0.611990  1
  Si  Si13  1  0.111990  0.000000  0.388010  1
  Si  Si14  1  0.611990  0.000000  0.111990  1
  Si  Si15  1  0.388010  0.000000  0.888010  1
