# generated using pymatgen
data_Sr2SmC2(O2F)3
_symmetry_space_group_name_H-M   'P 1'
_cell_length_a   9.57826200
_cell_length_b   6.80228200
_cell_length_c   11.41896200
_cell_angle_alpha   90.00000000
_cell_angle_beta   90.00000000
_cell_angle_gamma   90.00000000
_symmetry_Int_Tables_number   1
_chemical_formula_structural   Sr2SmC2(O2F)3
_chemical_formula_sum   'Sr8 Sm4 C8 O24 F12'
_cell_volume   743.99149770
_cell_formula_units_Z   4
loop_
 _symmetry_equiv_pos_site_id
 _symmetry_equiv_pos_as_xyz
  1  'x, y, z'
loop_
 _atom_site_type_symbol
 _atom_site_label
 _atom_site_symmetry_multiplicity
 _atom_site_fract_x
 _atom_site_fract_y
 _atom_site_fract_z
 _atom_site_occupancy
  Sr  Sr0  1  0.383252  0.239134  0.071145  1
  Sr  Sr1  1  0.116747  0.739135  0.071145  1
  Sr  Sr2  1  0.616747  0.239134  0.428855  1
  Sr  Sr3  1  0.883253  0.739135  0.428855  1
  Sr  Sr4  1  0.116747  0.260865  0.571145  1
  Sr  Sr5  1  0.383252  0.760865  0.571145  1
  Sr  Sr6  1  0.883253  0.260865  0.928854  1
  Sr  Sr7  1  0.616747  0.760865  0.928854  1
  Sm  Sm8  1  0.000000  0.275095  0.250000  1
  Sm  Sm9  1  0.500000  0.775094  0.250000  1
  Sm  Sm10  1  0.500000  0.224906  0.750000  1
  Sm  Sm11  1  0.000000  0.724906  0.750000  1
  C  C12  1  0.694057  0.474070  0.173402  1
  C  C13  1  0.805943  0.974070  0.173402  1
  C  C14  1  0.305944  0.474070  0.326597  1
  C  C15  1  0.194056  0.974070  0.326597  1
  C  C16  1  0.805943  0.025931  0.673402  1
  C  C17  1  0.694057  0.525930  0.673402  1
  C  C18  1  0.194056  0.025931  0.826597  1
  C  C19  1  0.305944  0.525930  0.826597  1
  O  O20  1  0.913537  0.016158  0.107877  1
  O  O21  1  0.586463  0.516157  0.107877  1
  O  O22  1  0.798767  0.380434  0.132290  1
  O  O23  1  0.701234  0.880433  0.132290  1
  O  O24  1  0.190427  0.032306  0.217014  1
  O  O25  1  0.309573  0.532306  0.217014  1
  O  O26  1  0.809572  0.032306  0.282986  1
  O  O27  1  0.690427  0.532306  0.282986  1
  O  O28  1  0.201234  0.380434  0.367709  1
  O  O29  1  0.298766  0.880433  0.367709  1
  O  O30  1  0.086463  0.016158  0.392123  1
  O  O31  1  0.413537  0.516157  0.392123  1
  O  O32  1  0.586463  0.483842  0.607877  1
  O  O33  1  0.913537  0.983843  0.607877  1
  O  O34  1  0.701234  0.119566  0.632290  1
  O  O35  1  0.798767  0.619567  0.632290  1
  O  O36  1  0.309573  0.467695  0.717014  1
  O  O37  1  0.190427  0.967694  0.717014  1
  O  O38  1  0.690427  0.467695  0.782986  1
  O  O39  1  0.809572  0.967694  0.782986  1
  O  O40  1  0.298766  0.119566  0.867709  1
  O  O41  1  0.201234  0.619567  0.867709  1
  O  O42  1  0.413537  0.483842  0.892124  1
  O  O43  1  0.086463  0.983843  0.892124  1
  F  F44  1  0.095761  0.358955  0.067729  1
  F  F45  1  0.404239  0.858954  0.067729  1
  F  F46  1  0.500000  0.123253  0.250000  1
  F  F47  1  0.000000  0.623253  0.250000  1
  F  F48  1  0.904238  0.358955  0.432271  1
  F  F49  1  0.595761  0.858954  0.432271  1
  F  F50  1  0.404239  0.141046  0.567729  1
  F  F51  1  0.095761  0.641046  0.567729  1
  F  F52  1  0.000000  0.376748  0.750000  1
  F  F53  1  0.500000  0.876747  0.750000  1
  F  F54  1  0.595761  0.141046  0.932270  1
  F  F55  1  0.904238  0.641046  0.932270  1
