# generated using pymatgen
data_RbDy2YF10
_symmetry_space_group_name_H-M   'P 1'
_cell_length_a   8.29893543
_cell_length_b   8.29893217
_cell_length_c   8.28851100
_cell_angle_alpha   60.04129513
_cell_angle_beta   60.04131456
_cell_angle_gamma   59.91675543
_symmetry_Int_Tables_number   1
_chemical_formula_structural   RbDy2YF10
_chemical_formula_sum   'Rb2 Dy4 Y2 F20'
_cell_volume   403.64787439
_cell_formula_units_Z   2
loop_
 _symmetry_equiv_pos_site_id
 _symmetry_equiv_pos_as_xyz
  1  'x, y, z'
loop_
 _atom_site_type_symbol
 _atom_site_label
 _atom_site_symmetry_multiplicity
 _atom_site_fract_x
 _atom_site_fract_y
 _atom_site_fract_z
 _atom_site_occupancy
  Rb  Rb0  1  0.250002  0.250000  0.250000  1
  Rb  Rb1  1  0.749998  0.750000  0.750000  1
  Dy  Dy2  1  0.759565  0.240437  0.240436  1
  Dy  Dy3  1  0.240435  0.759563  0.759564  1
  Dy  Dy4  1  0.240437  0.759565  0.240436  1
  Dy  Dy5  1  0.759563  0.240435  0.759564  1
  Y  Y6  1  0.240573  0.240573  0.759428  1
  Y  Y7  1  0.759427  0.759427  0.240572  1
  F  F8  1  0.829813  0.499239  0.500761  1
  F  F9  1  0.170187  0.500761  0.499239  1
  F  F10  1  0.499238  0.829814  0.170186  1
  F  F11  1  0.500762  0.170186  0.829814  1
  F  F12  1  0.499239  0.829813  0.500761  1
  F  F13  1  0.170186  0.500762  0.829814  1
  F  F14  1  0.500761  0.170187  0.499239  1
  F  F15  1  0.829814  0.499238  0.170186  1
  F  F16  1  0.499999  0.499999  0.829242  1
  F  F17  1  0.500001  0.500001  0.170758  1
  F  F18  1  0.170757  0.829243  0.500000  1
  F  F19  1  0.829243  0.170757  0.500000  1
  F  F20  1  0.110190  0.110190  0.111214  1
  F  F21  1  0.889810  0.889810  0.888786  1
  F  F22  1  0.110189  0.110190  0.668407  1
  F  F23  1  0.111213  0.668406  0.110190  1
  F  F24  1  0.889811  0.889810  0.331593  1
  F  F25  1  0.888787  0.331594  0.889810  1
  F  F26  1  0.668407  0.111213  0.110190  1
  F  F27  1  0.331593  0.888787  0.889810  1
