# generated using pymatgen
data_NaTm(BIr)4
_symmetry_space_group_name_H-M   'P 1'
_cell_length_a   7.06200572
_cell_length_b   6.12404770
_cell_length_c   5.46338891
_cell_angle_alpha   74.85680025
_cell_angle_beta   56.83204495
_cell_angle_gamma   48.31117376
_symmetry_Int_Tables_number   1
_chemical_formula_structural   NaTm(BIr)4
_chemical_formula_sum   'Na1 Tm1 B4 Ir4'
_cell_volume   145.69424342
_cell_formula_units_Z   1
loop_
 _symmetry_equiv_pos_site_id
 _symmetry_equiv_pos_as_xyz
  1  'x, y, z'
loop_
 _atom_site_type_symbol
 _atom_site_label
 _atom_site_symmetry_multiplicity
 _atom_site_fract_x
 _atom_site_fract_y
 _atom_site_fract_z
 _atom_site_occupancy
  Na  Na0  1  0.500000  0.500000  0.500000  1
  Tm  Tm1  1  0.750000  0.750000  0.750000  1
  B  B2  1  0.818615  0.181385  0.818615  1
  B  B3  1  0.071374  0.428626  0.071374  1
  B  B4  1  0.181385  0.818615  0.181385  1
  B  B5  1  0.428626  0.071374  0.428626  1
  Ir  Ir6  1  0.129271  0.129271  0.870729  1
  Ir  Ir7  1  0.380202  0.380202  0.119798  1
  Ir  Ir8  1  0.119798  0.119798  0.380202  1
  Ir  Ir9  1  0.870729  0.870729  0.129271  1
