# generated using pymatgen
data_DyLu15(In3Rh)2
_symmetry_space_group_name_H-M   'P 1'
_cell_length_a   10.24407700
_cell_length_b   10.24407782
_cell_length_c   6.89390500
_cell_angle_alpha   90.00000000
_cell_angle_beta   90.00000000
_cell_angle_gamma   120.00000704
_symmetry_Int_Tables_number   1
_chemical_formula_structural   DyLu15(In3Rh)2
_chemical_formula_sum   'Dy1 Lu15 In6 Rh2'
_cell_volume   626.52960666
_cell_formula_units_Z   1
loop_
 _symmetry_equiv_pos_site_id
 _symmetry_equiv_pos_as_xyz
  1  'x, y, z'
loop_
 _atom_site_type_symbol
 _atom_site_label
 _atom_site_symmetry_multiplicity
 _atom_site_fract_x
 _atom_site_fract_y
 _atom_site_fract_z
 _atom_site_occupancy
  Dy  Dy0  1  0.000000  0.000000  0.000614  1
  Lu  Lu1  1  0.532004  0.064007  0.515235  1
  Lu  Lu2  1  0.935993  0.467996  0.515235  1
  Lu  Lu3  1  0.532004  0.467996  0.515235  1
  Lu  Lu4  1  0.467957  0.935915  0.015664  1
  Lu  Lu5  1  0.064085  0.532043  0.015664  1
  Lu  Lu6  1  0.467957  0.532043  0.015664  1
  Lu  Lu7  1  0.177490  0.354980  0.720134  1
  Lu  Lu8  1  0.645020  0.822510  0.720134  1
  Lu  Lu9  1  0.177490  0.822510  0.720134  1
  Lu  Lu10  1  0.822623  0.645248  0.221223  1
  Lu  Lu11  1  0.354752  0.177377  0.221223  1
  Lu  Lu12  1  0.822623  0.177377  0.221223  1
  Lu  Lu13  1  0.666667  0.333333  0.892674  1
  Lu  Lu14  1  0.333333  0.666667  0.394580  1
  Lu  Lu15  1  0.000000  0.000000  0.500320  1
  In  In16  1  0.837398  0.674795  0.757881  1
  In  In17  1  0.325205  0.162602  0.757881  1
  In  In18  1  0.837398  0.162602  0.757881  1
  In  In19  1  0.162732  0.325464  0.262216  1
  In  In20  1  0.674536  0.837268  0.262216  1
  In  In21  1  0.162732  0.837268  0.262216  1
  Rh  Rh22  1  0.666667  0.333333  0.288675  1
  Rh  Rh23  1  0.333333  0.666667  0.790277  1
