# generated using pymatgen
data_Ca2Nb3Ni9As7
_symmetry_space_group_name_H-M   'P 1'
_cell_length_a   3.84352900
_cell_length_b   9.67146838
_cell_length_c   9.67146900
_cell_angle_alpha   119.99999777
_cell_angle_beta   90.00000000
_cell_angle_gamma   90.00000000
_symmetry_Int_Tables_number   1
_chemical_formula_structural   Ca2Nb3Ni9As7
_chemical_formula_sum   'Ca2 Nb3 Ni9 As7'
_cell_volume   311.34770170
_cell_formula_units_Z   1
loop_
 _symmetry_equiv_pos_site_id
 _symmetry_equiv_pos_as_xyz
  1  'x, y, z'
loop_
 _atom_site_type_symbol
 _atom_site_label
 _atom_site_symmetry_multiplicity
 _atom_site_fract_x
 _atom_site_fract_y
 _atom_site_fract_z
 _atom_site_occupancy
  Ca  Ca0  1  0.000000  0.666667  0.333333  1
  Ca  Ca1  1  0.500000  0.333333  0.666667  1
  Nb  Nb2  1  0.500000  0.777337  0.894602  1
  Nb  Nb3  1  0.500000  0.117265  0.222663  1
  Nb  Nb4  1  0.500000  0.105398  0.882735  1
  Ni  Ni5  1  0.000000  0.575378  0.936932  1
  Ni  Ni6  1  0.000000  0.361553  0.424622  1
  Ni  Ni7  1  0.000000  0.063068  0.638447  1
  Ni  Ni8  1  0.000000  0.873257  0.155779  1
  Ni  Ni9  1  0.000000  0.282523  0.126743  1
  Ni  Ni10  1  0.000000  0.844221  0.717477  1
  Ni  Ni11  1  0.500000  0.942328  0.379319  1
  Ni  Ni12  1  0.500000  0.436991  0.057672  1
  Ni  Ni13  1  0.500000  0.620681  0.563009  1
  As  As14  1  0.500000  0.705528  0.118299  1
  As  As15  1  0.500000  0.412773  0.294472  1
  As  As16  1  0.500000  0.881701  0.587227  1
  As  As17  1  0.000000  0.000000  0.000000  1
  As  As18  1  0.000000  0.582124  0.691522  1
  As  As19  1  0.000000  0.109398  0.417876  1
  As  As20  1  0.000000  0.308478  0.890602  1
