# generated using pymatgen
data_MoOsRu5W
_symmetry_space_group_name_H-M   'P 1'
_cell_length_a   5.52650700
_cell_length_b   5.52428045
_cell_length_c   4.37882300
_cell_angle_alpha   90.00000000
_cell_angle_beta   90.00000000
_cell_angle_gamma   120.01333958
_symmetry_Int_Tables_number   1
_chemical_formula_structural   MoOsRu5W
_chemical_formula_sum   'Mo1 Os1 Ru5 W1'
_cell_volume   115.75934807
_cell_formula_units_Z   1
loop_
 _symmetry_equiv_pos_site_id
 _symmetry_equiv_pos_as_xyz
  1  'x, y, z'
loop_
 _atom_site_type_symbol
 _atom_site_label
 _atom_site_symmetry_multiplicity
 _atom_site_fract_x
 _atom_site_fract_y
 _atom_site_fract_z
 _atom_site_occupancy
  Mo  Mo0  1  0.333761  0.667523  0.750000  1
  Os  Os1  1  0.166874  0.333749  0.250000  1
  Ru  Ru2  1  0.666441  0.830346  0.250000  1
  Ru  Ru3  1  0.163905  0.830346  0.250000  1
  Ru  Ru4  1  0.833547  0.667094  0.750000  1
  Ru  Ru5  1  0.333450  0.167741  0.750000  1
  Ru  Ru6  1  0.834291  0.167741  0.750000  1
  W  W7  1  0.667730  0.335459  0.250000  1
