# generated using pymatgen
data_Ba4InPtO8
_symmetry_space_group_name_H-M   'P 1'
_cell_length_a   7.30680539
_cell_length_b   7.30680484
_cell_length_c   5.97496900
_cell_angle_alpha   90.00000000
_cell_angle_beta   90.00000000
_cell_angle_gamma   131.83411684
_symmetry_Int_Tables_number   1
_chemical_formula_structural   Ba4InPtO8
_chemical_formula_sum   'Ba4 In1 Pt1 O8'
_cell_volume   237.68020643
_cell_formula_units_Z   1
loop_
 _symmetry_equiv_pos_site_id
 _symmetry_equiv_pos_as_xyz
  1  'x, y, z'
loop_
 _atom_site_type_symbol
 _atom_site_label
 _atom_site_symmetry_multiplicity
 _atom_site_fract_x
 _atom_site_fract_y
 _atom_site_fract_z
 _atom_site_occupancy
  Ba  Ba0  1  0.356048  0.643952  0.000000  1
  Ba  Ba1  1  0.855943  0.144057  0.500000  1
  Ba  Ba2  1  0.144057  0.855943  0.500000  1
  Ba  Ba3  1  0.643952  0.356048  0.000000  1
  In  In4  1  0.000000  0.000000  0.000000  1
  Pt  Pt5  1  0.500000  0.500000  0.500000  1
  O  O6  1  0.259738  0.259738  0.736795  1
  O  O7  1  0.740262  0.740262  0.263205  1
  O  O8  1  0.740262  0.740262  0.736795  1
  O  O9  1  0.259738  0.259738  0.263205  1
  O  O10  1  0.159329  0.840671  0.000000  1
  O  O11  1  0.654123  0.345877  0.500000  1
  O  O12  1  0.345877  0.654123  0.500000  1
  O  O13  1  0.840671  0.159329  0.000000  1
