# generated using pymatgen
data_Ta4Mn(RhS6)2
_symmetry_space_group_name_H-M   'P 1'
_cell_length_a   7.07133936
_cell_length_b   7.07133899
_cell_length_c   18.86914102
_cell_angle_alpha   68.53253812
_cell_angle_beta   68.53253873
_cell_angle_gamma   27.94342714
_symmetry_Int_Tables_number   1
_chemical_formula_structural   Ta4Mn(RhS6)2
_chemical_formula_sum   'Ta4 Mn1 Rh2 S12'
_cell_volume   409.49014952
_cell_formula_units_Z   1
loop_
 _symmetry_equiv_pos_site_id
 _symmetry_equiv_pos_as_xyz
  1  'x, y, z'
loop_
 _atom_site_type_symbol
 _atom_site_label
 _atom_site_symmetry_multiplicity
 _atom_site_fract_x
 _atom_site_fract_y
 _atom_site_fract_z
 _atom_site_occupancy
  Ta  Ta0  1  0.620981  0.620981  0.853632  1
  Ta  Ta1  1  0.379019  0.379019  0.146368  1
  Ta  Ta2  1  0.745608  0.745608  0.593392  1
  Ta  Ta3  1  0.254392  0.254392  0.406608  1
  Mn  Mn4  1  0.000000  0.000000  0.000000  1
  Rh  Rh5  1  0.231372  0.231372  0.719548  1
  Rh  Rh6  1  0.768628  0.768628  0.280452  1
  S  S7  1  0.976861  0.976861  0.886379  1
  S  S8  1  0.023139  0.023139  0.113621  1
  S  S9  1  0.627639  0.627639  0.405735  1
  S  S10  1  0.372361  0.372361  0.594265  1
  S  S11  1  0.144890  0.144890  0.552888  1
  S  S12  1  0.855110  0.855110  0.447112  1
  S  S13  1  0.805239  0.805239  0.769904  1
  S  S14  1  0.194761  0.194761  0.230096  1
  S  S15  1  0.176370  0.176370  0.928576  1
  S  S16  1  0.823630  0.823630  0.071424  1
  S  S17  1  0.607415  0.607415  0.721363  1
  S  S18  1  0.392585  0.392585  0.278637  1
