# generated using pymatgen
data_DyYCo4(PRu)6
_symmetry_space_group_name_H-M   'P 1'
_cell_length_a   3.78696000
_cell_length_b   10.62411100
_cell_length_c   12.12016500
_cell_angle_alpha   90.00113893
_cell_angle_beta   90.00000000
_cell_angle_gamma   90.00000000
_symmetry_Int_Tables_number   1
_chemical_formula_structural   DyYCo4(PRu)6
_chemical_formula_sum   'Dy2 Y2 Co8 P12 Ru12'
_cell_volume   487.63160913
_cell_formula_units_Z   2
loop_
 _symmetry_equiv_pos_site_id
 _symmetry_equiv_pos_as_xyz
  1  'x, y, z'
loop_
 _atom_site_type_symbol
 _atom_site_label
 _atom_site_symmetry_multiplicity
 _atom_site_fract_x
 _atom_site_fract_y
 _atom_site_fract_z
 _atom_site_occupancy
  Dy  Dy0  1  0.250000  0.915686  0.206741  1
  Dy  Dy1  1  0.750000  0.084314  0.793259  1
  Y  Y2  1  0.750000  0.415698  0.293245  1
  Y  Y3  1  0.250000  0.584302  0.706755  1
  Co  Co4  1  0.250000  0.612517  0.195687  1
  Co  Co5  1  0.750000  0.387483  0.804313  1
  Co  Co6  1  0.750000  0.112465  0.304292  1
  Co  Co7  1  0.250000  0.887535  0.695708  1
  Co  Co8  1  0.250000  0.037031  0.435031  1
  Co  Co9  1  0.750000  0.962969  0.564969  1
  Co  Co10  1  0.750000  0.537044  0.064940  1
  Co  Co11  1  0.250000  0.462956  0.935060  1
  P  P12  1  0.250000  0.074245  0.612502  1
  P  P13  1  0.750000  0.925755  0.387498  1
  P  P14  1  0.750000  0.574251  0.887539  1
  P  P15  1  0.250000  0.425749  0.112461  1
  P  P16  1  0.250000  0.228173  0.371393  1
  P  P17  1  0.750000  0.771827  0.628607  1
  P  P18  1  0.750000  0.728208  0.128630  1
  P  P19  1  0.250000  0.271792  0.871370  1
  P  P20  1  0.250000  0.898574  0.887049  1
  P  P21  1  0.750000  0.101426  0.112951  1
  P  P22  1  0.750000  0.398537  0.612917  1
  P  P23  1  0.250000  0.601463  0.387083  1
  Ru  Ru24  1  0.250000  0.793958  0.486354  1
  Ru  Ru25  1  0.750000  0.206042  0.513646  1
  Ru  Ru26  1  0.750000  0.293943  0.013624  1
  Ru  Ru27  1  0.250000  0.706057  0.986376  1
  Ru  Ru28  1  0.250000  0.094686  0.985815  1
  Ru  Ru29  1  0.750000  0.905314  0.014185  1
  Ru  Ru30  1  0.750000  0.594701  0.514130  1
  Ru  Ru31  1  0.250000  0.405299  0.485870  1
  Ru  Ru32  1  0.250000  0.276205  0.680479  1
  Ru  Ru33  1  0.750000  0.723795  0.319521  1
  Ru  Ru34  1  0.750000  0.776251  0.819547  1
  Ru  Ru35  1  0.250000  0.223749  0.180453  1
