# generated using pymatgen
data_Nd2Sn2Rh6C
_symmetry_space_group_name_H-M   'P 1'
_cell_length_a   5.86044100
_cell_length_b   5.86044007
_cell_length_c   13.57180400
_cell_angle_alpha   90.00000000
_cell_angle_beta   90.00000000
_cell_angle_gamma   119.99999960
_symmetry_Int_Tables_number   1
_chemical_formula_structural   Nd2Sn2Rh6C
_chemical_formula_sum   'Nd4 Sn4 Rh12 C2'
_cell_volume   403.67210543
_cell_formula_units_Z   2
loop_
 _symmetry_equiv_pos_site_id
 _symmetry_equiv_pos_as_xyz
  1  'x, y, z'
loop_
 _atom_site_type_symbol
 _atom_site_label
 _atom_site_symmetry_multiplicity
 _atom_site_fract_x
 _atom_site_fract_y
 _atom_site_fract_z
 _atom_site_occupancy
  Nd  Nd0  1  0.333333  0.666667  0.401113  1
  Nd  Nd1  1  0.666667  0.333333  0.901113  1
  Nd  Nd2  1  0.666667  0.333333  0.598887  1
  Nd  Nd3  1  0.333333  0.666667  0.098887  1
  Sn  Sn4  1  0.000000  0.000000  0.750000  1
  Sn  Sn5  1  0.000000  0.000000  0.250000  1
  Sn  Sn6  1  0.333333  0.666667  0.750000  1
  Sn  Sn7  1  0.666667  0.333333  0.250000  1
  Rh  Rh8  1  0.333792  0.166896  0.410445  1
  Rh  Rh9  1  0.833104  0.166896  0.410445  1
  Rh  Rh10  1  0.833104  0.666208  0.410445  1
  Rh  Rh11  1  0.166896  0.333792  0.910445  1
  Rh  Rh12  1  0.666208  0.833104  0.589555  1
  Rh  Rh13  1  0.666208  0.833104  0.910445  1
  Rh  Rh14  1  0.333792  0.166896  0.089555  1
  Rh  Rh15  1  0.166896  0.333792  0.589555  1
  Rh  Rh16  1  0.166896  0.833104  0.589555  1
  Rh  Rh17  1  0.833104  0.166896  0.089555  1
  Rh  Rh18  1  0.833104  0.666208  0.089555  1
  Rh  Rh19  1  0.166896  0.833104  0.910445  1
  C  C20  1  0.000000  0.000000  0.500000  1
  C  C21  1  0.000000  0.000000  0.000000  1
