# generated using pymatgen
data_Ba6Ho2MnNiO12
_symmetry_space_group_name_H-M   'P 1'
_cell_length_a   7.14700957
_cell_length_b   7.14700974
_cell_length_c   7.14701014
_cell_angle_alpha   93.48667776
_cell_angle_beta   93.48667614
_cell_angle_gamma   93.48668040
_symmetry_Int_Tables_number   1
_chemical_formula_structural   Ba6Ho2MnNiO12
_chemical_formula_sum   'Ba6 Ho2 Mn1 Ni1 O12'
_cell_volume   362.95385323
_cell_formula_units_Z   1
loop_
 _symmetry_equiv_pos_site_id
 _symmetry_equiv_pos_as_xyz
  1  'x, y, z'
loop_
 _atom_site_type_symbol
 _atom_site_label
 _atom_site_symmetry_multiplicity
 _atom_site_fract_x
 _atom_site_fract_y
 _atom_site_fract_z
 _atom_site_occupancy
  Ba  Ba0  1  0.377461  0.111882  0.750948  1
  Ba  Ba1  1  0.750948  0.377462  0.111883  1
  Ba  Ba2  1  0.249051  0.622539  0.888118  1
  Ba  Ba3  1  0.622538  0.888117  0.249053  1
  Ba  Ba4  1  0.111883  0.750948  0.377462  1
  Ba  Ba5  1  0.888117  0.249052  0.622539  1
  Ho  Ho6  1  0.755680  0.755681  0.755680  1
  Ho  Ho7  1  0.244321  0.244320  0.244320  1
  Mn  Mn8  1  0.500000  0.500000  0.500000  1
  Ni  Ni9  1  0.000000  0.000000  0.000000  1
  O  O10  1  0.766113  0.585738  0.464840  1
  O  O11  1  0.585739  0.464839  0.766113  1
  O  O12  1  0.464839  0.766113  0.585739  1
  O  O13  1  0.033586  0.898225  0.709806  1
  O  O14  1  0.898224  0.709805  0.033586  1
  O  O15  1  0.709806  0.033586  0.898224  1
  O  O16  1  0.233888  0.414261  0.535161  1
  O  O17  1  0.414261  0.535160  0.233888  1
  O  O18  1  0.535160  0.233888  0.414260  1
  O  O19  1  0.966414  0.101776  0.290195  1
  O  O20  1  0.290195  0.966413  0.101775  1
  O  O21  1  0.101775  0.290194  0.966413  1
