# generated using pymatgen
data_Hf3AlIr2
_symmetry_space_group_name_H-M   'P 1'
_cell_length_a   8.49608300
_cell_length_b   8.49608301
_cell_length_c   8.49608300
_cell_angle_alpha   60.00000392
_cell_angle_beta   60.00000390
_cell_angle_gamma   60.00000262
_symmetry_Int_Tables_number   1
_chemical_formula_structural   Hf3AlIr2
_chemical_formula_sum   'Hf12 Al4 Ir8'
_cell_volume   433.65192256
_cell_formula_units_Z   4
loop_
 _symmetry_equiv_pos_site_id
 _symmetry_equiv_pos_as_xyz
  1  'x, y, z'
loop_
 _atom_site_type_symbol
 _atom_site_label
 _atom_site_symmetry_multiplicity
 _atom_site_fract_x
 _atom_site_fract_y
 _atom_site_fract_z
 _atom_site_occupancy
  Hf  Hf0  1  0.806101  0.806101  0.193899  1
  Hf  Hf1  1  0.193899  0.193899  0.806101  1
  Hf  Hf2  1  0.806101  0.193899  0.806101  1
  Hf  Hf3  1  0.193899  0.806101  0.193899  1
  Hf  Hf4  1  0.193899  0.806101  0.806101  1
  Hf  Hf5  1  0.806101  0.193899  0.193899  1
  Hf  Hf6  1  0.443899  0.443899  0.056101  1
  Hf  Hf7  1  0.056101  0.056101  0.443899  1
  Hf  Hf8  1  0.443899  0.056101  0.443899  1
  Hf  Hf9  1  0.056101  0.443899  0.056101  1
  Hf  Hf10  1  0.056101  0.443899  0.443899  1
  Hf  Hf11  1  0.443899  0.056101  0.056101  1
  Al  Al12  1  0.125000  0.625000  0.625000  1
  Al  Al13  1  0.625000  0.125000  0.625000  1
  Al  Al14  1  0.625000  0.625000  0.125000  1
  Al  Al15  1  0.625000  0.625000  0.625000  1
  Ir  Ir16  1  0.767840  0.410720  0.410720  1
  Ir  Ir17  1  0.410720  0.767840  0.410720  1
  Ir  Ir18  1  0.410720  0.410720  0.767840  1
  Ir  Ir19  1  0.410720  0.410720  0.410720  1
  Ir  Ir20  1  0.482160  0.839280  0.839280  1
  Ir  Ir21  1  0.839280  0.482160  0.839280  1
  Ir  Ir22  1  0.839280  0.839280  0.482160  1
  Ir  Ir23  1  0.839280  0.839280  0.839280  1
