# generated using pymatgen
data_Er8BeSi11Pt4
_symmetry_space_group_name_H-M   'P 1'
_cell_length_a   8.19438955
_cell_length_b   8.19438890
_cell_length_c   7.90903300
_cell_angle_alpha   89.97891889
_cell_angle_beta   90.02107411
_cell_angle_gamma   120.09874578
_symmetry_Int_Tables_number   1
_chemical_formula_structural   Er8BeSi11Pt4
_chemical_formula_sum   'Er8 Be1 Si11 Pt4'
_cell_volume   459.46682801
_cell_formula_units_Z   1
loop_
 _symmetry_equiv_pos_site_id
 _symmetry_equiv_pos_as_xyz
  1  'x, y, z'
loop_
 _atom_site_type_symbol
 _atom_site_label
 _atom_site_symmetry_multiplicity
 _atom_site_fract_x
 _atom_site_fract_y
 _atom_site_fract_z
 _atom_site_occupancy
  Er  Er0  1  0.000788  0.999212  0.250361  1
  Er  Er1  1  0.001169  0.998831  0.748634  1
  Er  Er2  1  0.494072  0.505928  0.255202  1
  Er  Er3  1  0.500520  0.995089  0.255476  1
  Er  Er4  1  0.004911  0.499480  0.255476  1
  Er  Er5  1  0.502776  0.497224  0.745940  1
  Er  Er6  1  0.987777  0.491190  0.743827  1
  Er  Er7  1  0.508810  0.012223  0.743827  1
  Be  Be8  1  0.836447  0.163553  0.500946  1
  Si  Si9  1  0.831394  0.669315  0.500609  1
  Si  Si10  1  0.330685  0.168606  0.500609  1
  Si  Si11  1  0.835614  0.164386  0.996699  1
  Si  Si12  1  0.834612  0.669172  0.997951  1
  Si  Si13  1  0.330828  0.165388  0.997951  1
  Si  Si14  1  0.165224  0.834776  0.002372  1
  Si  Si15  1  0.669243  0.833507  0.001836  1
  Si  Si16  1  0.166493  0.330757  0.001836  1
  Si  Si17  1  0.164942  0.835058  0.498451  1
  Si  Si18  1  0.678214  0.850116  0.500017  1
  Si  Si19  1  0.149884  0.321786  0.500017  1
  Pt  Pt20  1  0.671036  0.328964  0.485983  1
  Pt  Pt21  1  0.667056  0.332944  0.016006  1
  Pt  Pt22  1  0.333014  0.666986  0.986139  1
  Pt  Pt23  1  0.334492  0.665508  0.513835  1
