# generated using pymatgen
data_CsNdTiSe4
_symmetry_space_group_name_H-M   'P 1'
_cell_length_a   7.20295700
_cell_length_b   6.98084209
_cell_length_c   20.06435721
_cell_angle_alpha   70.89586123
_cell_angle_beta   90.00000000
_cell_angle_gamma   90.00000000
_symmetry_Int_Tables_number   1
_chemical_formula_structural   CsNdTiSe4
_chemical_formula_sum   'Cs4 Nd4 Ti4 Se16'
_cell_volume   953.32581292
_cell_formula_units_Z   4
loop_
 _symmetry_equiv_pos_site_id
 _symmetry_equiv_pos_as_xyz
  1  'x, y, z'
loop_
 _atom_site_type_symbol
 _atom_site_label
 _atom_site_symmetry_multiplicity
 _atom_site_fract_x
 _atom_site_fract_y
 _atom_site_fract_z
 _atom_site_occupancy
  Cs  Cs0  1  0.754927  0.719776  0.033444  1
  Cs  Cs1  1  0.245073  0.280224  0.966556  1
  Cs  Cs2  1  0.745073  0.719776  0.533444  1
  Cs  Cs3  1  0.254927  0.280224  0.466556  1
  Nd  Nd4  1  0.229680  0.224455  0.227311  1
  Nd  Nd5  1  0.729680  0.775545  0.272689  1
  Nd  Nd6  1  0.770320  0.775545  0.772689  1
  Nd  Nd7  1  0.270320  0.224455  0.727311  1
  Ti  Ti8  1  0.731618  0.217293  0.833595  1
  Ti  Ti9  1  0.768382  0.217293  0.333595  1
  Ti  Ti10  1  0.231618  0.782707  0.666405  1
  Ti  Ti11  1  0.268382  0.782707  0.166405  1
  Se  Se12  1  0.505407  0.035828  0.144755  1
  Se  Se13  1  0.761393  0.419896  0.408640  1
  Se  Se14  1  0.005386  0.006965  0.845159  1
  Se  Se15  1  0.833954  0.431030  0.217101  1
  Se  Se16  1  0.994593  0.035828  0.644755  1
  Se  Se17  1  0.261393  0.580104  0.091360  1
  Se  Se18  1  0.738607  0.419896  0.908640  1
  Se  Se19  1  0.333954  0.568970  0.282899  1
  Se  Se20  1  0.238607  0.580104  0.591360  1
  Se  Se21  1  0.494593  0.964172  0.855245  1
  Se  Se22  1  0.666046  0.431030  0.717101  1
  Se  Se23  1  0.166046  0.568970  0.782899  1
  Se  Se24  1  0.005407  0.964172  0.355245  1
  Se  Se25  1  0.994614  0.993035  0.154841  1
  Se  Se26  1  0.494614  0.006965  0.345159  1
  Se  Se27  1  0.505386  0.993035  0.654841  1
