# generated using pymatgen
data_Eu4PuZr3O14
_symmetry_space_group_name_H-M   'P 1'
_cell_length_a   7.61487279
_cell_length_b   7.61487451
_cell_length_c   7.61487300
_cell_angle_alpha   59.87697059
_cell_angle_beta   59.87696311
_cell_angle_gamma   59.87696940
_symmetry_Int_Tables_number   1
_chemical_formula_structural   Eu4PuZr3O14
_chemical_formula_sum   'Eu4 Pu1 Zr3 O14'
_cell_volume   311.35726055
_cell_formula_units_Z   1
loop_
 _symmetry_equiv_pos_site_id
 _symmetry_equiv_pos_as_xyz
  1  'x, y, z'
loop_
 _atom_site_type_symbol
 _atom_site_label
 _atom_site_symmetry_multiplicity
 _atom_site_fract_x
 _atom_site_fract_y
 _atom_site_fract_z
 _atom_site_occupancy
  Eu  Eu0  1  0.625000  0.125000  0.625000  1
  Eu  Eu1  1  0.625000  0.625000  0.125000  1
  Eu  Eu2  1  0.125000  0.625000  0.625000  1
  Eu  Eu3  1  0.625000  0.625000  0.625000  1
  Pu  Pu4  1  0.125000  0.125000  0.125000  1
  Zr  Zr5  1  0.625000  0.125000  0.125000  1
  Zr  Zr6  1  0.125000  0.125000  0.625000  1
  Zr  Zr7  1  0.125000  0.625000  0.125000  1
  O  O8  1  0.204857  0.792722  0.792722  1
  O  O9  1  0.792722  0.792722  0.204857  1
  O  O10  1  0.792722  0.204857  0.792722  1
  O  O11  1  0.208664  0.793719  0.208664  1
  O  O12  1  0.208664  0.208664  0.793719  1
  O  O13  1  0.793719  0.208664  0.208664  1
  O  O14  1  0.456281  0.041336  0.041336  1
  O  O15  1  0.041336  0.041336  0.456281  1
  O  O16  1  0.041336  0.456281  0.041336  1
  O  O17  1  0.457278  0.045143  0.457278  1
  O  O18  1  0.750873  0.750873  0.750873  1
  O  O19  1  0.457278  0.457278  0.045143  1
  O  O20  1  0.045143  0.457278  0.457278  1
  O  O21  1  0.499127  0.499127  0.499127  1
