# generated using pymatgen
data_Ba4Ca4Si3Ge
_symmetry_space_group_name_H-M   'P 1'
_cell_length_a   5.08112800
_cell_length_b   8.59320810
_cell_length_c   9.20974111
_cell_angle_alpha   89.98242779
_cell_angle_beta   90.00000000
_cell_angle_gamma   90.00000000
_symmetry_Int_Tables_number   1
_chemical_formula_structural   Ba4Ca4Si3Ge
_chemical_formula_sum   'Ba4 Ca4 Si3 Ge1'
_cell_volume   402.12665964
_cell_formula_units_Z   1
loop_
 _symmetry_equiv_pos_site_id
 _symmetry_equiv_pos_as_xyz
  1  'x, y, z'
loop_
 _atom_site_type_symbol
 _atom_site_label
 _atom_site_symmetry_multiplicity
 _atom_site_fract_x
 _atom_site_fract_y
 _atom_site_fract_z
 _atom_site_occupancy
  Ba  Ba0  1  0.250000  0.028707  0.176005  1
  Ba  Ba1  1  0.750000  0.972015  0.823815  1
  Ba  Ba2  1  0.250000  0.527879  0.324549  1
  Ba  Ba3  1  0.750000  0.471719  0.675759  1
  Ca  Ca4  1  0.750000  0.858682  0.426064  1
  Ca  Ca5  1  0.250000  0.641257  0.925132  1
  Ca  Ca6  1  0.750000  0.357960  0.074274  1
  Ca  Ca7  1  0.250000  0.141494  0.574314  1
  Si  Si8  1  0.250000  0.281099  0.891415  1
  Si  Si9  1  0.750000  0.218880  0.391386  1
  Si  Si10  1  0.250000  0.781085  0.608585  1
  Ge  Ge11  1  0.750000  0.719224  0.108702  1
