# generated using pymatgen
data_Ba6Sr2LuUSe12
_symmetry_space_group_name_H-M   'P 1'
_cell_length_a   8.96096004
_cell_length_b   8.96095987
_cell_length_c   8.96096085
_cell_angle_alpha   91.12119161
_cell_angle_beta   91.12120025
_cell_angle_gamma   91.12120264
_symmetry_Int_Tables_number   1
_chemical_formula_structural   Ba6Sr2LuUSe12
_chemical_formula_sum   'Ba6 Sr2 Lu1 U1 Se12'
_cell_volume   719.13566443
_cell_formula_units_Z   1
loop_
 _symmetry_equiv_pos_site_id
 _symmetry_equiv_pos_as_xyz
  1  'x, y, z'
loop_
 _atom_site_type_symbol
 _atom_site_label
 _atom_site_symmetry_multiplicity
 _atom_site_fract_x
 _atom_site_fract_y
 _atom_site_fract_z
 _atom_site_occupancy
  Ba  Ba0  1  0.871066  0.621526  0.259354  1
  Ba  Ba1  1  0.259354  0.871066  0.621526  1
  Ba  Ba2  1  0.621526  0.259354  0.871066  1
  Ba  Ba3  1  0.740646  0.128934  0.378474  1
  Ba  Ba4  1  0.378474  0.740646  0.128934  1
  Ba  Ba5  1  0.128934  0.378474  0.740646  1
  Sr  Sr6  1  0.255065  0.255065  0.255065  1
  Sr  Sr7  1  0.744935  0.744935  0.744935  1
  Lu  Lu8  1  0.500000  0.500000  0.500000  1
  U  U9  1  0.000000  0.000000  0.000000  1
  Se  Se10  1  0.201658  0.557579  0.415156  1
  Se  Se11  1  0.415156  0.201658  0.557579  1
  Se  Se12  1  0.557579  0.415156  0.201658  1
  Se  Se13  1  0.923254  0.051156  0.704713  1
  Se  Se14  1  0.704713  0.923254  0.051156  1
  Se  Se15  1  0.051156  0.704713  0.923254  1
  Se  Se16  1  0.798342  0.442421  0.584844  1
  Se  Se17  1  0.584844  0.798342  0.442421  1
  Se  Se18  1  0.442421  0.584844  0.798342  1
  Se  Se19  1  0.076746  0.948844  0.295287  1
  Se  Se20  1  0.295287  0.076746  0.948844  1
  Se  Se21  1  0.948844  0.295287  0.076746  1
