# generated using pymatgen
data_Dy4Al14Ga3GeIr6
_symmetry_space_group_name_H-M   'P 1'
_cell_length_a   7.54820684
_cell_length_b   7.54820621
_cell_length_c   9.51225500
_cell_angle_alpha   90.00000000
_cell_angle_beta   90.00000000
_cell_angle_gamma   119.68940619
_symmetry_Int_Tables_number   1
_chemical_formula_structural   Dy4Al14Ga3GeIr6
_chemical_formula_sum   'Dy4 Al14 Ga3 Ge1 Ir6'
_cell_volume   470.81729399
_cell_formula_units_Z   1
loop_
 _symmetry_equiv_pos_site_id
 _symmetry_equiv_pos_as_xyz
  1  'x, y, z'
loop_
 _atom_site_type_symbol
 _atom_site_label
 _atom_site_symmetry_multiplicity
 _atom_site_fract_x
 _atom_site_fract_y
 _atom_site_fract_z
 _atom_site_occupancy
  Dy  Dy0  1  0.996600  0.676034  0.750000  1
  Dy  Dy1  1  0.003444  0.330121  0.250000  1
  Dy  Dy2  1  0.676034  0.996600  0.750000  1
  Dy  Dy3  1  0.330121  0.003444  0.250000  1
  Al  Al4  1  0.999646  0.337358  0.573700  1
  Al  Al5  1  0.996785  0.665257  0.426913  1
  Al  Al6  1  0.996785  0.665257  0.073087  1
  Al  Al7  1  0.337358  0.999646  0.926300  1
  Al  Al8  1  0.999646  0.337358  0.926300  1
  Al  Al9  1  0.665257  0.996785  0.073087  1
  Al  Al10  1  0.665257  0.996785  0.426913  1
  Al  Al11  1  0.337358  0.999646  0.573700  1
  Al  Al12  1  0.333367  0.333367  0.054690  1
  Al  Al13  1  0.663608  0.663608  0.939170  1
  Al  Al14  1  0.663608  0.663608  0.560830  1
  Al  Al15  1  0.333367  0.333367  0.445310  1
  Al  Al16  1  0.336083  0.553560  0.750000  1
  Al  Al17  1  0.553560  0.336083  0.750000  1
  Ga  Ga18  1  0.873343  0.873343  0.250000  1
  Ga  Ga19  1  0.660338  0.451559  0.250000  1
  Ga  Ga20  1  0.451559  0.660338  0.250000  1
  Ge  Ge21  1  0.136490  0.136490  0.750000  1
  Ir  Ir22  1  0.669345  0.326613  0.502037  1
  Ir  Ir23  1  0.326613  0.669345  0.502037  1
  Ir  Ir24  1  0.326613  0.669345  0.997963  1
  Ir  Ir25  1  0.669345  0.326613  0.997963  1
  Ir  Ir26  1  0.999235  0.999235  0.504004  1
  Ir  Ir27  1  0.999235  0.999235  0.995996  1
