# generated using pymatgen
data_LiDy3Cu3Si4
_symmetry_space_group_name_H-M   'P 1'
_cell_length_a   7.94529130
_cell_length_b   7.87171839
_cell_length_c   7.87171820
_cell_angle_alpha   149.34113578
_cell_angle_beta   131.00283298
_cell_angle_gamma   58.82797342
_symmetry_Int_Tables_number   1
_chemical_formula_structural   LiDy3Cu3Si4
_chemical_formula_sum   'Li1 Dy3 Cu3 Si4'
_cell_volume   188.05483524
_cell_formula_units_Z   1
loop_
 _symmetry_equiv_pos_site_id
 _symmetry_equiv_pos_as_xyz
  1  'x, y, z'
loop_
 _atom_site_type_symbol
 _atom_site_label
 _atom_site_symmetry_multiplicity
 _atom_site_fract_x
 _atom_site_fract_y
 _atom_site_fract_z
 _atom_site_occupancy
  Li  Li0  1  0.517943  0.829239  0.688705  1
  Dy  Dy1  1  0.875900  0.370207  0.505693  1
  Dy  Dy2  1  0.126436  0.629324  0.497112  1
  Dy  Dy3  1  0.501739  0.501194  0.000545  1
  Cu  Cu4  1  0.855281  0.166327  0.688953  1
  Cu  Cu5  1  0.144778  0.831585  0.313193  1
  Cu  Cu6  1  0.478895  0.172582  0.306312  1
  Si  Si7  1  0.819928  0.001519  0.818409  1
  Si  Si8  1  0.186440  0.000586  0.185854  1
  Si  Si9  1  0.269777  0.283425  0.986352  1
  Si  Si10  1  0.722882  0.714011  0.008872  1
