# generated using pymatgen
data_ThMgCoSiIr
_symmetry_space_group_name_H-M   'P 1'
_cell_length_a   3.97027000
_cell_length_b   3.97027000
_cell_length_c   11.38545000
_cell_angle_alpha   90.00000000
_cell_angle_beta   90.00000000
_cell_angle_gamma   90.00000000
_symmetry_Int_Tables_number   1
_chemical_formula_structural   ThMgCoSiIr
_chemical_formula_sum   'Th2 Mg2 Co2 Si2 Ir2'
_cell_volume   179.46934786
_cell_formula_units_Z   2
loop_
 _symmetry_equiv_pos_site_id
 _symmetry_equiv_pos_as_xyz
  1  'x, y, z'
loop_
 _atom_site_type_symbol
 _atom_site_label
 _atom_site_symmetry_multiplicity
 _atom_site_fract_x
 _atom_site_fract_y
 _atom_site_fract_z
 _atom_site_occupancy
  Th  Th0  1  0.000000  0.500000  0.225564  1
  Th  Th1  1  0.500000  0.000000  0.774436  1
  Mg  Mg2  1  0.000000  0.000000  0.500000  1
  Mg  Mg3  1  0.500000  0.500000  0.500000  1
  Co  Co4  1  0.000000  0.000000  0.000000  1
  Co  Co5  1  0.500000  0.500000  0.000000  1
  Si  Si6  1  0.000000  0.500000  0.898138  1
  Si  Si7  1  0.500000  0.000000  0.101862  1
  Ir  Ir8  1  0.000000  0.500000  0.678217  1
  Ir  Ir9  1  0.500000  0.000000  0.321783  1
