# generated using pymatgen
data_CaNi2F6
_symmetry_space_group_name_H-M   'P 1'
_cell_length_a   5.24788202
_cell_length_b   5.24784539
_cell_length_c   9.81205713
_cell_angle_alpha   89.99938709
_cell_angle_beta   90.00031415
_cell_angle_gamma   119.99976779
_symmetry_Int_Tables_number   1
_chemical_formula_structural   CaNi2F6
_chemical_formula_sum   'Ca2 Ni4 F12'
_cell_volume   234.02206682
_cell_formula_units_Z   2
loop_
 _symmetry_equiv_pos_site_id
 _symmetry_equiv_pos_as_xyz
  1  'x, y, z'
loop_
 _atom_site_type_symbol
 _atom_site_label
 _atom_site_symmetry_multiplicity
 _atom_site_fract_x
 _atom_site_fract_y
 _atom_site_fract_z
 _atom_site_occupancy
  Ca  Ca0  1  0.999994  0.999997  0.000001  1
  Ca  Ca1  1  0.000004  0.000004  0.500001  1
  Ni  Ni2  1  0.332617  0.666275  0.249996  1
  Ni  Ni3  1  0.667382  0.333657  0.749996  1
  Ni  Ni4  1  0.667128  0.333606  0.249998  1
  Ni  Ni5  1  0.332871  0.666476  0.749998  1
  F  F6  1  0.647500  0.647584  0.137875  1
  F  F7  1  0.999927  0.352442  0.137880  1
  F  F8  1  0.352322  0.999908  0.137840  1
  F  F9  1  0.352321  0.352416  0.362162  1
  F  F10  1  0.999927  0.647489  0.362120  1
  F  F11  1  0.647502  0.999907  0.362132  1
  F  F12  1  0.352500  0.000082  0.637875  1
  F  F13  1  0.000072  0.352512  0.637880  1
  F  F14  1  0.647680  0.647590  0.637840  1
  F  F15  1  0.647678  0.000094  0.862162  1
  F  F16  1  0.000074  0.647561  0.862120  1
  F  F17  1  0.352500  0.352405  0.862132  1
