# generated using pymatgen
data_Tb10Dy2CoSi8Ni3
_symmetry_space_group_name_H-M   'P 1'
_cell_length_a   4.14186600
_cell_length_b   11.27562337
_cell_length_c   11.36671534
_cell_angle_alpha   89.97126639
_cell_angle_beta   90.00000000
_cell_angle_gamma   90.00000000
_symmetry_Int_Tables_number   1
_chemical_formula_structural   Tb10Dy2CoSi8Ni3
_chemical_formula_sum   'Tb10 Dy2 Co1 Si8 Ni3'
_cell_volume   530.84964926
_cell_formula_units_Z   1
loop_
 _symmetry_equiv_pos_site_id
 _symmetry_equiv_pos_as_xyz
  1  'x, y, z'
loop_
 _atom_site_type_symbol
 _atom_site_label
 _atom_site_symmetry_multiplicity
 _atom_site_fract_x
 _atom_site_fract_y
 _atom_site_fract_z
 _atom_site_occupancy
  Tb  Tb0  1  0.250000  0.059523  0.882062  1
  Tb  Tb1  1  0.250000  0.441869  0.382271  1
  Tb  Tb2  1  0.750000  0.941046  0.116906  1
  Tb  Tb3  1  0.750000  0.559948  0.616833  1
  Tb  Tb4  1  0.250000  0.123361  0.557901  1
  Tb  Tb5  1  0.250000  0.374950  0.057906  1
  Tb  Tb6  1  0.750000  0.873266  0.440802  1
  Tb  Tb7  1  0.750000  0.624088  0.942397  1
  Tb  Tb8  1  0.250000  0.804069  0.713941  1
  Tb  Tb9  1  0.250000  0.697161  0.216883  1
  Dy  Dy10  1  0.750000  0.195890  0.285121  1
  Dy  Dy11  1  0.750000  0.305227  0.785237  1
  Co  Co12  1  0.750000  0.635060  0.369481  1
  Si  Si13  1  0.250000  0.814109  0.974020  1
  Si  Si14  1  0.250000  0.685458  0.474494  1
  Si  Si15  1  0.750000  0.186347  0.025476  1
  Si  Si16  1  0.750000  0.313387  0.526397  1
  Si  Si17  1  0.250000  0.495101  0.802614  1
  Si  Si18  1  0.250000  0.005371  0.302590  1
  Si  Si19  1  0.750000  0.504786  0.198711  1
  Si  Si20  1  0.750000  0.995785  0.698294  1
  Ni  Ni21  1  0.250000  0.364765  0.629914  1
  Ni  Ni22  1  0.250000  0.134461  0.129368  1
  Ni  Ni23  1  0.750000  0.864973  0.870379  1
