# generated using pymatgen
data_Tm3ZnSn3IrRh
_symmetry_space_group_name_H-M   'P 1'
_cell_length_a   7.54821200
_cell_length_b   7.54821170
_cell_length_c   3.86066500
_cell_angle_alpha   90.00000000
_cell_angle_beta   90.00000000
_cell_angle_gamma   120.00000131
_symmetry_Int_Tables_number   1
_chemical_formula_structural   Tm3ZnSn3IrRh
_chemical_formula_sum   'Tm3 Zn1 Sn3 Ir1 Rh1'
_cell_volume   190.49382654
_cell_formula_units_Z   1
loop_
 _symmetry_equiv_pos_site_id
 _symmetry_equiv_pos_as_xyz
  1  'x, y, z'
loop_
 _atom_site_type_symbol
 _atom_site_label
 _atom_site_symmetry_multiplicity
 _atom_site_fract_x
 _atom_site_fract_y
 _atom_site_fract_z
 _atom_site_occupancy
  Tm  Tm0  1  0.018985  0.408802  0.000000  1
  Tm  Tm1  1  0.591198  0.610183  0.000000  1
  Tm  Tm2  1  0.389817  0.981015  0.000000  1
  Zn  Zn3  1  0.666667  0.333333  0.500000  1
  Sn  Sn4  1  0.263394  0.258435  0.500000  1
  Sn  Sn5  1  0.995041  0.736606  0.500000  1
  Sn  Sn6  1  0.741565  0.004959  0.500000  1
  Ir  Ir7  1  0.333333  0.666667  0.500000  1
  Rh  Rh8  1  0.000000  0.000000  0.000000  1
