# generated using pymatgen
data_Sm3HoSe3O4
_symmetry_space_group_name_H-M   'P 1'
_cell_length_a   6.66242478
_cell_length_b   6.66242380
_cell_length_c   8.40910700
_cell_angle_alpha   90.00000000
_cell_angle_beta   90.00000000
_cell_angle_gamma   145.56395552
_symmetry_Int_Tables_number   1
_chemical_formula_structural   Sm3HoSe3O4
_chemical_formula_sum   'Sm3 Ho1 Se3 O4'
_cell_volume   211.07475004
_cell_formula_units_Z   1
loop_
 _symmetry_equiv_pos_site_id
 _symmetry_equiv_pos_as_xyz
  1  'x, y, z'
loop_
 _atom_site_type_symbol
 _atom_site_label
 _atom_site_symmetry_multiplicity
 _atom_site_fract_x
 _atom_site_fract_y
 _atom_site_fract_z
 _atom_site_occupancy
  Sm  Sm0  1  0.318815  0.681185  0.238569  1
  Sm  Sm1  1  0.318815  0.681185  0.761431  1
  Sm  Sm2  1  0.986402  0.013598  0.500000  1
  Ho  Ho3  1  0.992242  0.007758  0.000000  1
  Se  Se4  1  0.676282  0.323718  0.000000  1
  Se  Se5  1  0.647772  0.352228  0.652088  1
  Se  Se6  1  0.647772  0.352228  0.347912  1
  O  O7  1  0.387172  0.612828  0.500000  1
  O  O8  1  0.915779  0.084221  0.758748  1
  O  O9  1  0.410599  0.589401  0.000000  1
  O  O10  1  0.915779  0.084221  0.241252  1
