# generated using pymatgen
data_Tb3Ce4Er(AlRu)8
_symmetry_space_group_name_H-M   'P 1'
_cell_length_a   3.99513100
_cell_length_b   7.21857688
_cell_length_c   16.04360490
_cell_angle_alpha   91.38548222
_cell_angle_beta   90.00000000
_cell_angle_gamma   90.00000000
_symmetry_Int_Tables_number   1
_chemical_formula_structural   Tb3Ce4Er(AlRu)8
_chemical_formula_sum   'Tb3 Ce4 Er1 Al8 Ru8'
_cell_volume   462.54882627
_cell_formula_units_Z   1
loop_
 _symmetry_equiv_pos_site_id
 _symmetry_equiv_pos_as_xyz
  1  'x, y, z'
loop_
 _atom_site_type_symbol
 _atom_site_label
 _atom_site_symmetry_multiplicity
 _atom_site_fract_x
 _atom_site_fract_y
 _atom_site_fract_z
 _atom_site_occupancy
  Tb  Tb0  1  0.250000  0.165356  0.562031  1
  Tb  Tb1  1  0.250000  0.664354  0.938631  1
  Tb  Tb2  1  0.250000  0.041660  0.781769  1
  Ce  Ce3  1  0.750000  0.827377  0.437555  1
  Ce  Ce4  1  0.750000  0.457866  0.281027  1
  Ce  Ce5  1  0.750000  0.328983  0.062044  1
  Ce  Ce6  1  0.250000  0.539524  0.721068  1
  Er  Er7  1  0.750000  0.961121  0.218225  1
  Al  Al8  1  0.750000  0.499701  0.562227  1
  Al  Al9  1  0.750000  0.364046  0.853697  1
  Al  Al10  1  0.750000  0.990507  0.935216  1
  Al  Al11  1  0.750000  0.873961  0.650612  1
  Al  Al12  1  0.250000  0.489708  0.437437  1
  Al  Al13  1  0.250000  0.992558  0.066155  1
  Al  Al14  1  0.250000  0.640076  0.153408  1
  Al  Al15  1  0.250000  0.125586  0.344210  1
  Ru  Ru16  1  0.750000  0.733244  0.806187  1
  Ru  Ru17  1  0.250000  0.233864  0.941739  1
  Ru  Ru18  1  0.750000  0.265577  0.426244  1
  Ru  Ru19  1  0.250000  0.751928  0.322958  1
  Ru  Ru20  1  0.750000  0.764593  0.067196  1
  Ru  Ru21  1  0.750000  0.272148  0.688156  1
  Ru  Ru22  1  0.250000  0.271633  0.180851  1
  Ru  Ru23  1  0.250000  0.744628  0.561358  1
