# generated using pymatgen
data_ErPu4(SiB4)2
_symmetry_space_group_name_H-M   'P 1'
_cell_length_a   7.20151300
_cell_length_b   7.20151300
_cell_length_c   8.08669900
_cell_angle_alpha   90.00000000
_cell_angle_beta   90.00000000
_cell_angle_gamma   90.00000000
_symmetry_Int_Tables_number   1
_chemical_formula_structural   ErPu4(SiB4)2
_chemical_formula_sum   'Er2 Pu8 Si4 B16'
_cell_volume   419.39068120
_cell_formula_units_Z   2
loop_
 _symmetry_equiv_pos_site_id
 _symmetry_equiv_pos_as_xyz
  1  'x, y, z'
loop_
 _atom_site_type_symbol
 _atom_site_label
 _atom_site_symmetry_multiplicity
 _atom_site_fract_x
 _atom_site_fract_y
 _atom_site_fract_z
 _atom_site_occupancy
  Er  Er0  1  0.000000  0.000000  0.500000  1
  Er  Er1  1  0.500000  0.500000  0.500000  1
  Pu  Pu2  1  0.681499  0.181499  0.228032  1
  Pu  Pu3  1  0.318501  0.818501  0.771968  1
  Pu  Pu4  1  0.318501  0.818501  0.228032  1
  Pu  Pu5  1  0.818501  0.681499  0.228032  1
  Pu  Pu6  1  0.818501  0.681499  0.771968  1
  Pu  Pu7  1  0.681499  0.181499  0.771968  1
  Pu  Pu8  1  0.181499  0.318501  0.771968  1
  Pu  Pu9  1  0.181499  0.318501  0.228032  1
  Si  Si10  1  0.115365  0.615365  0.500000  1
  Si  Si11  1  0.884635  0.384635  0.500000  1
  Si  Si12  1  0.384635  0.115365  0.500000  1
  Si  Si13  1  0.615365  0.884635  0.500000  1
  B  B14  1  0.172967  0.040526  0.000000  1
  B  B15  1  0.827033  0.959474  0.000000  1
  B  B16  1  0.959474  0.172967  0.000000  1
  B  B17  1  0.327033  0.540526  0.000000  1
  B  B18  1  0.040526  0.827033  0.000000  1
  B  B19  1  0.672967  0.459474  0.000000  1
  B  B20  1  0.540526  0.672967  0.000000  1
  B  B21  1  0.459474  0.327033  0.000000  1
  B  B22  1  0.090323  0.590323  0.000000  1
  B  B23  1  0.909677  0.409677  0.000000  1
  B  B24  1  0.409677  0.090323  0.000000  1
  B  B25  1  0.590323  0.909677  0.000000  1
  B  B26  1  0.000000  0.000000  0.161603  1
  B  B27  1  0.000000  0.000000  0.838397  1
  B  B28  1  0.500000  0.500000  0.838397  1
  B  B29  1  0.500000  0.500000  0.161603  1
