# generated using pymatgen
data_Tb9Ho2Er9(CoSb2)4
_symmetry_space_group_name_H-M   'P 1'
_cell_length_a   7.85851647
_cell_length_b   8.77138100
_cell_length_c   12.19715800
_cell_angle_alpha   90.00000000
_cell_angle_beta   89.94704489
_cell_angle_gamma   90.00000000
_symmetry_Int_Tables_number   1
_chemical_formula_structural   Tb9Ho2Er9(CoSb2)4
_chemical_formula_sum   'Tb9 Ho2 Er9 Co4 Sb8'
_cell_volume   840.75025467
_cell_formula_units_Z   1
loop_
 _symmetry_equiv_pos_site_id
 _symmetry_equiv_pos_as_xyz
  1  'x, y, z'
loop_
 _atom_site_type_symbol
 _atom_site_label
 _atom_site_symmetry_multiplicity
 _atom_site_fract_x
 _atom_site_fract_y
 _atom_site_fract_z
 _atom_site_occupancy
  Tb  Tb0  1  0.653582  0.250000  0.296487  1
  Tb  Tb1  1  0.846881  0.250000  0.797043  1
  Tb  Tb2  1  0.953997  0.250000  0.501779  1
  Tb  Tb3  1  0.546047  0.250000  0.002552  1
  Tb  Tb4  1  0.047115  0.750000  0.497597  1
  Tb  Tb5  1  0.622027  0.750000  0.307141  1
  Tb  Tb6  1  0.122435  0.250000  0.192588  1
  Tb  Tb7  1  0.377477  0.250000  0.692781  1
  Tb  Tb8  1  0.877496  0.750000  0.807155  1
  Ho  Ho9  1  0.346642  0.750000  0.703138  1
  Ho  Ho10  1  0.452476  0.750000  0.997905  1
  Er  Er11  1  0.153369  0.750000  0.202337  1
  Er  Er12  1  0.823005  0.963489  0.065460  1
  Er  Er13  1  0.322827  0.035270  0.434904  1
  Er  Er14  1  0.177390  0.465278  0.935278  1
  Er  Er15  1  0.676968  0.535601  0.565240  1
  Er  Er16  1  0.177390  0.034722  0.935278  1
  Er  Er17  1  0.676968  0.964399  0.565240  1
  Er  Er18  1  0.823005  0.536511  0.065460  1
  Er  Er19  1  0.322827  0.464730  0.434904  1
  Co  Co20  1  0.436015  0.750000  0.491620  1
  Co  Co21  1  0.935512  0.250000  0.009005  1
  Co  Co22  1  0.564524  0.250000  0.508654  1
  Co  Co23  1  0.064707  0.750000  0.991572  1
  Sb  Sb24  1  0.930072  0.991192  0.326226  1
  Sb  Sb25  1  0.427790  0.006664  0.172956  1
  Sb  Sb26  1  0.071518  0.492553  0.673078  1
  Sb  Sb27  1  0.570280  0.508753  0.827181  1
  Sb  Sb28  1  0.071518  0.007447  0.673078  1
  Sb  Sb29  1  0.570280  0.991247  0.827181  1
  Sb  Sb30  1  0.930072  0.508808  0.326226  1
  Sb  Sb31  1  0.427790  0.493336  0.172956  1
