# generated using pymatgen
data_Ce2Pr3CdSn3
_symmetry_space_group_name_H-M   'P 1'
_cell_length_a   6.71260900
_cell_length_b   9.70682968
_cell_length_c   9.70682900
_cell_angle_alpha   120.00000109
_cell_angle_beta   90.00000000
_cell_angle_gamma   90.00000000
_symmetry_Int_Tables_number   1
_chemical_formula_structural   Ce2Pr3CdSn3
_chemical_formula_sum   'Ce4 Pr6 Cd2 Sn6'
_cell_volume   547.74291172
_cell_formula_units_Z   2
loop_
 _symmetry_equiv_pos_site_id
 _symmetry_equiv_pos_as_xyz
  1  'x, y, z'
loop_
 _atom_site_type_symbol
 _atom_site_label
 _atom_site_symmetry_multiplicity
 _atom_site_fract_x
 _atom_site_fract_y
 _atom_site_fract_z
 _atom_site_occupancy
  Ce  Ce0  1  0.000000  0.666667  0.333333  1
  Ce  Ce1  1  0.000000  0.333333  0.666667  1
  Ce  Ce2  1  0.500000  0.333333  0.666667  1
  Ce  Ce3  1  0.500000  0.666667  0.333333  1
  Pr  Pr4  1  0.750000  0.707383  0.707383  1
  Pr  Pr5  1  0.250000  0.292617  0.292617  1
  Pr  Pr6  1  0.750000  0.000000  0.292617  1
  Pr  Pr7  1  0.250000  0.000000  0.707383  1
  Pr  Pr8  1  0.750000  0.292617  0.000000  1
  Pr  Pr9  1  0.250000  0.707383  0.000000  1
  Cd  Cd10  1  0.000000  0.000000  0.000000  1
  Cd  Cd11  1  0.500000  0.000000  0.000000  1
  Sn  Sn12  1  0.750000  0.371375  0.371375  1
  Sn  Sn13  1  0.250000  0.628625  0.628625  1
  Sn  Sn14  1  0.750000  0.000000  0.628625  1
  Sn  Sn15  1  0.250000  0.000000  0.371375  1
  Sn  Sn16  1  0.750000  0.628625  0.000000  1
  Sn  Sn17  1  0.250000  0.371375  0.000000  1
