# generated using pymatgen
data_Hf6MgAl15PdPt6
_symmetry_space_group_name_H-M   'P 1'
_cell_length_a   8.78590814
_cell_length_b   8.78590767
_cell_length_c   8.78483473
_cell_angle_alpha   59.99595719
_cell_angle_beta   59.99596337
_cell_angle_gamma   60.00000706
_symmetry_Int_Tables_number   1
_chemical_formula_structural   Hf6MgAl15PdPt6
_chemical_formula_sum   'Hf6 Mg1 Al15 Pd1 Pt6'
_cell_volume   479.47436580
_cell_formula_units_Z   1
loop_
 _symmetry_equiv_pos_site_id
 _symmetry_equiv_pos_as_xyz
  1  'x, y, z'
loop_
 _atom_site_type_symbol
 _atom_site_label
 _atom_site_symmetry_multiplicity
 _atom_site_fract_x
 _atom_site_fract_y
 _atom_site_fract_z
 _atom_site_occupancy
  Hf  Hf0  1  0.679204  0.679204  0.320147  1
  Hf  Hf1  1  0.321445  0.679204  0.320147  1
  Hf  Hf2  1  0.679204  0.321445  0.320147  1
  Hf  Hf3  1  0.318868  0.318868  0.681169  1
  Hf  Hf4  1  0.681096  0.318868  0.681169  1
  Hf  Hf5  1  0.318868  0.681096  0.681169  1
  Mg  Mg6  1  0.881803  0.881803  0.354590  1
  Al  Al7  1  0.879745  0.359925  0.880585  1
  Al  Al8  1  0.359925  0.879745  0.880585  1
  Al  Al9  1  0.879745  0.879745  0.880585  1
  Al  Al10  1  0.120635  0.120635  0.638094  1
  Al  Al11  1  0.119364  0.640388  0.120884  1
  Al  Al12  1  0.640388  0.119364  0.120884  1
  Al  Al13  1  0.119364  0.119364  0.120884  1
  Al  Al14  1  0.664082  0.664082  0.007753  1
  Al  Al15  1  0.664931  0.007067  0.663069  1
  Al  Al16  1  0.007067  0.664931  0.663069  1
  Al  Al17  1  0.664931  0.664931  0.663069  1
  Al  Al18  1  0.335615  0.335615  0.993157  1
  Al  Al19  1  0.336149  0.992708  0.334996  1
  Al  Al20  1  0.992708  0.336149  0.334996  1
  Al  Al21  1  0.336149  0.336149  0.334996  1
  Pd  Pd22  1  0.003391  0.003391  0.989826  1
  Pt  Pt23  1  0.001100  0.001100  0.505492  1
  Pt  Pt24  1  0.492306  0.001100  0.505492  1
  Pt  Pt25  1  0.001100  0.492306  0.505492  1
  Pt  Pt26  1  0.500587  0.500587  0.999184  1
  Pt  Pt27  1  0.999642  0.500587  0.999184  1
  Pt  Pt28  1  0.500587  0.999642  0.999184  1
