# generated using pymatgen
data_TbHoTa4(B2Ru5)2
_symmetry_space_group_name_H-M   'P 1'
_cell_length_a   9.56150648
_cell_length_b   9.56150666
_cell_length_c   3.09100600
_cell_angle_alpha   90.00000000
_cell_angle_beta   90.00000000
_cell_angle_gamma   90.63320941
_symmetry_Int_Tables_number   1
_chemical_formula_structural   TbHoTa4(B2Ru5)2
_chemical_formula_sum   'Tb1 Ho1 Ta4 B4 Ru10'
_cell_volume   282.56995423
_cell_formula_units_Z   1
loop_
 _symmetry_equiv_pos_site_id
 _symmetry_equiv_pos_as_xyz
  1  'x, y, z'
loop_
 _atom_site_type_symbol
 _atom_site_label
 _atom_site_symmetry_multiplicity
 _atom_site_fract_x
 _atom_site_fract_y
 _atom_site_fract_z
 _atom_site_occupancy
  Tb  Tb0  1  0.823887  0.676113  0.000000  1
  Ho  Ho1  1  0.176219  0.323781  0.000000  1
  Ta  Ta2  1  0.323939  0.823989  0.000000  1
  Ta  Ta3  1  0.676011  0.176061  0.000000  1
  Ta  Ta4  1  0.499649  0.499836  0.000000  1
  Ta  Ta5  1  0.000164  0.000351  0.000000  1
  B  B6  1  0.620156  0.879844  0.000000  1
  B  B7  1  0.379537  0.120463  0.000000  1
  B  B8  1  0.121345  0.621086  0.000000  1
  B  B9  1  0.878914  0.378655  0.000000  1
  Ru  Ru10  1  0.558810  0.723380  0.500000  1
  Ru  Ru11  1  0.440622  0.276780  0.500000  1
  Ru  Ru12  1  0.082303  0.785633  0.500000  1
  Ru  Ru13  1  0.918219  0.214524  0.500000  1
  Ru  Ru14  1  0.285476  0.581781  0.500000  1
  Ru  Ru15  1  0.714367  0.417697  0.500000  1
  Ru  Ru16  1  0.223220  0.059378  0.500000  1
  Ru  Ru17  1  0.776620  0.941190  0.500000  1
  Ru  Ru18  1  0.499945  0.000055  0.500000  1
  Ru  Ru19  1  0.000599  0.499401  0.500000  1
