# generated using pymatgen
data_LaTbNiGeI2
_symmetry_space_group_name_H-M   'P 1'
_cell_length_a   4.24684600
_cell_length_b   4.24684591
_cell_length_c   11.51940600
_cell_angle_alpha   90.00000000
_cell_angle_beta   90.00000000
_cell_angle_gamma   119.99998509
_symmetry_Int_Tables_number   1
_chemical_formula_structural   LaTbNiGeI2
_chemical_formula_sum   'La1 Tb1 Ni1 Ge1 I2'
_cell_volume   179.92594773
_cell_formula_units_Z   1
loop_
 _symmetry_equiv_pos_site_id
 _symmetry_equiv_pos_as_xyz
  1  'x, y, z'
loop_
 _atom_site_type_symbol
 _atom_site_label
 _atom_site_symmetry_multiplicity
 _atom_site_fract_x
 _atom_site_fract_y
 _atom_site_fract_z
 _atom_site_occupancy
  La  La0  1  0.000000  0.000000  0.841711  1
  Tb  Tb1  1  0.000000  0.000000  0.159337  1
  Ni  Ni2  1  0.333333  0.666667  0.004476  1
  Ge  Ge3  1  0.666667  0.333333  0.011704  1
  I  I4  1  0.666667  0.333333  0.647668  1
  I  I5  1  0.333333  0.666667  0.335104  1
