# generated using pymatgen
data_Hf2Zr3ZnSnSb2
_symmetry_space_group_name_H-M   'P 1'
_cell_length_a   8.66528941
_cell_length_b   8.66957400
_cell_length_c   5.84382200
_cell_angle_alpha   90.00000000
_cell_angle_beta   90.00000000
_cell_angle_gamma   120.01636135
_symmetry_Int_Tables_number   1
_chemical_formula_structural   Hf2Zr3ZnSnSb2
_chemical_formula_sum   'Hf4 Zr6 Zn2 Sn2 Sb4'
_cell_volume   380.13408821
_cell_formula_units_Z   2
loop_
 _symmetry_equiv_pos_site_id
 _symmetry_equiv_pos_as_xyz
  1  'x, y, z'
loop_
 _atom_site_type_symbol
 _atom_site_label
 _atom_site_symmetry_multiplicity
 _atom_site_fract_x
 _atom_site_fract_y
 _atom_site_fract_z
 _atom_site_occupancy
  Hf  Hf0  1  0.333119  0.666559  0.500000  1
  Hf  Hf1  1  0.667131  0.333565  0.000000  1
  Hf  Hf2  1  0.667131  0.333565  0.500000  1
  Hf  Hf3  1  0.333119  0.666559  0.000000  1
  Zr  Zr4  1  0.730938  0.730746  0.250000  1
  Zr  Zr5  1  0.730938  0.000193  0.750000  1
  Zr  Zr6  1  0.999723  0.270034  0.250000  1
  Zr  Zr7  1  0.999723  0.729689  0.750000  1
  Zr  Zr8  1  0.269349  0.269859  0.750000  1
  Zr  Zr9  1  0.269349  0.999490  0.250000  1
  Zn  Zn10  1  0.001194  0.000597  0.000000  1
  Zn  Zn11  1  0.001194  0.000597  0.500000  1
  Sn  Sn12  1  0.384530  0.000372  0.750000  1
  Sn  Sn13  1  0.384530  0.384158  0.250000  1
  Sb  Sb14  1  0.000325  0.614805  0.250000  1
  Sb  Sb15  1  0.000325  0.385519  0.750000  1
  Sb  Sb16  1  0.613692  0.613802  0.750000  1
  Sb  Sb17  1  0.613692  0.999889  0.250000  1
