# generated using pymatgen
data_Ba10Be4Si13Bi
_symmetry_space_group_name_H-M   'P 1'
_cell_length_a   6.60570680
_cell_length_b   6.60570657
_cell_length_c   17.98021500
_cell_angle_alpha   81.49074401
_cell_angle_beta   81.49074430
_cell_angle_gamma   100.00238335
_symmetry_Int_Tables_number   1
_chemical_formula_structural   Ba10Be4Si13Bi
_chemical_formula_sum   'Ba10 Be4 Si13 Bi1'
_cell_volume   751.89643263
_cell_formula_units_Z   1
loop_
 _symmetry_equiv_pos_site_id
 _symmetry_equiv_pos_as_xyz
  1  'x, y, z'
loop_
 _atom_site_type_symbol
 _atom_site_label
 _atom_site_symmetry_multiplicity
 _atom_site_fract_x
 _atom_site_fract_y
 _atom_site_fract_z
 _atom_site_occupancy
  Ba  Ba0  1  0.744453  0.250932  0.003141  1
  Ba  Ba1  1  0.119922  0.567534  0.789642  1
  Ba  Ba2  1  0.292079  0.709201  0.498888  1
  Ba  Ba3  1  0.771326  0.771326  0.642621  1
  Ba  Ba4  1  0.235610  0.235610  0.349651  1
  Ba  Ba5  1  0.567534  0.119922  0.789642  1
  Ba  Ba6  1  0.250932  0.744453  0.003141  1
  Ba  Ba7  1  0.709201  0.292079  0.498888  1
  Ba  Ba8  1  0.425696  0.882804  0.207282  1
  Ba  Ba9  1  0.882804  0.425696  0.207282  1
  Be  Be10  1  0.219540  0.219540  0.070184  1
  Be  Be11  1  0.895673  0.895673  0.264395  1
  Be  Be12  1  0.097999  0.097999  0.735301  1
  Be  Be13  1  0.798647  0.798647  0.940727  1
  Si  Si14  1  0.346414  0.346414  0.645074  1
  Si  Si15  1  0.259672  0.259672  0.940184  1
  Si  Si16  1  0.951543  0.951543  0.135117  1
  Si  Si17  1  0.651240  0.651240  0.354593  1
  Si  Si18  1  0.422923  0.422923  0.140240  1
  Si  Si19  1  0.046669  0.046669  0.865709  1
  Si  Si20  1  0.817105  0.817105  0.449738  1
  Si  Si21  1  0.309202  0.970200  0.646747  1
  Si  Si22  1  0.689012  0.028715  0.352559  1
  Si  Si23  1  0.184185  0.184185  0.548325  1
  Si  Si24  1  0.970200  0.309202  0.646747  1
  Si  Si25  1  0.028715  0.689012  0.352559  1
  Si  Si26  1  0.718685  0.718685  0.067562  1
  Bi  Bi27  1  0.593017  0.593017  0.854063  1
