# generated using pymatgen
data_Y3Ag5Rh
_symmetry_space_group_name_H-M   'P 1'
_cell_length_a   7.76827800
_cell_length_b   7.76827779
_cell_length_c   3.76783900
_cell_angle_alpha   90.00000000
_cell_angle_beta   90.00000000
_cell_angle_gamma   119.99999125
_symmetry_Int_Tables_number   1
_chemical_formula_structural   Y3Ag5Rh
_chemical_formula_sum   'Y3 Ag5 Rh1'
_cell_volume   196.91214965
_cell_formula_units_Z   1
loop_
 _symmetry_equiv_pos_site_id
 _symmetry_equiv_pos_as_xyz
  1  'x, y, z'
loop_
 _atom_site_type_symbol
 _atom_site_label
 _atom_site_symmetry_multiplicity
 _atom_site_fract_x
 _atom_site_fract_y
 _atom_site_fract_z
 _atom_site_occupancy
  Y  Y0  1  0.969818  0.582592  0.500000  1
  Y  Y1  1  0.417408  0.387226  0.500000  1
  Y  Y2  1  0.612774  0.030182  0.500000  1
  Ag  Ag3  1  0.007115  0.272082  0.000000  1
  Ag  Ag4  1  0.264968  0.992885  0.000000  1
  Ag  Ag5  1  0.727918  0.735032  0.000000  1
  Ag  Ag6  1  0.333333  0.666667  0.000000  1
  Ag  Ag7  1  0.000000  0.000000  0.500000  1
  Rh  Rh8  1  0.666667  0.333333  0.000000  1
