# generated using pymatgen
data_Pa3TlPd12
_symmetry_space_group_name_H-M   'P 1'
_cell_length_a   5.81673700
_cell_length_b   5.81673724
_cell_length_c   9.68036800
_cell_angle_alpha   90.00000000
_cell_angle_beta   90.00000000
_cell_angle_gamma   120.00000431
_symmetry_Int_Tables_number   1
_chemical_formula_structural   Pa3TlPd12
_chemical_formula_sum   'Pa3 Tl1 Pd12'
_cell_volume   283.64906353
_cell_formula_units_Z   1
loop_
 _symmetry_equiv_pos_site_id
 _symmetry_equiv_pos_as_xyz
  1  'x, y, z'
loop_
 _atom_site_type_symbol
 _atom_site_label
 _atom_site_symmetry_multiplicity
 _atom_site_fract_x
 _atom_site_fract_y
 _atom_site_fract_z
 _atom_site_occupancy
  Pa  Pa0  1  0.000000  0.000000  0.000000  1
  Pa  Pa1  1  0.333333  0.666667  0.736712  1
  Pa  Pa2  1  0.666667  0.333333  0.263288  1
  Tl  Tl3  1  0.000000  0.000000  0.500000  1
  Pd  Pd4  1  0.500000  0.500000  0.500000  1
  Pd  Pd5  1  0.500000  0.000000  0.500000  1
  Pd  Pd6  1  0.000000  0.500000  0.500000  1
  Pd  Pd7  1  0.500000  0.500000  0.000000  1
  Pd  Pd8  1  0.500000  0.000000  0.000000  1
  Pd  Pd9  1  0.000000  0.500000  0.000000  1
  Pd  Pd10  1  0.169323  0.830677  0.243621  1
  Pd  Pd11  1  0.169323  0.338647  0.243621  1
  Pd  Pd12  1  0.661353  0.830677  0.243621  1
  Pd  Pd13  1  0.830677  0.169323  0.756379  1
  Pd  Pd14  1  0.830677  0.661353  0.756379  1
  Pd  Pd15  1  0.338647  0.169323  0.756379  1
