# generated using pymatgen
data_Sc3Co2Ag
_symmetry_space_group_name_H-M   'P 1'
_cell_length_a   3.11836600
_cell_length_b   3.11836600
_cell_length_c   10.44586900
_cell_angle_alpha   90.00000000
_cell_angle_beta   90.00000000
_cell_angle_gamma   90.00000000
_symmetry_Int_Tables_number   1
_chemical_formula_structural   Sc3Co2Ag
_chemical_formula_sum   'Sc3 Co2 Ag1'
_cell_volume   101.57778733
_cell_formula_units_Z   1
loop_
 _symmetry_equiv_pos_site_id
 _symmetry_equiv_pos_as_xyz
  1  'x, y, z'
loop_
 _atom_site_type_symbol
 _atom_site_label
 _atom_site_symmetry_multiplicity
 _atom_site_fract_x
 _atom_site_fract_y
 _atom_site_fract_z
 _atom_site_occupancy
  Sc  Sc0  1  0.499999  0.499999  0.000000  1
  Sc  Sc1  1  0.499999  0.499999  0.302049  1
  Sc  Sc2  1  0.499999  0.499999  0.697951  1
  Co  Co3  1  0.000000  0.000000  0.155627  1
  Co  Co4  1  0.000000  0.000000  0.844373  1
  Ag  Ag5  1  0.000000  0.000000  0.500000  1
