# generated using pymatgen
data_Pr2Al2Cu3Si2Au
_symmetry_space_group_name_H-M   'P 1'
_cell_length_a   4.16737200
_cell_length_b   4.16737200
_cell_length_c   10.48840100
_cell_angle_alpha   90.00000000
_cell_angle_beta   90.00000000
_cell_angle_gamma   90.00000000
_symmetry_Int_Tables_number   1
_chemical_formula_structural   Pr2Al2Cu3Si2Au
_chemical_formula_sum   'Pr2 Al2 Cu3 Si2 Au1'
_cell_volume   182.15194885
_cell_formula_units_Z   1
loop_
 _symmetry_equiv_pos_site_id
 _symmetry_equiv_pos_as_xyz
  1  'x, y, z'
loop_
 _atom_site_type_symbol
 _atom_site_label
 _atom_site_symmetry_multiplicity
 _atom_site_fract_x
 _atom_site_fract_y
 _atom_site_fract_z
 _atom_site_occupancy
  Pr  Pr0  1  0.000000  0.500000  0.224506  1
  Pr  Pr1  1  0.500000  0.000000  0.767007  1
  Al  Al2  1  0.000000  0.000000  0.511242  1
  Al  Al3  1  0.500000  0.500000  0.511242  1
  Cu  Cu4  1  0.000000  0.000000  0.995793  1
  Cu  Cu5  1  0.500000  0.500000  0.995793  1
  Cu  Cu6  1  0.000000  0.500000  0.646224  1
  Si  Si7  1  0.000000  0.500000  0.872814  1
  Si  Si8  1  0.500000  0.000000  0.116477  1
  Au  Au9  1  0.500000  0.000000  0.358902  1
