# generated using pymatgen
data_Pr9NdC4Cl17
_symmetry_space_group_name_H-M   'P 1'
_cell_length_a   8.93766724
_cell_length_b   9.58022858
_cell_length_c   12.05507437
_cell_angle_alpha   104.55088760
_cell_angle_beta   96.18633972
_cell_angle_gamma   110.94238734
_symmetry_Int_Tables_number   1
_chemical_formula_structural   Pr9NdC4Cl17
_chemical_formula_sum   'Pr9 Nd1 C4 Cl17'
_cell_volume   910.54900415
_cell_formula_units_Z   1
loop_
 _symmetry_equiv_pos_site_id
 _symmetry_equiv_pos_as_xyz
  1  'x, y, z'
loop_
 _atom_site_type_symbol
 _atom_site_label
 _atom_site_symmetry_multiplicity
 _atom_site_fract_x
 _atom_site_fract_y
 _atom_site_fract_z
 _atom_site_occupancy
  Pr  Pr0  1  0.653910  0.487068  0.438396  1
  Pr  Pr1  1  0.346230  0.513176  0.561695  1
  Pr  Pr2  1  0.077744  0.424359  0.268478  1
  Pr  Pr3  1  0.922254  0.575583  0.731496  1
  Pr  Pr4  1  0.409950  0.367404  0.134771  1
  Pr  Pr5  1  0.590121  0.632728  0.865135  1
  Pr  Pr6  1  0.493233  0.783192  0.341086  1
  Pr  Pr7  1  0.507440  0.217303  0.659133  1
  Pr  Pr8  1  0.205118  0.095737  0.307594  1
  Nd  Nd9  1  0.793541  0.902256  0.692171  1
  C  C10  1  0.396328  0.525398  0.342068  1
  C  C11  1  0.603914  0.474990  0.657977  1
  C  C12  1  0.326433  0.365314  0.336900  1
  C  C13  1  0.673695  0.635053  0.663170  1
  Cl  Cl14  1  0.104156  0.349287  0.039383  1
  Cl  Cl15  1  0.895872  0.650740  0.960650  1
  Cl  Cl16  1  0.811608  0.821126  0.446554  1
  Cl  Cl17  1  0.188620  0.179657  0.554884  1
  Cl  Cl18  1  0.000021  0.500030  0.500015  1
  Cl  Cl19  1  0.297450  0.042342  0.094901  1
  Cl  Cl20  1  0.703507  0.957615  0.903581  1
  Cl  Cl21  1  0.902822  0.103617  0.248344  1
  Cl  Cl22  1  0.094759  0.896694  0.751212  1
  Cl  Cl23  1  0.542681  0.133551  0.412687  1
  Cl  Cl24  1  0.458689  0.866761  0.587797  1
  Cl  Cl25  1  0.739603  0.414515  0.211786  1
  Cl  Cl26  1  0.260401  0.585604  0.788258  1
  Cl  Cl27  1  0.165572  0.755789  0.286868  1
  Cl  Cl28  1  0.834259  0.243008  0.713022  1
  Cl  Cl29  1  0.535673  0.684619  0.111028  1
  Cl  Cl30  1  0.464398  0.315486  0.888960  1
