# generated using pymatgen
data_YbHf3(Al3Ir)6
_symmetry_space_group_name_H-M   'P 1'
_cell_length_a   7.48252161
_cell_length_b   7.47890557
_cell_length_c   9.31733300
_cell_angle_alpha   90.00000000
_cell_angle_beta   90.00000000
_cell_angle_gamma   119.73574720
_symmetry_Int_Tables_number   1
_chemical_formula_structural   YbHf3(Al3Ir)6
_chemical_formula_sum   'Yb1 Hf3 Al18 Ir6'
_cell_volume   452.75010998
_cell_formula_units_Z   1
loop_
 _symmetry_equiv_pos_site_id
 _symmetry_equiv_pos_as_xyz
  1  'x, y, z'
loop_
 _atom_site_type_symbol
 _atom_site_label
 _atom_site_symmetry_multiplicity
 _atom_site_fract_x
 _atom_site_fract_y
 _atom_site_fract_z
 _atom_site_occupancy
  Yb  Yb0  1  0.328207  0.005569  0.750000  1
  Hf  Hf1  1  0.995404  0.672560  0.250000  1
  Hf  Hf2  1  0.005733  0.328661  0.750000  1
  Hf  Hf3  1  0.670627  0.993905  0.250000  1
  Al  Al4  1  0.123111  0.123636  0.250000  1
  Al  Al5  1  0.870918  0.875749  0.750000  1
  Al  Al6  1  0.997868  0.334507  0.079324  1
  Al  Al7  1  0.000730  0.663483  0.925164  1
  Al  Al8  1  0.000730  0.663483  0.574836  1
  Al  Al9  1  0.335014  0.998759  0.420178  1
  Al  Al10  1  0.997868  0.334507  0.420676  1
  Al  Al11  1  0.666762  0.002345  0.575063  1
  Al  Al12  1  0.666762  0.002345  0.924937  1
  Al  Al13  1  0.335014  0.998759  0.079822  1
  Al  Al14  1  0.331092  0.332734  0.556822  1
  Al  Al15  1  0.668602  0.668244  0.439493  1
  Al  Al16  1  0.668602  0.668244  0.060507  1
  Al  Al17  1  0.331092  0.332734  0.943178  1
  Al  Al18  1  0.339014  0.552605  0.250000  1
  Al  Al19  1  0.667473  0.452375  0.750000  1
  Al  Al20  1  0.553904  0.339565  0.250000  1
  Al  Al21  1  0.445181  0.654133  0.750000  1
  Ir  Ir22  1  0.674031  0.329005  0.001934  1
  Ir  Ir23  1  0.328314  0.672749  0.002512  1
  Ir  Ir24  1  0.328314  0.672749  0.497488  1
  Ir  Ir25  1  0.674031  0.329005  0.498066  1
  Ir  Ir26  1  0.997802  0.998793  0.001875  1
  Ir  Ir27  1  0.997802  0.998793  0.498125  1
