# generated using pymatgen
data_GdTl(SO4)2
_symmetry_space_group_name_H-M   'P 1'
_cell_length_a   5.36553800
_cell_length_b   7.24657180
_cell_length_c   9.48027200
_cell_angle_alpha   101.58779143
_cell_angle_beta   90.00000000
_cell_angle_gamma   111.72870235
_symmetry_Int_Tables_number   1
_chemical_formula_structural   GdTl(SO4)2
_chemical_formula_sum   'Gd2 Tl2 S4 O16'
_cell_volume   334.31786117
_cell_formula_units_Z   2
loop_
 _symmetry_equiv_pos_site_id
 _symmetry_equiv_pos_as_xyz
  1  'x, y, z'
loop_
 _atom_site_type_symbol
 _atom_site_label
 _atom_site_symmetry_multiplicity
 _atom_site_fract_x
 _atom_site_fract_y
 _atom_site_fract_z
 _atom_site_occupancy
  Gd  Gd0  1  0.174425  0.000000  0.750000  1
  Gd  Gd1  1  0.825575  0.000000  0.250000  1
  Tl  Tl2  1  0.000000  0.500000  0.000000  1
  Tl  Tl3  1  0.500000  0.500000  0.500000  1
  S  S4  1  0.824698  0.176419  0.612781  1
  S  S5  1  0.351721  0.176419  0.112781  1
  S  S6  1  0.175302  0.823581  0.387219  1
  S  S7  1  0.648279  0.823581  0.887219  1
  O  O8  1  0.829789  0.042661  0.907794  1
  O  O9  1  0.403276  0.787094  0.314810  1
  O  O10  1  0.596724  0.212906  0.685190  1
  O  O11  1  0.395578  0.235608  0.970442  1
  O  O12  1  0.604422  0.764392  0.029558  1
  O  O13  1  0.209547  0.294076  0.203821  1
  O  O14  1  0.790453  0.705924  0.796179  1
  O  O15  1  0.170211  0.957339  0.092206  1
  O  O16  1  0.212871  0.042661  0.407794  1
  O  O17  1  0.084529  0.294076  0.703821  1
  O  O18  1  0.915471  0.705924  0.296179  1
  O  O19  1  0.840030  0.235608  0.470442  1
  O  O20  1  0.383817  0.787094  0.814810  1
  O  O21  1  0.616183  0.212906  0.185190  1
  O  O22  1  0.787129  0.957339  0.592206  1
  O  O23  1  0.159970  0.764392  0.529558  1
