# generated using pymatgen
data_Ta4V6SiRh
_symmetry_space_group_name_H-M   'P 1'
_cell_length_a   4.97469900
_cell_length_b   4.97469863
_cell_length_c   8.37523200
_cell_angle_alpha   90.00000000
_cell_angle_beta   90.00000000
_cell_angle_gamma   120.00000908
_symmetry_Int_Tables_number   1
_chemical_formula_structural   Ta4V6SiRh
_chemical_formula_sum   'Ta4 V6 Si1 Rh1'
_cell_volume   179.49858238
_cell_formula_units_Z   1
loop_
 _symmetry_equiv_pos_site_id
 _symmetry_equiv_pos_as_xyz
  1  'x, y, z'
loop_
 _atom_site_type_symbol
 _atom_site_label
 _atom_site_symmetry_multiplicity
 _atom_site_fract_x
 _atom_site_fract_y
 _atom_site_fract_z
 _atom_site_occupancy
  Ta  Ta0  1  0.333333  0.666667  0.937207  1
  Ta  Ta1  1  0.666667  0.333333  0.062793  1
  Ta  Ta2  1  0.666667  0.333333  0.436888  1
  Ta  Ta3  1  0.333333  0.666667  0.563112  1
  V  V4  1  0.171115  0.828885  0.249066  1
  V  V5  1  0.171115  0.342230  0.249066  1
  V  V6  1  0.657770  0.828885  0.249066  1
  V  V7  1  0.828885  0.171115  0.750934  1
  V  V8  1  0.828885  0.657770  0.750934  1
  V  V9  1  0.342230  0.171115  0.750934  1
  Si  Si10  1  0.000000  0.000000  0.000000  1
  Rh  Rh11  1  0.000000  0.000000  0.500000  1
