# generated using pymatgen
data_Tb8Al(CuPd11)2
_symmetry_space_group_name_H-M   'P 1'
_cell_length_a   8.27009600
_cell_length_b   8.36636900
_cell_length_c   8.40408700
_cell_angle_alpha   90.00000000
_cell_angle_beta   90.00000000
_cell_angle_gamma   90.00000000
_symmetry_Int_Tables_number   1
_chemical_formula_structural   Tb8Al(CuPd11)2
_chemical_formula_sum   'Tb8 Al1 Cu2 Pd22'
_cell_volume   581.48445062
_cell_formula_units_Z   1
loop_
 _symmetry_equiv_pos_site_id
 _symmetry_equiv_pos_as_xyz
  1  'x, y, z'
loop_
 _atom_site_type_symbol
 _atom_site_label
 _atom_site_symmetry_multiplicity
 _atom_site_fract_x
 _atom_site_fract_y
 _atom_site_fract_z
 _atom_site_occupancy
  Tb  Tb0  1  0.251755  0.249949  0.255264  1
  Tb  Tb1  1  0.748245  0.750051  0.744736  1
  Tb  Tb2  1  0.748245  0.750051  0.255264  1
  Tb  Tb3  1  0.748245  0.249949  0.744736  1
  Tb  Tb4  1  0.251755  0.249949  0.744736  1
  Tb  Tb5  1  0.251755  0.750051  0.255264  1
  Tb  Tb6  1  0.251755  0.750051  0.744736  1
  Tb  Tb7  1  0.748245  0.249949  0.255264  1
  Al  Al8  1  0.000000  0.000000  0.000000  1
  Cu  Cu9  1  0.261797  0.500000  0.000000  1
  Cu  Cu10  1  0.738203  0.500000  0.000000  1
  Pd  Pd11  1  0.000000  0.258978  0.500000  1
  Pd  Pd12  1  0.500000  0.267562  0.000000  1
  Pd  Pd13  1  0.000000  0.741022  0.500000  1
  Pd  Pd14  1  0.500000  0.732438  0.000000  1
  Pd  Pd15  1  0.500000  0.000000  0.260081  1
  Pd  Pd16  1  0.259257  0.000000  0.500000  1
  Pd  Pd17  1  0.500000  0.000000  0.739919  1
  Pd  Pd18  1  0.740743  0.000000  0.500000  1
  Pd  Pd19  1  0.000000  0.500000  0.260200  1
  Pd  Pd20  1  0.000000  0.500000  0.739800  1
  Pd  Pd21  1  0.253485  0.500000  0.500000  1
  Pd  Pd22  1  0.746515  0.500000  0.500000  1
  Pd  Pd23  1  0.500000  0.254047  0.500000  1
  Pd  Pd24  1  0.500000  0.745953  0.500000  1
  Pd  Pd25  1  0.500000  0.500000  0.249872  1
  Pd  Pd26  1  0.500000  0.500000  0.750128  1
  Pd  Pd27  1  0.292145  0.000000  0.000000  1
  Pd  Pd28  1  0.707855  0.000000  0.000000  1
  Pd  Pd29  1  0.000000  0.295769  0.000000  1
  Pd  Pd30  1  0.000000  0.704231  0.000000  1
  Pd  Pd31  1  0.000000  0.000000  0.286943  1
  Pd  Pd32  1  0.000000  0.000000  0.713057  1
