# generated using pymatgen
data_Er5In4AgRh
_symmetry_space_group_name_H-M   'P 1'
_cell_length_a   3.58534900
_cell_length_b   8.15300440
_cell_length_c   18.32562923
_cell_angle_alpha   89.69501522
_cell_angle_beta   90.00000000
_cell_angle_gamma   90.00000000
_symmetry_Int_Tables_number   1
_chemical_formula_structural   Er5In4AgRh
_chemical_formula_sum   'Er10 In8 Ag2 Rh2'
_cell_volume   535.67558902
_cell_formula_units_Z   2
loop_
 _symmetry_equiv_pos_site_id
 _symmetry_equiv_pos_as_xyz
  1  'x, y, z'
loop_
 _atom_site_type_symbol
 _atom_site_label
 _atom_site_symmetry_multiplicity
 _atom_site_fract_x
 _atom_site_fract_y
 _atom_site_fract_z
 _atom_site_occupancy
  Er  Er0  1  0.000000  0.121765  0.421992  1
  Er  Er1  1  0.000000  0.878235  0.578008  1
  Er  Er2  1  0.000000  0.382819  0.915315  1
  Er  Er3  1  0.000000  0.617181  0.084685  1
  Er  Er4  1  0.000000  0.264118  0.216753  1
  Er  Er5  1  0.000000  0.735882  0.783247  1
  Er  Er6  1  0.000000  0.283313  0.723423  1
  Er  Er7  1  0.000000  0.716687  0.276577  1
  Er  Er8  1  0.000000  0.000000  0.000000  1
  Er  Er9  1  0.000000  0.500000  0.500000  1
  In  In10  1  0.500000  0.419202  0.351632  1
  In  In11  1  0.500000  0.580798  0.648368  1
  In  In12  1  0.500000  0.077993  0.851183  1
  In  In13  1  0.500000  0.922007  0.148817  1
  In  In14  1  0.500000  0.292459  0.066878  1
  In  In15  1  0.500000  0.707541  0.933122  1
  In  In16  1  0.500000  0.209932  0.570065  1
  In  In17  1  0.500000  0.790068  0.429935  1
  Ag  Ag18  1  0.500000  0.022298  0.301511  1
  Ag  Ag19  1  0.500000  0.977702  0.698489  1
  Rh  Rh20  1  0.500000  0.475490  0.806293  1
  Rh  Rh21  1  0.500000  0.524510  0.193707  1
