# generated using pymatgen
data_Pr2Ho2LuPb4
_symmetry_space_group_name_H-M   'P 1'
_cell_length_a   8.24443700
_cell_length_b   8.36383300
_cell_length_c   15.77265700
_cell_angle_alpha   90.00000000
_cell_angle_beta   90.00000000
_cell_angle_gamma   90.00000000
_symmetry_Int_Tables_number   1
_chemical_formula_structural   Pr2Ho2LuPb4
_chemical_formula_sum   'Pr8 Ho8 Lu4 Pb16'
_cell_volume   1087.60504996
_cell_formula_units_Z   4
loop_
 _symmetry_equiv_pos_site_id
 _symmetry_equiv_pos_as_xyz
  1  'x, y, z'
loop_
 _atom_site_type_symbol
 _atom_site_label
 _atom_site_symmetry_multiplicity
 _atom_site_fract_x
 _atom_site_fract_y
 _atom_site_fract_z
 _atom_site_occupancy
  Pr  Pr0  1  0.476150  0.677611  0.597204  1
  Pr  Pr1  1  0.976150  0.822389  0.902796  1
  Pr  Pr2  1  0.523850  0.322389  0.097204  1
  Pr  Pr3  1  0.023850  0.177611  0.402796  1
  Pr  Pr4  1  0.523850  0.322389  0.402796  1
  Pr  Pr5  1  0.023850  0.177611  0.097204  1
  Pr  Pr6  1  0.476150  0.677611  0.902796  1
  Pr  Pr7  1  0.976150  0.822389  0.597204  1
  Ho  Ho8  1  0.632786  0.158236  0.622200  1
  Ho  Ho9  1  0.132786  0.341764  0.877800  1
  Ho  Ho10  1  0.367214  0.841764  0.122200  1
  Ho  Ho11  1  0.867214  0.658236  0.377800  1
  Ho  Ho12  1  0.367214  0.841764  0.377800  1
  Ho  Ho13  1  0.867214  0.658236  0.122200  1
  Ho  Ho14  1  0.632786  0.158236  0.877800  1
  Ho  Ho15  1  0.132786  0.341764  0.622200  1
  Lu  Lu16  1  0.798350  0.494686  0.750000  1
  Lu  Lu17  1  0.298350  0.005314  0.750000  1
  Lu  Lu18  1  0.201650  0.505314  0.250000  1
  Lu  Lu19  1  0.701650  0.994686  0.250000  1
  Pb  Pb20  1  0.706111  0.959242  0.456244  1
  Pb  Pb21  1  0.206111  0.540758  0.043756  1
  Pb  Pb22  1  0.293889  0.040758  0.956244  1
  Pb  Pb23  1  0.793889  0.459242  0.543756  1
  Pb  Pb24  1  0.293889  0.040758  0.543756  1
  Pb  Pb25  1  0.793889  0.459242  0.956244  1
  Pb  Pb26  1  0.706111  0.959242  0.043756  1
  Pb  Pb27  1  0.206111  0.540758  0.456244  1
  Pb  Pb28  1  0.436451  0.370697  0.750000  1
  Pb  Pb29  1  0.936451  0.129303  0.750000  1
  Pb  Pb30  1  0.563549  0.629303  0.250000  1
  Pb  Pb31  1  0.063549  0.870697  0.250000  1
  Pb  Pb32  1  0.662673  0.850331  0.750000  1
  Pb  Pb33  1  0.162673  0.649669  0.750000  1
  Pb  Pb34  1  0.337327  0.149669  0.250000  1
  Pb  Pb35  1  0.837327  0.350331  0.250000  1
