# generated using pymatgen
data_CeNd3CoOs7
_symmetry_space_group_name_H-M   'P 1'
_cell_length_a   5.42283020
_cell_length_b   5.42283128
_cell_length_c   9.02981100
_cell_angle_alpha   89.98453188
_cell_angle_beta   90.01546813
_cell_angle_gamma   120.92005719
_symmetry_Int_Tables_number   1
_chemical_formula_structural   CeNd3CoOs7
_chemical_formula_sum   'Ce1 Nd3 Co1 Os7'
_cell_volume   227.80321723
_cell_formula_units_Z   1
loop_
 _symmetry_equiv_pos_site_id
 _symmetry_equiv_pos_as_xyz
  1  'x, y, z'
loop_
 _atom_site_type_symbol
 _atom_site_label
 _atom_site_symmetry_multiplicity
 _atom_site_fract_x
 _atom_site_fract_y
 _atom_site_fract_z
 _atom_site_occupancy
  Ce  Ce0  1  0.335479  0.664521  0.429301  1
  Nd  Nd1  1  0.671840  0.328160  0.562323  1
  Nd  Nd2  1  0.670626  0.329374  0.936813  1
  Nd  Nd3  1  0.334276  0.665724  0.067720  1
  Co  Co4  1  0.823288  0.176712  0.252562  1
  Os  Os5  1  0.008436  0.991564  0.498427  1
  Os  Os6  1  0.006116  0.993884  0.003124  1
  Os  Os7  1  0.824358  0.666216  0.251051  1
  Os  Os8  1  0.333784  0.175642  0.251051  1
  Os  Os9  1  0.163093  0.836907  0.749788  1
  Os  Os10  1  0.176308  0.347602  0.748920  1
  Os  Os11  1  0.652398  0.823692  0.748920  1
