# generated using pymatgen
data_Tb8Be2ZnSi12Ag
_symmetry_space_group_name_H-M   'P 1'
_cell_length_a   8.04516200
_cell_length_b   8.04516192
_cell_length_c   8.12672400
_cell_angle_alpha   90.00000000
_cell_angle_beta   90.00000000
_cell_angle_gamma   120.00000855
_symmetry_Int_Tables_number   1
_chemical_formula_structural   Tb8Be2ZnSi12Ag
_chemical_formula_sum   'Tb8 Be2 Zn1 Si12 Ag1'
_cell_volume   455.52864057
_cell_formula_units_Z   1
loop_
 _symmetry_equiv_pos_site_id
 _symmetry_equiv_pos_as_xyz
  1  'x, y, z'
loop_
 _atom_site_type_symbol
 _atom_site_label
 _atom_site_symmetry_multiplicity
 _atom_site_fract_x
 _atom_site_fract_y
 _atom_site_fract_z
 _atom_site_occupancy
  Tb  Tb0  1  0.504298  0.008597  0.248883  1
  Tb  Tb1  1  0.504512  0.009025  0.751224  1
  Tb  Tb2  1  0.991403  0.495702  0.248883  1
  Tb  Tb3  1  0.990975  0.495488  0.751224  1
  Tb  Tb4  1  0.504298  0.495702  0.248883  1
  Tb  Tb5  1  0.504512  0.495488  0.751224  1
  Tb  Tb6  1  0.000000  0.000000  0.250241  1
  Tb  Tb7  1  0.000000  0.000000  0.749506  1
  Be  Be8  1  0.666667  0.333333  0.000339  1
  Be  Be9  1  0.666667  0.333333  0.499308  1
  Zn  Zn10  1  0.333333  0.666667  0.000376  1
  Si  Si11  1  0.164514  0.329027  0.999554  1
  Si  Si12  1  0.825586  0.651172  0.000348  1
  Si  Si13  1  0.670973  0.835486  0.999554  1
  Si  Si14  1  0.826568  0.653137  0.500109  1
  Si  Si15  1  0.348828  0.174414  0.000348  1
  Si  Si16  1  0.162101  0.324202  0.499739  1
  Si  Si17  1  0.164514  0.835486  0.999554  1
  Si  Si18  1  0.346863  0.173432  0.500109  1
  Si  Si19  1  0.825586  0.174414  0.000348  1
  Si  Si20  1  0.675798  0.837899  0.499739  1
  Si  Si21  1  0.826568  0.173432  0.500109  1
  Si  Si22  1  0.162101  0.837899  0.499739  1
  Ag  Ag23  1  0.333333  0.666667  0.500656  1
