# generated using pymatgen
data_Dy7Ho3InPb5
_symmetry_space_group_name_H-M   'P 1'
_cell_length_a   9.03307400
_cell_length_b   9.03734763
_cell_length_c   6.66361300
_cell_angle_alpha   89.99818711
_cell_angle_beta   89.99948200
_cell_angle_gamma   119.98529614
_symmetry_Int_Tables_number   1
_chemical_formula_structural   Dy7Ho3InPb5
_chemical_formula_sum   'Dy7 Ho3 In1 Pb5'
_cell_volume   471.17396234
_cell_formula_units_Z   1
loop_
 _symmetry_equiv_pos_site_id
 _symmetry_equiv_pos_as_xyz
  1  'x, y, z'
loop_
 _atom_site_type_symbol
 _atom_site_label
 _atom_site_symmetry_multiplicity
 _atom_site_fract_x
 _atom_site_fract_y
 _atom_site_fract_z
 _atom_site_occupancy
  Dy  Dy0  1  0.335722  0.669435  0.001647  1
  Dy  Dy1  1  0.238867  0.000073  0.250059  1
  Dy  Dy2  1  0.237374  0.237037  0.749938  1
  Dy  Dy3  1  0.000209  0.762905  0.749941  1
  Dy  Dy4  1  0.995893  0.234489  0.250047  1
  Dy  Dy5  1  0.761497  0.765442  0.250055  1
  Dy  Dy6  1  0.762459  0.000061  0.749944  1
  Ho  Ho7  1  0.666287  0.330568  0.498320  1
  Ho  Ho8  1  0.666285  0.330530  0.001689  1
  Ho  Ho9  1  0.335722  0.669429  0.498336  1
  In  In10  1  0.603753  0.000179  0.250195  1
  Pb  Pb11  1  0.605120  0.603964  0.749814  1
  Pb  Pb12  1  0.000790  0.395850  0.749845  1
  Pb  Pb13  1  0.999711  0.605235  0.250162  1
  Pb  Pb14  1  0.394657  0.394631  0.250184  1
  Pb  Pb15  1  0.395655  0.000172  0.749824  1
