# generated using pymatgen
data_Y7U(Si3Pt)4
_symmetry_space_group_name_H-M   'P 1'
_cell_length_a   8.13971700
_cell_length_b   8.13971751
_cell_length_c   8.13779300
_cell_angle_alpha   90.00000000
_cell_angle_beta   90.00000000
_cell_angle_gamma   120.00000200
_symmetry_Int_Tables_number   1
_chemical_formula_structural   Y7U(Si3Pt)4
_chemical_formula_sum   'Y7 U1 Si12 Pt4'
_cell_volume   466.93443179
_cell_formula_units_Z   1
loop_
 _symmetry_equiv_pos_site_id
 _symmetry_equiv_pos_as_xyz
  1  'x, y, z'
loop_
 _atom_site_type_symbol
 _atom_site_label
 _atom_site_symmetry_multiplicity
 _atom_site_fract_x
 _atom_site_fract_y
 _atom_site_fract_z
 _atom_site_occupancy
  Y  Y0  1  0.000000  0.000000  0.750000  1
  Y  Y1  1  0.001101  0.500549  0.250000  1
  Y  Y2  1  0.499451  0.500549  0.250000  1
  Y  Y3  1  0.500524  0.001049  0.750000  1
  Y  Y4  1  0.499451  0.998899  0.250000  1
  Y  Y5  1  0.500524  0.499476  0.750000  1
  Y  Y6  1  0.998951  0.499476  0.750000  1
  U  U7  1  0.000000  0.000000  0.250000  1
  Si  Si8  1  0.164803  0.329605  0.002721  1
  Si  Si9  1  0.670395  0.835197  0.002721  1
  Si  Si10  1  0.164803  0.329605  0.497279  1
  Si  Si11  1  0.329545  0.164773  0.003985  1
  Si  Si12  1  0.164803  0.835197  0.002721  1
  Si  Si13  1  0.670395  0.835197  0.497279  1
  Si  Si14  1  0.835227  0.670455  0.003985  1
  Si  Si15  1  0.329545  0.164773  0.496015  1
  Si  Si16  1  0.164803  0.835197  0.497279  1
  Si  Si17  1  0.835227  0.670455  0.496015  1
  Si  Si18  1  0.835227  0.164773  0.003985  1
  Si  Si19  1  0.835227  0.164773  0.496015  1
  Pt  Pt20  1  0.333333  0.666667  0.997625  1
  Pt  Pt21  1  0.333333  0.666667  0.502375  1
  Pt  Pt22  1  0.666667  0.333333  0.999835  1
  Pt  Pt23  1  0.666667  0.333333  0.500165  1
