# generated using pymatgen
data_CeHf3Si4Mo
_symmetry_space_group_name_H-M   'P 1'
_cell_length_a   7.09771200
_cell_length_b   7.09771200
_cell_length_c   12.94940100
_cell_angle_alpha   90.00000000
_cell_angle_beta   90.00000000
_cell_angle_gamma   90.00000000
_symmetry_Int_Tables_number   1
_chemical_formula_structural   CeHf3Si4Mo
_chemical_formula_sum   'Ce4 Hf12 Si16 Mo4'
_cell_volume   652.35865134
_cell_formula_units_Z   4
loop_
 _symmetry_equiv_pos_site_id
 _symmetry_equiv_pos_as_xyz
  1  'x, y, z'
loop_
 _atom_site_type_symbol
 _atom_site_label
 _atom_site_symmetry_multiplicity
 _atom_site_fract_x
 _atom_site_fract_y
 _atom_site_fract_z
 _atom_site_occupancy
  Ce  Ce0  1  0.497825  0.156313  0.534872  1
  Ce  Ce1  1  0.502175  0.843687  0.034872  1
  Ce  Ce2  1  0.656313  0.002175  0.284872  1
  Ce  Ce3  1  0.343687  0.997825  0.784872  1
  Hf  Hf4  1  0.847772  0.497335  0.967189  1
  Hf  Hf5  1  0.152228  0.502665  0.467189  1
  Hf  Hf6  1  0.997335  0.652228  0.717189  1
  Hf  Hf7  1  0.002665  0.347772  0.217189  1
  Hf  Hf8  1  0.493030  0.355134  0.124169  1
  Hf  Hf9  1  0.506970  0.644866  0.624169  1
  Hf  Hf10  1  0.855134  0.006970  0.874169  1
  Hf  Hf11  1  0.144866  0.993030  0.374169  1
  Hf  Hf12  1  0.647062  0.500434  0.374920  1
  Hf  Hf13  1  0.352938  0.499566  0.874920  1
  Hf  Hf14  1  0.000434  0.852938  0.124920  1
  Hf  Hf15  1  0.999566  0.147062  0.624920  1
  Si  Si16  1  0.805091  0.152204  0.069199  1
  Si  Si17  1  0.194909  0.847796  0.569199  1
  Si  Si18  1  0.652204  0.694909  0.819199  1
  Si  Si19  1  0.347796  0.305091  0.319199  1
  Si  Si20  1  0.870898  0.214555  0.429635  1
  Si  Si21  1  0.129102  0.785445  0.929635  1
  Si  Si22  1  0.714555  0.629102  0.179635  1
  Si  Si23  1  0.285445  0.370898  0.679635  1
  Si  Si24  1  0.557615  0.213046  0.933824  1
  Si  Si25  1  0.442385  0.786954  0.433824  1
  Si  Si26  1  0.713046  0.942385  0.683824  1
  Si  Si27  1  0.286954  0.057615  0.183824  1
  Si  Si28  1  0.805680  0.456628  0.566184  1
  Si  Si29  1  0.194320  0.543372  0.066184  1
  Si  Si30  1  0.956628  0.694320  0.316184  1
  Si  Si31  1  0.043372  0.305680  0.816184  1
  Mo  Mo32  1  0.678521  0.331184  0.750008  1
  Mo  Mo33  1  0.321479  0.668816  0.250008  1
  Mo  Mo34  1  0.831184  0.821479  0.500008  1
  Mo  Mo35  1  0.168816  0.178521  0.000008  1
