# generated using pymatgen
data_Ho9Tm(Bi2As)2
_symmetry_space_group_name_H-M   'P 1'
_cell_length_a   8.01850301
_cell_length_b   9.12017001
_cell_length_c   12.02700800
_cell_angle_alpha   90.00000000
_cell_angle_beta   90.00000000
_cell_angle_gamma   89.99344174
_symmetry_Int_Tables_number   1
_chemical_formula_structural   Ho9Tm(Bi2As)2
_chemical_formula_sum   'Ho18 Tm2 Bi8 As4'
_cell_volume   879.53642121
_cell_formula_units_Z   2
loop_
 _symmetry_equiv_pos_site_id
 _symmetry_equiv_pos_as_xyz
  1  'x, y, z'
loop_
 _atom_site_type_symbol
 _atom_site_label
 _atom_site_symmetry_multiplicity
 _atom_site_fract_x
 _atom_site_fract_y
 _atom_site_fract_z
 _atom_site_occupancy
  Ho  Ho0  1  0.182827  0.056325  0.937075  1
  Ho  Ho1  1  0.317173  0.443675  0.437075  1
  Ho  Ho2  1  0.182879  0.443733  0.937134  1
  Ho  Ho3  1  0.317121  0.056267  0.437134  1
  Ho  Ho4  1  0.817018  0.943565  0.062861  1
  Ho  Ho5  1  0.682982  0.556435  0.562861  1
  Ho  Ho6  1  0.156372  0.749903  0.210796  1
  Ho  Ho7  1  0.343628  0.750097  0.710796  1
  Ho  Ho8  1  0.843688  0.249956  0.789102  1
  Ho  Ho9  1  0.656312  0.250044  0.289102  1
  Ho  Ho10  1  0.463937  0.749952  0.999976  1
  Ho  Ho11  1  0.036063  0.750048  0.499976  1
  Ho  Ho12  1  0.536339  0.250039  0.000036  1
  Ho  Ho13  1  0.963661  0.249961  0.500036  1
  Ho  Ho14  1  0.634316  0.749893  0.292699  1
  Ho  Ho15  1  0.865684  0.750107  0.792699  1
  Ho  Ho16  1  0.365759  0.250010  0.707261  1
  Ho  Ho17  1  0.134241  0.249990  0.207261  1
  Tm  Tm18  1  0.817387  0.556724  0.062876  1
  Tm  Tm19  1  0.682613  0.943276  0.562876  1
  Bi  Bi20  1  0.925432  0.509976  0.326725  1
  Bi  Bi21  1  0.574568  0.990024  0.826725  1
  Bi  Bi22  1  0.074405  0.010034  0.673160  1
  Bi  Bi23  1  0.425595  0.489966  0.173160  1
  Bi  Bi24  1  0.074423  0.490039  0.673212  1
  Bi  Bi25  1  0.425577  0.009961  0.173212  1
  Bi  Bi26  1  0.925586  0.990063  0.326907  1
  Bi  Bi27  1  0.574414  0.509937  0.826907  1
  As  As28  1  0.413056  0.750376  0.478634  1
  As  As29  1  0.086944  0.749624  0.978634  1
  As  As30  1  0.587422  0.249295  0.521547  1
  As  As31  1  0.912578  0.250705  0.021547  1
