# generated using pymatgen
data_Zr2Ta3Ga3N
_symmetry_space_group_name_H-M   'P 1'
_cell_length_a   7.89820328
_cell_length_b   7.89820360
_cell_length_c   5.45392400
_cell_angle_alpha   90.00000000
_cell_angle_beta   90.00000000
_cell_angle_gamma   120.62978581
_symmetry_Int_Tables_number   1
_chemical_formula_structural   Zr2Ta3Ga3N
_chemical_formula_sum   'Zr4 Ta6 Ga6 N2'
_cell_volume   292.75553966
_cell_formula_units_Z   2
loop_
 _symmetry_equiv_pos_site_id
 _symmetry_equiv_pos_as_xyz
  1  'x, y, z'
loop_
 _atom_site_type_symbol
 _atom_site_label
 _atom_site_symmetry_multiplicity
 _atom_site_fract_x
 _atom_site_fract_y
 _atom_site_fract_z
 _atom_site_occupancy
  Zr  Zr0  1  0.239478  0.003730  0.250000  1
  Zr  Zr1  1  0.760522  0.996270  0.750000  1
  Zr  Zr2  1  0.003730  0.239478  0.250000  1
  Zr  Zr3  1  0.996270  0.760522  0.750000  1
  Ta  Ta4  1  0.773281  0.773281  0.250000  1
  Ta  Ta5  1  0.226719  0.226719  0.750000  1
  Ta  Ta6  1  0.334267  0.665733  0.000000  1
  Ta  Ta7  1  0.665733  0.334267  0.000000  1
  Ta  Ta8  1  0.665733  0.334267  0.500000  1
  Ta  Ta9  1  0.334267  0.665733  0.500000  1
  Ga  Ga10  1  0.595105  0.999463  0.250000  1
  Ga  Ga11  1  0.404895  0.000537  0.750000  1
  Ga  Ga12  1  0.999463  0.595105  0.250000  1
  Ga  Ga13  1  0.000537  0.404895  0.750000  1
  Ga  Ga14  1  0.417143  0.417143  0.250000  1
  Ga  Ga15  1  0.582857  0.582857  0.750000  1
  N  N16  1  0.000000  0.000000  0.000000  1
  N  N17  1  0.000000  0.000000  0.500000  1
