# generated using pymatgen
data_La5U5O18
_symmetry_space_group_name_H-M   'P 1'
_cell_length_a   6.88603307
_cell_length_b   7.81703725
_cell_length_c   8.77874731
_cell_angle_alpha   101.96639147
_cell_angle_beta   97.69064558
_cell_angle_gamma   106.88480363
_symmetry_Int_Tables_number   1
_chemical_formula_structural   La5U5O18
_chemical_formula_sum   'La5 U5 O18'
_cell_volume   432.74035344
_cell_formula_units_Z   1
loop_
 _symmetry_equiv_pos_site_id
 _symmetry_equiv_pos_as_xyz
  1  'x, y, z'
loop_
 _atom_site_type_symbol
 _atom_site_label
 _atom_site_symmetry_multiplicity
 _atom_site_fract_x
 _atom_site_fract_y
 _atom_site_fract_z
 _atom_site_occupancy
  La  La0  1  0.800998  0.107822  0.586868  1
  La  La1  1  0.595916  0.696444  0.197776  1
  La  La2  1  0.404084  0.303556  0.802224  1
  La  La3  1  0.199002  0.892178  0.413132  1
  La  La4  1  0.000000  0.500000  0.000000  1
  U  U5  1  0.000000  0.000000  0.000000  1
  U  U6  1  0.789899  0.579460  0.587490  1
  U  U7  1  0.627987  0.201126  0.194313  1
  U  U8  1  0.372013  0.798874  0.805687  1
  U  U9  1  0.210101  0.420540  0.412510  1
  O  O10  1  0.824579  0.802778  0.465438  1
  O  O11  1  0.992523  0.248988  0.169410  1
  O  O12  1  0.663918  0.414489  0.059767  1
  O  O13  1  0.460496  0.006548  0.674945  1
  O  O14  1  0.859480  0.334484  0.437879  1
  O  O15  1  0.517072  0.418873  0.345383  1
  O  O16  1  0.251446  0.616744  0.265300  1
  O  O17  1  0.973842  0.814728  0.155105  1
  O  O18  1  0.662467  0.932205  0.002069  1
  O  O19  1  0.337533  0.067795  0.997931  1
  O  O20  1  0.026158  0.185272  0.844895  1
  O  O21  1  0.748554  0.383256  0.734700  1
  O  O22  1  0.482928  0.581127  0.654617  1
  O  O23  1  0.140520  0.665516  0.562121  1
  O  O24  1  0.539504  0.993452  0.325055  1
  O  O25  1  0.336082  0.585511  0.940233  1
  O  O26  1  0.007477  0.751012  0.830590  1
  O  O27  1  0.175421  0.197222  0.534562  1
