# generated using pymatgen
data_Dy8Tc13B12
_symmetry_space_group_name_H-M   'P 1'
_cell_length_a   7.76128041
_cell_length_b   7.76128129
_cell_length_c   7.76127937
_cell_angle_alpha   86.82602462
_cell_angle_beta   86.82601892
_cell_angle_gamma   86.82602610
_symmetry_Int_Tables_number   1
_chemical_formula_structural   Dy8Tc13B12
_chemical_formula_sum   'Dy8 Tc13 B12'
_cell_volume   465.44480900
_cell_formula_units_Z   1
loop_
 _symmetry_equiv_pos_site_id
 _symmetry_equiv_pos_as_xyz
  1  'x, y, z'
loop_
 _atom_site_type_symbol
 _atom_site_label
 _atom_site_symmetry_multiplicity
 _atom_site_fract_x
 _atom_site_fract_y
 _atom_site_fract_z
 _atom_site_occupancy
  Dy  Dy0  1  0.641830  0.641830  0.641830  1
  Dy  Dy1  1  0.358170  0.358170  0.358170  1
  Dy  Dy2  1  0.187086  0.187086  0.687069  1
  Dy  Dy3  1  0.687069  0.187086  0.187086  1
  Dy  Dy4  1  0.187086  0.687069  0.187086  1
  Dy  Dy5  1  0.812914  0.812914  0.312931  1
  Dy  Dy6  1  0.312931  0.812914  0.812914  1
  Dy  Dy7  1  0.812914  0.312931  0.812914  1
  Tc  Tc8  1  0.000000  0.000000  0.000000  1
  Tc  Tc9  1  0.595359  0.064097  0.595359  1
  Tc  Tc10  1  0.595359  0.595359  0.064097  1
  Tc  Tc11  1  0.064097  0.595359  0.595359  1
  Tc  Tc12  1  0.404641  0.935903  0.404641  1
  Tc  Tc13  1  0.404641  0.404641  0.935903  1
  Tc  Tc14  1  0.935903  0.404641  0.404641  1
  Tc  Tc15  1  0.923031  0.923031  0.670316  1
  Tc  Tc16  1  0.670316  0.923031  0.923031  1
  Tc  Tc17  1  0.923031  0.670316  0.923031  1
  Tc  Tc18  1  0.076969  0.076969  0.329684  1
  Tc  Tc19  1  0.329684  0.076969  0.076969  1
  Tc  Tc20  1  0.076969  0.329684  0.076969  1
  B  B21  1  0.152178  0.847822  0.500000  1
  B  B22  1  0.500000  0.152178  0.847822  1
  B  B23  1  0.847822  0.500000  0.152178  1
  B  B24  1  0.500000  0.847822  0.152178  1
  B  B25  1  0.152178  0.500000  0.847822  1
  B  B26  1  0.847822  0.152178  0.500000  1
  B  B27  1  0.670822  0.500000  0.329178  1
  B  B28  1  0.329178  0.670822  0.500000  1
  B  B29  1  0.500000  0.329178  0.670822  1
  B  B30  1  0.329178  0.500000  0.670822  1
  B  B31  1  0.670822  0.329178  0.500000  1
  B  B32  1  0.500000  0.670822  0.329178  1
