# generated using pymatgen
data_Eu2ThTiSb5
_symmetry_space_group_name_H-M   'P 1'
_cell_length_a   9.61225200
_cell_length_b   9.53915447
_cell_length_c   6.19279800
_cell_angle_alpha   90.00000000
_cell_angle_beta   90.00000000
_cell_angle_gamma   120.25381886
_symmetry_Int_Tables_number   1
_chemical_formula_structural   Eu2ThTiSb5
_chemical_formula_sum   'Eu4 Th2 Ti2 Sb10'
_cell_volume   490.49672448
_cell_formula_units_Z   2
loop_
 _symmetry_equiv_pos_site_id
 _symmetry_equiv_pos_as_xyz
  1  'x, y, z'
loop_
 _atom_site_type_symbol
 _atom_site_label
 _atom_site_symmetry_multiplicity
 _atom_site_fract_x
 _atom_site_fract_y
 _atom_site_fract_z
 _atom_site_occupancy
  Eu  Eu0  1  0.996207  0.613651  0.750000  1
  Eu  Eu1  1  0.003793  0.386349  0.250000  1
  Eu  Eu2  1  0.382555  0.386349  0.750000  1
  Eu  Eu3  1  0.617445  0.613651  0.250000  1
  Th  Th4  1  0.624966  0.000000  0.750000  1
  Th  Th5  1  0.375034  0.000000  0.250000  1
  Ti  Ti6  1  0.000000  0.000000  0.500000  1
  Ti  Ti7  1  0.000000  0.000000  0.000000  1
  Sb  Sb8  1  0.254059  0.000000  0.750000  1
  Sb  Sb9  1  0.745941  0.000000  0.250000  1
  Sb  Sb10  1  0.001008  0.249840  0.750000  1
  Sb  Sb11  1  0.998992  0.750160  0.250000  1
  Sb  Sb12  1  0.751168  0.750160  0.750000  1
  Sb  Sb13  1  0.248832  0.249840  0.250000  1
  Sb  Sb14  1  0.337738  0.675478  0.500000  1
  Sb  Sb15  1  0.662262  0.324522  0.500000  1
  Sb  Sb16  1  0.662262  0.324522  0.000000  1
  Sb  Sb17  1  0.337738  0.675478  0.000000  1
