# generated using pymatgen
data_CeSmEr2(ReB6)2
_symmetry_space_group_name_H-M   'P 1'
_cell_length_a   3.70970000
_cell_length_b   9.19387280
_cell_length_c   11.60354001
_cell_angle_alpha   90.12305920
_cell_angle_beta   90.00000000
_cell_angle_gamma   90.00000000
_symmetry_Int_Tables_number   1
_chemical_formula_structural   CeSmEr2(ReB6)2
_chemical_formula_sum   'Ce2 Sm2 Er4 Re4 B24'
_cell_volume   395.75533972
_cell_formula_units_Z   2
loop_
 _symmetry_equiv_pos_site_id
 _symmetry_equiv_pos_as_xyz
  1  'x, y, z'
loop_
 _atom_site_type_symbol
 _atom_site_label
 _atom_site_symmetry_multiplicity
 _atom_site_fract_x
 _atom_site_fract_y
 _atom_site_fract_z
 _atom_site_occupancy
  Ce  Ce0  1  0.000000  0.322147  0.413988  1
  Ce  Ce1  1  0.000000  0.677853  0.586012  1
  Sm  Sm2  1  0.000000  0.823514  0.085709  1
  Sm  Sm3  1  0.000000  0.176486  0.914291  1
  Er  Er4  1  0.000000  0.943612  0.370783  1
  Er  Er5  1  0.000000  0.056388  0.629217  1
  Er  Er6  1  0.000000  0.443106  0.129277  1
  Er  Er7  1  0.000000  0.556894  0.870723  1
  Re  Re8  1  0.000000  0.637438  0.321985  1
  Re  Re9  1  0.000000  0.362562  0.678015  1
  Re  Re10  1  0.000000  0.140458  0.181557  1
  Re  Re11  1  0.000000  0.859542  0.818443  1
  B  B12  1  0.500000  0.554365  0.431398  1
  B  B13  1  0.500000  0.445635  0.568602  1
  B  B14  1  0.500000  0.054536  0.068301  1
  B  B15  1  0.500000  0.945464  0.931699  1
  B  B16  1  0.500000  0.749559  0.417455  1
  B  B17  1  0.500000  0.250441  0.582545  1
  B  B18  1  0.500000  0.249632  0.082474  1
  B  B19  1  0.500000  0.750368  0.917526  1
  B  B20  1  0.500000  0.791541  0.266071  1
  B  B21  1  0.500000  0.208459  0.733929  1
  B  B22  1  0.500000  0.291676  0.234214  1
  B  B23  1  0.500000  0.708324  0.765786  1
  B  B24  1  0.500000  0.630021  0.185876  1
  B  B25  1  0.500000  0.369979  0.814124  1
  B  B26  1  0.500000  0.130952  0.314205  1
  B  B27  1  0.500000  0.869048  0.685795  1
  B  B28  1  0.500000  0.983630  0.212864  1
  B  B29  1  0.500000  0.016370  0.787136  1
  B  B30  1  0.500000  0.483316  0.286986  1
  B  B31  1  0.500000  0.516684  0.713014  1
  B  B32  1  0.500000  0.598862  0.027545  1
  B  B33  1  0.500000  0.401138  0.972455  1
  B  B34  1  0.500000  0.101853  0.471804  1
  B  B35  1  0.500000  0.898147  0.528196  1
