# generated using pymatgen
data_Sr5Al3Ga2Pb
_symmetry_space_group_name_H-M   'P 1'
_cell_length_a   5.85463500
_cell_length_b   5.85463370
_cell_length_c   10.73232800
_cell_angle_alpha   90.00000000
_cell_angle_beta   90.00000000
_cell_angle_gamma   119.99999042
_symmetry_Int_Tables_number   1
_chemical_formula_structural   Sr5Al3Ga2Pb
_chemical_formula_sum   'Sr5 Al3 Ga2 Pb1'
_cell_volume   318.58414859
_cell_formula_units_Z   1
loop_
 _symmetry_equiv_pos_site_id
 _symmetry_equiv_pos_as_xyz
  1  'x, y, z'
loop_
 _atom_site_type_symbol
 _atom_site_label
 _atom_site_symmetry_multiplicity
 _atom_site_fract_x
 _atom_site_fract_y
 _atom_site_fract_z
 _atom_site_occupancy
  Sr  Sr0  1  0.000000  0.000000  0.671478  1
  Sr  Sr1  1  0.666667  0.333333  0.801903  1
  Sr  Sr2  1  0.666667  0.333333  0.198097  1
  Sr  Sr3  1  0.333333  0.666667  0.000000  1
  Sr  Sr4  1  0.000000  0.000000  0.328522  1
  Al  Al5  1  0.505808  0.494192  0.500000  1
  Al  Al6  1  0.988383  0.494192  0.500000  1
  Al  Al7  1  0.505808  0.011617  0.500000  1
  Ga  Ga8  1  0.333333  0.666667  0.692580  1
  Ga  Ga9  1  0.333333  0.666667  0.307420  1
  Pb  Pb10  1  0.000000  0.000000  0.000000  1
