# generated using pymatgen
data_Ho4GaB4Ir9
_symmetry_space_group_name_H-M   'P 1'
_cell_length_a   10.80293990
_cell_length_b   10.80293990
_cell_length_c   10.80294120
_cell_angle_alpha   29.56319470
_cell_angle_beta   29.56319207
_cell_angle_gamma   29.56319911
_symmetry_Int_Tables_number   1
_chemical_formula_structural   Ho4GaB4Ir9
_chemical_formula_sum   'Ho4 Ga1 B4 Ir9'
_cell_volume   271.67034909
_cell_formula_units_Z   1
loop_
 _symmetry_equiv_pos_site_id
 _symmetry_equiv_pos_as_xyz
  1  'x, y, z'
loop_
 _atom_site_type_symbol
 _atom_site_label
 _atom_site_symmetry_multiplicity
 _atom_site_fract_x
 _atom_site_fract_y
 _atom_site_fract_z
 _atom_site_occupancy
  Ho  Ho0  1  0.150277  0.150277  0.150277  1
  Ho  Ho1  1  0.950175  0.950175  0.950175  1
  Ho  Ho2  1  0.849723  0.849723  0.849723  1
  Ho  Ho3  1  0.049825  0.049825  0.049825  1
  Ga  Ga4  1  0.500000  0.500000  0.500000  1
  B  B5  1  0.615805  0.615805  0.615805  1
  B  B6  1  0.717828  0.717828  0.717828  1
  B  B7  1  0.384195  0.384195  0.384195  1
  B  B8  1  0.282172  0.282172  0.282172  1
  Ir  Ir9  1  0.401903  0.902412  0.401903  1
  Ir  Ir10  1  0.902412  0.401903  0.401903  1
  Ir  Ir11  1  0.500000  0.500000  0.000000  1
  Ir  Ir12  1  0.500000  0.000000  0.500000  1
  Ir  Ir13  1  0.000000  0.500000  0.500000  1
  Ir  Ir14  1  0.598097  0.097588  0.598097  1
  Ir  Ir15  1  0.598097  0.598097  0.097588  1
  Ir  Ir16  1  0.097588  0.598097  0.598097  1
  Ir  Ir17  1  0.401903  0.401903  0.902412  1
