# generated using pymatgen
data_Hf3ZrAs4
_symmetry_space_group_name_H-M   'P 1'
_cell_length_a   3.80806500
_cell_length_b   3.80806436
_cell_length_c   12.85311000
_cell_angle_alpha   90.00000000
_cell_angle_beta   90.00000000
_cell_angle_gamma   120.00001426
_symmetry_Int_Tables_number   1
_chemical_formula_structural   Hf3ZrAs4
_chemical_formula_sum   'Hf3 Zr1 As4'
_cell_volume   161.41631408
_cell_formula_units_Z   1
loop_
 _symmetry_equiv_pos_site_id
 _symmetry_equiv_pos_as_xyz
  1  'x, y, z'
loop_
 _atom_site_type_symbol
 _atom_site_label
 _atom_site_symmetry_multiplicity
 _atom_site_fract_x
 _atom_site_fract_y
 _atom_site_fract_z
 _atom_site_occupancy
  Hf  Hf0  1  0.666667  0.333333  0.882342  1
  Hf  Hf1  1  0.666667  0.333333  0.617231  1
  Hf  Hf2  1  0.333333  0.666667  0.116942  1
  Zr  Zr3  1  0.333333  0.666667  0.383515  1
  As  As4  1  0.666667  0.333333  0.247561  1
  As  As5  1  0.333333  0.666667  0.750198  1
  As  As6  1  0.000000  0.000000  0.502438  1
  As  As7  1  0.000000  0.000000  0.999774  1
