# generated using pymatgen
data_LuMgZn3Rh
_symmetry_space_group_name_H-M   'P 1'
_cell_length_a   5.25114583
_cell_length_b   5.31257662
_cell_length_c   8.52964817
_cell_angle_alpha   89.57324472
_cell_angle_beta   90.21587946
_cell_angle_gamma   120.38774097
_symmetry_Int_Tables_number   1
_chemical_formula_structural   LuMgZn3Rh
_chemical_formula_sum   'Lu2 Mg2 Zn6 Rh2'
_cell_volume   205.25741142
_cell_formula_units_Z   2
loop_
 _symmetry_equiv_pos_site_id
 _symmetry_equiv_pos_as_xyz
  1  'x, y, z'
loop_
 _atom_site_type_symbol
 _atom_site_label
 _atom_site_symmetry_multiplicity
 _atom_site_fract_x
 _atom_site_fract_y
 _atom_site_fract_z
 _atom_site_occupancy
  Lu  Lu0  1  0.326068  0.657372  0.064674  1
  Lu  Lu1  1  0.673932  0.331303  0.564674  1
  Mg  Mg2  1  0.670495  0.329345  0.936269  1
  Mg  Mg3  1  0.329505  0.658851  0.436269  1
  Zn  Zn4  1  0.001962  0.008098  0.997327  1
  Zn  Zn5  1  0.998038  0.006136  0.497327  1
  Zn  Zn6  1  0.336332  0.165521  0.250632  1
  Zn  Zn7  1  0.663668  0.829189  0.750632  1
  Zn  Zn8  1  0.168994  0.833179  0.750750  1
  Zn  Zn9  1  0.831006  0.664185  0.250750  1
  Rh  Rh10  1  0.173594  0.345206  0.750348  1
  Rh  Rh11  1  0.826406  0.171612  0.250348  1
