# generated using pymatgen
data_Ho2Nb2Sb4IrRh3
_symmetry_space_group_name_H-M   'P 1'
_cell_length_a   6.37125352
_cell_length_b   4.49488800
_cell_length_c   9.01404037
_cell_angle_alpha   90.00000000
_cell_angle_beta   89.91537832
_cell_angle_gamma   90.00000000
_symmetry_Int_Tables_number   1
_chemical_formula_structural   Ho2Nb2Sb4IrRh3
_chemical_formula_sum   'Ho2 Nb2 Sb4 Ir1 Rh3'
_cell_volume   258.14444636
_cell_formula_units_Z   1
loop_
 _symmetry_equiv_pos_site_id
 _symmetry_equiv_pos_as_xyz
  1  'x, y, z'
loop_
 _atom_site_type_symbol
 _atom_site_label
 _atom_site_symmetry_multiplicity
 _atom_site_fract_x
 _atom_site_fract_y
 _atom_site_fract_z
 _atom_site_occupancy
  Ho  Ho0  1  0.005326  0.000000  0.376433  1
  Ho  Ho1  1  0.505819  0.500000  0.624053  1
  Nb  Nb2  1  0.495913  0.500000  0.121847  1
  Nb  Nb3  1  0.993178  0.000000  0.878136  1
  Sb  Sb4  1  0.989490  0.500000  0.125164  1
  Sb  Sb5  1  0.509216  0.000000  0.372516  1
  Sb  Sb6  1  0.010366  0.500000  0.628745  1
  Sb  Sb7  1  0.483808  0.000000  0.873918  1
  Ir  Ir8  1  0.735116  0.000000  0.110048  1
  Rh  Rh9  1  0.269275  0.500000  0.354396  1
  Rh  Rh10  1  0.767730  0.000000  0.645678  1
  Rh  Rh11  1  0.234766  0.500000  0.889061  1
