# generated using pymatgen
data_Sr3Er(Si3Pd5)4
_symmetry_space_group_name_H-M   'P 1'
_cell_length_a   4.06656600
_cell_length_b   19.94527657
_cell_length_c   7.33993597
_cell_angle_alpha   89.92573579
_cell_angle_beta   90.00000000
_cell_angle_gamma   90.00000000
_symmetry_Int_Tables_number   1
_chemical_formula_structural   Sr3Er(Si3Pd5)4
_chemical_formula_sum   'Sr3 Er1 Si12 Pd20'
_cell_volume   595.33277760
_cell_formula_units_Z   1
loop_
 _symmetry_equiv_pos_site_id
 _symmetry_equiv_pos_as_xyz
  1  'x, y, z'
loop_
 _atom_site_type_symbol
 _atom_site_label
 _atom_site_symmetry_multiplicity
 _atom_site_fract_x
 _atom_site_fract_y
 _atom_site_fract_z
 _atom_site_occupancy
  Sr  Sr0  1  0.750000  0.642672  0.122799  1
  Sr  Sr1  1  0.250000  0.356176  0.876911  1
  Sr  Sr2  1  0.250000  0.858367  0.624385  1
  Er  Er3  1  0.750000  0.144299  0.377079  1
  Si  Si4  1  0.750000  0.737207  0.628331  1
  Si  Si5  1  0.250000  0.258912  0.370421  1
  Si  Si6  1  0.250000  0.763567  0.128359  1
  Si  Si7  1  0.750000  0.236232  0.872227  1
  Si  Si8  1  0.750000  0.925296  0.343930  1
  Si  Si9  1  0.250000  0.076613  0.646930  1
  Si  Si10  1  0.250000  0.574374  0.844986  1
  Si  Si11  1  0.750000  0.423957  0.156238  1
  Si  Si12  1  0.750000  0.918677  0.915527  1
  Si  Si13  1  0.250000  0.085082  0.100081  1
  Si  Si14  1  0.250000  0.583449  0.414747  1
  Si  Si15  1  0.750000  0.414729  0.582565  1
  Pd  Pd16  1  0.750000  0.799708  0.323993  1
  Pd  Pd17  1  0.250000  0.197742  0.667589  1
  Pd  Pd18  1  0.250000  0.700492  0.824424  1
  Pd  Pd19  1  0.750000  0.297936  0.177125  1
  Pd  Pd20  1  0.750000  0.994588  0.625371  1
  Pd  Pd21  1  0.250000  0.009112  0.373242  1
  Pd  Pd22  1  0.250000  0.505380  0.127654  1
  Pd  Pd23  1  0.750000  0.493744  0.872724  1
  Pd  Pd24  1  0.750000  0.512462  0.379056  1
  Pd  Pd25  1  0.250000  0.486603  0.620017  1
  Pd  Pd26  1  0.250000  0.990834  0.879783  1
  Pd  Pd27  1  0.750000  0.015061  0.124575  1
  Pd  Pd28  1  0.750000  0.797241  0.932949  1
  Pd  Pd29  1  0.250000  0.202392  0.070251  1
  Pd  Pd30  1  0.250000  0.704078  0.433769  1
  Pd  Pd31  1  0.750000  0.294186  0.566996  1
  Pd  Pd32  1  0.750000  0.616138  0.641707  1
  Pd  Pd33  1  0.250000  0.381910  0.358246  1
  Pd  Pd34  1  0.250000  0.885094  0.141852  1
  Pd  Pd35  1  0.750000  0.115687  0.853163  1
