# generated using pymatgen
data_Hf6AlCoSe
_symmetry_space_group_name_H-M   'P 1'
_cell_length_a   3.39672900
_cell_length_b   7.69431279
_cell_length_c   7.69422101
_cell_angle_alpha   119.99908904
_cell_angle_beta   90.00000000
_cell_angle_gamma   90.00000000
_symmetry_Int_Tables_number   1
_chemical_formula_structural   Hf6AlCoSe
_chemical_formula_sum   'Hf6 Al1 Co1 Se1'
_cell_volume   174.15261938
_cell_formula_units_Z   1
loop_
 _symmetry_equiv_pos_site_id
 _symmetry_equiv_pos_as_xyz
  1  'x, y, z'
loop_
 _atom_site_type_symbol
 _atom_site_label
 _atom_site_symmetry_multiplicity
 _atom_site_fract_x
 _atom_site_fract_y
 _atom_site_fract_z
 _atom_site_occupancy
  Hf  Hf0  1  0.500000  0.590338  0.989903  1
  Hf  Hf1  1  0.500000  0.399546  0.409662  1
  Hf  Hf2  1  0.500000  0.010080  0.600445  1
  Hf  Hf3  1  0.000000  0.249003  0.005607  1
  Hf  Hf4  1  0.000000  0.756588  0.751003  1
  Hf  Hf5  1  0.000000  0.994397  0.243388  1
  Al  Al6  1  0.000000  0.666664  0.333335  1
  Co  Co7  1  0.500000  0.000001  0.999988  1
  Se  Se8  1  0.000000  0.333283  0.666668  1
