# generated using pymatgen
data_MnOs2F12
_symmetry_space_group_name_H-M   'P 1'
_cell_length_a   5.34782916
_cell_length_b   5.64944765
_cell_length_c   9.24629854
_cell_angle_alpha   73.74560638
_cell_angle_beta   88.57591765
_cell_angle_gamma   62.46018399
_symmetry_Int_Tables_number   1
_chemical_formula_structural   MnOs2F12
_chemical_formula_sum   'Mn1 Os2 F12'
_cell_volume   235.99656874
_cell_formula_units_Z   1
loop_
 _symmetry_equiv_pos_site_id
 _symmetry_equiv_pos_as_xyz
  1  'x, y, z'
loop_
 _atom_site_type_symbol
 _atom_site_label
 _atom_site_symmetry_multiplicity
 _atom_site_fract_x
 _atom_site_fract_y
 _atom_site_fract_z
 _atom_site_occupancy
  Mn  Mn0  1  0.500000  0.500000  0.500000  1
  Os  Os1  1  0.771671  0.000965  0.245261  1
  Os  Os2  1  0.228329  0.999035  0.754739  1
  F  F3  1  0.945314  0.230746  0.200812  1
  F  F4  1  0.054686  0.769254  0.799188  1
  F  F5  1  0.013727  0.766841  0.137827  1
  F  F6  1  0.470446  0.769892  0.629767  1
  F  F7  1  0.529554  0.230108  0.370233  1
  F  F8  1  0.945440  0.238901  0.572437  1
  F  F9  1  0.054560  0.761099  0.427563  1
  F  F10  1  0.406467  0.242525  0.688368  1
  F  F11  1  0.593533  0.757475  0.311632  1
  F  F12  1  0.506235  0.776873  0.922194  1
  F  F13  1  0.493765  0.223127  0.077806  1
  F  F14  1  0.986273  0.233159  0.862173  1
