# generated using pymatgen
data_Lu10In8Ir3Pt
_symmetry_space_group_name_H-M   'P 1'
_cell_length_a   3.53808100
_cell_length_b   7.99869558
_cell_length_c   18.05393192
_cell_angle_alpha   90.00270361
_cell_angle_beta   90.00000000
_cell_angle_gamma   90.00000000
_symmetry_Int_Tables_number   1
_chemical_formula_structural   Lu10In8Ir3Pt
_chemical_formula_sum   'Lu10 In8 Ir3 Pt1'
_cell_volume   510.92686623
_cell_formula_units_Z   1
loop_
 _symmetry_equiv_pos_site_id
 _symmetry_equiv_pos_as_xyz
  1  'x, y, z'
loop_
 _atom_site_type_symbol
 _atom_site_label
 _atom_site_symmetry_multiplicity
 _atom_site_fract_x
 _atom_site_fract_y
 _atom_site_fract_z
 _atom_site_occupancy
  Lu  Lu0  1  0.000000  0.118181  0.413894  1
  Lu  Lu1  1  0.000000  0.881677  0.588226  1
  Lu  Lu2  1  0.000000  0.379663  0.911393  1
  Lu  Lu3  1  0.000000  0.618332  0.086266  1
  Lu  Lu4  1  0.000000  0.241460  0.222672  1
  Lu  Lu5  1  0.000000  0.753304  0.778159  1
  Lu  Lu6  1  0.000000  0.253584  0.721959  1
  Lu  Lu7  1  0.000000  0.754232  0.278497  1
  Lu  Lu8  1  0.000000  0.998565  0.999207  1
  Lu  Lu9  1  0.000000  0.500856  0.500217  1
  In  In10  1  0.500000  0.428466  0.352365  1
  In  In11  1  0.500000  0.569038  0.648263  1
  In  In12  1  0.500000  0.067842  0.851066  1
  In  In13  1  0.500000  0.932830  0.147754  1
  In  In14  1  0.500000  0.292507  0.065226  1
  In  In15  1  0.500000  0.703352  0.933565  1
  In  In16  1  0.500000  0.206582  0.567216  1
  In  In17  1  0.500000  0.793716  0.432900  1
  Ir  Ir18  1  0.500000  0.027299  0.304663  1
  Ir  Ir19  1  0.500000  0.975301  0.696772  1
  Ir  Ir20  1  0.500000  0.476031  0.803277  1
  Pt  Pt21  1  0.500000  0.527182  0.196443  1
