# generated using pymatgen
data_Tb3Ho5Tc3B24Os
_symmetry_space_group_name_H-M   'P 1'
_cell_length_a   3.67680900
_cell_length_b   9.15684539
_cell_length_c   11.54934900
_cell_angle_alpha   89.95236440
_cell_angle_beta   90.00000000
_cell_angle_gamma   90.00000000
_symmetry_Int_Tables_number   1
_chemical_formula_structural   Tb3Ho5Tc3B24Os
_chemical_formula_sum   'Tb3 Ho5 Tc3 B24 Os1'
_cell_volume   388.84301914
_cell_formula_units_Z   1
loop_
 _symmetry_equiv_pos_site_id
 _symmetry_equiv_pos_as_xyz
  1  'x, y, z'
loop_
 _atom_site_type_symbol
 _atom_site_label
 _atom_site_symmetry_multiplicity
 _atom_site_fract_x
 _atom_site_fract_y
 _atom_site_fract_z
 _atom_site_occupancy
  Tb  Tb0  1  0.000000  0.323644  0.413800  1
  Tb  Tb1  1  0.000000  0.675474  0.584445  1
  Tb  Tb2  1  0.000000  0.822922  0.087189  1
  Ho  Ho3  1  0.000000  0.177860  0.914590  1
  Ho  Ho4  1  0.000000  0.942609  0.369960  1
  Ho  Ho5  1  0.000000  0.058175  0.630126  1
  Ho  Ho6  1  0.000000  0.442932  0.130115  1
  Ho  Ho7  1  0.000000  0.556822  0.869510  1
  Tc  Tc8  1  0.000000  0.638385  0.320426  1
  Tc  Tc9  1  0.000000  0.361297  0.680403  1
  Tc  Tc10  1  0.000000  0.138044  0.178254  1
  B  B11  1  0.500000  0.553348  0.432554  1
  B  B12  1  0.500000  0.446553  0.567260  1
  B  B13  1  0.500000  0.053442  0.066862  1
  B  B14  1  0.500000  0.946493  0.932647  1
  B  B15  1  0.500000  0.748755  0.418375  1
  B  B16  1  0.500000  0.250950  0.581746  1
  B  B17  1  0.500000  0.249231  0.081098  1
  B  B18  1  0.500000  0.751309  0.918074  1
  B  B19  1  0.500000  0.791597  0.265773  1
  B  B20  1  0.500000  0.208344  0.735134  1
  B  B21  1  0.500000  0.291519  0.234270  1
  B  B22  1  0.500000  0.709231  0.765601  1
  B  B23  1  0.500000  0.630802  0.185750  1
  B  B24  1  0.500000  0.368798  0.815044  1
  B  B25  1  0.500000  0.130411  0.313905  1
  B  B26  1  0.500000  0.869309  0.685971  1
  B  B27  1  0.500000  0.982217  0.211971  1
  B  B28  1  0.500000  0.017213  0.788199  1
  B  B29  1  0.500000  0.482459  0.287691  1
  B  B30  1  0.500000  0.517240  0.712128  1
  B  B31  1  0.500000  0.601388  0.027961  1
  B  B32  1  0.500000  0.398991  0.971676  1
  B  B33  1  0.500000  0.101060  0.472001  1
  B  B34  1  0.500000  0.899016  0.528493  1
  Os  Os35  1  0.000000  0.862164  0.820998  1
