# generated using pymatgen
data_Y11Er5CdIn3Ir4
_symmetry_space_group_name_H-M   'P 1'
_cell_length_a   9.64753177
_cell_length_b   9.67668698
_cell_length_c   9.67668642
_cell_angle_alpha   59.92602717
_cell_angle_beta   59.98946395
_cell_angle_gamma   59.98946259
_symmetry_Int_Tables_number   1
_chemical_formula_structural   Y11Er5CdIn3Ir4
_chemical_formula_sum   'Y11 Er5 Cd1 In3 Ir4'
_cell_volume   638.32534865
_cell_formula_units_Z   1
loop_
 _symmetry_equiv_pos_site_id
 _symmetry_equiv_pos_as_xyz
  1  'x, y, z'
loop_
 _atom_site_type_symbol
 _atom_site_label
 _atom_site_symmetry_multiplicity
 _atom_site_fract_x
 _atom_site_fract_y
 _atom_site_fract_z
 _atom_site_occupancy
  Y  Y0  1  0.189736  0.809653  0.809653  1
  Y  Y1  1  0.190110  0.809321  0.190301  1
  Y  Y2  1  0.808374  0.190876  0.808941  1
  Y  Y3  1  0.190110  0.190301  0.809321  1
  Y  Y4  1  0.808374  0.808941  0.190876  1
  Y  Y5  1  0.940206  0.561309  0.561309  1
  Y  Y6  1  0.561093  0.939458  0.939458  1
  Y  Y7  1  0.561925  0.939538  0.559631  1
  Y  Y8  1  0.940303  0.560676  0.938079  1
  Y  Y9  1  0.561925  0.559631  0.939538  1
  Y  Y10  1  0.940303  0.938079  0.560676  1
  Er  Er11  1  0.348945  0.348149  0.348149  1
  Er  Er12  1  0.349207  0.349104  0.953557  1
  Er  Er13  1  0.349207  0.953557  0.349104  1
  Er  Er14  1  0.952903  0.349193  0.349193  1
  Er  Er15  1  0.808178  0.191096  0.191096  1
  Cd  Cd16  1  0.253455  0.582030  0.582030  1
  In  In17  1  0.582279  0.583377  0.583377  1
  In  In18  1  0.581914  0.583406  0.251299  1
  In  In19  1  0.581914  0.251299  0.583406  1
  Ir  Ir20  1  0.140846  0.142805  0.142805  1
  Ir  Ir21  1  0.142698  0.142381  0.572639  1
  Ir  Ir22  1  0.142698  0.572639  0.142381  1
  Ir  Ir23  1  0.573301  0.143186  0.143186  1
