# generated using pymatgen
data_Fe2Bi6RhO18
_symmetry_space_group_name_H-M   'P 1'
_cell_length_a   9.18490100
_cell_length_b   9.18491289
_cell_length_c   5.03816900
_cell_angle_alpha   90.00003065
_cell_angle_beta   90.00004146
_cell_angle_gamma   120.00007357
_symmetry_Int_Tables_number   1
_chemical_formula_structural   Fe2Bi6RhO18
_chemical_formula_sum   'Fe2 Bi6 Rh1 O18'
_cell_volume   368.08876563
_cell_formula_units_Z   1
loop_
 _symmetry_equiv_pos_site_id
 _symmetry_equiv_pos_as_xyz
  1  'x, y, z'
loop_
 _atom_site_type_symbol
 _atom_site_label
 _atom_site_symmetry_multiplicity
 _atom_site_fract_x
 _atom_site_fract_y
 _atom_site_fract_z
 _atom_site_occupancy
  Fe  Fe0  1  0.000000  0.000000  0.497009  1
  Fe  Fe1  1  0.333333  0.666666  0.997929  1
  Bi  Bi2  1  0.005539  0.373200  0.498168  1
  Bi  Bi3  1  0.291209  0.292558  0.998183  1
  Bi  Bi4  1  0.001350  0.708792  0.998182  1
  Bi  Bi5  1  0.626800  0.632338  0.498168  1
  Bi  Bi6  1  0.367661  0.994463  0.498169  1
  Bi  Bi7  1  0.707442  0.998650  0.998182  1
  Rh  Rh8  1  0.666665  0.333333  0.000415  1
  O  O9  1  0.084019  0.208092  0.726249  1
  O  O10  1  0.229207  0.454836  0.225214  1
  O  O11  1  0.125356  0.591955  0.779014  1
  O  O12  1  0.408045  0.533402  0.779013  1
  O  O13  1  0.225628  0.770792  0.225216  1
  O  O14  1  0.124072  0.915981  0.726249  1
  O  O15  1  0.545164  0.774372  0.225216  1
  O  O16  1  0.208771  0.087427  0.276652  1
  O  O17  1  0.466598  0.874644  0.779013  1
  O  O18  1  0.791908  0.875928  0.726248  1
  O  O19  1  0.461476  0.230749  0.773281  1
  O  O20  1  0.599111  0.133356  0.224789  1
  O  O21  1  0.534248  0.400890  0.224787  1
  O  O22  1  0.769251  0.230728  0.773280  1
  O  O23  1  0.912573  0.121345  0.276652  1
  O  O24  1  0.769273  0.538524  0.773281  1
  O  O25  1  0.866644  0.465753  0.224790  1
  O  O26  1  0.878655  0.791228  0.276651  1
