# generated using pymatgen
data_ErCrI18
_symmetry_space_group_name_H-M   'P 1'
_cell_length_a   10.22062647
_cell_length_b   10.22062731
_cell_length_c   10.22062915
_cell_angle_alpha   88.62798449
_cell_angle_beta   88.62798166
_cell_angle_gamma   88.62799852
_symmetry_Int_Tables_number   1
_chemical_formula_structural   ErCrI18
_chemical_formula_sum   'Er1 Cr1 I18'
_cell_volume   1066.75545649
_cell_formula_units_Z   1
loop_
 _symmetry_equiv_pos_site_id
 _symmetry_equiv_pos_as_xyz
  1  'x, y, z'
loop_
 _atom_site_type_symbol
 _atom_site_label
 _atom_site_symmetry_multiplicity
 _atom_site_fract_x
 _atom_site_fract_y
 _atom_site_fract_z
 _atom_site_occupancy
  Er  Er0  1  0.500000  0.500000  0.500000  1
  Cr  Cr1  1  0.000000  0.000000  0.000000  1
  I  I2  1  0.752645  0.119526  0.616956  1
  I  I3  1  0.997246  0.025666  0.733599  1
  I  I4  1  0.616956  0.752645  0.119526  1
  I  I5  1  0.974334  0.266401  0.002754  1
  I  I6  1  0.733599  0.997246  0.025666  1
  I  I7  1  0.025666  0.733599  0.997246  1
  I  I8  1  0.002754  0.974334  0.266401  1
  I  I9  1  0.880474  0.383044  0.247355  1
  I  I10  1  0.266401  0.002754  0.974334  1
  I  I11  1  0.247355  0.880474  0.383044  1
  I  I12  1  0.119526  0.616956  0.752645  1
  I  I13  1  0.383044  0.247355  0.880474  1
  I  I14  1  0.793306  0.530199  0.481438  1
  I  I15  1  0.530199  0.481438  0.793306  1
  I  I16  1  0.206694  0.469801  0.518562  1
  I  I17  1  0.469801  0.518562  0.206694  1
  I  I18  1  0.481438  0.793306  0.530199  1
  I  I19  1  0.518562  0.206694  0.469801  1
