# generated using pymatgen
data_Nd16Lu4Sn9Pb7
_symmetry_space_group_name_H-M   'P 1'
_cell_length_a   8.27123444
_cell_length_b   8.42629661
_cell_length_c   15.98057200
_cell_angle_alpha   90.06788762
_cell_angle_beta   89.93431017
_cell_angle_gamma   89.92784529
_symmetry_Int_Tables_number   1
_chemical_formula_structural   Nd16Lu4Sn9Pb7
_chemical_formula_sum   'Nd16 Lu4 Sn9 Pb7'
_cell_volume   1113.77754479
_cell_formula_units_Z   1
loop_
 _symmetry_equiv_pos_site_id
 _symmetry_equiv_pos_as_xyz
  1  'x, y, z'
loop_
 _atom_site_type_symbol
 _atom_site_label
 _atom_site_symmetry_multiplicity
 _atom_site_fract_x
 _atom_site_fract_y
 _atom_site_fract_z
 _atom_site_occupancy
  Nd  Nd0  1  0.366692  0.839611  0.875903  1
  Nd  Nd1  1  0.867089  0.660541  0.623973  1
  Nd  Nd2  1  0.632654  0.160718  0.375729  1
  Nd  Nd3  1  0.131172  0.339174  0.123612  1
  Nd  Nd4  1  0.633967  0.163382  0.123513  1
  Nd  Nd5  1  0.132093  0.339367  0.375890  1
  Nd  Nd6  1  0.367254  0.839716  0.624379  1
  Nd  Nd7  1  0.866509  0.659649  0.877156  1
  Nd  Nd8  1  0.524897  0.322786  0.900919  1
  Nd  Nd9  1  0.023258  0.178865  0.600757  1
  Nd  Nd10  1  0.476996  0.678662  0.399341  1
  Nd  Nd11  1  0.976643  0.818371  0.099761  1
  Nd  Nd12  1  0.480109  0.676369  0.099642  1
  Nd  Nd13  1  0.976786  0.820701  0.399297  1
  Nd  Nd14  1  0.522788  0.321109  0.600436  1
  Nd  Nd15  1  0.021191  0.180726  0.900448  1
  Lu  Lu16  1  0.198337  0.502470  0.750223  1
  Lu  Lu17  1  0.698368  0.997870  0.750029  1
  Lu  Lu18  1  0.801072  0.497668  0.247998  1
  Lu  Lu19  1  0.301991  0.002242  0.249827  1
  Sn  Sn20  1  0.792730  0.463884  0.043867  1
  Sn  Sn21  1  0.561567  0.617170  0.750161  1
  Sn  Sn22  1  0.060771  0.882498  0.750501  1
  Sn  Sn23  1  0.437684  0.382836  0.250061  1
  Sn  Sn24  1  0.938697  0.116294  0.249750  1
  Sn  Sn25  1  0.329383  0.152214  0.750771  1
  Sn  Sn26  1  0.829007  0.348923  0.750103  1
  Sn  Sn27  1  0.670712  0.848978  0.249446  1
  Sn  Sn28  1  0.171469  0.651117  0.249568  1
  Pb  Pb29  1  0.291836  0.035406  0.043652  1
  Pb  Pb30  1  0.790829  0.463855  0.456353  1
  Pb  Pb31  1  0.708970  0.964051  0.543300  1
  Pb  Pb32  1  0.208925  0.536608  0.957020  1
  Pb  Pb33  1  0.707878  0.963993  0.956732  1
  Pb  Pb34  1  0.208887  0.536412  0.543285  1
  Pb  Pb35  1  0.290788  0.035768  0.456598  1
