# generated using pymatgen
data_Y4Lu4Co(B8W)3
_symmetry_space_group_name_H-M   'P 1'
_cell_length_a   3.56391500
_cell_length_b   9.21318400
_cell_length_c   11.62227353
_cell_angle_alpha   90.19112098
_cell_angle_beta   90.00000000
_cell_angle_gamma   90.00000000
_symmetry_Int_Tables_number   1
_chemical_formula_structural   Y4Lu4Co(B8W)3
_chemical_formula_sum   'Y4 Lu4 Co1 B24 W3'
_cell_volume   381.61528232
_cell_formula_units_Z   1
loop_
 _symmetry_equiv_pos_site_id
 _symmetry_equiv_pos_as_xyz
  1  'x, y, z'
loop_
 _atom_site_type_symbol
 _atom_site_label
 _atom_site_symmetry_multiplicity
 _atom_site_fract_x
 _atom_site_fract_y
 _atom_site_fract_z
 _atom_site_occupancy
  Y  Y0  1  0.000000  0.820387  0.086484  1
  Y  Y1  1  0.000000  0.177788  0.914992  1
  Y  Y2  1  0.000000  0.321213  0.414966  1
  Y  Y3  1  0.000000  0.678719  0.586102  1
  Lu  Lu4  1  0.000000  0.443981  0.126506  1
  Lu  Lu5  1  0.000000  0.552717  0.867800  1
  Lu  Lu6  1  0.000000  0.946083  0.373874  1
  Lu  Lu7  1  0.000000  0.061671  0.629783  1
  Co  Co8  1  0.000000  0.360612  0.680184  1
  B  B9  1  0.500000  0.050864  0.065394  1
  B  B10  1  0.500000  0.947472  0.934047  1
  B  B11  1  0.500000  0.550723  0.436781  1
  B  B12  1  0.500000  0.443982  0.569280  1
  B  B13  1  0.500000  0.252204  0.078073  1
  B  B14  1  0.500000  0.744977  0.919454  1
  B  B15  1  0.500000  0.754481  0.422369  1
  B  B16  1  0.500000  0.252961  0.583811  1
  B  B17  1  0.500000  0.296048  0.235374  1
  B  B18  1  0.500000  0.702461  0.761910  1
  B  B19  1  0.500000  0.795555  0.265149  1
  B  B20  1  0.500000  0.211005  0.734475  1
  B  B21  1  0.500000  0.131702  0.318204  1
  B  B22  1  0.500000  0.870621  0.681300  1
  B  B23  1  0.500000  0.629456  0.183029  1
  B  B24  1  0.500000  0.368481  0.813602  1
  B  B25  1  0.500000  0.477860  0.286641  1
  B  B26  1  0.500000  0.512591  0.711014  1
  B  B27  1  0.500000  0.978363  0.214749  1
  B  B28  1  0.500000  0.022878  0.786580  1
  B  B29  1  0.500000  0.103803  0.474406  1
  B  B30  1  0.500000  0.903432  0.528518  1
  B  B31  1  0.500000  0.598231  0.025629  1
  B  B32  1  0.500000  0.398629  0.969496  1
  W  W33  1  0.000000  0.139330  0.180290  1
  W  W34  1  0.000000  0.859658  0.818201  1
  W  W35  1  0.000000  0.639061  0.321532  1
