# generated using pymatgen
data_Er5(FeTe)2
_symmetry_space_group_name_H-M   'P 1'
_cell_length_a   7.70880208
_cell_length_b   7.70880266
_cell_length_c   15.08477600
_cell_angle_alpha   90.00000000
_cell_angle_beta   90.00000000
_cell_angle_gamma   150.45184807
_symmetry_Int_Tables_number   1
_chemical_formula_structural   Er5(FeTe)2
_chemical_formula_sum   'Er10 Fe4 Te4'
_cell_volume   442.07503573
_cell_formula_units_Z   2
loop_
 _symmetry_equiv_pos_site_id
 _symmetry_equiv_pos_as_xyz
  1  'x, y, z'
loop_
 _atom_site_type_symbol
 _atom_site_label
 _atom_site_symmetry_multiplicity
 _atom_site_fract_x
 _atom_site_fract_y
 _atom_site_fract_z
 _atom_site_occupancy
  Er  Er0  1  0.961453  0.038547  0.121920  1
  Er  Er1  1  0.038547  0.961453  0.878080  1
  Er  Er2  1  0.038547  0.961453  0.621920  1
  Er  Er3  1  0.961453  0.038547  0.378080  1
  Er  Er4  1  0.742669  0.257331  0.631655  1
  Er  Er5  1  0.257331  0.742669  0.368345  1
  Er  Er6  1  0.257331  0.742669  0.131655  1
  Er  Er7  1  0.742669  0.257331  0.868345  1
  Er  Er8  1  0.604013  0.395987  0.250000  1
  Er  Er9  1  0.395987  0.604013  0.750000  1
  Fe  Fe10  1  0.407820  0.592180  0.250000  1
  Fe  Fe11  1  0.592180  0.407820  0.750000  1
  Fe  Fe12  1  0.828335  0.171665  0.250000  1
  Fe  Fe13  1  0.171665  0.828335  0.750000  1
  Te  Te14  1  0.619153  0.380847  0.039098  1
  Te  Te15  1  0.380847  0.619153  0.960902  1
  Te  Te16  1  0.380847  0.619153  0.539098  1
  Te  Te17  1  0.619153  0.380847  0.460902  1
