# generated using pymatgen
data_Zr6Al2RuRh3N2
_symmetry_space_group_name_H-M   'P 1'
_cell_length_a   8.57744931
_cell_length_b   8.57745004
_cell_length_c   8.56618500
_cell_angle_alpha   60.04343131
_cell_angle_beta   60.04342850
_cell_angle_gamma   60.06627200
_symmetry_Int_Tables_number   1
_chemical_formula_structural   Zr6Al2RuRh3N2
_chemical_formula_sum   'Zr12 Al4 Ru2 Rh6 N4'
_cell_volume   446.16029284
_cell_formula_units_Z   2
loop_
 _symmetry_equiv_pos_site_id
 _symmetry_equiv_pos_as_xyz
  1  'x, y, z'
loop_
 _atom_site_type_symbol
 _atom_site_label
 _atom_site_symmetry_multiplicity
 _atom_site_fract_x
 _atom_site_fract_y
 _atom_site_fract_z
 _atom_site_occupancy
  Zr  Zr0  1  0.809125  0.809125  0.190875  1
  Zr  Zr1  1  0.191810  0.191810  0.808190  1
  Zr  Zr2  1  0.809336  0.191459  0.807664  1
  Zr  Zr3  1  0.191459  0.809336  0.191540  1
  Zr  Zr4  1  0.191459  0.809336  0.807664  1
  Zr  Zr5  1  0.809336  0.191459  0.191540  1
  Zr  Zr6  1  0.440270  0.440270  0.059730  1
  Zr  Zr7  1  0.059254  0.059254  0.440746  1
  Zr  Zr8  1  0.440317  0.056239  0.440425  1
  Zr  Zr9  1  0.056239  0.440317  0.063019  1
  Zr  Zr10  1  0.056239  0.440317  0.440425  1
  Zr  Zr11  1  0.440317  0.056239  0.063019  1
  Al  Al12  1  0.124171  0.626103  0.624863  1
  Al  Al13  1  0.626103  0.124171  0.624863  1
  Al  Al14  1  0.626047  0.626047  0.122858  1
  Al  Al15  1  0.626047  0.626047  0.625047  1
  Ru  Ru16  1  0.749954  0.417408  0.416318  1
  Ru  Ru17  1  0.417408  0.749954  0.416318  1
  Rh  Rh18  1  0.416388  0.416388  0.751628  1
  Rh  Rh19  1  0.416388  0.416388  0.415593  1
  Rh  Rh20  1  0.497400  0.834352  0.834125  1
  Rh  Rh21  1  0.834352  0.497400  0.834125  1
  Rh  Rh22  1  0.834245  0.834245  0.497582  1
  Rh  Rh23  1  0.834245  0.834245  0.833930  1
  N  N24  1  0.624722  0.126281  0.124499  1
  N  N25  1  0.126281  0.624722  0.124499  1
  N  N26  1  0.125544  0.125544  0.625064  1
  N  N27  1  0.125544  0.125544  0.123848  1
