# generated using pymatgen
data_Rb4FeO3
_symmetry_space_group_name_H-M   'P 1'
_cell_length_a   7.16337366
_cell_length_b   12.06475173
_cell_length_c   9.84140805
_cell_angle_alpha   109.82546330
_cell_angle_beta   100.54964283
_cell_angle_gamma   89.56360667
_symmetry_Int_Tables_number   1
_chemical_formula_structural   Rb4FeO3
_chemical_formula_sum   'Rb16 Fe4 O12'
_cell_volume   785.23507169
_cell_formula_units_Z   4
loop_
 _symmetry_equiv_pos_site_id
 _symmetry_equiv_pos_as_xyz
  1  'x, y, z'
loop_
 _atom_site_type_symbol
 _atom_site_label
 _atom_site_symmetry_multiplicity
 _atom_site_fract_x
 _atom_site_fract_y
 _atom_site_fract_z
 _atom_site_occupancy
  Rb  Rb0  1  0.410841  0.166830  0.597973  1
  Rb  Rb1  1  0.910943  0.666844  0.597975  1
  Rb  Rb2  1  0.089195  0.333181  0.402032  1
  Rb  Rb3  1  0.589128  0.833136  0.402037  1
  Rb  Rb4  1  0.495133  0.285007  0.992174  1
  Rb  Rb5  1  0.995131  0.784982  0.992181  1
  Rb  Rb6  1  0.004881  0.215011  0.007832  1
  Rb  Rb7  1  0.504909  0.715007  0.007829  1
  Rb  Rb8  1  0.619086  0.969448  0.855897  1
  Rb  Rb9  1  0.119172  0.469412  0.855879  1
  Rb  Rb10  1  0.880972  0.530563  0.144101  1
  Rb  Rb11  1  0.380752  0.030568  0.144118  1
  Rb  Rb12  1  0.073272  0.867151  0.377007  1
  Rb  Rb13  1  0.573391  0.367136  0.377029  1
  Rb  Rb14  1  0.426757  0.632862  0.622996  1
  Rb  Rb15  1  0.926680  0.132863  0.622982  1
  Fe  Fe16  1  0.640146  0.437192  0.761617  1
  Fe  Fe17  1  0.859624  0.062804  0.238319  1
  Fe  Fe18  1  0.140026  0.937300  0.761740  1
  Fe  Fe19  1  0.360080  0.562710  0.238288  1
  O  O20  1  0.120005  0.090128  0.342592  1
  O  O21  1  0.620392  0.590084  0.342584  1
  O  O22  1  0.379788  0.409876  0.657393  1
  O  O23  1  0.879725  0.909901  0.657442  1
  O  O24  1  0.267073  0.087275  0.798475  1
  O  O25  1  0.767136  0.587212  0.798424  1
  O  O26  1  0.233006  0.412738  0.201541  1
  O  O27  1  0.732803  0.912751  0.201575  1
  O  O28  1  0.272610  0.820412  0.826387  1
  O  O29  1  0.772701  0.320372  0.826397  1
  O  O30  1  0.227471  0.679590  0.173646  1
  O  O31  1  0.727175  0.179654  0.173539  1
