# generated using pymatgen
data_MnTeS
_symmetry_space_group_name_H-M   'P 1'
_cell_length_a   6.91440888
_cell_length_b   6.91440770
_cell_length_c   6.91440900
_cell_angle_alpha   59.99999855
_cell_angle_beta   60.00000423
_cell_angle_gamma   59.99999714
_symmetry_Int_Tables_number   1
_chemical_formula_structural   MnTeS
_chemical_formula_sum   'Mn4 Te4 S4'
_cell_volume   233.74918676
_cell_formula_units_Z   4
loop_
 _symmetry_equiv_pos_site_id
 _symmetry_equiv_pos_as_xyz
  1  'x, y, z'
loop_
 _atom_site_type_symbol
 _atom_site_label
 _atom_site_symmetry_multiplicity
 _atom_site_fract_x
 _atom_site_fract_y
 _atom_site_fract_z
 _atom_site_occupancy
  Mn  Mn0  1  0.154028  0.154028  0.154028  1
  Mn  Mn1  1  0.537917  0.154028  0.154028  1
  Mn  Mn2  1  0.154028  0.154028  0.537917  1
  Mn  Mn3  1  0.154028  0.537917  0.154028  1
  Te  Te4  1  0.879858  0.360426  0.879858  1
  Te  Te5  1  0.879858  0.879858  0.360426  1
  Te  Te6  1  0.360426  0.879858  0.879858  1
  Te  Te7  1  0.879858  0.879858  0.879858  1
  S  S8  1  0.374573  0.374573  0.374573  1
  S  S9  1  0.876281  0.374573  0.374573  1
  S  S10  1  0.374573  0.374573  0.876281  1
  S  S11  1  0.374573  0.876281  0.374573  1
