# generated using pymatgen
data_Tb9Dy3(BCl3)4
_symmetry_space_group_name_H-M   'P 1'
_cell_length_a   9.49123772
_cell_length_b   9.49160872
_cell_length_c   9.49302606
_cell_angle_alpha   109.46134515
_cell_angle_beta   109.48148178
_cell_angle_gamma   109.47544477
_symmetry_Int_Tables_number   1
_chemical_formula_structural   Tb9Dy3(BCl3)4
_chemical_formula_sum   'Tb9 Dy3 B4 Cl12'
_cell_volume   658.29527759
_cell_formula_units_Z   1
loop_
 _symmetry_equiv_pos_site_id
 _symmetry_equiv_pos_as_xyz
  1  'x, y, z'
loop_
 _atom_site_type_symbol
 _atom_site_label
 _atom_site_symmetry_multiplicity
 _atom_site_fract_x
 _atom_site_fract_y
 _atom_site_fract_z
 _atom_site_occupancy
  Tb  Tb0  1  0.235015  0.470075  0.485124  1
  Tb  Tb1  1  0.265092  0.750184  0.235131  1
  Tb  Tb2  1  0.029989  0.264995  0.014995  1
  Tb  Tb3  1  0.014988  0.029880  0.264924  1
  Tb  Tb4  1  0.485150  0.750053  0.014958  1
  Tb  Tb5  1  0.485150  0.235097  0.470192  1
  Tb  Tb6  1  0.014988  0.485107  0.750065  1
  Tb  Tb7  1  0.265092  0.014908  0.029960  1
  Tb  Tb8  1  0.235015  0.264941  0.749891  1
  Dy  Dy9  1  0.469350  0.484674  0.234674  1
  Dy  Dy10  1  0.749950  0.234535  0.265424  1
  Dy  Dy11  1  0.749950  0.015415  0.484525  1
  B  B12  1  0.250325  0.250393  0.250011  1
  B  B13  1  0.500774  0.000387  0.250387  1
  B  B14  1  0.999300  0.249650  0.499650  1
  B  B15  1  0.250325  0.499932  0.000314  1
  Cl  Cl16  1  0.250013  0.755373  0.744636  1
  Cl  Cl17  1  0.510724  0.505362  0.755362  1
  Cl  Cl18  1  0.989297  0.744649  0.994649  1
  Cl  Cl19  1  0.744643  0.249551  0.754982  1
  Cl  Cl20  1  0.994276  0.989297  0.744312  1
  Cl  Cl21  1  0.250013  0.994640  0.505377  1
  Cl  Cl22  1  0.755045  0.510392  0.504577  1
  Cl  Cl23  1  0.505786  0.250439  0.995411  1
  Cl  Cl24  1  0.755045  0.744653  0.250468  1
  Cl  Cl25  1  0.744643  0.995091  0.989661  1
  Cl  Cl26  1  0.994276  0.504980  0.249964  1
  Cl  Cl27  1  0.505786  0.755347  0.510375  1
