# generated using pymatgen
data_Er4Al18ReIrPd4
_symmetry_space_group_name_H-M   'P 1'
_cell_length_a   7.59546014
_cell_length_b   7.59546013
_cell_length_c   9.47345077
_cell_angle_alpha   89.82602539
_cell_angle_beta   89.82602341
_cell_angle_gamma   119.24506660
_symmetry_Int_Tables_number   1
_chemical_formula_structural   Er4Al18ReIrPd4
_chemical_formula_sum   'Er4 Al18 Re1 Ir1 Pd4'
_cell_volume   476.86224456
_cell_formula_units_Z   1
loop_
 _symmetry_equiv_pos_site_id
 _symmetry_equiv_pos_as_xyz
  1  'x, y, z'
loop_
 _atom_site_type_symbol
 _atom_site_label
 _atom_site_symmetry_multiplicity
 _atom_site_fract_x
 _atom_site_fract_y
 _atom_site_fract_z
 _atom_site_occupancy
  Er  Er0  1  0.994544  0.674757  0.748022  1
  Er  Er1  1  0.005456  0.325243  0.251978  1
  Er  Er2  1  0.674757  0.994544  0.748022  1
  Er  Er3  1  0.325243  0.005456  0.251978  1
  Al  Al4  1  0.129417  0.129417  0.749761  1
  Al  Al5  1  0.870583  0.870583  0.250239  1
  Al  Al6  1  0.000765  0.332364  0.576916  1
  Al  Al7  1  0.999235  0.667636  0.423084  1
  Al  Al8  1  0.000131  0.666262  0.077574  1
  Al  Al9  1  0.333738  0.999869  0.922426  1
  Al  Al10  1  0.999869  0.333738  0.922426  1
  Al  Al11  1  0.666262  0.000131  0.077574  1
  Al  Al12  1  0.667636  0.999235  0.423084  1
  Al  Al13  1  0.332364  0.000765  0.576916  1
  Al  Al14  1  0.329825  0.329825  0.055076  1
  Al  Al15  1  0.670175  0.670175  0.944924  1
  Al  Al16  1  0.669567  0.669567  0.554223  1
  Al  Al17  1  0.330433  0.330433  0.445777  1
  Al  Al18  1  0.342802  0.550307  0.750152  1
  Al  Al19  1  0.657198  0.449693  0.249848  1
  Al  Al20  1  0.550307  0.342802  0.750152  1
  Al  Al21  1  0.449693  0.657198  0.249848  1
  Re  Re22  1  0.000000  0.000000  0.500000  1
  Ir  Ir23  1  0.000000  0.000000  0.000000  1
  Pd  Pd24  1  0.672316  0.327684  0.500000  1
  Pd  Pd25  1  0.327684  0.672316  0.500000  1
  Pd  Pd26  1  0.327659  0.672341  0.000000  1
  Pd  Pd27  1  0.672341  0.327659  0.000000  1
