# generated using pymatgen
data_Li4Yb3DyPt4
_symmetry_space_group_name_H-M   'P 1'
_cell_length_a   3.96763800
_cell_length_b   7.02775138
_cell_length_c   8.38444700
_cell_angle_alpha   89.46150846
_cell_angle_beta   90.00000000
_cell_angle_gamma   90.00000000
_symmetry_Int_Tables_number   1
_chemical_formula_structural   Li4Yb3DyPt4
_chemical_formula_sum   'Li4 Yb3 Dy1 Pt4'
_cell_volume   233.77801835
_cell_formula_units_Z   1
loop_
 _symmetry_equiv_pos_site_id
 _symmetry_equiv_pos_as_xyz
  1  'x, y, z'
loop_
 _atom_site_type_symbol
 _atom_site_label
 _atom_site_symmetry_multiplicity
 _atom_site_fract_x
 _atom_site_fract_y
 _atom_site_fract_z
 _atom_site_occupancy
  Li  Li0  1  0.250000  0.369704  0.555237  1
  Li  Li1  1  0.250000  0.875177  0.942823  1
  Li  Li2  1  0.750000  0.622708  0.442680  1
  Li  Li3  1  0.750000  0.130354  0.058621  1
  Yb  Yb4  1  0.250000  0.953955  0.321116  1
  Yb  Yb5  1  0.250000  0.455214  0.181512  1
  Yb  Yb6  1  0.750000  0.045787  0.678602  1
  Dy  Dy7  1  0.750000  0.547611  0.823519  1
  Pt  Pt8  1  0.250000  0.258389  0.871630  1
  Pt  Pt9  1  0.250000  0.743448  0.631073  1
  Pt  Pt10  1  0.750000  0.750635  0.119599  1
  Pt  Pt11  1  0.750000  0.247016  0.373589  1
