# generated using pymatgen
data_Sr2Si5AgPPd20
_symmetry_space_group_name_H-M   'P 1'
_cell_length_a   8.74249569
_cell_length_b   8.75372159
_cell_length_c   8.75372070
_cell_angle_alpha   59.91516855
_cell_angle_beta   60.04240948
_cell_angle_gamma   60.04240822
_symmetry_Int_Tables_number   1
_chemical_formula_structural   Sr2Si5AgPPd20
_chemical_formula_sum   'Sr2 Si5 Ag1 P1 Pd20'
_cell_volume   473.70107779
_cell_formula_units_Z   1
loop_
 _symmetry_equiv_pos_site_id
 _symmetry_equiv_pos_as_xyz
  1  'x, y, z'
loop_
 _atom_site_type_symbol
 _atom_site_label
 _atom_site_symmetry_multiplicity
 _atom_site_fract_x
 _atom_site_fract_y
 _atom_site_fract_z
 _atom_site_occupancy
  Sr  Sr0  1  0.249523  0.250477  0.250477  1
  Sr  Sr1  1  0.749523  0.750477  0.750477  1
  Si  Si2  1  0.266439  0.733561  0.733561  1
  Si  Si3  1  0.265637  0.734363  0.267126  1
  Si  Si4  1  0.732874  0.267126  0.734363  1
  Si  Si5  1  0.265637  0.267126  0.734363  1
  Si  Si6  1  0.732874  0.734363  0.267126  1
  Ag  Ag7  1  0.002142  0.997858  0.997858  1
  P  P8  1  0.733075  0.266925  0.266925  1
  Pd  Pd9  1  0.344368  0.999346  0.999346  1
  Pd  Pd10  1  0.656941  0.999346  0.999346  1
  Pd  Pd11  1  0.000654  0.343059  0.655632  1
  Pd  Pd12  1  0.000654  0.655632  0.343059  1
  Pd  Pd13  1  0.998472  0.341904  0.001528  1
  Pd  Pd14  1  0.658096  0.001528  0.341904  1
  Pd  Pd15  1  0.999541  0.656549  0.000459  1
  Pd  Pd16  1  0.343451  0.000459  0.656549  1
  Pd  Pd17  1  0.998472  0.001528  0.341904  1
  Pd  Pd18  1  0.999541  0.000459  0.656549  1
  Pd  Pd19  1  0.658096  0.341904  0.001528  1
  Pd  Pd20  1  0.343451  0.656549  0.000459  1
  Pd  Pd21  1  0.388239  0.386359  0.386359  1
  Pd  Pd22  1  0.613895  0.613504  0.613504  1
  Pd  Pd23  1  0.386496  0.386105  0.840904  1
  Pd  Pd24  1  0.386496  0.840904  0.386105  1
  Pd  Pd25  1  0.613641  0.611761  0.160957  1
  Pd  Pd26  1  0.613641  0.160957  0.611761  1
  Pd  Pd27  1  0.839043  0.386359  0.386359  1
  Pd  Pd28  1  0.159096  0.613504  0.613504  1
