# generated using pymatgen
data_Er9Tm(Bi2P)2
_symmetry_space_group_name_H-M   'P 1'
_cell_length_a   7.91017334
_cell_length_b   8.93045816
_cell_length_c   12.01680744
_cell_angle_alpha   90.00514193
_cell_angle_beta   90.01826622
_cell_angle_gamma   90.00078253
_symmetry_Int_Tables_number   1
_chemical_formula_structural   Er9Tm(Bi2P)2
_chemical_formula_sum   'Er18 Tm2 Bi8 P4'
_cell_volume   848.88491970
_cell_formula_units_Z   2
loop_
 _symmetry_equiv_pos_site_id
 _symmetry_equiv_pos_as_xyz
  1  'x, y, z'
loop_
 _atom_site_type_symbol
 _atom_site_label
 _atom_site_symmetry_multiplicity
 _atom_site_fract_x
 _atom_site_fract_y
 _atom_site_fract_z
 _atom_site_occupancy
  Er  Er0  1  0.649599  0.749900  0.706331  1
  Er  Er1  1  0.350401  0.250100  0.293669  1
  Er  Er2  1  0.149631  0.249870  0.793832  1
  Er  Er3  1  0.850369  0.750130  0.206168  1
  Er  Er4  1  0.124089  0.750195  0.799501  1
  Er  Er5  1  0.875911  0.249805  0.200499  1
  Er  Er6  1  0.624352  0.250130  0.700886  1
  Er  Er7  1  0.375648  0.749870  0.299114  1
  Er  Er8  1  0.541971  0.749912  0.998330  1
  Er  Er9  1  0.458029  0.250088  0.001670  1
  Er  Er10  1  0.042041  0.250197  0.501723  1
  Er  Er11  1  0.957959  0.749803  0.498277  1
  Er  Er12  1  0.317797  0.552248  0.563536  1
  Er  Er13  1  0.181514  0.947354  0.063197  1
  Er  Er14  1  0.682203  0.447752  0.436464  1
  Er  Er15  1  0.818486  0.052646  0.936803  1
  Er  Er16  1  0.682073  0.052329  0.436623  1
  Er  Er17  1  0.317927  0.947671  0.563377  1
  Tm  Tm18  1  0.818372  0.446705  0.936735  1
  Tm  Tm19  1  0.181628  0.553295  0.063265  1
  Bi  Bi20  1  0.922507  0.009643  0.673174  1
  Bi  Bi21  1  0.077493  0.990357  0.326826  1
  Bi  Bi22  1  0.422747  0.990342  0.826837  1
  Bi  Bi23  1  0.077389  0.509660  0.326538  1
  Bi  Bi24  1  0.577253  0.009658  0.173163  1
  Bi  Bi25  1  0.922611  0.490340  0.673462  1
  Bi  Bi26  1  0.577419  0.490302  0.173037  1
  Bi  Bi27  1  0.422581  0.509698  0.826963  1
  P  P28  1  0.921649  0.748504  0.985691  1
  P  P29  1  0.078351  0.251496  0.014309  1
  P  P30  1  0.422335  0.250061  0.514076  1
  P  P31  1  0.577665  0.749939  0.485924  1
