# generated using pymatgen
data_Hf6Al3Ga3IrPd5
_symmetry_space_group_name_H-M   'P 1'
_cell_length_a   7.21421700
_cell_length_b   7.21421659
_cell_length_c   6.96789100
_cell_angle_alpha   90.00000000
_cell_angle_beta   90.00000000
_cell_angle_gamma   119.99999732
_symmetry_Int_Tables_number   1
_chemical_formula_structural   Hf6Al3Ga3IrPd5
_chemical_formula_sum   'Hf6 Al3 Ga3 Ir1 Pd5'
_cell_volume   314.05836821
_cell_formula_units_Z   1
loop_
 _symmetry_equiv_pos_site_id
 _symmetry_equiv_pos_as_xyz
  1  'x, y, z'
loop_
 _atom_site_type_symbol
 _atom_site_label
 _atom_site_symmetry_multiplicity
 _atom_site_fract_x
 _atom_site_fract_y
 _atom_site_fract_z
 _atom_site_occupancy
  Hf  Hf0  1  0.604202  0.591165  0.253769  1
  Hf  Hf1  1  0.023324  0.413541  0.745754  1
  Hf  Hf2  1  0.408835  0.013038  0.253769  1
  Hf  Hf3  1  0.986962  0.395798  0.253769  1
  Hf  Hf4  1  0.390217  0.976676  0.745754  1
  Hf  Hf5  1  0.586459  0.609783  0.745754  1
  Al  Al6  1  0.251988  0.250958  0.498663  1
  Al  Al7  1  0.749042  0.001029  0.498663  1
  Al  Al8  1  0.998971  0.748012  0.498663  1
  Ga  Ga9  1  0.725867  0.003871  0.999615  1
  Ga  Ga10  1  0.278004  0.274133  0.999615  1
  Ga  Ga11  1  0.996129  0.721996  0.999615  1
  Ir  Ir12  1  0.333333  0.666667  0.482017  1
  Pd  Pd13  1  0.000000  0.000000  0.763190  1
  Pd  Pd14  1  0.000000  0.000000  0.234008  1
  Pd  Pd15  1  0.333333  0.666667  0.031447  1
  Pd  Pd16  1  0.666667  0.333333  0.527300  1
  Pd  Pd17  1  0.666667  0.333333  0.968636  1
