# generated using pymatgen
data_Ca2CdIn2Ag
_symmetry_space_group_name_H-M   'P 1'
_cell_length_a   6.13482422
_cell_length_b   6.13482425
_cell_length_c   7.57199060
_cell_angle_alpha   53.26786156
_cell_angle_beta   53.26785829
_cell_angle_gamma   46.93105209
_symmetry_Int_Tables_number   1
_chemical_formula_structural   Ca2CdIn2Ag
_chemical_formula_sum   'Ca2 Cd1 In2 Ag1'
_cell_volume   157.85233098
_cell_formula_units_Z   1
loop_
 _symmetry_equiv_pos_site_id
 _symmetry_equiv_pos_as_xyz
  1  'x, y, z'
loop_
 _atom_site_type_symbol
 _atom_site_label
 _atom_site_symmetry_multiplicity
 _atom_site_fract_x
 _atom_site_fract_y
 _atom_site_fract_z
 _atom_site_occupancy
  Ca  Ca0  1  0.539869  0.539869  0.708701  1
  Ca  Ca1  1  0.459726  0.459726  0.290428  1
  Cd  Cd2  1  0.163270  0.163270  0.884144  1
  In  In3  1  0.842913  0.842913  0.700419  1
  In  In4  1  0.829659  0.829659  0.120819  1
  Ag  Ag5  1  0.164565  0.164565  0.295491  1
