# generated using pymatgen
data_Ho5Mg3(P3Rh4)4
_symmetry_space_group_name_H-M   'P 1'
_cell_length_a   12.79040100
_cell_length_b   12.79040058
_cell_length_c   3.97669000
_cell_angle_alpha   90.00000000
_cell_angle_beta   90.00000000
_cell_angle_gamma   119.99999849
_symmetry_Int_Tables_number   1
_chemical_formula_structural   Ho5Mg3(P3Rh4)4
_chemical_formula_sum   'Ho5 Mg3 P12 Rh16'
_cell_volume   563.40498135
_cell_formula_units_Z   1
loop_
 _symmetry_equiv_pos_site_id
 _symmetry_equiv_pos_as_xyz
  1  'x, y, z'
loop_
 _atom_site_type_symbol
 _atom_site_label
 _atom_site_symmetry_multiplicity
 _atom_site_fract_x
 _atom_site_fract_y
 _atom_site_fract_z
 _atom_site_occupancy
  Ho  Ho0  1  0.333333  0.666667  0.500000  1
  Ho  Ho1  1  0.666667  0.333333  0.500000  1
  Ho  Ho2  1  0.000000  0.809269  0.000000  1
  Ho  Ho3  1  0.190731  0.190731  0.000000  1
  Ho  Ho4  1  0.809269  0.000000  0.000000  1
  Mg  Mg5  1  0.000000  0.444837  0.500000  1
  Mg  Mg6  1  0.555163  0.555163  0.500000  1
  Mg  Mg7  1  0.444837  0.000000  0.500000  1
  P  P8  1  0.000000  0.642363  0.500000  1
  P  P9  1  0.357637  0.357637  0.500000  1
  P  P10  1  0.642363  0.000000  0.500000  1
  P  P11  1  0.515997  0.690363  0.000000  1
  P  P12  1  0.309637  0.825634  0.000000  1
  P  P13  1  0.174366  0.484003  0.000000  1
  P  P14  1  0.484003  0.174366  0.000000  1
  P  P15  1  0.690363  0.515997  0.000000  1
  P  P16  1  0.825634  0.309637  0.000000  1
  P  P17  1  0.000000  0.177976  0.500000  1
  P  P18  1  0.822024  0.822024  0.500000  1
  P  P19  1  0.177976  0.000000  0.500000  1
  Rh  Rh20  1  0.510432  0.869971  0.000000  1
  Rh  Rh21  1  0.130029  0.640462  0.000000  1
  Rh  Rh22  1  0.359538  0.489568  0.000000  1
  Rh  Rh23  1  0.489568  0.359538  0.000000  1
  Rh  Rh24  1  0.869971  0.510432  0.000000  1
  Rh  Rh25  1  0.640462  0.130029  0.000000  1
  Rh  Rh26  1  0.000000  0.280148  0.000000  1
  Rh  Rh27  1  0.719852  0.719852  0.000000  1
  Rh  Rh28  1  0.280148  0.000000  0.000000  1
  Rh  Rh29  1  0.625900  0.803338  0.500000  1
  Rh  Rh30  1  0.196662  0.822563  0.500000  1
  Rh  Rh31  1  0.177437  0.374100  0.500000  1
  Rh  Rh32  1  0.374100  0.177437  0.500000  1
  Rh  Rh33  1  0.803338  0.625900  0.500000  1
  Rh  Rh34  1  0.822563  0.196662  0.500000  1
  Rh  Rh35  1  0.000000  0.000000  0.500000  1
