# generated using pymatgen
data_Tm3V(Co4As3)2
_symmetry_space_group_name_H-M   'P 1'
_cell_length_a   3.78159500
_cell_length_b   10.91645200
_cell_length_c   12.63985500
_cell_angle_alpha   90.00000000
_cell_angle_beta   90.00000000
_cell_angle_gamma   90.00000000
_symmetry_Int_Tables_number   1
_chemical_formula_structural   Tm3V(Co4As3)2
_chemical_formula_sum   'Tm6 V2 Co16 As12'
_cell_volume   521.79344197
_cell_formula_units_Z   2
loop_
 _symmetry_equiv_pos_site_id
 _symmetry_equiv_pos_as_xyz
  1  'x, y, z'
loop_
 _atom_site_type_symbol
 _atom_site_label
 _atom_site_symmetry_multiplicity
 _atom_site_fract_x
 _atom_site_fract_y
 _atom_site_fract_z
 _atom_site_occupancy
  Tm  Tm0  1  0.000000  0.500000  0.525708  1
  Tm  Tm1  1  0.500000  0.000000  0.474292  1
  Tm  Tm2  1  0.500000  0.820219  0.205109  1
  Tm  Tm3  1  0.500000  0.179781  0.205109  1
  Tm  Tm4  1  0.000000  0.679781  0.794891  1
  Tm  Tm5  1  0.000000  0.320219  0.794891  1
  V  V6  1  0.500000  0.500000  0.153212  1
  V  V7  1  0.000000  0.000000  0.846788  1
  Co  Co8  1  0.500000  0.500000  0.700899  1
  Co  Co9  1  0.000000  0.000000  0.299101  1
  Co  Co10  1  0.000000  0.500000  0.987449  1
  Co  Co11  1  0.500000  0.000000  0.012551  1
  Co  Co12  1  0.500000  0.332922  0.994488  1
  Co  Co13  1  0.500000  0.667078  0.994488  1
  Co  Co14  1  0.000000  0.167078  0.005512  1
  Co  Co15  1  0.000000  0.832922  0.005512  1
  Co  Co16  1  0.500000  0.297702  0.431217  1
  Co  Co17  1  0.500000  0.702298  0.431217  1
  Co  Co18  1  0.000000  0.202298  0.568783  1
  Co  Co19  1  0.000000  0.797702  0.568783  1
  Co  Co20  1  0.500000  0.878742  0.705842  1
  Co  Co21  1  0.500000  0.121258  0.705842  1
  Co  Co22  1  0.000000  0.621258  0.294158  1
  Co  Co23  1  0.000000  0.378742  0.294158  1
  As  As24  1  0.500000  0.500000  0.879878  1
  As  As25  1  0.000000  0.000000  0.120122  1
  As  As26  1  0.500000  0.500000  0.350694  1
  As  As27  1  0.000000  0.000000  0.649306  1
  As  As28  1  0.500000  0.313715  0.616428  1
  As  As29  1  0.500000  0.686285  0.616428  1
  As  As30  1  0.000000  0.186285  0.383572  1
  As  As31  1  0.000000  0.813715  0.383572  1
  As  As32  1  0.500000  0.843878  0.888642  1
  As  As33  1  0.500000  0.156122  0.888642  1
  As  As34  1  0.000000  0.656122  0.111358  1
  As  As35  1  0.000000  0.343878  0.111358  1
