# generated using pymatgen
data_LaPr19Ir12
_symmetry_space_group_name_H-M   'P 1'
_cell_length_a   11.33829581
_cell_length_b   11.35057337
_cell_length_c   6.65866418
_cell_angle_alpha   89.96526360
_cell_angle_beta   89.83440069
_cell_angle_gamma   89.89403915
_symmetry_Int_Tables_number   1
_chemical_formula_structural   LaPr19Ir12
_chemical_formula_sum   'La1 Pr19 Ir12'
_cell_volume   856.93930132
_cell_formula_units_Z   1
loop_
 _symmetry_equiv_pos_site_id
 _symmetry_equiv_pos_as_xyz
  1  'x, y, z'
loop_
 _atom_site_type_symbol
 _atom_site_label
 _atom_site_symmetry_multiplicity
 _atom_site_fract_x
 _atom_site_fract_y
 _atom_site_fract_z
 _atom_site_occupancy
  La  La0  1  0.292122  0.090944  0.384228  1
  Pr  Pr1  1  0.291791  0.908868  0.882279  1
  Pr  Pr2  1  0.707814  0.090037  0.882417  1
  Pr  Pr3  1  0.708258  0.909815  0.382049  1
  Pr  Pr4  1  0.590032  0.792061  0.882185  1
  Pr  Pr5  1  0.591600  0.208854  0.382022  1
  Pr  Pr6  1  0.410157  0.790552  0.381682  1
  Pr  Pr7  1  0.410876  0.208917  0.882162  1
  Pr  Pr8  1  0.208066  0.410473  0.618630  1
  Pr  Pr9  1  0.208063  0.590160  0.118032  1
  Pr  Pr10  1  0.791795  0.410047  0.117570  1
  Pr  Pr11  1  0.791838  0.590048  0.617800  1
  Pr  Pr12  1  0.909698  0.708164  0.117792  1
  Pr  Pr13  1  0.909487  0.291713  0.617232  1
  Pr  Pr14  1  0.090067  0.708263  0.618160  1
  Pr  Pr15  1  0.089637  0.292262  0.116885  1
  Pr  Pr16  1  0.999134  0.999382  0.500108  1
  Pr  Pr17  1  0.999777  0.000292  0.999221  1
  Pr  Pr18  1  0.499965  0.499895  0.000526  1
  Pr  Pr19  1  0.500425  0.499930  0.500201  1
  Ir  Ir20  1  0.846227  0.153599  0.249725  1
  Ir  Ir21  1  0.845951  0.846407  0.750348  1
  Ir  Ir22  1  0.154929  0.153195  0.748215  1
  Ir  Ir23  1  0.153600  0.845999  0.249599  1
  Ir  Ir24  1  0.653870  0.346519  0.750067  1
  Ir  Ir25  1  0.653598  0.653854  0.249488  1
  Ir  Ir26  1  0.346117  0.345817  0.250645  1
  Ir  Ir27  1  0.346400  0.653642  0.750129  1
  Ir  Ir28  1  0.498929  0.000482  0.118150  1
  Ir  Ir29  1  0.499776  0.999851  0.615525  1
  Ir  Ir30  1  0.000095  0.499703  0.883499  1
  Ir  Ir31  1  0.999906  0.500256  0.383432  1
