# generated using pymatgen
data_Tb4Rh3AuO14
_symmetry_space_group_name_H-M   'P 1'
_cell_length_a   7.29788906
_cell_length_b   7.29788983
_cell_length_c   7.26610660
_cell_angle_alpha   59.85519850
_cell_angle_beta   59.85519773
_cell_angle_gamma   59.99999678
_symmetry_Int_Tables_number   1
_chemical_formula_structural   Tb4Rh3AuO14
_chemical_formula_sum   'Tb4 Rh3 Au1 O14'
_cell_volume   273.04065072
_cell_formula_units_Z   1
loop_
 _symmetry_equiv_pos_site_id
 _symmetry_equiv_pos_as_xyz
  1  'x, y, z'
loop_
 _atom_site_type_symbol
 _atom_site_label
 _atom_site_symmetry_multiplicity
 _atom_site_fract_x
 _atom_site_fract_y
 _atom_site_fract_z
 _atom_site_occupancy
  Tb  Tb0  1  0.625000  0.625000  0.125000  1
  Tb  Tb1  1  0.625000  0.625000  0.625000  1
  Tb  Tb2  1  0.625000  0.125000  0.625000  1
  Tb  Tb3  1  0.125000  0.625000  0.625000  1
  Rh  Rh4  1  0.125000  0.125000  0.125000  1
  Rh  Rh5  1  0.625000  0.125000  0.125000  1
  Rh  Rh6  1  0.125000  0.625000  0.125000  1
  Au  Au7  1  0.125000  0.125000  0.625000  1
  O  O8  1  0.034240  0.468269  0.463251  1
  O  O9  1  0.788476  0.788476  0.211343  1
  O  O10  1  0.788476  0.211705  0.211343  1
  O  O11  1  0.468269  0.034240  0.463251  1
  O  O12  1  0.038295  0.461524  0.038657  1
  O  O13  1  0.750481  0.750481  0.748556  1
  O  O14  1  0.034240  0.034240  0.463251  1
  O  O15  1  0.211705  0.788476  0.211343  1
  O  O16  1  0.215760  0.215760  0.786749  1
  O  O17  1  0.499519  0.499519  0.501444  1
  O  O18  1  0.781731  0.215760  0.786749  1
  O  O19  1  0.461524  0.038295  0.038657  1
  O  O20  1  0.461524  0.461524  0.038657  1
  O  O21  1  0.215760  0.781731  0.786749  1
