# generated using pymatgen
data_LiDy2Tm(Co4P3)2
_symmetry_space_group_name_H-M   'P 1'
_cell_length_a   3.70761200
_cell_length_b   10.55250100
_cell_length_c   12.14845200
_cell_angle_alpha   90.00000000
_cell_angle_beta   90.00000000
_cell_angle_gamma   90.00000000
_symmetry_Int_Tables_number   1
_chemical_formula_structural   LiDy2Tm(Co4P3)2
_chemical_formula_sum   'Li2 Dy4 Tm2 Co16 P12'
_cell_volume   475.30307410
_cell_formula_units_Z   2
loop_
 _symmetry_equiv_pos_site_id
 _symmetry_equiv_pos_as_xyz
  1  'x, y, z'
loop_
 _atom_site_type_symbol
 _atom_site_label
 _atom_site_symmetry_multiplicity
 _atom_site_fract_x
 _atom_site_fract_y
 _atom_site_fract_z
 _atom_site_occupancy
  Li  Li0  1  0.500000  0.500000  0.153164  1
  Li  Li1  1  0.000000  0.000000  0.846974  1
  Dy  Dy2  1  0.000000  0.500000  0.523686  1
  Dy  Dy3  1  0.500000  0.000000  0.476939  1
  Dy  Dy4  1  0.500000  0.819688  0.206008  1
  Dy  Dy5  1  0.500000  0.180312  0.206008  1
  Tm  Tm6  1  0.000000  0.679627  0.793946  1
  Tm  Tm7  1  0.000000  0.320373  0.793946  1
  Co  Co8  1  0.500000  0.500000  0.705051  1
  Co  Co9  1  0.000000  0.000000  0.295391  1
  Co  Co10  1  0.000000  0.500000  0.986164  1
  Co  Co11  1  0.500000  0.000000  0.011589  1
  Co  Co12  1  0.500000  0.333278  0.996156  1
  Co  Co13  1  0.500000  0.666722  0.996156  1
  Co  Co14  1  0.000000  0.167711  0.002002  1
  Co  Co15  1  0.000000  0.832289  0.002002  1
  Co  Co16  1  0.500000  0.296756  0.431816  1
  Co  Co17  1  0.500000  0.703244  0.431816  1
  Co  Co18  1  0.000000  0.203811  0.569956  1
  Co  Co19  1  0.000000  0.796189  0.569956  1
  Co  Co20  1  0.500000  0.878020  0.707261  1
  Co  Co21  1  0.500000  0.121980  0.707261  1
  Co  Co22  1  0.000000  0.621233  0.293548  1
  Co  Co23  1  0.000000  0.378767  0.293548  1
  P  P24  1  0.500000  0.500000  0.883982  1
  P  P25  1  0.000000  0.000000  0.113990  1
  P  P26  1  0.500000  0.500000  0.346187  1
  P  P27  1  0.000000  0.000000  0.654381  1
  P  P28  1  0.500000  0.310230  0.617329  1
  P  P29  1  0.500000  0.689770  0.617329  1
  P  P30  1  0.000000  0.190462  0.384609  1
  P  P31  1  0.000000  0.809538  0.384609  1
  P  P32  1  0.500000  0.842241  0.892288  1
  P  P33  1  0.500000  0.157759  0.892288  1
  P  P34  1  0.000000  0.656450  0.106332  1
  P  P35  1  0.000000  0.343550  0.106332  1
