# generated using pymatgen
data_LiSm2As4Au
_symmetry_space_group_name_H-M   'P 1'
_cell_length_a   3.99251361
_cell_length_b   3.99251350
_cell_length_c   20.89312500
_cell_angle_alpha   90.00000000
_cell_angle_beta   90.00000000
_cell_angle_gamma   90.01277222
_symmetry_Int_Tables_number   1
_chemical_formula_structural   LiSm2As4Au
_chemical_formula_sum   'Li2 Sm4 As8 Au2'
_cell_volume   333.03984065
_cell_formula_units_Z   2
loop_
 _symmetry_equiv_pos_site_id
 _symmetry_equiv_pos_as_xyz
  1  'x, y, z'
loop_
 _atom_site_type_symbol
 _atom_site_label
 _atom_site_symmetry_multiplicity
 _atom_site_fract_x
 _atom_site_fract_y
 _atom_site_fract_z
 _atom_site_occupancy
  Li  Li0  1  0.733748  0.766252  0.250000  1
  Li  Li1  1  0.766252  0.733748  0.750000  1
  Sm  Sm2  1  0.737755  0.263309  0.384467  1
  Sm  Sm3  1  0.263309  0.737755  0.615533  1
  Sm  Sm4  1  0.236691  0.762245  0.115533  1
  Sm  Sm5  1  0.762245  0.236691  0.884467  1
  As  As6  1  0.236577  0.764768  0.335956  1
  As  As7  1  0.764768  0.236577  0.664044  1
  As  As8  1  0.735232  0.263423  0.164044  1
  As  As9  1  0.263423  0.735232  0.835956  1
  As  As10  1  0.762781  0.762781  0.500000  1
  As  As11  1  0.737219  0.737219  0.000000  1
  As  As12  1  0.236532  0.236532  0.500000  1
  As  As13  1  0.263468  0.263468  0.000000  1
  Au  Au14  1  0.266582  0.233418  0.750000  1
  Au  Au15  1  0.233418  0.266582  0.250000  1
