# generated using pymatgen
data_Ho4Al17Si(Ir2Pt)2
_symmetry_space_group_name_H-M   'P 1'
_cell_length_a   7.57048270
_cell_length_b   7.57047388
_cell_length_c   9.37026850
_cell_angle_alpha   89.95047617
_cell_angle_beta   89.95047325
_cell_angle_gamma   119.67946671
_symmetry_Int_Tables_number   1
_chemical_formula_structural   Ho4Al17Si(Ir2Pt)2
_chemical_formula_sum   'Ho4 Al17 Si1 Ir4 Pt2'
_cell_volume   466.57595080
_cell_formula_units_Z   1
loop_
 _symmetry_equiv_pos_site_id
 _symmetry_equiv_pos_as_xyz
  1  'x, y, z'
loop_
 _atom_site_type_symbol
 _atom_site_label
 _atom_site_symmetry_multiplicity
 _atom_site_fract_x
 _atom_site_fract_y
 _atom_site_fract_z
 _atom_site_occupancy
  Ho  Ho0  1  0.993548  0.675676  0.251258  1
  Ho  Ho1  1  0.003711  0.330925  0.748780  1
  Ho  Ho2  1  0.675676  0.993548  0.251258  1
  Ho  Ho3  1  0.330925  0.003710  0.748780  1
  Al  Al4  1  0.875972  0.875972  0.748881  1
  Al  Al5  1  0.000783  0.333605  0.078948  1
  Al  Al6  1  0.998936  0.669215  0.922829  1
  Al  Al7  1  0.999912  0.665597  0.574014  1
  Al  Al8  1  0.337323  0.999647  0.424475  1
  Al  Al9  1  0.999647  0.337324  0.424475  1
  Al  Al10  1  0.665598  0.999913  0.574014  1
  Al  Al11  1  0.669216  0.998937  0.922829  1
  Al  Al12  1  0.333604  0.000783  0.078948  1
  Al  Al13  1  0.330872  0.330872  0.555703  1
  Al  Al14  1  0.664381  0.664381  0.449395  1
  Al  Al15  1  0.665848  0.665848  0.057001  1
  Al  Al16  1  0.328981  0.328981  0.937151  1
  Al  Al17  1  0.336884  0.547989  0.253089  1
  Al  Al18  1  0.661011  0.453426  0.747084  1
  Al  Al19  1  0.547990  0.336885  0.253089  1
  Al  Al20  1  0.453427  0.661011  0.747084  1
  Si  Si21  1  0.131064  0.131064  0.250826  1
  Ir  Ir22  1  0.326613  0.670501  0.499859  1
  Ir  Ir23  1  0.670502  0.326613  0.499858  1
  Ir  Ir24  1  0.000517  0.000517  0.007359  1
  Ir  Ir25  1  0.000318  0.000318  0.492417  1
  Pt  Pt26  1  0.670542  0.326199  0.000301  1
  Pt  Pt27  1  0.326199  0.670541  0.000300  1
