# generated using pymatgen
data_Cs2K2ZrUTe6
_symmetry_space_group_name_H-M   'P 1'
_cell_length_a   15.01291300
_cell_length_b   7.14141828
_cell_length_c   9.80041016
_cell_angle_alpha   69.91411908
_cell_angle_beta   90.00000000
_cell_angle_gamma   90.00000000
_symmetry_Int_Tables_number   1
_chemical_formula_structural   Cs2K2ZrUTe6
_chemical_formula_sum   'Cs4 K4 Zr2 U2 Te12'
_cell_volume   986.82926901
_cell_formula_units_Z   2
loop_
 _symmetry_equiv_pos_site_id
 _symmetry_equiv_pos_as_xyz
  1  'x, y, z'
loop_
 _atom_site_type_symbol
 _atom_site_label
 _atom_site_symmetry_multiplicity
 _atom_site_fract_x
 _atom_site_fract_y
 _atom_site_fract_z
 _atom_site_occupancy
  Cs  Cs0  1  0.952441  0.660919  0.668778  1
  Cs  Cs1  1  0.452441  0.839081  0.331222  1
  Cs  Cs2  1  0.047222  0.341865  0.332031  1
  Cs  Cs3  1  0.547222  0.158135  0.667969  1
  K  K4  1  0.868169  0.066942  0.896232  1
  K  K5  1  0.368169  0.433058  0.103768  1
  K  K6  1  0.132946  0.944483  0.106077  1
  K  K7  1  0.632946  0.555517  0.893923  1
  Zr  Zr8  1  0.250222  0.352783  0.718198  1
  Zr  Zr9  1  0.750222  0.147217  0.281802  1
  U  U10  1  0.749624  0.647853  0.280946  1
  U  U11  1  0.249624  0.852147  0.719054  1
  Te  Te12  1  0.910661  0.910501  0.265957  1
  Te  Te13  1  0.410661  0.589499  0.734043  1
  Te  Te14  1  0.089144  0.100983  0.735779  1
  Te  Te15  1  0.589144  0.399017  0.264221  1
  Te  Te16  1  0.816717  0.281850  0.516377  1
  Te  Te17  1  0.316717  0.218150  0.483623  1
  Te  Te18  1  0.182491  0.706208  0.484451  1
  Te  Te19  1  0.682491  0.793792  0.515549  1
  Te  Te20  1  0.839287  0.496590  0.061310  1
  Te  Te21  1  0.339287  0.003410  0.938690  1
  Te  Te22  1  0.161076  0.491827  0.938575  1
  Te  Te23  1  0.661076  0.008173  0.061425  1
