# generated using pymatgen
data_EuCuNiSb2
_symmetry_space_group_name_H-M   'P 1'
_cell_length_a   4.53804700
_cell_length_b   4.53804700
_cell_length_c   10.27723600
_cell_angle_alpha   90.00000000
_cell_angle_beta   90.00000000
_cell_angle_gamma   90.00000000
_symmetry_Int_Tables_number   1
_chemical_formula_structural   EuCuNiSb2
_chemical_formula_sum   'Eu2 Cu2 Ni2 Sb4'
_cell_volume   211.64806804
_cell_formula_units_Z   2
loop_
 _symmetry_equiv_pos_site_id
 _symmetry_equiv_pos_as_xyz
  1  'x, y, z'
loop_
 _atom_site_type_symbol
 _atom_site_label
 _atom_site_symmetry_multiplicity
 _atom_site_fract_x
 _atom_site_fract_y
 _atom_site_fract_z
 _atom_site_occupancy
  Eu  Eu0  1  0.500000  0.000000  0.249178  1
  Eu  Eu1  1  0.000000  0.500000  0.750822  1
  Cu  Cu2  1  0.000000  0.000000  0.000000  1
  Cu  Cu3  1  0.500000  0.500000  0.000000  1
  Ni  Ni4  1  0.500000  0.000000  0.616926  1
  Ni  Ni5  1  0.000000  0.500000  0.383074  1
  Sb  Sb6  1  0.000000  0.000000  0.500000  1
  Sb  Sb7  1  0.500000  0.500000  0.500000  1
  Sb  Sb8  1  0.500000  0.000000  0.861889  1
  Sb  Sb9  1  0.000000  0.500000  0.138111  1
