# generated using pymatgen
data_Li3Hf2CoNi8As7
_symmetry_space_group_name_H-M   'P 1'
_cell_length_a   9.45986241
_cell_length_b   9.44490337
_cell_length_c   3.80853100
_cell_angle_alpha   90.00000000
_cell_angle_beta   90.00000000
_cell_angle_gamma   119.71815342
_symmetry_Int_Tables_number   1
_chemical_formula_structural   Li3Hf2CoNi8As7
_chemical_formula_sum   'Li3 Hf2 Co1 Ni8 As7'
_cell_volume   295.52682015
_cell_formula_units_Z   1
loop_
 _symmetry_equiv_pos_site_id
 _symmetry_equiv_pos_as_xyz
  1  'x, y, z'
loop_
 _atom_site_type_symbol
 _atom_site_label
 _atom_site_symmetry_multiplicity
 _atom_site_fract_x
 _atom_site_fract_y
 _atom_site_fract_z
 _atom_site_occupancy
  Li  Li0  1  0.442973  0.215535  0.500000  1
  Li  Li1  1  0.777615  0.221152  0.500000  1
  Li  Li2  1  0.003852  0.007671  0.500000  1
  Hf  Hf3  1  0.767905  0.555195  0.500000  1
  Hf  Hf4  1  0.322376  0.666590  0.000000  1
  Co  Co5  1  0.273437  0.377834  0.500000  1
  Ni  Ni6  1  0.624714  0.897349  0.500000  1
  Ni  Ni7  1  0.109815  0.718327  0.500000  1
  Ni  Ni8  1  0.498179  0.457586  0.000000  1
  Ni  Ni9  1  0.545543  0.035533  0.000000  1
  Ni  Ni10  1  0.960162  0.504141  0.000000  1
  Ni  Ni11  1  0.720673  0.760892  0.000000  1
  Ni  Ni12  1  0.247624  0.966159  0.000000  1
  Ni  Ni13  1  0.043056  0.281756  0.000000  1
  As  As14  1  0.977841  0.768708  0.000000  1
  As  As15  1  0.245884  0.214893  0.000000  1
  As  As16  1  0.793210  0.034205  0.000000  1
  As  As17  1  0.664018  0.325088  0.000000  1
  As  As18  1  0.522343  0.619627  0.500000  1
  As  As19  1  0.381800  0.919542  0.500000  1
  As  As20  1  0.076983  0.452217  0.500000  1
