# generated using pymatgen
data_Lu12Fe3AgPb
_symmetry_space_group_name_H-M   'P 1'
_cell_length_a   8.14915858
_cell_length_b   8.14893811
_cell_length_c   8.14915866
_cell_angle_alpha   110.42593897
_cell_angle_beta   106.66927724
_cell_angle_gamma   111.35689075
_symmetry_Int_Tables_number   1
_chemical_formula_structural   Lu12Fe3AgPb
_chemical_formula_sum   'Lu12 Fe3 Ag1 Pb1'
_cell_volume   415.80822273
_cell_formula_units_Z   1
loop_
 _symmetry_equiv_pos_site_id
 _symmetry_equiv_pos_as_xyz
  1  'x, y, z'
loop_
 _atom_site_type_symbol
 _atom_site_label
 _atom_site_symmetry_multiplicity
 _atom_site_fract_x
 _atom_site_fract_y
 _atom_site_fract_z
 _atom_site_occupancy
  Lu  Lu0  1  0.308134  0.311384  0.619513  1
  Lu  Lu1  1  0.691866  0.688616  0.380487  1
  Lu  Lu2  1  0.691871  0.311384  0.003250  1
  Lu  Lu3  1  0.308129  0.688616  0.996750  1
  Lu  Lu4  1  0.192061  0.440685  0.248624  1
  Lu  Lu5  1  0.807939  0.559315  0.751376  1
  Lu  Lu6  1  0.192073  0.943447  0.751375  1
  Lu  Lu7  1  0.963721  0.190409  0.773312  1
  Lu  Lu8  1  0.807927  0.056553  0.248625  1
  Lu  Lu9  1  0.036279  0.809591  0.226688  1
  Lu  Lu10  1  0.417097  0.190409  0.226686  1
  Lu  Lu11  1  0.582903  0.809591  0.773314  1
  Fe  Fe12  1  0.381442  0.381408  0.999965  1
  Fe  Fe13  1  0.618558  0.618592  0.000035  1
  Fe  Fe14  1  0.000000  0.000000  0.000000  1
  Ag  Ag15  1  0.000000  0.500000  0.500000  1
  Pb  Pb16  1  0.500000  0.000000  0.500000  1
