# generated using pymatgen
data_Er3Tm(Rh2O7)2
_symmetry_space_group_name_H-M   'P 1'
_cell_length_a   7.19533331
_cell_length_b   7.19533282
_cell_length_c   7.19437032
_cell_angle_alpha   59.99557893
_cell_angle_beta   59.99558023
_cell_angle_gamma   60.00000106
_symmetry_Int_Tables_number   1
_chemical_formula_structural   Er3Tm(Rh2O7)2
_chemical_formula_sum   'Er3 Tm1 Rh4 O14'
_cell_volume   263.36046330
_cell_formula_units_Z   1
loop_
 _symmetry_equiv_pos_site_id
 _symmetry_equiv_pos_as_xyz
  1  'x, y, z'
loop_
 _atom_site_type_symbol
 _atom_site_label
 _atom_site_symmetry_multiplicity
 _atom_site_fract_x
 _atom_site_fract_y
 _atom_site_fract_z
 _atom_site_occupancy
  Er  Er0  1  0.125000  0.125000  0.125000  1
  Er  Er1  1  0.125000  0.625000  0.125000  1
  Er  Er2  1  0.625000  0.125000  0.125000  1
  Tm  Tm3  1  0.125000  0.125000  0.625000  1
  Rh  Rh4  1  0.625000  0.625000  0.625000  1
  Rh  Rh5  1  0.625000  0.625000  0.125000  1
  Rh  Rh6  1  0.125000  0.625000  0.625000  1
  Rh  Rh7  1  0.625000  0.125000  0.625000  1
  O  O8  1  0.249373  0.249373  0.251879  1
  O  O9  1  0.286088  0.713780  0.286352  1
  O  O10  1  0.963830  0.963830  0.536743  1
  O  O11  1  0.535598  0.963830  0.536743  1
  O  O12  1  0.713780  0.713780  0.286352  1
  O  O13  1  0.963830  0.535598  0.536743  1
  O  O14  1  0.714402  0.286170  0.713257  1
  O  O15  1  0.286170  0.286170  0.713257  1
  O  O16  1  0.713780  0.286088  0.286352  1
  O  O17  1  0.286170  0.714402  0.713257  1
  O  O18  1  0.963912  0.536220  0.963648  1
  O  O19  1  0.536220  0.536220  0.963648  1
  O  O20  1  0.000627  0.000627  0.998121  1
  O  O21  1  0.536220  0.963912  0.963648  1
