# generated using pymatgen
data_CuBiTeO6
_symmetry_space_group_name_H-M   'P 1'
_cell_length_a   5.23135401
_cell_length_b   9.06128405
_cell_length_c   10.03635301
_cell_angle_alpha   89.99826782
_cell_angle_beta   89.99902182
_cell_angle_gamma   90.00257113
_symmetry_Int_Tables_number   1
_chemical_formula_structural   CuBiTeO6
_chemical_formula_sum   'Cu4 Bi4 Te4 O24'
_cell_volume   475.75107917
_cell_formula_units_Z   4
loop_
 _symmetry_equiv_pos_site_id
 _symmetry_equiv_pos_as_xyz
  1  'x, y, z'
loop_
 _atom_site_type_symbol
 _atom_site_label
 _atom_site_symmetry_multiplicity
 _atom_site_fract_x
 _atom_site_fract_y
 _atom_site_fract_z
 _atom_site_occupancy
  Cu  Cu0  1  0.500052  0.833350  0.749999  1
  Cu  Cu1  1  0.499948  0.166650  0.250001  1
  Cu  Cu2  1  0.000052  0.333350  0.749999  1
  Cu  Cu3  1  0.999948  0.666650  0.250001  1
  Bi  Bi4  1  0.000000  0.000000  0.500000  1
  Bi  Bi5  1  0.500000  0.500000  0.500000  1
  Bi  Bi6  1  0.000000  0.000000  0.000000  1
  Bi  Bi7  1  0.500000  0.500000  0.000000  1
  Te  Te8  1  0.500038  0.166652  0.750001  1
  Te  Te9  1  0.000038  0.666652  0.750001  1
  Te  Te10  1  0.999962  0.333348  0.249999  1
  Te  Te11  1  0.499962  0.833348  0.249999  1
  O  O12  1  0.631074  0.004646  0.640884  1
  O  O13  1  0.131074  0.504646  0.640884  1
  O  O14  1  0.677628  0.313213  0.640880  1
  O  O15  1  0.177628  0.813213  0.640880  1
  O  O16  1  0.191424  0.182162  0.640887  1
  O  O17  1  0.691424  0.682162  0.640887  1
  O  O18  1  0.177542  0.186798  0.140877  1
  O  O19  1  0.677542  0.686798  0.140877  1
  O  O20  1  0.131011  0.495363  0.140883  1
  O  O21  1  0.631011  0.995363  0.140883  1
  O  O22  1  0.691349  0.317838  0.140891  1
  O  O23  1  0.191349  0.817838  0.140891  1
  O  O24  1  0.868926  0.495354  0.359116  1
  O  O25  1  0.368926  0.995354  0.359116  1
  O  O26  1  0.822372  0.186787  0.359120  1
  O  O27  1  0.322372  0.686787  0.359120  1
  O  O28  1  0.308576  0.317838  0.359113  1
  O  O29  1  0.808576  0.817838  0.359113  1
  O  O30  1  0.322458  0.313202  0.859123  1
  O  O31  1  0.822458  0.813202  0.859123  1
  O  O32  1  0.368989  0.004637  0.859117  1
  O  O33  1  0.868989  0.504637  0.859117  1
  O  O34  1  0.808651  0.182162  0.859109  1
  O  O35  1  0.308651  0.682162  0.859109  1
