# generated using pymatgen
data_HoPa(P2O7)2
_symmetry_space_group_name_H-M   'P 1'
_cell_length_a   8.88017781
_cell_length_b   5.28897996
_cell_length_c   7.36515200
_cell_angle_alpha   73.05364287
_cell_angle_beta   89.40749971
_cell_angle_gamma   89.67617781
_symmetry_Int_Tables_number   1
_chemical_formula_structural   HoPa(P2O7)2
_chemical_formula_sum   'Ho1 Pa1 P4 O14'
_cell_volume   330.88024924
_cell_formula_units_Z   1
loop_
 _symmetry_equiv_pos_site_id
 _symmetry_equiv_pos_as_xyz
  1  'x, y, z'
loop_
 _atom_site_type_symbol
 _atom_site_label
 _atom_site_symmetry_multiplicity
 _atom_site_fract_x
 _atom_site_fract_y
 _atom_site_fract_z
 _atom_site_occupancy
  Ho  Ho0  1  0.548283  0.205736  0.271104  1
  Pa  Pa1  1  0.049536  0.796388  0.724499  1
  P  P2  1  0.370578  0.605101  0.511494  1
  P  P3  1  0.288689  0.248463  0.888726  1
  P  P4  1  0.857921  0.393675  0.483080  1
  P  P5  1  0.783178  0.751621  0.114559  1
  O  O6  1  0.156682  0.436944  0.903832  1
  O  O7  1  0.221561  0.021428  0.821638  1
  O  O8  1  0.736285  0.992253  0.171140  1
  O  O9  1  0.378552  0.152150  0.066151  1
  O  O10  1  0.977166  0.168523  0.524732  1
  O  O11  1  0.699756  0.292946  0.491165  1
  O  O12  1  0.373937  0.435685  0.379046  1
  O  O13  1  0.659215  0.572922  0.087252  1
  O  O14  1  0.483927  0.824466  0.478298  1
  O  O15  1  0.400446  0.413736  0.726393  1
  O  O16  1  0.900401  0.577415  0.274493  1
  O  O17  1  0.886722  0.563101  0.619301  1
  O  O18  1  0.206943  0.716794  0.524982  1
  O  O19  1  0.892310  0.830653  0.938115  1
