# generated using pymatgen
data_TcOs2Cl15
_symmetry_space_group_name_H-M   'P 1'
_cell_length_a   12.97070925
_cell_length_b   13.00043697
_cell_length_c   6.55458435
_cell_angle_alpha   85.73726410
_cell_angle_beta   85.77588747
_cell_angle_gamma   88.22708347
_symmetry_Int_Tables_number   1
_chemical_formula_structural   TcOs2Cl15
_chemical_formula_sum   'Tc2 Os4 Cl30'
_cell_volume   1098.85411769
_cell_formula_units_Z   2
loop_
 _symmetry_equiv_pos_site_id
 _symmetry_equiv_pos_as_xyz
  1  'x, y, z'
loop_
 _atom_site_type_symbol
 _atom_site_label
 _atom_site_symmetry_multiplicity
 _atom_site_fract_x
 _atom_site_fract_y
 _atom_site_fract_z
 _atom_site_occupancy
  Tc  Tc0  1  0.106375  0.893108  0.999985  1
  Tc  Tc1  1  0.560255  0.773368  0.433510  1
  Os  Os2  1  0.897738  0.101826  0.000110  1
  Os  Os3  1  0.769079  0.565329  0.433347  1
  Os  Os4  1  0.230398  0.436510  0.566432  1
  Os  Os5  1  0.435953  0.229731  0.566883  1
  Cl  Cl6  1  0.508654  0.312257  0.815547  1
  Cl  Cl7  1  0.265607  0.266407  0.740733  1
  Cl  Cl8  1  0.162495  0.980417  0.700875  1
  Cl  Cl9  1  0.600586  0.597230  0.609980  1
  Cl  Cl10  1  0.220429  0.589286  0.382264  1
  Cl  Cl11  1  0.736315  0.733341  0.256724  1
  Cl  Cl12  1  0.157750  0.353698  0.318172  1
  Cl  Cl13  1  0.069382  0.072272  0.126228  1
  Cl  Cl14  1  0.652085  0.834565  0.679406  1
  Cl  Cl15  1  0.588853  0.218223  0.383407  1
  Cl  Cl16  1  0.115691  0.737096  0.871758  1
  Cl  Cl17  1  0.019542  0.837682  0.300020  1
  Cl  Cl18  1  0.922846  0.553498  0.249614  1
  Cl  Cl19  1  0.830529  0.023877  0.302577  1
  Cl  Cl20  1  0.406547  0.786057  0.613624  1
  Cl  Cl21  1  0.782279  0.411881  0.615813  1
  Cl  Cl22  1  0.548790  0.926433  0.251167  1
  Cl  Cl23  1  0.976148  0.168851  0.697810  1
  Cl  Cl24  1  0.841670  0.648761  0.680600  1
  Cl  Cl25  1  0.888151  0.258249  0.130042  1
  Cl  Cl26  1  0.498822  0.681644  0.187543  1
  Cl  Cl27  1  0.352104  0.157906  0.319055  1
  Cl  Cl28  1  0.077350  0.447455  0.750181  1
  Cl  Cl29  1  0.741102  0.111260  0.869491  1
  Cl  Cl30  1  0.445670  0.076878  0.751521  1
  Cl  Cl31  1  0.400845  0.399924  0.392922  1
  Cl  Cl32  1  0.313822  0.508257  0.815013  1
  Cl  Cl33  1  0.263090  0.883292  0.128019  1
  Cl  Cl34  1  0.927151  0.930555  0.874415  1
  Cl  Cl35  1  0.685895  0.492876  0.185214  1
