# generated using pymatgen
data_Tb3Ho(Pd2O7)2
_symmetry_space_group_name_H-M   'P 1'
_cell_length_a   7.26275136
_cell_length_b   7.26275159
_cell_length_c   7.26147706
_cell_angle_alpha   59.99419412
_cell_angle_beta   59.99418988
_cell_angle_gamma   60.00000437
_symmetry_Int_Tables_number   1
_chemical_formula_structural   Tb3Ho(Pd2O7)2
_chemical_formula_sum   'Tb3 Ho1 Pd4 O14'
_cell_volume   270.81593910
_cell_formula_units_Z   1
loop_
 _symmetry_equiv_pos_site_id
 _symmetry_equiv_pos_as_xyz
  1  'x, y, z'
loop_
 _atom_site_type_symbol
 _atom_site_label
 _atom_site_symmetry_multiplicity
 _atom_site_fract_x
 _atom_site_fract_y
 _atom_site_fract_z
 _atom_site_occupancy
  Tb  Tb0  1  0.125000  0.625000  0.125000  1
  Tb  Tb1  1  0.125000  0.125000  0.125000  1
  Tb  Tb2  1  0.625000  0.125000  0.125000  1
  Ho  Ho3  1  0.125000  0.125000  0.625000  1
  Pd  Pd4  1  0.125000  0.625000  0.625000  1
  Pd  Pd5  1  0.625000  0.625000  0.625000  1
  Pd  Pd6  1  0.625000  0.125000  0.625000  1
  Pd  Pd7  1  0.625000  0.625000  0.125000  1
  O  O8  1  0.285183  0.716232  0.713401  1
  O  O9  1  0.535353  0.964716  0.964579  1
  O  O10  1  0.716232  0.285183  0.713401  1
  O  O11  1  0.714647  0.714647  0.285421  1
  O  O12  1  0.285284  0.714647  0.285421  1
  O  O13  1  0.285183  0.285183  0.713401  1
  O  O14  1  0.001131  0.001131  0.996606  1
  O  O15  1  0.248869  0.248869  0.253394  1
  O  O16  1  0.964716  0.535353  0.964579  1
  O  O17  1  0.535353  0.535353  0.964579  1
  O  O18  1  0.964817  0.964817  0.536599  1
  O  O19  1  0.533768  0.964817  0.536599  1
  O  O20  1  0.714647  0.285284  0.285421  1
  O  O21  1  0.964817  0.533768  0.536599  1
