# generated using pymatgen
data_TiAl2CrFe4
_symmetry_space_group_name_H-M   'P 1'
_cell_length_a   4.04941600
_cell_length_b   4.04941600
_cell_length_c   5.74398700
_cell_angle_alpha   90.00000000
_cell_angle_beta   90.00000000
_cell_angle_gamma   90.00000000
_symmetry_Int_Tables_number   1
_chemical_formula_structural   TiAl2CrFe4
_chemical_formula_sum   'Ti1 Al2 Cr1 Fe4'
_cell_volume   94.18857737
_cell_formula_units_Z   1
loop_
 _symmetry_equiv_pos_site_id
 _symmetry_equiv_pos_as_xyz
  1  'x, y, z'
loop_
 _atom_site_type_symbol
 _atom_site_label
 _atom_site_symmetry_multiplicity
 _atom_site_fract_x
 _atom_site_fract_y
 _atom_site_fract_z
 _atom_site_occupancy
  Ti  Ti0  1  0.000000  0.000000  0.499999  1
  Al  Al1  1  0.000000  0.000000  0.000000  1
  Al  Al2  1  0.500003  0.500003  0.499999  1
  Cr  Cr3  1  0.500003  0.500003  0.000000  1
  Fe  Fe4  1  0.500003  0.000000  0.239884  1
  Fe  Fe5  1  0.000000  0.500003  0.239884  1
  Fe  Fe6  1  0.500003  0.000000  0.760115  1
  Fe  Fe7  1  0.000000  0.500003  0.760115  1
