# generated using pymatgen
data_Mg3Zn2B4Rh10W
_symmetry_space_group_name_H-M   'P 1'
_cell_length_a   9.42540490
_cell_length_b   2.93665700
_cell_length_c   9.42540490
_cell_angle_alpha   90.00000000
_cell_angle_beta   90.24131903
_cell_angle_gamma   90.00000000
_symmetry_Int_Tables_number   1
_chemical_formula_structural   Mg3Zn2B4Rh10W
_chemical_formula_sum   'Mg3 Zn2 B4 Rh10 W1'
_cell_volume   260.88517686
_cell_formula_units_Z   1
loop_
 _symmetry_equiv_pos_site_id
 _symmetry_equiv_pos_as_xyz
  1  'x, y, z'
loop_
 _atom_site_type_symbol
 _atom_site_label
 _atom_site_symmetry_multiplicity
 _atom_site_fract_x
 _atom_site_fract_y
 _atom_site_fract_z
 _atom_site_occupancy
  Mg  Mg0  1  0.822765  0.000000  0.325397  1
  Mg  Mg1  1  0.174604  0.000000  0.677236  1
  Mg  Mg2  1  0.678418  0.000000  0.821583  1
  Zn  Zn3  1  0.997284  0.000000  0.998555  1
  Zn  Zn4  1  0.501445  0.000000  0.502716  1
  B  B5  1  0.629375  0.000000  0.127505  1
  B  B6  1  0.124389  0.000000  0.375610  1
  B  B7  1  0.872454  0.000000  0.627547  1
  B  B8  1  0.372494  0.000000  0.870626  1
  Rh  Rh9  1  0.497825  0.500000  0.002175  1
  Rh  Rh10  1  0.783253  0.500000  0.073349  1
  Rh  Rh11  1  0.080185  0.500000  0.213580  1
  Rh  Rh12  1  0.558019  0.500000  0.280022  1
  Rh  Rh13  1  0.286421  0.500000  0.419816  1
  Rh  Rh14  1  0.001754  0.500000  0.498246  1
  Rh  Rh15  1  0.717337  0.500000  0.569060  1
  Rh  Rh16  1  0.426652  0.500000  0.716746  1
  Rh  Rh17  1  0.930940  0.500000  0.782662  1
  Rh  Rh18  1  0.219979  0.500000  0.941981  1
  W  W19  1  0.324408  0.000000  0.175593  1
