# generated using pymatgen
data_YbTm3Sc4(ReB6)4
_symmetry_space_group_name_H-M   'P 1'
_cell_length_a   3.56346800
_cell_length_b   9.00095384
_cell_length_c   11.34799100
_cell_angle_alpha   89.97513999
_cell_angle_beta   90.00000000
_cell_angle_gamma   90.00000000
_symmetry_Int_Tables_number   1
_chemical_formula_structural   YbTm3Sc4(ReB6)4
_chemical_formula_sum   'Yb1 Tm3 Sc4 Re4 B24'
_cell_volume   363.98236237
_cell_formula_units_Z   1
loop_
 _symmetry_equiv_pos_site_id
 _symmetry_equiv_pos_as_xyz
  1  'x, y, z'
loop_
 _atom_site_type_symbol
 _atom_site_label
 _atom_site_symmetry_multiplicity
 _atom_site_fract_x
 _atom_site_fract_y
 _atom_site_fract_z
 _atom_site_occupancy
  Yb  Yb0  1  0.000000  0.177969  0.913882  1
  Tm  Tm1  1  0.000000  0.321688  0.414279  1
  Tm  Tm2  1  0.000000  0.677855  0.586065  1
  Tm  Tm3  1  0.000000  0.823056  0.085602  1
  Sc  Sc4  1  0.000000  0.944414  0.370372  1
  Sc  Sc5  1  0.000000  0.056043  0.630479  1
  Sc  Sc6  1  0.000000  0.443530  0.130513  1
  Sc  Sc7  1  0.000000  0.555873  0.869263  1
  Re  Re8  1  0.000000  0.641135  0.318112  1
  Re  Re9  1  0.000000  0.359625  0.681287  1
  Re  Re10  1  0.000000  0.141280  0.181538  1
  Re  Re11  1  0.000000  0.857652  0.818455  1
  B  B12  1  0.500000  0.554148  0.433105  1
  B  B13  1  0.500000  0.446287  0.566535  1
  B  B14  1  0.500000  0.053894  0.067041  1
  B  B15  1  0.500000  0.945754  0.933028  1
  B  B16  1  0.500000  0.754259  0.419230  1
  B  B17  1  0.500000  0.245857  0.580883  1
  B  B18  1  0.500000  0.254201  0.080791  1
  B  B19  1  0.500000  0.745281  0.919528  1
  B  B20  1  0.500000  0.795567  0.264241  1
  B  B21  1  0.500000  0.204623  0.735560  1
  B  B22  1  0.500000  0.295638  0.235836  1
  B  B23  1  0.500000  0.703779  0.764173  1
  B  B24  1  0.500000  0.629668  0.182427  1
  B  B25  1  0.500000  0.370526  0.817157  1
  B  B26  1  0.500000  0.129495  0.317655  1
  B  B27  1  0.500000  0.870182  0.682660  1
  B  B28  1  0.500000  0.981202  0.213440  1
  B  B29  1  0.500000  0.018657  0.786778  1
  B  B30  1  0.500000  0.481005  0.286633  1
  B  B31  1  0.500000  0.519130  0.713054  1
  B  B32  1  0.500000  0.594482  0.025973  1
  B  B33  1  0.500000  0.406102  0.974178  1
  B  B34  1  0.500000  0.095829  0.474023  1
  B  B35  1  0.500000  0.904310  0.526223  1
