# generated using pymatgen
data_Cs14TaV(In3P5)2
_symmetry_space_group_name_H-M   'P 1'
_cell_length_a   8.85509242
_cell_length_b   9.65816525
_cell_length_c   14.84085082
_cell_angle_alpha   85.26870782
_cell_angle_beta   84.60371407
_cell_angle_gamma   84.44755055
_symmetry_Int_Tables_number   1
_chemical_formula_structural   Cs14TaV(In3P5)2
_chemical_formula_sum   'Cs14 Ta1 V1 In6 P10'
_cell_volume   1254.24036025
_cell_formula_units_Z   1
loop_
 _symmetry_equiv_pos_site_id
 _symmetry_equiv_pos_as_xyz
  1  'x, y, z'
loop_
 _atom_site_type_symbol
 _atom_site_label
 _atom_site_symmetry_multiplicity
 _atom_site_fract_x
 _atom_site_fract_y
 _atom_site_fract_z
 _atom_site_occupancy
  Cs  Cs0  1  0.846118  0.362925  0.651121  1
  Cs  Cs1  1  0.818963  0.808430  0.133288  1
  Cs  Cs2  1  0.239597  0.008378  0.468564  1
  Cs  Cs3  1  0.273617  0.255736  0.250522  1
  Cs  Cs4  1  0.738086  0.499356  0.975164  1
  Cs  Cs5  1  0.255298  0.504266  0.021865  1
  Cs  Cs6  1  0.676150  0.085529  0.886445  1
  Cs  Cs7  1  0.762192  0.990851  0.533014  1
  Cs  Cs8  1  0.725425  0.740640  0.749415  1
  Cs  Cs9  1  0.336594  0.348519  0.599981  1
  Cs  Cs10  1  0.151390  0.638914  0.348991  1
  Cs  Cs11  1  0.181910  0.193120  0.865395  1
  Cs  Cs12  1  0.322469  0.916667  0.108787  1
  Cs  Cs13  1  0.658590  0.655316  0.402931  1
  Ta  Ta14  1  0.647128  0.392333  0.227311  1
  V  V15  1  0.351690  0.608887  0.772673  1
  In  In16  1  0.063234  0.810538  0.863410  1
  In  In17  1  0.941837  0.186860  0.134517  1
  In  In18  1  0.356640  0.942384  0.705915  1
  In  In19  1  0.101347  0.721005  0.628646  1
  In  In20  1  0.903220  0.277589  0.374147  1
  In  In21  1  0.644530  0.051320  0.296273  1
  P  P22  1  0.909431  0.446000  0.213250  1
  P  P23  1  0.631306  0.203574  0.129164  1
  P  P24  1  0.100138  0.555083  0.786739  1
  P  P25  1  0.591200  0.296042  0.382789  1
  P  P26  1  0.409790  0.698870  0.622928  1
  P  P27  1  0.038834  0.985909  0.702904  1
  P  P28  1  0.503796  0.418926  0.806426  1
  P  P29  1  0.485494  0.592352  0.191953  1
  P  P30  1  0.370663  0.787794  0.868494  1
  P  P31  1  0.963324  0.015887  0.296977  1
