# generated using pymatgen
data_Dy4ErSn3As
_symmetry_space_group_name_H-M   'P 1'
_cell_length_a   9.12445900
_cell_length_b   9.12445987
_cell_length_c   6.68482800
_cell_angle_alpha   90.00000000
_cell_angle_beta   90.00000000
_cell_angle_gamma   120.00000049
_symmetry_Int_Tables_number   1
_chemical_formula_structural   Dy4ErSn3As
_chemical_formula_sum   'Dy8 Er2 Sn6 As2'
_cell_volume   481.98681298
_cell_formula_units_Z   2
loop_
 _symmetry_equiv_pos_site_id
 _symmetry_equiv_pos_as_xyz
  1  'x, y, z'
loop_
 _atom_site_type_symbol
 _atom_site_label
 _atom_site_symmetry_multiplicity
 _atom_site_fract_x
 _atom_site_fract_y
 _atom_site_fract_z
 _atom_site_occupancy
  Dy  Dy0  1  0.666667  0.333333  0.000000  1
  Dy  Dy1  1  0.333333  0.666667  0.000000  1
  Dy  Dy2  1  0.750520  0.750520  0.749807  1
  Dy  Dy3  1  0.249480  0.000000  0.749807  1
  Dy  Dy4  1  0.000000  0.249480  0.749807  1
  Dy  Dy5  1  0.249480  0.249480  0.250193  1
  Dy  Dy6  1  0.750520  0.000000  0.250193  1
  Dy  Dy7  1  0.000000  0.750520  0.250193  1
  Er  Er8  1  0.333333  0.666667  0.500000  1
  Er  Er9  1  0.666667  0.333333  0.500000  1
  Sn  Sn10  1  0.396511  0.396511  0.749395  1
  Sn  Sn11  1  0.603489  0.000000  0.749395  1
  Sn  Sn12  1  0.000000  0.603489  0.749395  1
  Sn  Sn13  1  0.603489  0.603489  0.250605  1
  Sn  Sn14  1  0.396511  0.000000  0.250605  1
  Sn  Sn15  1  0.000000  0.396511  0.250605  1
  As  As16  1  0.000000  0.000000  0.000000  1
  As  As17  1  0.000000  0.000000  0.500000  1
