# generated using pymatgen
data_Rb7VGa3As5
_symmetry_space_group_name_H-M   'P 1'
_cell_length_a   8.54513940
_cell_length_b   9.28608877
_cell_length_c   14.39860676
_cell_angle_alpha   84.82683536
_cell_angle_beta   81.38916157
_cell_angle_gamma   85.80961470
_symmetry_Int_Tables_number   1
_chemical_formula_structural   Rb7VGa3As5
_chemical_formula_sum   'Rb14 V2 Ga6 As10'
_cell_volume   1123.00201035
_cell_formula_units_Z   2
loop_
 _symmetry_equiv_pos_site_id
 _symmetry_equiv_pos_as_xyz
  1  'x, y, z'
loop_
 _atom_site_type_symbol
 _atom_site_label
 _atom_site_symmetry_multiplicity
 _atom_site_fract_x
 _atom_site_fract_y
 _atom_site_fract_z
 _atom_site_occupancy
  Rb  Rb0  1  0.853478  0.362840  0.639008  1
  Rb  Rb1  1  0.822877  0.820646  0.127198  1
  Rb  Rb2  1  0.249567  0.008520  0.469221  1
  Rb  Rb3  1  0.272589  0.258382  0.255473  1
  Rb  Rb4  1  0.746309  0.496158  0.975588  1
  Rb  Rb5  1  0.253691  0.503842  0.024412  1
  Rb  Rb6  1  0.685949  0.077761  0.882143  1
  Rb  Rb7  1  0.750433  0.991480  0.530779  1
  Rb  Rb8  1  0.727411  0.741618  0.744527  1
  Rb  Rb9  1  0.340939  0.333361  0.612800  1
  Rb  Rb10  1  0.146522  0.637160  0.360992  1
  Rb  Rb11  1  0.177123  0.179354  0.872802  1
  Rb  Rb12  1  0.314051  0.922239  0.117857  1
  Rb  Rb13  1  0.659061  0.666639  0.387200  1
  V  V14  1  0.352194  0.608415  0.773380  1
  V  V15  1  0.647806  0.391585  0.226620  1
  Ga  Ga16  1  0.050057  0.813735  0.858213  1
  Ga  Ga17  1  0.949943  0.186265  0.141787  1
  Ga  Ga18  1  0.351730  0.946681  0.700815  1
  Ga  Ga19  1  0.105857  0.725762  0.631478  1
  Ga  Ga20  1  0.894143  0.274238  0.368522  1
  Ga  Ga21  1  0.648270  0.053319  0.299185  1
  As  As22  1  0.919783  0.448046  0.210199  1
  As  As23  1  0.644134  0.189107  0.130287  1
  As  As24  1  0.080217  0.551954  0.789801  1
  As  As25  1  0.582903  0.291539  0.388661  1
  As  As26  1  0.417097  0.708461  0.611339  1
  As  As27  1  0.028784  0.999729  0.698528  1
  As  As28  1  0.514707  0.407839  0.810423  1
  As  As29  1  0.485293  0.592161  0.189577  1
  As  As30  1  0.355866  0.810893  0.869713  1
  As  As31  1  0.971216  0.000271  0.301472  1
