# generated using pymatgen
data_SbSe8Br3
_symmetry_space_group_name_H-M   'P 1'
_cell_length_a   9.32963229
_cell_length_b   9.90346614
_cell_length_c   11.93540055
_cell_angle_alpha   93.55861947
_cell_angle_beta   108.47978369
_cell_angle_gamma   109.59615728
_symmetry_Int_Tables_number   1
_chemical_formula_structural   SbSe8Br3
_chemical_formula_sum   'Sb2 Se16 Br6'
_cell_volume   967.68205803
_cell_formula_units_Z   2
loop_
 _symmetry_equiv_pos_site_id
 _symmetry_equiv_pos_as_xyz
  1  'x, y, z'
loop_
 _atom_site_type_symbol
 _atom_site_label
 _atom_site_symmetry_multiplicity
 _atom_site_fract_x
 _atom_site_fract_y
 _atom_site_fract_z
 _atom_site_occupancy
  Sb  Sb0  1  0.803932  0.062388  0.849312  1
  Sb  Sb1  1  0.196068  0.937612  0.150688  1
  Se  Se2  1  0.847815  0.511152  0.827986  1
  Se  Se3  1  0.152185  0.488848  0.172014  1
  Se  Se4  1  0.713341  0.428438  0.619156  1
  Se  Se5  1  0.286659  0.571562  0.380844  1
  Se  Se6  1  0.725416  0.197257  0.575251  1
  Se  Se7  1  0.274584  0.802743  0.424749  1
  Se  Se8  1  0.937789  0.229335  0.499214  1
  Se  Se9  1  0.062211  0.770665  0.500786  1
  Se  Se10  1  0.883153  0.326883  0.137821  1
  Se  Se11  1  0.116847  0.673117  0.862179  1
  Se  Se12  1  0.710433  0.459641  0.084868  1
  Se  Se13  1  0.289567  0.540359  0.915132  1
  Se  Se14  1  0.658292  0.526405  0.256546  1
  Se  Se15  1  0.341708  0.473595  0.743454  1
  Se  Se16  1  0.834027  0.771189  0.343354  1
  Se  Se17  1  0.165973  0.228811  0.656646  1
  Br  Br18  1  0.509969  0.049060  0.789582  1
  Br  Br19  1  0.490031  0.950940  0.210418  1
  Br  Br20  1  0.784619  0.902659  0.012321  1
  Br  Br21  1  0.215381  0.097341  0.987679  1
  Br  Br22  1  0.755575  0.857162  0.683735  1
  Br  Br23  1  0.244425  0.142838  0.316265  1
