# generated using pymatgen
data_Ta3MnCrFeN
_symmetry_space_group_name_H-M   'P 1'
_cell_length_a   8.03673453
_cell_length_b   8.03677383
_cell_length_c   8.03683600
_cell_angle_alpha   59.99852477
_cell_angle_beta   59.99926907
_cell_angle_gamma   59.99949706
_symmetry_Int_Tables_number   1
_chemical_formula_structural   Ta3MnCrFeN
_chemical_formula_sum   'Ta12 Mn4 Cr4 Fe4 N4'
_cell_volume   367.04776651
_cell_formula_units_Z   4
loop_
 _symmetry_equiv_pos_site_id
 _symmetry_equiv_pos_as_xyz
  1  'x, y, z'
loop_
 _atom_site_type_symbol
 _atom_site_label
 _atom_site_symmetry_multiplicity
 _atom_site_fract_x
 _atom_site_fract_y
 _atom_site_fract_z
 _atom_site_occupancy
  Ta  Ta0  1  0.803904  0.803893  0.196088  1
  Ta  Ta1  1  0.196041  0.196035  0.803967  1
  Ta  Ta2  1  0.803958  0.196042  0.803956  1
  Ta  Ta3  1  0.196110  0.803903  0.196085  1
  Ta  Ta4  1  0.196058  0.803939  0.803948  1
  Ta  Ta5  1  0.803922  0.196095  0.196072  1
  Ta  Ta6  1  0.446303  0.446291  0.053763  1
  Ta  Ta7  1  0.053737  0.053693  0.446288  1
  Ta  Ta8  1  0.446279  0.053677  0.446289  1
  Ta  Ta9  1  0.053626  0.446290  0.053781  1
  Ta  Ta10  1  0.053700  0.446272  0.446293  1
  Ta  Ta11  1  0.446296  0.053604  0.053801  1
  Mn  Mn12  1  0.516468  0.827820  0.827863  1
  Mn  Mn13  1  0.827820  0.516466  0.827863  1
  Mn  Mn14  1  0.827828  0.827830  0.516482  1
  Mn  Mn15  1  0.827824  0.827820  0.827868  1
  Cr  Cr16  1  0.126496  0.624604  0.624401  1
  Cr  Cr17  1  0.624579  0.126446  0.624442  1
  Cr  Cr18  1  0.624431  0.624522  0.126663  1
  Cr  Cr19  1  0.624513  0.624628  0.624332  1
  Fe  Fe20  1  0.729759  0.423455  0.423345  1
  Fe  Fe21  1  0.423448  0.729775  0.423340  1
  Fe  Fe22  1  0.423441  0.423450  0.729674  1
  Fe  Fe23  1  0.423469  0.423468  0.423359  1
  N  N24  1  0.625157  0.124942  0.124957  1
  N  N25  1  0.124943  0.625145  0.124968  1
  N  N26  1  0.124945  0.124955  0.625149  1
  N  N27  1  0.124944  0.124944  0.124963  1
