# generated using pymatgen
data_Ho12AlGa(NiRu)2
_symmetry_space_group_name_H-M   'P 1'
_cell_length_a   8.30901023
_cell_length_b   8.30896612
_cell_length_c   8.30901145
_cell_angle_alpha   112.99098669
_cell_angle_beta   110.33574298
_cell_angle_gamma   105.18262115
_symmetry_Int_Tables_number   1
_chemical_formula_structural   Ho12AlGa(NiRu)2
_chemical_formula_sum   'Ho12 Al1 Ga1 Ni2 Ru2'
_cell_volume   439.49988013
_cell_formula_units_Z   1
loop_
 _symmetry_equiv_pos_site_id
 _symmetry_equiv_pos_as_xyz
  1  'x, y, z'
loop_
 _atom_site_type_symbol
 _atom_site_label
 _atom_site_symmetry_multiplicity
 _atom_site_fract_x
 _atom_site_fract_y
 _atom_site_fract_z
 _atom_site_occupancy
  Ho  Ho0  1  0.434942  0.241137  0.193806  1
  Ho  Ho1  1  0.565058  0.758863  0.806194  1
  Ho  Ho2  1  0.047330  0.241137  0.806195  1
  Ho  Ho3  1  0.952670  0.758863  0.193805  1
  Ho  Ho4  1  0.180231  0.279444  0.459674  1
  Ho  Ho5  1  0.819769  0.720556  0.540326  1
  Ho  Ho6  1  0.180231  0.720556  0.900788  1
  Ho  Ho7  1  0.819769  0.279444  0.099212  1
  Ho  Ho8  1  0.328957  0.640522  0.311566  1
  Ho  Ho9  1  0.671043  0.359478  0.688434  1
  Ho  Ho10  1  0.328957  0.017391  0.688435  1
  Ho  Ho11  1  0.671043  0.982609  0.311565  1
  Al  Al12  1  0.500000  0.500000  0.000000  1
  Ga  Ga13  1  0.000000  0.000000  0.000000  1
  Ni  Ni14  1  0.118025  0.618027  0.500002  1
  Ni  Ni15  1  0.881975  0.381973  0.499998  1
  Ru  Ru16  1  0.329462  0.000000  0.329462  1
  Ru  Ru17  1  0.670538  0.000000  0.670538  1
