# generated using pymatgen
data_Ba4FeRhO8
_symmetry_space_group_name_H-M   'P 1'
_cell_length_a   7.27696790
_cell_length_b   7.27696804
_cell_length_c   5.79100400
_cell_angle_alpha   90.00000000
_cell_angle_beta   90.00000000
_cell_angle_gamma   133.10006897
_symmetry_Int_Tables_number   1
_chemical_formula_structural   Ba4FeRhO8
_chemical_formula_sum   'Ba4 Fe1 Rh1 O8'
_cell_volume   223.91010544
_cell_formula_units_Z   1
loop_
 _symmetry_equiv_pos_site_id
 _symmetry_equiv_pos_as_xyz
  1  'x, y, z'
loop_
 _atom_site_type_symbol
 _atom_site_label
 _atom_site_symmetry_multiplicity
 _atom_site_fract_x
 _atom_site_fract_y
 _atom_site_fract_z
 _atom_site_occupancy
  Ba  Ba0  1  0.643261  0.356739  0.000000  1
  Ba  Ba1  1  0.142561  0.857439  0.500000  1
  Ba  Ba2  1  0.857439  0.142561  0.500000  1
  Ba  Ba3  1  0.356739  0.643261  0.000000  1
  Fe  Fe4  1  0.000000  0.000000  0.000000  1
  Rh  Rh5  1  0.500000  0.500000  0.500000  1
  O  O6  1  0.745976  0.745976  0.745741  1
  O  O7  1  0.254024  0.254024  0.254259  1
  O  O8  1  0.254024  0.254024  0.745741  1
  O  O9  1  0.745976  0.745976  0.254259  1
  O  O10  1  0.848673  0.151327  0.000000  1
  O  O11  1  0.347747  0.652253  0.500000  1
  O  O12  1  0.652253  0.347747  0.500000  1
  O  O13  1  0.151327  0.848673  0.000000  1
