# generated using pymatgen
data_YbCo2(B2Ru)2
_symmetry_space_group_name_H-M   'P 1'
_cell_length_a   7.15993400
_cell_length_b   7.15993400
_cell_length_c   3.94329700
_cell_angle_alpha   90.00000000
_cell_angle_beta   90.00000000
_cell_angle_gamma   90.00000000
_symmetry_Int_Tables_number   1
_chemical_formula_structural   YbCo2(B2Ru)2
_chemical_formula_sum   'Yb2 Co4 B8 Ru4'
_cell_volume   202.15175981
_cell_formula_units_Z   2
loop_
 _symmetry_equiv_pos_site_id
 _symmetry_equiv_pos_as_xyz
  1  'x, y, z'
loop_
 _atom_site_type_symbol
 _atom_site_label
 _atom_site_symmetry_multiplicity
 _atom_site_fract_x
 _atom_site_fract_y
 _atom_site_fract_z
 _atom_site_occupancy
  Yb  Yb0  1  0.000000  0.000000  0.082582  1
  Yb  Yb1  1  0.500000  0.500000  0.582582  1
  Co  Co2  1  0.620975  0.118956  0.376703  1
  Co  Co3  1  0.379025  0.881044  0.376703  1
  Co  Co4  1  0.618956  0.879025  0.876703  1
  Co  Co5  1  0.381044  0.120975  0.876703  1
  B  B6  1  0.340989  0.818989  0.879428  1
  B  B7  1  0.659011  0.181011  0.879428  1
  B  B8  1  0.318989  0.159011  0.379428  1
  B  B9  1  0.681011  0.840989  0.379428  1
  B  B10  1  0.173733  0.723300  0.599479  1
  B  B11  1  0.826267  0.276700  0.599479  1
  B  B12  1  0.223300  0.326267  0.099479  1
  B  B13  1  0.776700  0.673733  0.099479  1
  Ru  Ru14  1  0.844306  0.383805  0.103098  1
  Ru  Ru15  1  0.155694  0.616195  0.103098  1
  Ru  Ru16  1  0.883805  0.655694  0.603098  1
  Ru  Ru17  1  0.116195  0.344306  0.603098  1
