# generated using pymatgen
data_Lu7Sc3In5Te
_symmetry_space_group_name_H-M   'P 1'
_cell_length_a   6.24875035
_cell_length_b   8.79825727
_cell_length_c   8.74853087
_cell_angle_alpha   120.16925565
_cell_angle_beta   89.98455985
_cell_angle_gamma   89.97607476
_symmetry_Int_Tables_number   1
_chemical_formula_structural   Lu7Sc3In5Te
_chemical_formula_sum   'Lu7 Sc3 In5 Te1'
_cell_volume   415.82658794
_cell_formula_units_Z   1
loop_
 _symmetry_equiv_pos_site_id
 _symmetry_equiv_pos_as_xyz
  1  'x, y, z'
loop_
 _atom_site_type_symbol
 _atom_site_label
 _atom_site_symmetry_multiplicity
 _atom_site_fract_x
 _atom_site_fract_y
 _atom_site_fract_z
 _atom_site_occupancy
  Lu  Lu0  1  0.004151  0.329887  0.664104  1
  Lu  Lu1  1  0.749500  0.231128  0.000258  1
  Lu  Lu2  1  0.749630  0.766944  0.758837  1
  Lu  Lu3  1  0.749380  0.007639  0.241005  1
  Lu  Lu4  1  0.250246  0.764469  0.000266  1
  Lu  Lu5  1  0.250398  0.234944  0.235832  1
  Lu  Lu6  1  0.250333  0.998969  0.764018  1
  Sc  Sc7  1  0.495663  0.330093  0.664018  1
  Sc  Sc8  1  0.495262  0.666057  0.335947  1
  Sc  Sc9  1  0.004794  0.666041  0.336214  1
  In  In10  1  0.747847  0.406875  0.403132  1
  In  In11  1  0.747244  0.998681  0.594427  1
  In  In12  1  0.252408  0.399132  0.002649  1
  In  In13  1  0.252399  0.597899  0.599366  1
  In  In14  1  0.252409  0.992991  0.397914  1
  Te  Te15  1  0.748340  0.608257  0.002013  1
