# generated using pymatgen
data_Zr2MnSi7Ni16Pd3
_symmetry_space_group_name_H-M   'P 1'
_cell_length_a   7.92417478
_cell_length_b   7.89487855
_cell_length_c   7.97316260
_cell_angle_alpha   59.91549887
_cell_angle_beta   59.55185200
_cell_angle_gamma   60.53265690
_symmetry_Int_Tables_number   1
_chemical_formula_structural   Zr2MnSi7Ni16Pd3
_chemical_formula_sum   'Zr2 Mn1 Si7 Ni16 Pd3'
_cell_volume   352.65490587
_cell_formula_units_Z   1
loop_
 _symmetry_equiv_pos_site_id
 _symmetry_equiv_pos_as_xyz
  1  'x, y, z'
loop_
 _atom_site_type_symbol
 _atom_site_label
 _atom_site_symmetry_multiplicity
 _atom_site_fract_x
 _atom_site_fract_y
 _atom_site_fract_z
 _atom_site_occupancy
  Zr  Zr0  1  0.676353  0.681333  0.318667  1
  Zr  Zr1  1  0.318667  0.323647  0.676353  1
  Mn  Mn2  1  0.712903  0.287097  0.712903  1
  Si  Si3  1  0.999264  0.000736  0.999264  1
  Si  Si4  1  0.000672  0.499328  0.000672  1
  Si  Si5  1  0.497112  0.000797  0.999203  1
  Si  Si6  1  0.999203  0.502888  0.497112  1
  Si  Si7  1  0.500672  0.999328  0.500672  1
  Si  Si8  1  0.005709  0.994291  0.500153  1
  Si  Si9  1  0.500153  0.499847  0.005709  1
  Ni  Ni10  1  0.328830  0.329687  0.331473  1
  Ni  Ni11  1  0.989992  0.668527  0.670313  1
  Ni  Ni12  1  0.669493  0.998800  0.666963  1
  Ni  Ni13  1  0.670313  0.671170  0.989992  1
  Ni  Ni14  1  0.331473  0.010008  0.328830  1
  Ni  Ni15  1  0.335256  0.333037  0.001200  1
  Ni  Ni16  1  0.001200  0.330507  0.335256  1
  Ni  Ni17  1  0.666963  0.664744  0.669493  1
  Ni  Ni18  1  0.117423  0.121551  0.113015  1
  Ni  Ni19  1  0.351989  0.886985  0.878449  1
  Ni  Ni20  1  0.884588  0.351289  0.881216  1
  Ni  Ni21  1  0.878449  0.882577  0.351989  1
  Ni  Ni22  1  0.113015  0.648011  0.117423  1
  Ni  Ni23  1  0.117092  0.118784  0.648711  1
  Ni  Ni24  1  0.648711  0.115412  0.117092  1
  Ni  Ni25  1  0.881216  0.882908  0.884588  1
  Pd  Pd26  1  0.304028  0.695972  0.304028  1
  Pd  Pd27  1  0.307939  0.692061  0.691321  1
  Pd  Pd28  1  0.691321  0.308679  0.307939  1
