# generated using pymatgen
data_HoErV(Fe3P2)3
_symmetry_space_group_name_H-M   'P 1'
_cell_length_a   3.65123600
_cell_length_b   10.33131800
_cell_length_c   11.85605600
_cell_angle_alpha   90.00000000
_cell_angle_beta   90.00000000
_cell_angle_gamma   90.00000000
_symmetry_Int_Tables_number   1
_chemical_formula_structural   HoErV(Fe3P2)3
_chemical_formula_sum   'Ho2 Er2 V2 Fe18 P12'
_cell_volume   447.23509539
_cell_formula_units_Z   2
loop_
 _symmetry_equiv_pos_site_id
 _symmetry_equiv_pos_as_xyz
  1  'x, y, z'
loop_
 _atom_site_type_symbol
 _atom_site_label
 _atom_site_symmetry_multiplicity
 _atom_site_fract_x
 _atom_site_fract_y
 _atom_site_fract_z
 _atom_site_occupancy
  Ho  Ho0  1  0.750000  0.416978  0.295020  1
  Ho  Ho1  1  0.750000  0.083022  0.795020  1
  Er  Er2  1  0.250000  0.576142  0.703079  1
  Er  Er3  1  0.250000  0.923858  0.203079  1
  V  V4  1  0.250000  0.701914  0.989565  1
  V  V5  1  0.250000  0.798086  0.489565  1
  Fe  Fe6  1  0.750000  0.296595  0.011650  1
  Fe  Fe7  1  0.750000  0.203405  0.511650  1
  Fe  Fe8  1  0.250000  0.399627  0.491185  1
  Fe  Fe9  1  0.250000  0.100373  0.991185  1
  Fe  Fe10  1  0.750000  0.589426  0.509705  1
  Fe  Fe11  1  0.750000  0.910574  0.009705  1
  Fe  Fe12  1  0.250000  0.223084  0.175578  1
  Fe  Fe13  1  0.250000  0.276916  0.675578  1
  Fe  Fe14  1  0.750000  0.783619  0.822276  1
  Fe  Fe15  1  0.750000  0.716381  0.322276  1
  Fe  Fe16  1  0.250000  0.873165  0.702648  1
  Fe  Fe17  1  0.250000  0.626835  0.202648  1
  Fe  Fe18  1  0.750000  0.122897  0.300330  1
  Fe  Fe19  1  0.750000  0.377103  0.800330  1
  Fe  Fe20  1  0.250000  0.462888  0.933393  1
  Fe  Fe21  1  0.250000  0.037112  0.433393  1
  Fe  Fe22  1  0.750000  0.537146  0.066775  1
  Fe  Fe23  1  0.750000  0.962854  0.566775  1
  P  P24  1  0.250000  0.423587  0.113278  1
  P  P25  1  0.250000  0.076413  0.613278  1
  P  P26  1  0.750000  0.575621  0.884743  1
  P  P27  1  0.750000  0.924379  0.384743  1
  P  P28  1  0.250000  0.266767  0.869485  1
  P  P29  1  0.250000  0.233233  0.369485  1
  P  P30  1  0.750000  0.738570  0.128459  1
  P  P31  1  0.750000  0.761430  0.628459  1
  P  P32  1  0.250000  0.590124  0.396968  1
  P  P33  1  0.250000  0.909876  0.896968  1
  P  P34  1  0.750000  0.393043  0.605865  1
  P  P35  1  0.750000  0.106957  0.105865  1
