# generated using pymatgen
data_Lu8Co2AgHg
_symmetry_space_group_name_H-M   'P 1'
_cell_length_a   9.20786434
_cell_length_b   9.20786240
_cell_length_c   9.21234100
_cell_angle_alpha   59.98391269
_cell_angle_beta   59.98391965
_cell_angle_gamma   59.95505937
_symmetry_Int_Tables_number   1
_chemical_formula_structural   Lu8Co2AgHg
_chemical_formula_sum   'Lu16 Co4 Ag2 Hg2'
_cell_volume   551.97507713
_cell_formula_units_Z   2
loop_
 _symmetry_equiv_pos_site_id
 _symmetry_equiv_pos_as_xyz
  1  'x, y, z'
loop_
 _atom_site_type_symbol
 _atom_site_label
 _atom_site_symmetry_multiplicity
 _atom_site_fract_x
 _atom_site_fract_y
 _atom_site_fract_z
 _atom_site_occupancy
  Lu  Lu0  1  0.597438  0.597438  0.597949  1
  Lu  Lu1  1  0.597438  0.597438  0.207178  1
  Lu  Lu2  1  0.597474  0.207399  0.597564  1
  Lu  Lu3  1  0.207399  0.597474  0.597564  1
  Lu  Lu4  1  0.061560  0.438004  0.439014  1
  Lu  Lu5  1  0.438004  0.061560  0.061421  1
  Lu  Lu6  1  0.438004  0.061560  0.439014  1
  Lu  Lu7  1  0.061560  0.438004  0.061421  1
  Lu  Lu8  1  0.438886  0.438886  0.061114  1
  Lu  Lu9  1  0.061342  0.061342  0.438658  1
  Lu  Lu10  1  0.185970  0.811912  0.812897  1
  Lu  Lu11  1  0.811912  0.185970  0.189220  1
  Lu  Lu12  1  0.811912  0.185970  0.812897  1
  Lu  Lu13  1  0.185970  0.811912  0.189220  1
  Lu  Lu14  1  0.811426  0.811426  0.188574  1
  Lu  Lu15  1  0.186946  0.186946  0.813054  1
  Co  Co16  1  0.391818  0.391818  0.390067  1
  Co  Co17  1  0.391818  0.391818  0.826298  1
  Co  Co18  1  0.391837  0.826976  0.390594  1
  Co  Co19  1  0.826976  0.391837  0.390594  1
  Ag  Ag20  1  0.833639  0.833639  0.830741  1
  Ag  Ag21  1  0.833639  0.833639  0.501983  1
  Hg  Hg22  1  0.836047  0.500987  0.831483  1
  Hg  Hg23  1  0.500987  0.836047  0.831483  1
