# generated using pymatgen
data_VFe2BiO6
_symmetry_space_group_name_H-M   'P 1'
_cell_length_a   5.80432205
_cell_length_b   7.07737372
_cell_length_c   7.01224431
_cell_angle_alpha   79.93708845
_cell_angle_beta   80.34069650
_cell_angle_gamma   81.35591896
_symmetry_Int_Tables_number   1
_chemical_formula_structural   VFe2BiO6
_chemical_formula_sum   'V2 Fe4 Bi2 O12'
_cell_volume   277.42592248
_cell_formula_units_Z   2
loop_
 _symmetry_equiv_pos_site_id
 _symmetry_equiv_pos_as_xyz
  1  'x, y, z'
loop_
 _atom_site_type_symbol
 _atom_site_label
 _atom_site_symmetry_multiplicity
 _atom_site_fract_x
 _atom_site_fract_y
 _atom_site_fract_z
 _atom_site_occupancy
  V  V0  1  0.772633  0.198005  0.382662  1
  V  V1  1  0.227367  0.801995  0.617338  1
  Fe  Fe2  1  0.740418  0.084846  0.910942  1
  Fe  Fe3  1  0.259582  0.915154  0.089058  1
  Fe  Fe4  1  0.269855  0.394738  0.162107  1
  Fe  Fe5  1  0.730145  0.605262  0.837893  1
  Bi  Bi6  1  0.768223  0.709522  0.293471  1
  Bi  Bi7  1  0.231777  0.290478  0.706529  1
  O  O8  1  0.882442  0.336248  0.867566  1
  O  O9  1  0.117558  0.663752  0.132434  1
  O  O10  1  0.856856  0.017772  0.222332  1
  O  O11  1  0.143144  0.982228  0.777668  1
  O  O12  1  0.364173  0.190609  0.991429  1
  O  O13  1  0.635827  0.809391  0.008571  1
  O  O14  1  0.345634  0.897845  0.385068  1
  O  O15  1  0.654366  0.102155  0.614932  1
  O  O16  1  0.017560  0.305656  0.399178  1
  O  O17  1  0.982440  0.694344  0.600822  1
  O  O18  1  0.433750  0.614448  0.704585  1
  O  O19  1  0.566250  0.385552  0.295415  1
