# generated using pymatgen
data_Tb6IrRh17
_symmetry_space_group_name_H-M   'P 1'
_cell_length_a   5.27303500
_cell_length_b   5.27303539
_cell_length_c   17.61537700
_cell_angle_alpha   90.00000000
_cell_angle_beta   90.00000000
_cell_angle_gamma   119.99999130
_symmetry_Int_Tables_number   1
_chemical_formula_structural   Tb6IrRh17
_chemical_formula_sum   'Tb6 Ir1 Rh17'
_cell_volume   424.17390936
_cell_formula_units_Z   1
loop_
 _symmetry_equiv_pos_site_id
 _symmetry_equiv_pos_as_xyz
  1  'x, y, z'
loop_
 _atom_site_type_symbol
 _atom_site_label
 _atom_site_symmetry_multiplicity
 _atom_site_fract_x
 _atom_site_fract_y
 _atom_site_fract_z
 _atom_site_occupancy
  Tb  Tb0  1  0.333333  0.666667  0.958018  1
  Tb  Tb1  1  0.666667  0.333333  0.041982  1
  Tb  Tb2  1  0.666667  0.333333  0.458131  1
  Tb  Tb3  1  0.333333  0.666667  0.541869  1
  Tb  Tb4  1  0.333333  0.666667  0.750067  1
  Tb  Tb5  1  0.666667  0.333333  0.249933  1
  Ir  Ir6  1  0.000000  0.000000  0.500000  1
  Rh  Rh7  1  0.167012  0.832988  0.373830  1
  Rh  Rh8  1  0.167012  0.334025  0.373830  1
  Rh  Rh9  1  0.665975  0.832988  0.373830  1
  Rh  Rh10  1  0.832988  0.167012  0.626170  1
  Rh  Rh11  1  0.832988  0.665975  0.626170  1
  Rh  Rh12  1  0.334025  0.167012  0.626170  1
  Rh  Rh13  1  0.832894  0.167106  0.874229  1
  Rh  Rh14  1  0.832894  0.665787  0.874229  1
  Rh  Rh15  1  0.334213  0.167106  0.874229  1
  Rh  Rh16  1  0.167106  0.832894  0.125771  1
  Rh  Rh17  1  0.167106  0.334213  0.125771  1
  Rh  Rh18  1  0.665787  0.832894  0.125771  1
  Rh  Rh19  1  0.333333  0.666667  0.249539  1
  Rh  Rh20  1  0.666667  0.333333  0.750461  1
  Rh  Rh21  1  0.000000  0.000000  0.249536  1
  Rh  Rh22  1  0.000000  0.000000  0.750464  1
  Rh  Rh23  1  0.000000  0.000000  0.000000  1
