# generated using pymatgen
data_LaCe5(ZrSb5)2
_symmetry_space_group_name_H-M   'P 1'
_cell_length_a   9.51108700
_cell_length_b   9.48697906
_cell_length_c   6.38549000
_cell_angle_alpha   90.00000000
_cell_angle_beta   90.00000000
_cell_angle_gamma   120.08409309
_symmetry_Int_Tables_number   1
_chemical_formula_structural   LaCe5(ZrSb5)2
_chemical_formula_sum   'La1 Ce5 Zr2 Sb10'
_cell_volume   498.55642977
_cell_formula_units_Z   1
loop_
 _symmetry_equiv_pos_site_id
 _symmetry_equiv_pos_as_xyz
  1  'x, y, z'
loop_
 _atom_site_type_symbol
 _atom_site_label
 _atom_site_symmetry_multiplicity
 _atom_site_fract_x
 _atom_site_fract_y
 _atom_site_fract_z
 _atom_site_occupancy
  La  La0  1  0.616614  0.000000  0.250000  1
  Ce  Ce1  1  0.382826  0.000000  0.750000  1
  Ce  Ce2  1  0.000845  0.613830  0.250000  1
  Ce  Ce3  1  0.998481  0.384118  0.750000  1
  Ce  Ce4  1  0.387015  0.386170  0.250000  1
  Ce  Ce5  1  0.614363  0.615882  0.750000  1
  Zr  Zr6  1  0.999799  0.000000  0.000288  1
  Zr  Zr7  1  0.999799  0.000000  0.499712  1
  Sb  Sb8  1  0.263838  0.000000  0.250000  1
  Sb  Sb9  1  0.735715  0.000000  0.750000  1
  Sb  Sb10  1  0.005276  0.268475  0.250000  1
  Sb  Sb11  1  0.998720  0.733881  0.750000  1
  Sb  Sb12  1  0.736801  0.731525  0.250000  1
  Sb  Sb13  1  0.264840  0.266119  0.750000  1
  Sb  Sb14  1  0.330653  0.663773  0.998377  1
  Sb  Sb15  1  0.666881  0.336227  0.998377  1
  Sb  Sb16  1  0.666881  0.336227  0.501623  1
  Sb  Sb17  1  0.330653  0.663773  0.501623  1
