# generated using pymatgen
data_Ho5LuAl23VOs8
_symmetry_space_group_name_H-M   'P 1'
_cell_length_a   8.83138407
_cell_length_b   8.83680558
_cell_length_c   9.52953401
_cell_angle_alpha   90.00143921
_cell_angle_beta   89.99749761
_cell_angle_gamma   119.99391486
_symmetry_Int_Tables_number   1
_chemical_formula_structural   Ho5LuAl23VOs8
_chemical_formula_sum   'Ho5 Lu1 Al23 V1 Os8'
_cell_volume   644.09954851
_cell_formula_units_Z   1
loop_
 _symmetry_equiv_pos_site_id
 _symmetry_equiv_pos_as_xyz
  1  'x, y, z'
loop_
 _atom_site_type_symbol
 _atom_site_label
 _atom_site_symmetry_multiplicity
 _atom_site_fract_x
 _atom_site_fract_y
 _atom_site_fract_z
 _atom_site_occupancy
  Ho  Ho0  1  0.806722  0.613475  0.750567  1
  Ho  Ho1  1  0.608743  0.804312  0.245950  1
  Ho  Ho2  1  0.386439  0.193244  0.750429  1
  Ho  Ho3  1  0.195548  0.804306  0.245951  1
  Ho  Ho4  1  0.806782  0.193245  0.750427  1
  Lu  Lu5  1  0.196884  0.393777  0.245126  1
  Al  Al6  1  0.666573  0.333144  0.977251  1
  Al  Al7  1  0.666677  0.333339  0.519587  1
  Al  Al8  1  0.333090  0.666158  0.481992  1
  Al  Al9  1  0.162146  0.324299  0.574919  1
  Al  Al10  1  0.837126  0.674234  0.424616  1
  Al  Al11  1  0.675513  0.837735  0.575424  1
  Al  Al12  1  0.835516  0.671032  0.076778  1
  Al  Al13  1  0.325424  0.163032  0.424469  1
  Al  Al14  1  0.160396  0.320784  0.925788  1
  Al  Al15  1  0.162213  0.837750  0.575419  1
  Al  Al16  1  0.328508  0.164495  0.076842  1
  Al  Al17  1  0.837635  0.163040  0.424454  1
  Al  Al18  1  0.678835  0.839415  0.925320  1
  Al  Al19  1  0.835986  0.164495  0.076843  1
  Al  Al20  1  0.160578  0.839420  0.925325  1
  Al  Al21  1  0.562160  0.124295  0.253237  1
  Al  Al22  1  0.441553  0.883120  0.751325  1
  Al  Al23  1  0.876413  0.437689  0.253356  1
  Al  Al24  1  0.116871  0.558337  0.751266  1
  Al  Al25  1  0.561291  0.437707  0.253348  1
  Al  Al26  1  0.441463  0.558333  0.751278  1
  Al  Al27  1  0.000798  0.001598  0.250422  1
  Al  Al28  1  0.999983  0.000007  0.749740  1
  V  V29  1  0.333189  0.666423  0.984236  1
  Os  Os30  1  0.495245  0.990506  0.005595  1
  Os  Os31  1  0.009791  0.504322  0.006071  1
  Os  Os32  1  0.499219  0.998429  0.503540  1
  Os  Os33  1  0.494549  0.504336  0.006094  1
  Os  Os34  1  0.001490  0.500351  0.503376  1
  Os  Os35  1  0.498863  0.500307  0.503356  1
  Os  Os36  1  0.999868  0.999683  0.000873  1
  Os  Os37  1  0.999918  0.999823  0.499402  1
