# generated using pymatgen
data_Cs8Er(TaBr8)3
_symmetry_space_group_name_H-M   'P 1'
_cell_length_a   13.37769565
_cell_length_b   13.37769631
_cell_length_c   13.36361800
_cell_angle_alpha   131.53474504
_cell_angle_beta   131.53474752
_cell_angle_gamma   70.94624391
_symmetry_Int_Tables_number   1
_chemical_formula_structural   Cs8Er(TaBr8)3
_chemical_formula_sum   'Cs8 Er1 Ta3 Br24'
_cell_volume   1312.44851768
_cell_formula_units_Z   1
loop_
 _symmetry_equiv_pos_site_id
 _symmetry_equiv_pos_as_xyz
  1  'x, y, z'
loop_
 _atom_site_type_symbol
 _atom_site_label
 _atom_site_symmetry_multiplicity
 _atom_site_fract_x
 _atom_site_fract_y
 _atom_site_fract_z
 _atom_site_occupancy
  Cs  Cs0  1  0.119213  0.636889  0.999128  1
  Cs  Cs1  1  0.363111  0.880787  0.000872  1
  Cs  Cs2  1  0.637719  0.636913  0.517618  1
  Cs  Cs3  1  0.363087  0.362281  0.482382  1
  Cs  Cs4  1  0.879933  0.362244  0.999193  1
  Cs  Cs5  1  0.879884  0.880709  0.517548  1
  Cs  Cs6  1  0.119291  0.120116  0.482452  1
  Cs  Cs7  1  0.637756  0.120067  0.000807  1
  Er  Er8  1  0.000083  0.999917  0.000000  1
  Ta  Ta9  1  0.749986  0.250014  0.500000  1
  Ta  Ta10  1  0.499992  0.500008  0.000000  1
  Ta  Ta11  1  0.250000  0.750000  0.500000  1
  Br  Br12  1  0.252494  0.999716  0.252920  1
  Br  Br13  1  0.000284  0.747506  0.747080  1
  Br  Br14  1  0.251735  0.985856  0.734106  1
  Br  Br15  1  0.748251  0.482548  0.734174  1
  Br  Br16  1  0.482307  0.748139  0.734046  1
  Br  Br17  1  0.127295  0.127298  0.999945  1
  Br  Br18  1  0.499762  0.733459  0.233727  1
  Br  Br19  1  0.867576  0.367618  0.499766  1
  Br  Br20  1  0.000363  0.253137  0.252849  1
  Br  Br21  1  0.382082  0.382079  0.000144  1
  Br  Br22  1  0.617921  0.617918  0.999856  1
  Br  Br23  1  0.499792  0.266141  0.766264  1
  Br  Br24  1  0.266541  0.500238  0.766273  1
  Br  Br25  1  0.517452  0.251749  0.265826  1
  Br  Br26  1  0.367464  0.867480  0.499828  1
  Br  Br27  1  0.632382  0.132424  0.500234  1
  Br  Br28  1  0.251861  0.517693  0.265954  1
  Br  Br29  1  0.132520  0.632536  0.500172  1
  Br  Br30  1  0.014144  0.748265  0.265894  1
  Br  Br31  1  0.985812  0.251510  0.734091  1
  Br  Br32  1  0.746863  0.999637  0.747151  1
  Br  Br33  1  0.733859  0.500208  0.233736  1
  Br  Br34  1  0.748490  0.014188  0.265909  1
  Br  Br35  1  0.872702  0.872705  0.000055  1
