# generated using pymatgen
data_BaPa(ReO4)6
_symmetry_space_group_name_H-M   'P 1'
_cell_length_a   10.61082600
_cell_length_b   10.61082525
_cell_length_c   6.38038100
_cell_angle_alpha   90.00000000
_cell_angle_beta   90.00000000
_cell_angle_gamma   120.00000235
_symmetry_Int_Tables_number   1
_chemical_formula_structural   BaPa(ReO4)6
_chemical_formula_sum   'Ba1 Pa1 Re6 O24'
_cell_volume   622.12204280
_cell_formula_units_Z   1
loop_
 _symmetry_equiv_pos_site_id
 _symmetry_equiv_pos_as_xyz
  1  'x, y, z'
loop_
 _atom_site_type_symbol
 _atom_site_label
 _atom_site_symmetry_multiplicity
 _atom_site_fract_x
 _atom_site_fract_y
 _atom_site_fract_z
 _atom_site_occupancy
  Ba  Ba0  1  0.666667  0.333333  0.750000  1
  Pa  Pa1  1  0.333333  0.666667  0.250000  1
  Re  Re2  1  0.110044  0.409448  0.750000  1
  Re  Re3  1  0.371042  0.309723  0.250000  1
  Re  Re4  1  0.590552  0.700594  0.750000  1
  Re  Re5  1  0.938680  0.628958  0.250000  1
  Re  Re6  1  0.299406  0.889956  0.750000  1
  Re  Re7  1  0.690277  0.061320  0.250000  1
  O  O8  1  0.476483  0.645385  0.524231  1
  O  O9  1  0.354615  0.831098  0.524231  1
  O  O10  1  0.891857  0.763182  0.250000  1
  O  O11  1  0.112410  0.812669  0.750000  1
  O  O12  1  0.236818  0.128675  0.250000  1
  O  O13  1  0.187331  0.299742  0.750000  1
  O  O14  1  0.481321  0.346090  0.029241  1
  O  O15  1  0.871325  0.108143  0.250000  1
  O  O16  1  0.132037  0.704596  0.250000  1
  O  O17  1  0.168902  0.523517  0.975769  1
  O  O18  1  0.168902  0.523517  0.524231  1
  O  O19  1  0.921558  0.302994  0.750000  1
  O  O20  1  0.295404  0.427440  0.250000  1
  O  O21  1  0.697006  0.618565  0.750000  1
  O  O22  1  0.864769  0.518679  0.470759  1
  O  O23  1  0.381435  0.078442  0.750000  1
  O  O24  1  0.653910  0.135231  0.029241  1
  O  O25  1  0.476483  0.645385  0.975769  1
  O  O26  1  0.354615  0.831098  0.975769  1
  O  O27  1  0.653910  0.135231  0.470759  1
  O  O28  1  0.481321  0.346090  0.470759  1
  O  O29  1  0.864769  0.518679  0.029241  1
  O  O30  1  0.700258  0.887590  0.750000  1
  O  O31  1  0.572560  0.867963  0.250000  1
