# generated using pymatgen
data_Ca(Mo2N3)2
_symmetry_space_group_name_H-M   'P 1'
_cell_length_a   5.05828400
_cell_length_b   5.05828362
_cell_length_c   11.10271700
_cell_angle_alpha   90.00000000
_cell_angle_beta   90.00000000
_cell_angle_gamma   120.00000251
_symmetry_Int_Tables_number   1
_chemical_formula_structural   Ca(Mo2N3)2
_chemical_formula_sum   'Ca2 Mo8 N12'
_cell_volume   246.01765616
_cell_formula_units_Z   2
loop_
 _symmetry_equiv_pos_site_id
 _symmetry_equiv_pos_as_xyz
  1  'x, y, z'
loop_
 _atom_site_type_symbol
 _atom_site_label
 _atom_site_symmetry_multiplicity
 _atom_site_fract_x
 _atom_site_fract_y
 _atom_site_fract_z
 _atom_site_occupancy
  Ca  Ca0  1  0.666667  0.333333  0.000000  1
  Ca  Ca1  1  0.333333  0.666667  0.000000  1
  Mo  Mo2  1  0.671335  0.671335  0.738723  1
  Mo  Mo3  1  0.328665  0.000000  0.738723  1
  Mo  Mo4  1  0.000000  0.328665  0.738723  1
  Mo  Mo5  1  0.328665  0.328665  0.261277  1
  Mo  Mo6  1  0.671335  0.000000  0.261277  1
  Mo  Mo7  1  0.000000  0.671335  0.261277  1
  Mo  Mo8  1  0.333333  0.666667  0.500000  1
  Mo  Mo9  1  0.666667  0.333333  0.500000  1
  N  N10  1  0.663102  0.663102  0.378058  1
  N  N11  1  0.336898  0.000000  0.378058  1
  N  N12  1  0.000000  0.336898  0.378058  1
  N  N13  1  0.336898  0.336898  0.621942  1
  N  N14  1  0.663102  0.000000  0.621942  1
  N  N15  1  0.000000  0.663102  0.621942  1
  N  N16  1  0.333375  0.333375  0.850610  1
  N  N17  1  0.666625  0.000000  0.850610  1
  N  N18  1  0.000000  0.666625  0.850610  1
  N  N19  1  0.666625  0.666625  0.149390  1
  N  N20  1  0.333375  0.000000  0.149390  1
  N  N21  1  0.000000  0.333375  0.149390  1
