# generated using pymatgen
data_Dy4Ho4Re3B24Rh
_symmetry_space_group_name_H-M   'P 1'
_cell_length_a   3.67535600
_cell_length_b   9.15479049
_cell_length_c   11.53558400
_cell_angle_alpha   90.16088859
_cell_angle_beta   90.00000000
_cell_angle_gamma   90.00000000
_symmetry_Int_Tables_number   1
_chemical_formula_structural   Dy4Ho4Re3B24Rh
_chemical_formula_sum   'Dy4 Ho4 Re3 B24 Rh1'
_cell_volume   388.13758163
_cell_formula_units_Z   1
loop_
 _symmetry_equiv_pos_site_id
 _symmetry_equiv_pos_as_xyz
  1  'x, y, z'
loop_
 _atom_site_type_symbol
 _atom_site_label
 _atom_site_symmetry_multiplicity
 _atom_site_fract_x
 _atom_site_fract_y
 _atom_site_fract_z
 _atom_site_occupancy
  Dy  Dy0  1  0.000000  0.318527  0.415435  1
  Dy  Dy1  1  0.000000  0.678249  0.590951  1
  Dy  Dy2  1  0.000000  0.826932  0.081491  1
  Dy  Dy3  1  0.000000  0.177201  0.912751  1
  Ho  Ho4  1  0.000000  0.943411  0.370060  1
  Ho  Ho5  1  0.000000  0.055748  0.628809  1
  Ho  Ho6  1  0.000000  0.441386  0.129047  1
  Ho  Ho7  1  0.000000  0.556623  0.871634  1
  Re  Re8  1  0.000000  0.362441  0.677760  1
  Re  Re9  1  0.000000  0.138535  0.180120  1
  Re  Re10  1  0.000000  0.861496  0.820741  1
  B  B11  1  0.500000  0.554144  0.433532  1
  B  B12  1  0.500000  0.446562  0.566805  1
  B  B13  1  0.500000  0.053538  0.066711  1
  B  B14  1  0.500000  0.946940  0.932601  1
  B  B15  1  0.500000  0.749120  0.420118  1
  B  B16  1  0.500000  0.250574  0.581096  1
  B  B17  1  0.500000  0.249318  0.081461  1
  B  B18  1  0.500000  0.751594  0.918731  1
  B  B19  1  0.500000  0.791023  0.265165  1
  B  B20  1  0.500000  0.208386  0.733983  1
  B  B21  1  0.500000  0.291727  0.235100  1
  B  B22  1  0.500000  0.708147  0.765917  1
  B  B23  1  0.500000  0.631879  0.184166  1
  B  B24  1  0.500000  0.369427  0.814057  1
  B  B25  1  0.500000  0.130844  0.314785  1
  B  B26  1  0.500000  0.868434  0.685557  1
  B  B27  1  0.500000  0.983155  0.212013  1
  B  B28  1  0.500000  0.017158  0.786961  1
  B  B29  1  0.500000  0.483452  0.287946  1
  B  B30  1  0.500000  0.517951  0.712475  1
  B  B31  1  0.500000  0.603701  0.029364  1
  B  B32  1  0.500000  0.397522  0.972182  1
  B  B33  1  0.500000  0.101915  0.470972  1
  B  B34  1  0.500000  0.894933  0.528230  1
  Rh  Rh35  1  0.000000  0.638009  0.321274  1
