# generated using pymatgen
data_Ta4Co2NiS12
_symmetry_space_group_name_H-M   'P 1'
_cell_length_a   6.80521194
_cell_length_b   6.80521204
_cell_length_c   18.52407484
_cell_angle_alpha   69.41921242
_cell_angle_beta   69.41921256
_cell_angle_gamma   28.35301674
_symmetry_Int_Tables_number   1
_chemical_formula_structural   Ta4Co2NiS12
_chemical_formula_sum   'Ta4 Co2 Ni1 S12'
_cell_volume   379.68221945
_cell_formula_units_Z   1
loop_
 _symmetry_equiv_pos_site_id
 _symmetry_equiv_pos_as_xyz
  1  'x, y, z'
loop_
 _atom_site_type_symbol
 _atom_site_label
 _atom_site_symmetry_multiplicity
 _atom_site_fract_x
 _atom_site_fract_y
 _atom_site_fract_z
 _atom_site_occupancy
  Ta  Ta0  1  0.620136  0.620136  0.854162  1
  Ta  Ta1  1  0.379864  0.379864  0.145838  1
  Ta  Ta2  1  0.743801  0.743801  0.593256  1
  Ta  Ta3  1  0.256199  0.256199  0.406744  1
  Co  Co4  1  0.230069  0.230069  0.719394  1
  Co  Co5  1  0.769931  0.769931  0.280606  1
  Ni  Ni6  1  0.000000  0.000000  0.000000  1
  S  S7  1  0.970827  0.970827  0.889968  1
  S  S8  1  0.029173  0.029173  0.110032  1
  S  S9  1  0.629372  0.629372  0.396289  1
  S  S10  1  0.370628  0.370628  0.603711  1
  S  S11  1  0.136145  0.136145  0.551905  1
  S  S12  1  0.863855  0.863855  0.448095  1
  S  S13  1  0.805527  0.805527  0.766111  1
  S  S14  1  0.194473  0.194473  0.233889  1
  S  S15  1  0.176815  0.176815  0.931090  1
  S  S16  1  0.823185  0.823185  0.068910  1
  S  S17  1  0.608602  0.608602  0.722793  1
  S  S18  1  0.391398  0.391398  0.277207  1
