# generated using pymatgen
data_Pr3Al10(SiOs2)2
_symmetry_space_group_name_H-M   'P 1'
_cell_length_a   8.82481400
_cell_length_b   8.82481304
_cell_length_c   9.77026900
_cell_angle_alpha   90.00000000
_cell_angle_beta   90.00000000
_cell_angle_gamma   120.00000360
_symmetry_Int_Tables_number   1
_chemical_formula_structural   Pr3Al10(SiOs2)2
_chemical_formula_sum   'Pr6 Al20 Si4 Os8'
_cell_volume   658.94354951
_cell_formula_units_Z   2
loop_
 _symmetry_equiv_pos_site_id
 _symmetry_equiv_pos_as_xyz
  1  'x, y, z'
loop_
 _atom_site_type_symbol
 _atom_site_label
 _atom_site_symmetry_multiplicity
 _atom_site_fract_x
 _atom_site_fract_y
 _atom_site_fract_z
 _atom_site_occupancy
  Pr  Pr0  1  0.193569  0.387138  0.250000  1
  Pr  Pr1  1  0.806431  0.612862  0.750000  1
  Pr  Pr2  1  0.612862  0.806431  0.250000  1
  Pr  Pr3  1  0.387138  0.193569  0.750000  1
  Pr  Pr4  1  0.193569  0.806431  0.250000  1
  Pr  Pr5  1  0.806431  0.193569  0.750000  1
  Al  Al6  1  0.164525  0.329049  0.572521  1
  Al  Al7  1  0.835475  0.670951  0.427479  1
  Al  Al8  1  0.670951  0.835475  0.572521  1
  Al  Al9  1  0.835475  0.670951  0.072521  1
  Al  Al10  1  0.329049  0.164525  0.427479  1
  Al  Al11  1  0.164525  0.329049  0.927479  1
  Al  Al12  1  0.164525  0.835475  0.572521  1
  Al  Al13  1  0.329049  0.164525  0.072521  1
  Al  Al14  1  0.835475  0.164525  0.427479  1
  Al  Al15  1  0.670951  0.835475  0.927479  1
  Al  Al16  1  0.835475  0.164525  0.072521  1
  Al  Al17  1  0.164525  0.835475  0.927479  1
  Al  Al18  1  0.565181  0.130363  0.250000  1
  Al  Al19  1  0.434819  0.869637  0.750000  1
  Al  Al20  1  0.869637  0.434819  0.250000  1
  Al  Al21  1  0.130363  0.565181  0.750000  1
  Al  Al22  1  0.565181  0.434819  0.250000  1
  Al  Al23  1  0.434819  0.565181  0.750000  1
  Al  Al24  1  0.000000  0.000000  0.250000  1
  Al  Al25  1  0.000000  0.000000  0.750000  1
  Si  Si26  1  0.333333  0.666667  0.025783  1
  Si  Si27  1  0.666667  0.333333  0.974217  1
  Si  Si28  1  0.666667  0.333333  0.525783  1
  Si  Si29  1  0.333333  0.666667  0.474217  1
  Os  Os30  1  0.500000  0.000000  0.000000  1
  Os  Os31  1  0.000000  0.500000  0.000000  1
  Os  Os32  1  0.500000  0.000000  0.500000  1
  Os  Os33  1  0.500000  0.500000  0.000000  1
  Os  Os34  1  0.000000  0.500000  0.500000  1
  Os  Os35  1  0.500000  0.500000  0.500000  1
  Os  Os36  1  0.000000  0.000000  0.000000  1
  Os  Os37  1  0.000000  0.000000  0.500000  1
