# generated using pymatgen
data_TcRuPbF12
_symmetry_space_group_name_H-M   'P 1'
_cell_length_a   5.60952392
_cell_length_b   5.57517681
_cell_length_c   10.09890100
_cell_angle_alpha   96.50115917
_cell_angle_beta   95.52252346
_cell_angle_gamma   119.12995647
_symmetry_Int_Tables_number   1
_chemical_formula_structural   TcRuPbF12
_chemical_formula_sum   'Tc1 Ru1 Pb1 F12'
_cell_volume   269.91216381
_cell_formula_units_Z   1
loop_
 _symmetry_equiv_pos_site_id
 _symmetry_equiv_pos_as_xyz
  1  'x, y, z'
loop_
 _atom_site_type_symbol
 _atom_site_label
 _atom_site_symmetry_multiplicity
 _atom_site_fract_x
 _atom_site_fract_y
 _atom_site_fract_z
 _atom_site_occupancy
  Tc  Tc0  1  0.213274  0.503797  0.596130  1
  Ru  Ru1  1  0.383469  0.690487  0.129726  1
  Pb  Pb2  1  0.971290  0.939844  0.875654  1
  F  F3  1  0.376590  0.991577  0.225187  1
  F  F4  1  0.545971  0.587198  0.725550  1
  F  F5  1  0.068955  0.623693  0.996056  1
  F  F6  1  0.133084  0.437471  0.222296  1
  F  F7  1  0.383214  0.383858  0.015075  1
  F  F8  1  0.218688  0.207850  0.494903  1
  F  F9  1  0.688635  0.745581  0.246801  1
  F  F10  1  0.196722  0.802962  0.714776  1
  F  F11  1  0.885560  0.407500  0.483793  1
  F  F12  1  0.004464  0.266944  0.719177  1
  F  F13  1  0.453517  0.784962  0.514349  1
  F  F14  1  0.624566  0.936279  0.018525  1
