# generated using pymatgen
data_K2CNO6
_symmetry_space_group_name_H-M   'P 1'
_cell_length_a   5.52854300
_cell_length_b   4.66752915
_cell_length_c   7.12542959
_cell_angle_alpha   74.38264432
_cell_angle_beta   90.00000000
_cell_angle_gamma   90.00000000
_symmetry_Int_Tables_number   1
_chemical_formula_structural   K2CNO6
_chemical_formula_sum   'K2 C1 N1 O6'
_cell_volume   177.08086192
_cell_formula_units_Z   1
loop_
 _symmetry_equiv_pos_site_id
 _symmetry_equiv_pos_as_xyz
  1  'x, y, z'
loop_
 _atom_site_type_symbol
 _atom_site_label
 _atom_site_symmetry_multiplicity
 _atom_site_fract_x
 _atom_site_fract_y
 _atom_site_fract_z
 _atom_site_occupancy
  K  K0  1  0.250000  0.198068  0.235850  1
  K  K1  1  0.750000  0.781121  0.774027  1
  C  C2  1  0.250000  0.214508  0.758860  1
  N  N3  1  0.750000  0.791266  0.238934  1
  O  O4  1  0.948906  0.714175  0.178190  1
  O  O5  1  0.551094  0.714175  0.178190  1
  O  O6  1  0.750000  0.952478  0.357010  1
  O  O7  1  0.250000  0.054761  0.637773  1
  O  O8  1  0.048586  0.289724  0.820583  1
  O  O9  1  0.451414  0.289724  0.820583  1
