# generated using pymatgen
data_Ta6Be15Co6CuNi
_symmetry_space_group_name_H-M   'P 1'
_cell_length_a   7.55996970
_cell_length_b   7.56135857
_cell_length_c   7.56135800
_cell_angle_alpha   60.00000249
_cell_angle_beta   59.99392513
_cell_angle_gamma   59.99392838
_symmetry_Int_Tables_number   1
_chemical_formula_structural   Ta6Be15Co6CuNi
_chemical_formula_sum   'Ta6 Be15 Co6 Cu1 Ni1'
_cell_volume   305.60807581
_cell_formula_units_Z   1
loop_
 _symmetry_equiv_pos_site_id
 _symmetry_equiv_pos_as_xyz
  1  'x, y, z'
loop_
 _atom_site_type_symbol
 _atom_site_label
 _atom_site_symmetry_multiplicity
 _atom_site_fract_x
 _atom_site_fract_y
 _atom_site_fract_z
 _atom_site_occupancy
  Ta  Ta0  1  0.714042  0.295728  0.295728  1
  Ta  Ta1  1  0.287375  0.706963  0.706963  1
  Ta  Ta2  1  0.287375  0.706963  0.298699  1
  Ta  Ta3  1  0.714042  0.295728  0.694501  1
  Ta  Ta4  1  0.287375  0.298699  0.706963  1
  Ta  Ta5  1  0.714042  0.694501  0.295728  1
  Be  Be6  1  0.322487  0.329322  0.329322  1
  Be  Be7  1  0.674341  0.672889  0.672889  1
  Be  Be8  1  0.322487  0.329322  0.018867  1
  Be  Be9  1  0.322487  0.018867  0.329322  1
  Be  Be10  1  0.674341  0.672889  0.979884  1
  Be  Be11  1  0.674341  0.979884  0.672889  1
  Be  Be12  1  0.028091  0.323969  0.323969  1
  Be  Be13  1  0.973195  0.675602  0.675602  1
  Be  Be14  1  0.499198  0.999239  0.999239  1
  Be  Be15  1  0.999978  0.500195  0.500195  1
  Be  Be16  1  0.999978  0.500195  0.999631  1
  Be  Be17  1  0.499198  0.999239  0.502324  1
  Be  Be18  1  0.999978  0.999631  0.500195  1
  Be  Be19  1  0.499198  0.502324  0.999239  1
  Be  Be20  1  0.004390  0.998537  0.998537  1
  Co  Co21  1  0.125111  0.121258  0.121258  1
  Co  Co22  1  0.875121  0.879024  0.879023  1
  Co  Co23  1  0.125111  0.121258  0.632373  1
  Co  Co24  1  0.125111  0.632373  0.121257  1
  Co  Co25  1  0.875121  0.879024  0.366833  1
  Co  Co26  1  0.875121  0.366833  0.879023  1
  Cu  Cu27  1  0.632118  0.122628  0.122628  1
  Ni  Ni28  1  0.369243  0.876919  0.876919  1
