# generated using pymatgen
data_K4YbUS6
_symmetry_space_group_name_H-M   'P 1'
_cell_length_a   7.19370564
_cell_length_b   7.19376533
_cell_length_c   7.40062200
_cell_angle_alpha   80.46927777
_cell_angle_beta   80.46934332
_cell_angle_gamma   119.87993546
_symmetry_Int_Tables_number   1
_chemical_formula_structural   K4YbUS6
_chemical_formula_sum   'K4 Yb1 U1 S6'
_cell_volume   313.40526508
_cell_formula_units_Z   1
loop_
 _symmetry_equiv_pos_site_id
 _symmetry_equiv_pos_as_xyz
  1  'x, y, z'
loop_
 _atom_site_type_symbol
 _atom_site_label
 _atom_site_symmetry_multiplicity
 _atom_site_fract_x
 _atom_site_fract_y
 _atom_site_fract_z
 _atom_site_occupancy
  K  K0  1  0.341385  0.658599  0.499996  1
  K  K1  1  0.653943  0.346067  0.500008  1
  K  K2  1  0.004548  0.995454  0.500001  1
  K  K3  1  0.499661  0.500344  0.999988  1
  Yb  Yb4  1  0.167578  0.832423  0.999997  1
  U  U5  1  0.832599  0.167412  0.999997  1
  S  S6  1  0.787451  0.812234  0.206126  1
  S  S7  1  0.455880  0.073256  0.209428  1
  S  S8  1  0.044211  0.401762  0.207741  1
  S  S9  1  0.598239  0.955789  0.792259  1
  S  S10  1  0.926751  0.544117  0.790579  1
  S  S11  1  0.187755  0.212543  0.793879  1
