# generated using pymatgen
data_CeNd2Dy(NiAs)4
_symmetry_space_group_name_H-M   'P 1'
_cell_length_a   4.11018000
_cell_length_b   4.11017975
_cell_length_c   15.93452000
_cell_angle_alpha   90.00000000
_cell_angle_beta   90.00000000
_cell_angle_gamma   120.00000205
_symmetry_Int_Tables_number   1
_chemical_formula_structural   CeNd2Dy(NiAs)4
_chemical_formula_sum   'Ce1 Nd2 Dy1 Ni4 As4'
_cell_volume   233.12629667
_cell_formula_units_Z   1
loop_
 _symmetry_equiv_pos_site_id
 _symmetry_equiv_pos_as_xyz
  1  'x, y, z'
loop_
 _atom_site_type_symbol
 _atom_site_label
 _atom_site_symmetry_multiplicity
 _atom_site_fract_x
 _atom_site_fract_y
 _atom_site_fract_z
 _atom_site_occupancy
  Ce  Ce0  1  0.000000  0.000000  0.500000  1
  Nd  Nd1  1  0.000000  0.000000  0.247223  1
  Nd  Nd2  1  0.000000  0.000000  0.752777  1
  Dy  Dy3  1  0.000000  0.000000  0.000000  1
  Ni  Ni4  1  0.333333  0.666667  0.122183  1
  Ni  Ni5  1  0.666667  0.333333  0.877817  1
  Ni  Ni6  1  0.666667  0.333333  0.619869  1
  Ni  Ni7  1  0.333333  0.666667  0.380131  1
  As  As8  1  0.333333  0.666667  0.624312  1
  As  As9  1  0.666667  0.333333  0.375688  1
  As  As10  1  0.666667  0.333333  0.118533  1
  As  As11  1  0.333333  0.666667  0.881467  1
