# generated using pymatgen
data_RbUTl3Se5
_symmetry_space_group_name_H-M   'P 1'
_cell_length_a   7.76590688
_cell_length_b   11.74127449
_cell_length_c   7.80078200
_cell_angle_alpha   101.48357878
_cell_angle_beta   101.72831384
_cell_angle_gamma   109.50361617
_symmetry_Int_Tables_number   1
_chemical_formula_structural   RbUTl3Se5
_chemical_formula_sum   'Rb2 U2 Tl6 Se10'
_cell_volume   628.41659165
_cell_formula_units_Z   2
loop_
 _symmetry_equiv_pos_site_id
 _symmetry_equiv_pos_as_xyz
  1  'x, y, z'
loop_
 _atom_site_type_symbol
 _atom_site_label
 _atom_site_symmetry_multiplicity
 _atom_site_fract_x
 _atom_site_fract_y
 _atom_site_fract_z
 _atom_site_occupancy
  Rb  Rb0  1  0.434118  0.907120  0.226830  1
  Rb  Rb1  1  0.593698  0.594955  0.291948  1
  U  U2  1  0.191907  0.194510  0.097793  1
  U  U3  1  0.807421  0.804998  0.899459  1
  Tl  Tl4  1  0.991287  0.496755  0.002823  1
  Tl  Tl5  1  0.793061  0.304629  0.417779  1
  Tl  Tl6  1  0.004531  0.002565  0.500728  1
  Tl  Tl7  1  0.205160  0.696601  0.585971  1
  Tl  Tl8  1  0.399526  0.399612  0.702430  1
  Tl  Tl9  1  0.591810  0.098179  0.790049  1
  Se  Se10  1  0.537137  0.310359  0.058816  1
  Se  Se11  1  0.835983  0.040647  0.111964  1
  Se  Se12  1  0.978099  0.762658  0.195745  1
  Se  Se13  1  0.176371  0.398212  0.309337  1
  Se  Se14  1  0.365497  0.161849  0.403019  1
  Se  Se15  1  0.635656  0.849093  0.604655  1
  Se  Se16  1  0.817333  0.595625  0.699704  1
  Se  Se17  1  0.022483  0.243112  0.802876  1
  Se  Se18  1  0.160777  0.962140  0.879499  1
  Se  Se19  1  0.458151  0.676380  0.918575  1
