# generated using pymatgen
data_Nd12Si8Ir7Rh5
_symmetry_space_group_name_H-M   'P 1'
_cell_length_a   5.71030391
_cell_length_b   7.77004581
_cell_length_c   14.99334509
_cell_angle_alpha   89.96654047
_cell_angle_beta   89.92224996
_cell_angle_gamma   89.89119460
_symmetry_Int_Tables_number   1
_chemical_formula_structural   Nd12Si8Ir7Rh5
_chemical_formula_sum   'Nd12 Si8 Ir7 Rh5'
_cell_volume   665.24264542
_cell_formula_units_Z   1
loop_
 _symmetry_equiv_pos_site_id
 _symmetry_equiv_pos_as_xyz
  1  'x, y, z'
loop_
 _atom_site_type_symbol
 _atom_site_label
 _atom_site_symmetry_multiplicity
 _atom_site_fract_x
 _atom_site_fract_y
 _atom_site_fract_z
 _atom_site_occupancy
  Nd  Nd0  1  0.135097  0.472641  0.890514  1
  Nd  Nd1  1  0.363236  0.975067  0.891070  1
  Nd  Nd2  1  0.601987  0.331209  0.750231  1
  Nd  Nd3  1  0.398275  0.668956  0.249808  1
  Nd  Nd4  1  0.636955  0.024770  0.390986  1
  Nd  Nd5  1  0.865058  0.527586  0.109895  1
  Nd  Nd6  1  0.863715  0.528057  0.390386  1
  Nd  Nd7  1  0.362814  0.973875  0.609309  1
  Nd  Nd8  1  0.897115  0.829968  0.750078  1
  Nd  Nd9  1  0.135799  0.472696  0.609513  1
  Nd  Nd10  1  0.636910  0.025132  0.109023  1
  Nd  Nd11  1  0.102563  0.170044  0.249954  1
  Si  Si12  1  0.375013  0.371788  0.099123  1
  Si  Si13  1  0.625227  0.628247  0.900996  1
  Si  Si14  1  0.871040  0.126237  0.900688  1
  Si  Si15  1  0.372215  0.372532  0.400632  1
  Si  Si16  1  0.870970  0.126469  0.599247  1
  Si  Si17  1  0.626197  0.627821  0.598962  1
  Si  Si18  1  0.130121  0.873502  0.400956  1
  Si  Si19  1  0.129334  0.874027  0.099157  1
  Ir  Ir20  1  0.605993  0.337685  0.960970  1
  Ir  Ir21  1  0.394345  0.662446  0.039079  1
  Ir  Ir22  1  0.576311  0.320721  0.250365  1
  Ir  Ir23  1  0.394824  0.661330  0.461320  1
  Ir  Ir24  1  0.073977  0.178161  0.749624  1
  Ir  Ir25  1  0.422778  0.679090  0.749979  1
  Ir  Ir26  1  0.926841  0.822148  0.250198  1
  Rh  Rh27  1  0.104278  0.162331  0.461808  1
  Rh  Rh28  1  0.104167  0.162779  0.038362  1
  Rh  Rh29  1  0.605750  0.337693  0.537840  1
  Rh  Rh30  1  0.895711  0.837595  0.538171  1
  Rh  Rh31  1  0.895386  0.837396  0.961755  1
