# generated using pymatgen
data_ErTm3LuBiAu2
_symmetry_space_group_name_H-M   'P 1'
_cell_length_a   8.61755549
_cell_length_b   8.61755492
_cell_length_c   8.61591800
_cell_angle_alpha   124.28179219
_cell_angle_beta   124.28179023
_cell_angle_gamma   82.74342321
_symmetry_Int_Tables_number   1
_chemical_formula_structural   ErTm3LuBiAu2
_chemical_formula_sum   'Er2 Tm6 Lu2 Bi2 Au4'
_cell_volume   419.40509572
_cell_formula_units_Z   2
loop_
 _symmetry_equiv_pos_site_id
 _symmetry_equiv_pos_as_xyz
  1  'x, y, z'
loop_
 _atom_site_type_symbol
 _atom_site_label
 _atom_site_symmetry_multiplicity
 _atom_site_fract_x
 _atom_site_fract_y
 _atom_site_fract_z
 _atom_site_occupancy
  Er  Er0  1  0.985984  0.794807  0.500000  1
  Er  Er1  1  0.294807  0.485984  0.500000  1
  Tm  Tm2  1  0.514235  0.014235  0.808542  1
  Tm  Tm3  1  0.205692  0.705692  0.191458  1
  Tm  Tm4  1  0.014117  0.205737  0.500000  1
  Tm  Tm5  1  0.705737  0.514117  0.500000  1
  Tm  Tm6  1  0.485899  0.985899  0.191546  1
  Tm  Tm7  1  0.794354  0.294354  0.808454  1
  Lu  Lu8  1  0.499928  0.499928  0.000000  1
  Lu  Lu9  1  0.999928  0.999928  0.000000  1
  Bi  Bi10  1  0.250004  0.250004  0.000000  1
  Bi  Bi11  1  0.750004  0.750004  0.000000  1
  Au  Au12  1  0.139221  0.639221  0.778887  1
  Au  Au13  1  0.860334  0.360334  0.221113  1
  Au  Au14  1  0.639088  0.860667  0.500000  1
  Au  Au15  1  0.360667  0.139088  0.500000  1
