# generated using pymatgen
data_PrTmAg2(Ir2O7)2
_symmetry_space_group_name_H-M   'P 1'
_cell_length_a   7.26187030
_cell_length_b   7.18191041
_cell_length_c   7.24743673
_cell_angle_alpha   60.29863643
_cell_angle_beta   61.39229886
_cell_angle_gamma   60.36356807
_symmetry_Int_Tables_number   1
_chemical_formula_structural   PrTmAg2(Ir2O7)2
_chemical_formula_sum   'Pr1 Tm1 Ag2 Ir4 O14'
_cell_volume   271.34496507
_cell_formula_units_Z   1
loop_
 _symmetry_equiv_pos_site_id
 _symmetry_equiv_pos_as_xyz
  1  'x, y, z'
loop_
 _atom_site_type_symbol
 _atom_site_label
 _atom_site_symmetry_multiplicity
 _atom_site_fract_x
 _atom_site_fract_y
 _atom_site_fract_z
 _atom_site_occupancy
  Pr  Pr0  1  0.125000  0.125000  0.625000  1
  Tm  Tm1  1  0.625000  0.125000  0.125000  1
  Ag  Ag2  1  0.125000  0.125000  0.125000  1
  Ag  Ag3  1  0.125000  0.625000  0.125000  1
  Ir  Ir4  1  0.625000  0.625000  0.625000  1
  Ir  Ir5  1  0.125000  0.625000  0.625000  1
  Ir  Ir6  1  0.625000  0.125000  0.625000  1
  Ir  Ir7  1  0.625000  0.625000  0.125000  1
  O  O8  1  0.948897  0.547962  0.548052  1
  O  O9  1  0.301103  0.294910  0.701948  1
  O  O10  1  0.939268  0.558569  0.943593  1
  O  O11  1  0.687943  0.295788  0.298666  1
  O  O12  1  0.562057  0.532396  0.951334  1
  O  O13  1  0.548241  0.961795  0.528169  1
  O  O14  1  0.562057  0.954212  0.951334  1
  O  O15  1  0.255873  0.258403  0.227321  1
  O  O16  1  0.301103  0.702038  0.701948  1
  O  O17  1  0.701759  0.288205  0.721831  1
  O  O18  1  0.994127  0.991597  0.022679  1
  O  O19  1  0.948897  0.955090  0.548052  1
  O  O20  1  0.310732  0.691431  0.306407  1
  O  O21  1  0.687943  0.717604  0.298666  1
