# generated using pymatgen
data_Li5HgAu4
_symmetry_space_group_name_H-M   'P 1'
_cell_length_a   3.30589400
_cell_length_b   3.30589400
_cell_length_c   14.61600900
_cell_angle_alpha   90.00000000
_cell_angle_beta   90.00000000
_cell_angle_gamma   90.00000000
_symmetry_Int_Tables_number   1
_chemical_formula_structural   Li5HgAu4
_chemical_formula_sum   'Li5 Hg1 Au4'
_cell_volume   159.73741436
_cell_formula_units_Z   1
loop_
 _symmetry_equiv_pos_site_id
 _symmetry_equiv_pos_as_xyz
  1  'x, y, z'
loop_
 _atom_site_type_symbol
 _atom_site_label
 _atom_site_symmetry_multiplicity
 _atom_site_fract_x
 _atom_site_fract_y
 _atom_site_fract_z
 _atom_site_occupancy
  Li  Li0  1  0.500000  0.500000  0.109397  1
  Li  Li1  1  0.500000  0.500000  0.302963  1
  Li  Li2  1  0.500000  0.500000  0.500000  1
  Li  Li3  1  0.500000  0.500000  0.697037  1
  Li  Li4  1  0.500000  0.500000  0.890603  1
  Hg  Hg5  1  0.000000  0.000000  0.000000  1
  Au  Au6  1  0.000000  0.000000  0.203642  1
  Au  Au7  1  0.000000  0.000000  0.401089  1
  Au  Au8  1  0.000000  0.000000  0.598911  1
  Au  Au9  1  0.000000  0.000000  0.796358  1
