# generated using pymatgen
data_Dy3HoGa18(Co2Ni)2
_symmetry_space_group_name_H-M   'P 1'
_cell_length_a   7.38723838
_cell_length_b   7.38739516
_cell_length_c   9.40090449
_cell_angle_alpha   89.95411073
_cell_angle_beta   89.96291115
_cell_angle_gamma   119.78957274
_symmetry_Int_Tables_number   1
_chemical_formula_structural   Dy3HoGa18(Co2Ni)2
_chemical_formula_sum   'Dy3 Ho1 Ga18 Co4 Ni2'
_cell_volume   445.23596886
_cell_formula_units_Z   1
loop_
 _symmetry_equiv_pos_site_id
 _symmetry_equiv_pos_as_xyz
  1  'x, y, z'
loop_
 _atom_site_type_symbol
 _atom_site_label
 _atom_site_symmetry_multiplicity
 _atom_site_fract_x
 _atom_site_fract_y
 _atom_site_fract_z
 _atom_site_occupancy
  Dy  Dy0  1  0.997365  0.669114  0.750139  1
  Dy  Dy1  1  0.668358  0.996100  0.750067  1
  Dy  Dy2  1  0.003924  0.331606  0.249919  1
  Ho  Ho3  1  0.330850  0.002588  0.249845  1
  Ga  Ga4  1  0.336134  0.002094  0.925673  1
  Ga  Ga5  1  0.997955  0.663874  0.074373  1
  Ga  Ga6  1  0.333905  0.998334  0.571197  1
  Ga  Ga7  1  0.001704  0.666119  0.428724  1
  Ga  Ga8  1  0.666117  0.003150  0.073990  1
  Ga  Ga9  1  0.996862  0.333832  0.926037  1
  Ga  Ga10  1  0.665909  0.001885  0.429063  1
  Ga  Ga11  1  0.998116  0.334040  0.570884  1
  Ga  Ga12  1  0.665976  0.663951  0.939025  1
  Ga  Ga13  1  0.336106  0.334029  0.060994  1
  Ga  Ga14  1  0.667987  0.667786  0.557002  1
  Ga  Ga15  1  0.332219  0.331958  0.442961  1
  Ga  Ga16  1  0.122281  0.123096  0.747731  1
  Ga  Ga17  1  0.876932  0.877681  0.252342  1
  Ga  Ga18  1  0.451472  0.663719  0.253021  1
  Ga  Ga19  1  0.336290  0.548524  0.746956  1
  Ga  Ga20  1  0.551180  0.336757  0.749109  1
  Ga  Ga21  1  0.663198  0.448695  0.250877  1
  Co  Co22  1  0.000040  0.999980  0.499978  1
  Co  Co23  1  0.328927  0.671094  0.499986  1
  Co  Co24  1  0.670215  0.329773  0.000000  1
  Co  Co25  1  0.670878  0.329099  0.499987  1
  Ni  Ni26  1  0.999744  0.000387  0.000325  1
  Ni  Ni27  1  0.329359  0.670733  0.999795  1
