# generated using pymatgen
data_Cs8VP3(PtS8)2
_symmetry_space_group_name_H-M   'P 1'
_cell_length_a   13.53412965
_cell_length_b   7.53451275
_cell_length_c   9.83755004
_cell_angle_alpha   84.66983160
_cell_angle_beta   90.88492421
_cell_angle_gamma   89.39059722
_symmetry_Int_Tables_number   1
_chemical_formula_structural   Cs8VP3(PtS8)2
_chemical_formula_sum   'Cs8 V1 P3 Pt2 S16'
_cell_volume   998.63490101
_cell_formula_units_Z   1
loop_
 _symmetry_equiv_pos_site_id
 _symmetry_equiv_pos_as_xyz
  1  'x, y, z'
loop_
 _atom_site_type_symbol
 _atom_site_label
 _atom_site_symmetry_multiplicity
 _atom_site_fract_x
 _atom_site_fract_y
 _atom_site_fract_z
 _atom_site_occupancy
  Cs  Cs0  1  0.130786  0.822523  0.679018  1
  Cs  Cs1  1  0.631808  0.176004  0.821135  1
  Cs  Cs2  1  0.869728  0.176515  0.321674  1
  Cs  Cs3  1  0.366894  0.824507  0.180851  1
  Cs  Cs4  1  0.345652  0.281283  0.538179  1
  Cs  Cs5  1  0.845755  0.715986  0.963797  1
  Cs  Cs6  1  0.653280  0.718361  0.467628  1
  Cs  Cs7  1  0.152619  0.278950  0.035641  1
  V  V8  1  0.424905  0.748414  0.768160  1
  P  P9  1  0.919099  0.238569  0.742692  1
  P  P10  1  0.579430  0.241830  0.238137  1
  P  P11  1  0.080593  0.761226  0.257396  1
  Pt  Pt12  1  0.999883  0.499936  0.500052  1
  Pt  Pt13  1  0.498227  0.508257  0.990348  1
  S  S14  1  0.065058  0.303222  0.680149  1
  S  S15  1  0.582058  0.699926  0.828067  1
  S  S16  1  0.934644  0.696521  0.319841  1
  S  S17  1  0.433793  0.312848  0.168765  1
  S  S18  1  0.402312  0.755045  0.552597  1
  S  S19  1  0.896568  0.236964  0.944426  1
  S  S20  1  0.601277  0.241972  0.440647  1
  S  S21  1  0.102903  0.762770  0.055673  1
  S  S22  1  0.142653  0.531724  0.367904  1
  S  S23  1  0.641483  0.467806  0.129373  1
  S  S24  1  0.857209  0.468205  0.632319  1
  S  S25  1  0.344896  0.525234  0.873076  1
  S  S26  1  0.372608  0.994565  0.832830  1
  S  S27  1  0.874634  0.009931  0.670157  1
  S  S28  1  0.624405  0.011105  0.169009  1
  S  S29  1  0.124841  0.989801  0.330457  1
