# generated using pymatgen
data_ErTmZn14Co3
_symmetry_space_group_name_H-M   'P 1'
_cell_length_a   6.64936547
_cell_length_b   6.64910891
_cell_length_c   6.64907401
_cell_angle_alpha   82.64639012
_cell_angle_beta   97.35841894
_cell_angle_gamma   97.36319433
_symmetry_Int_Tables_number   1
_chemical_formula_structural   ErTmZn14Co3
_chemical_formula_sum   'Er1 Tm1 Zn14 Co3'
_cell_volume   287.27947034
_cell_formula_units_Z   1
loop_
 _symmetry_equiv_pos_site_id
 _symmetry_equiv_pos_as_xyz
  1  'x, y, z'
loop_
 _atom_site_type_symbol
 _atom_site_label
 _atom_site_symmetry_multiplicity
 _atom_site_fract_x
 _atom_site_fract_y
 _atom_site_fract_z
 _atom_site_occupancy
  Er  Er0  1  0.666435  0.333631  0.333678  1
  Tm  Tm1  1  0.333451  0.666535  0.666528  1
  Zn  Zn2  1  0.293883  0.293895  0.999924  1
  Zn  Zn3  1  0.706038  0.706181  0.999931  1
  Zn  Zn4  1  0.893756  0.106174  0.106172  1
  Zn  Zn5  1  0.348199  0.651857  0.148089  1
  Zn  Zn6  1  0.000064  0.706143  0.293928  1
  Zn  Zn7  1  0.293880  0.999934  0.293893  1
  Zn  Zn8  1  0.651745  0.851801  0.348187  1
  Zn  Zn9  1  0.148220  0.348237  0.348240  1
  Zn  Zn10  1  0.851877  0.651818  0.651812  1
  Zn  Zn11  1  0.348197  0.148098  0.651857  1
  Zn  Zn12  1  0.000072  0.293930  0.706140  1
  Zn  Zn13  1  0.706040  0.999929  0.706180  1
  Zn  Zn14  1  0.651741  0.348190  0.851807  1
  Zn  Zn15  1  0.106332  0.893724  0.893719  1
  Co  Co16  1  0.499943  0.999933  0.999929  1
  Co  Co17  1  0.000063  0.500054  0.999931  1
  Co  Co18  1  0.000063  0.999933  0.500053  1
