# generated using pymatgen
data_Y5Ho3Re(TcB8)3
_symmetry_space_group_name_H-M   'P 1'
_cell_length_a   3.68506300
_cell_length_b   9.16831931
_cell_length_c   11.55451300
_cell_angle_alpha   90.03171430
_cell_angle_beta   90.00000000
_cell_angle_gamma   90.00000000
_symmetry_Int_Tables_number   1
_chemical_formula_structural   Y5Ho3Re(TcB8)3
_chemical_formula_sum   'Y5 Ho3 Re1 Tc3 B24'
_cell_volume   390.37880163
_cell_formula_units_Z   1
loop_
 _symmetry_equiv_pos_site_id
 _symmetry_equiv_pos_as_xyz
  1  'x, y, z'
loop_
 _atom_site_type_symbol
 _atom_site_label
 _atom_site_symmetry_multiplicity
 _atom_site_fract_x
 _atom_site_fract_y
 _atom_site_fract_z
 _atom_site_occupancy
  Y  Y0  1  0.000000  0.324002  0.414132  1
  Y  Y1  1  0.000000  0.676190  0.585919  1
  Y  Y2  1  0.000000  0.823665  0.085919  1
  Y  Y3  1  0.000000  0.176642  0.914239  1
  Y  Y4  1  0.000000  0.942913  0.369418  1
  Ho  Ho5  1  0.000000  0.057893  0.630195  1
  Ho  Ho6  1  0.000000  0.442737  0.130800  1
  Ho  Ho7  1  0.000000  0.556193  0.869619  1
  Re  Re8  1  0.000000  0.861042  0.820456  1
  Tc  Tc9  1  0.000000  0.638567  0.320254  1
  Tc  Tc10  1  0.000000  0.360949  0.679679  1
  Tc  Tc11  1  0.000000  0.139480  0.179401  1
  B  B12  1  0.500000  0.553491  0.432745  1
  B  B13  1  0.500000  0.446453  0.567364  1
  B  B14  1  0.500000  0.053671  0.067284  1
  B  B15  1  0.500000  0.946564  0.932865  1
  B  B16  1  0.500000  0.748693  0.418392  1
  B  B17  1  0.500000  0.251069  0.581708  1
  B  B18  1  0.500000  0.249234  0.081692  1
  B  B19  1  0.500000  0.750455  0.918429  1
  B  B20  1  0.500000  0.791571  0.265185  1
  B  B21  1  0.500000  0.208079  0.734433  1
  B  B22  1  0.500000  0.292105  0.234573  1
  B  B23  1  0.500000  0.707695  0.765538  1
  B  B24  1  0.500000  0.630495  0.185612  1
  B  B25  1  0.500000  0.369175  0.814286  1
  B  B26  1  0.500000  0.131156  0.314211  1
  B  B27  1  0.500000  0.869512  0.685581  1
  B  B28  1  0.500000  0.982672  0.211466  1
  B  B29  1  0.500000  0.017773  0.787947  1
  B  B30  1  0.500000  0.482414  0.288106  1
  B  B31  1  0.500000  0.517377  0.711991  1
  B  B32  1  0.500000  0.599455  0.027901  1
  B  B33  1  0.500000  0.400036  0.972294  1
  B  B34  1  0.500000  0.100393  0.472173  1
  B  B35  1  0.500000  0.900191  0.528196  1
