# generated using pymatgen
data_Zr3ScNi12
_symmetry_space_group_name_H-M   'P 1'
_cell_length_a   5.29336400
_cell_length_b   5.29336376
_cell_length_c   8.59421900
_cell_angle_alpha   90.00000000
_cell_angle_beta   90.00000000
_cell_angle_gamma   119.99998898
_symmetry_Int_Tables_number   1
_chemical_formula_structural   Zr3ScNi12
_chemical_formula_sum   'Zr3 Sc1 Ni12'
_cell_volume   208.54539082
_cell_formula_units_Z   1
loop_
 _symmetry_equiv_pos_site_id
 _symmetry_equiv_pos_as_xyz
  1  'x, y, z'
loop_
 _atom_site_type_symbol
 _atom_site_label
 _atom_site_symmetry_multiplicity
 _atom_site_fract_x
 _atom_site_fract_y
 _atom_site_fract_z
 _atom_site_occupancy
  Zr  Zr0  1  0.000000  0.000000  0.000000  1
  Zr  Zr1  1  0.333333  0.666667  0.251543  1
  Zr  Zr2  1  0.666667  0.333333  0.748457  1
  Sc  Sc3  1  0.000000  0.000000  0.500000  1
  Ni  Ni4  1  0.500000  0.500000  0.500000  1
  Ni  Ni5  1  0.500000  0.000000  0.500000  1
  Ni  Ni6  1  0.000000  0.500000  0.500000  1
  Ni  Ni7  1  0.500000  0.500000  0.000000  1
  Ni  Ni8  1  0.500000  0.000000  0.000000  1
  Ni  Ni9  1  0.000000  0.500000  0.000000  1
  Ni  Ni10  1  0.821921  0.178079  0.250064  1
  Ni  Ni11  1  0.821921  0.643842  0.250064  1
  Ni  Ni12  1  0.356158  0.178079  0.250064  1
  Ni  Ni13  1  0.178079  0.821921  0.749936  1
  Ni  Ni14  1  0.178079  0.356158  0.749936  1
  Ni  Ni15  1  0.643842  0.821921  0.749936  1
