# generated using pymatgen
data_LaEu7(MgRu)2
_symmetry_space_group_name_H-M   'P 1'
_cell_length_a   10.20162899
_cell_length_b   10.20162907
_cell_length_c   10.20611900
_cell_angle_alpha   59.98543666
_cell_angle_beta   59.98543641
_cell_angle_gamma   59.82345424
_symmetry_Int_Tables_number   1
_chemical_formula_structural   LaEu7(MgRu)2
_chemical_formula_sum   'La2 Eu14 Mg4 Ru4'
_cell_volume   749.90542608
_cell_formula_units_Z   2
loop_
 _symmetry_equiv_pos_site_id
 _symmetry_equiv_pos_as_xyz
  1  'x, y, z'
loop_
 _atom_site_type_symbol
 _atom_site_label
 _atom_site_symmetry_multiplicity
 _atom_site_fract_x
 _atom_site_fract_y
 _atom_site_fract_z
 _atom_site_occupancy
  La  La0  1  0.979770  0.340796  0.339718  1
  La  La1  1  0.340796  0.979770  0.339718  1
  Eu  Eu2  1  0.947690  0.553406  0.553046  1
  Eu  Eu3  1  0.553407  0.947689  0.945859  1
  Eu  Eu4  1  0.553406  0.947690  0.553046  1
  Eu  Eu5  1  0.551774  0.551774  0.948227  1
  Eu  Eu6  1  0.947689  0.553407  0.945859  1
  Eu  Eu7  1  0.945859  0.945859  0.554142  1
  Eu  Eu8  1  0.809663  0.189330  0.189502  1
  Eu  Eu9  1  0.189330  0.809662  0.811506  1
  Eu  Eu10  1  0.189330  0.809663  0.189502  1
  Eu  Eu11  1  0.189353  0.189353  0.810648  1
  Eu  Eu12  1  0.809662  0.189330  0.811506  1
  Eu  Eu13  1  0.810593  0.810593  0.189407  1
  Eu  Eu14  1  0.344448  0.344448  0.342186  1
  Eu  Eu15  1  0.344448  0.344448  0.968920  1
  Mg  Mg16  1  0.578120  0.578120  0.576468  1
  Mg  Mg17  1  0.578120  0.578120  0.267294  1
  Mg  Mg18  1  0.268728  0.577746  0.576764  1
  Mg  Mg19  1  0.577746  0.268728  0.576764  1
  Ru  Ru20  1  0.135505  0.135505  0.146506  1
  Ru  Ru21  1  0.135505  0.135505  0.582486  1
  Ru  Ru22  1  0.590145  0.128922  0.140467  1
  Ru  Ru23  1  0.128922  0.590145  0.140467  1
