# generated using pymatgen
data_La3Gd(CuO3)4
_symmetry_space_group_name_H-M   'P 1'
_cell_length_a   3.99147057
_cell_length_b   12.72353565
_cell_length_c   5.44698900
_cell_angle_alpha   90.00000000
_cell_angle_beta   90.00000000
_cell_angle_gamma   89.73636814
_symmetry_Int_Tables_number   1
_chemical_formula_structural   La3Gd(CuO3)4
_chemical_formula_sum   'La3 Gd1 Cu4 O12'
_cell_volume   276.62577481
_cell_formula_units_Z   1
loop_
 _symmetry_equiv_pos_site_id
 _symmetry_equiv_pos_as_xyz
  1  'x, y, z'
loop_
 _atom_site_type_symbol
 _atom_site_label
 _atom_site_symmetry_multiplicity
 _atom_site_fract_x
 _atom_site_fract_y
 _atom_site_fract_z
 _atom_site_occupancy
  La  La0  1  0.741868  0.584948  0.250000  1
  La  La1  1  0.258356  0.414136  0.749999  1
  La  La2  1  0.741246  0.916948  0.749999  1
  Gd  Gd3  1  0.252939  0.083905  0.250000  1
  Cu  Cu4  1  0.903141  0.324663  0.250000  1
  Cu  Cu5  1  0.099067  0.827206  0.250000  1
  Cu  Cu6  1  0.899664  0.172614  0.749999  1
  Cu  Cu7  1  0.098259  0.674091  0.749999  1
  O  O8  1  0.126851  0.246228  0.003878  1
  O  O9  1  0.877728  0.750782  0.999850  1
  O  O10  1  0.745184  0.415720  0.015381  1
  O  O11  1  0.254669  0.920179  0.019712  1
  O  O12  1  0.745184  0.415720  0.484620  1
  O  O13  1  0.254669  0.920179  0.480289  1
  O  O14  1  0.126851  0.246228  0.496123  1
  O  O15  1  0.877728  0.750782  0.500151  1
  O  O16  1  0.742417  0.084157  0.506779  1
  O  O17  1  0.255881  0.583678  0.515779  1
  O  O18  1  0.742417  0.084157  0.993222  1
  O  O19  1  0.255881  0.583678  0.984222  1
