# generated using pymatgen
data_Pr2Y3Tl4
_symmetry_space_group_name_H-M   'P 1'
_cell_length_a   8.11493800
_cell_length_b   8.41858000
_cell_length_c   16.07353500
_cell_angle_alpha   90.00000000
_cell_angle_beta   90.00000000
_cell_angle_gamma   90.00000000
_symmetry_Int_Tables_number   1
_chemical_formula_structural   Pr2Y3Tl4
_chemical_formula_sum   'Pr8 Y12 Tl16'
_cell_volume   1098.08371176
_cell_formula_units_Z   4
loop_
 _symmetry_equiv_pos_site_id
 _symmetry_equiv_pos_as_xyz
  1  'x, y, z'
loop_
 _atom_site_type_symbol
 _atom_site_label
 _atom_site_symmetry_multiplicity
 _atom_site_fract_x
 _atom_site_fract_y
 _atom_site_fract_z
 _atom_site_occupancy
  Pr  Pr0  1  0.500134  0.317179  0.905078  1
  Pr  Pr1  1  0.000134  0.182821  0.594922  1
  Pr  Pr2  1  0.499866  0.682821  0.405078  1
  Pr  Pr3  1  0.999866  0.817179  0.094922  1
  Pr  Pr4  1  0.499866  0.682821  0.094922  1
  Pr  Pr5  1  0.999866  0.817179  0.405078  1
  Pr  Pr6  1  0.500134  0.317179  0.594922  1
  Pr  Pr7  1  0.000134  0.182821  0.905078  1
  Y  Y8  1  0.339954  0.835921  0.875284  1
  Y  Y9  1  0.839954  0.664079  0.624716  1
  Y  Y10  1  0.660046  0.164079  0.375284  1
  Y  Y11  1  0.160046  0.335921  0.124716  1
  Y  Y12  1  0.660046  0.164079  0.124716  1
  Y  Y13  1  0.160046  0.335921  0.375284  1
  Y  Y14  1  0.339954  0.835921  0.624716  1
  Y  Y15  1  0.839954  0.664079  0.875284  1
  Y  Y16  1  0.176529  0.497557  0.750000  1
  Y  Y17  1  0.676529  0.002443  0.750000  1
  Y  Y18  1  0.823471  0.502443  0.250000  1
  Y  Y19  1  0.323471  0.997557  0.250000  1
  Tl  Tl20  1  0.319838  0.036701  0.040120  1
  Tl  Tl21  1  0.819838  0.463299  0.459880  1
  Tl  Tl22  1  0.680162  0.963299  0.540120  1
  Tl  Tl23  1  0.180162  0.536701  0.959880  1
  Tl  Tl24  1  0.680162  0.963299  0.959880  1
  Tl  Tl25  1  0.180162  0.536701  0.540120  1
  Tl  Tl26  1  0.319838  0.036701  0.459880  1
  Tl  Tl27  1  0.819838  0.463299  0.040120  1
  Tl  Tl28  1  0.537503  0.620504  0.750000  1
  Tl  Tl29  1  0.037503  0.879496  0.750000  1
  Tl  Tl30  1  0.462497  0.379496  0.250000  1
  Tl  Tl31  1  0.962497  0.120504  0.250000  1
  Tl  Tl32  1  0.302408  0.139215  0.750000  1
  Tl  Tl33  1  0.802408  0.360785  0.750000  1
  Tl  Tl34  1  0.697592  0.860785  0.250000  1
  Tl  Tl35  1  0.197592  0.639215  0.250000  1
