# generated using pymatgen
data_Ho3U(MoN2)4
_symmetry_space_group_name_H-M   'P 1'
_cell_length_a   3.18946600
_cell_length_b   5.65372946
_cell_length_c   10.70706395
_cell_angle_alpha   89.53433079
_cell_angle_beta   90.00000000
_cell_angle_gamma   90.00000000
_symmetry_Int_Tables_number   1
_chemical_formula_structural   Ho3U(MoN2)4
_chemical_formula_sum   'Ho3 U1 Mo4 N8'
_cell_volume   193.06744637
_cell_formula_units_Z   1
loop_
 _symmetry_equiv_pos_site_id
 _symmetry_equiv_pos_as_xyz
  1  'x, y, z'
loop_
 _atom_site_type_symbol
 _atom_site_label
 _atom_site_symmetry_multiplicity
 _atom_site_fract_x
 _atom_site_fract_y
 _atom_site_fract_z
 _atom_site_occupancy
  Ho  Ho0  1  0.250000  0.574253  0.643404  1
  Ho  Ho1  1  0.750000  0.922929  0.151041  1
  Ho  Ho2  1  0.750000  0.422001  0.352146  1
  U  U3  1  0.250000  0.073448  0.856116  1
  Mo  Mo4  1  0.250000  0.436888  0.096963  1
  Mo  Mo5  1  0.250000  0.932155  0.406119  1
  Mo  Mo6  1  0.750000  0.570987  0.898985  1
  Mo  Mo7  1  0.750000  0.066084  0.590237  1
  N  N8  1  0.250000  0.166023  0.247319  1
  N  N9  1  0.250000  0.666127  0.254303  1
  N  N10  1  0.750000  0.842788  0.753843  1
  N  N11  1  0.750000  0.322313  0.748398  1
  N  N12  1  0.250000  0.762672  0.996026  1
  N  N13  1  0.250000  0.259228  0.504985  1
  N  N14  1  0.750000  0.244974  0.004039  1
  N  N15  1  0.750000  0.737130  0.496076  1
