# generated using pymatgen
data_NaLi3Ni9MoAs7
_symmetry_space_group_name_H-M   'P 1'
_cell_length_a   9.48112022
_cell_length_b   9.54798357
_cell_length_c   3.76237000
_cell_angle_alpha   90.00000000
_cell_angle_beta   90.00000000
_cell_angle_gamma   120.25677986
_symmetry_Int_Tables_number   1
_chemical_formula_structural   NaLi3Ni9MoAs7
_chemical_formula_sum   'Na1 Li3 Ni9 Mo1 As7'
_cell_volume   294.19405711
_cell_formula_units_Z   1
loop_
 _symmetry_equiv_pos_site_id
 _symmetry_equiv_pos_as_xyz
  1  'x, y, z'
loop_
 _atom_site_type_symbol
 _atom_site_label
 _atom_site_symmetry_multiplicity
 _atom_site_fract_x
 _atom_site_fract_y
 _atom_site_fract_z
 _atom_site_occupancy
  Na  Na0  1  0.334269  0.668438  0.000000  1
  Li  Li1  1  0.444396  0.214484  0.500000  1
  Li  Li2  1  0.785154  0.231628  0.500000  1
  Li  Li3  1  0.997506  0.001391  0.500000  1
  Ni  Ni4  1  0.277539  0.373735  0.500000  1
  Ni  Ni5  1  0.626275  0.903142  0.500000  1
  Ni  Ni6  1  0.099314  0.719599  0.500000  1
  Ni  Ni7  1  0.499205  0.449703  0.000000  1
  Ni  Ni8  1  0.549398  0.049901  0.000000  1
  Ni  Ni9  1  0.955323  0.500788  0.000000  1
  Ni  Ni10  1  0.720910  0.762946  0.000000  1
  Ni  Ni11  1  0.237943  0.958532  0.000000  1
  Ni  Ni12  1  0.044152  0.282719  0.000000  1
  Mo  Mo13  1  0.761137  0.549209  0.500000  1
  As  As14  1  0.963612  0.756500  0.000000  1
  As  As15  1  0.240304  0.205756  0.000000  1
  As  As16  1  0.794275  0.036635  0.000000  1
  As  As17  1  0.669106  0.334821  0.000000  1
  As  As18  1  0.541943  0.622536  0.500000  1
  As  As19  1  0.377435  0.919430  0.500000  1
  As  As20  1  0.080803  0.458109  0.500000  1
