# generated using pymatgen
data_Dy5Si7P5Ru16Pt3
_symmetry_space_group_name_H-M   'P 1'
_cell_length_a   12.71145223
_cell_length_b   12.67511076
_cell_length_c   3.99223700
_cell_angle_alpha   90.00000000
_cell_angle_beta   90.00000000
_cell_angle_gamma   119.77212083
_symmetry_Int_Tables_number   1
_chemical_formula_structural   Dy5Si7P5Ru16Pt3
_chemical_formula_sum   'Dy5 Si7 P5 Ru16 Pt3'
_cell_volume   558.32433930
_cell_formula_units_Z   1
loop_
 _symmetry_equiv_pos_site_id
 _symmetry_equiv_pos_as_xyz
  1  'x, y, z'
loop_
 _atom_site_type_symbol
 _atom_site_label
 _atom_site_symmetry_multiplicity
 _atom_site_fract_x
 _atom_site_fract_y
 _atom_site_fract_z
 _atom_site_occupancy
  Dy  Dy0  1  0.664417  0.331868  0.000000  1
  Dy  Dy1  1  0.335891  0.668288  0.000000  1
  Dy  Dy2  1  0.818156  0.000260  0.500000  1
  Dy  Dy3  1  0.182415  0.183280  0.500000  1
  Dy  Dy4  1  0.001082  0.815656  0.500000  1
  Si  Si5  1  0.621772  0.992940  0.000000  1
  Si  Si6  1  0.369271  0.378795  0.000000  1
  Si  Si7  1  0.688966  0.528680  0.500000  1
  Si  Si8  1  0.835430  0.306187  0.500000  1
  Si  Si9  1  0.311279  0.834602  0.500000  1
  Si  Si10  1  0.527142  0.685388  0.500000  1
  Si  Si11  1  0.467843  0.158608  0.500000  1
  P  P12  1  0.011999  0.635442  0.000000  1
  P  P13  1  0.181381  0.000200  0.000000  1
  P  P14  1  0.821410  0.817498  0.000000  1
  P  P15  1  0.001193  0.186290  0.000000  1
  P  P16  1  0.169561  0.477489  0.500000  1
  Ru  Ru17  1  0.627095  0.805650  0.000000  1
  Ru  Ru18  1  0.179351  0.382114  0.000000  1
  Ru  Ru19  1  0.370599  0.185072  0.000000  1
  Ru  Ru20  1  0.193446  0.817273  0.000000  1
  Ru  Ru21  1  0.817842  0.627181  0.000000  1
  Ru  Ru22  1  0.122014  0.631295  0.500000  1
  Ru  Ru23  1  0.360195  0.486423  0.500000  1
  Ru  Ru24  1  0.514574  0.872206  0.500000  1
  Ru  Ru25  1  0.000316  0.002956  0.000000  1
  Ru  Ru26  1  0.729411  0.726286  0.500000  1
  Ru  Ru27  1  0.003279  0.281873  0.500000  1
  Ru  Ru28  1  0.440660  0.003539  0.000000  1
  Ru  Ru29  1  0.564859  0.558167  0.000000  1
  Ru  Ru30  1  0.989331  0.442048  0.000000  1
  Ru  Ru31  1  0.815682  0.187478  0.000000  1
  Ru  Ru32  1  0.271720  0.998137  0.500000  1
  Pt  Pt33  1  0.864885  0.503314  0.500000  1
  Pt  Pt34  1  0.489781  0.361525  0.500000  1
  Pt  Pt35  1  0.635753  0.125993  0.500000  1
