# generated using pymatgen
data_Tb6Al6NiAu5
_symmetry_space_group_name_H-M   'P 1'
_cell_length_a   7.40241100
_cell_length_b   7.40241027
_cell_length_c   7.88999500
_cell_angle_alpha   90.00000000
_cell_angle_beta   90.00000000
_cell_angle_gamma   119.99998985
_symmetry_Int_Tables_number   1
_chemical_formula_structural   Tb6Al6NiAu5
_chemical_formula_sum   'Tb6 Al6 Ni1 Au5'
_cell_volume   374.41544061
_cell_formula_units_Z   1
loop_
 _symmetry_equiv_pos_site_id
 _symmetry_equiv_pos_as_xyz
  1  'x, y, z'
loop_
 _atom_site_type_symbol
 _atom_site_label
 _atom_site_symmetry_multiplicity
 _atom_site_fract_x
 _atom_site_fract_y
 _atom_site_fract_z
 _atom_site_occupancy
  Tb  Tb0  1  0.592910  0.996859  0.750000  1
  Tb  Tb1  1  0.003141  0.596050  0.750000  1
  Tb  Tb2  1  0.403950  0.407090  0.750000  1
  Tb  Tb3  1  0.997438  0.582254  0.250000  1
  Tb  Tb4  1  0.584816  0.002562  0.250000  1
  Tb  Tb5  1  0.417746  0.415184  0.250000  1
  Al  Al6  1  0.766192  0.765282  0.986329  1
  Al  Al7  1  0.234718  0.000910  0.986329  1
  Al  Al8  1  0.999090  0.233808  0.986329  1
  Al  Al9  1  0.766192  0.765282  0.513671  1
  Al  Al10  1  0.234718  0.000910  0.513671  1
  Al  Al11  1  0.999090  0.233808  0.513671  1
  Ni  Ni12  1  0.000000  0.000000  0.750000  1
  Au  Au13  1  0.000000  0.000000  0.250000  1
  Au  Au14  1  0.666667  0.333333  0.995072  1
  Au  Au15  1  0.666667  0.333333  0.504928  1
  Au  Au16  1  0.333333  0.666667  0.497621  1
  Au  Au17  1  0.333333  0.666667  0.002379  1
