# generated using pymatgen
data_YZr2(SnRh)3
_symmetry_space_group_name_H-M   'P 1'
_cell_length_a   7.51609810
_cell_length_b   7.52022567
_cell_length_c   7.38181800
_cell_angle_alpha   90.00000000
_cell_angle_beta   90.00000000
_cell_angle_gamma   119.99895920
_symmetry_Int_Tables_number   1
_chemical_formula_structural   YZr2(SnRh)3
_chemical_formula_sum   'Y2 Zr4 Sn6 Rh6'
_cell_volume   361.34481930
_cell_formula_units_Z   2
loop_
 _symmetry_equiv_pos_site_id
 _symmetry_equiv_pos_as_xyz
  1  'x, y, z'
loop_
 _atom_site_type_symbol
 _atom_site_label
 _atom_site_symmetry_multiplicity
 _atom_site_fract_x
 _atom_site_fract_y
 _atom_site_fract_z
 _atom_site_occupancy
  Y  Y0  1  0.595525  0.998364  0.250000  1
  Y  Y1  1  0.404591  0.402508  0.250000  1
  Zr  Zr2  1  0.609669  0.003548  0.750000  1
  Zr  Zr3  1  0.389977  0.394389  0.750000  1
  Zr  Zr4  1  0.000314  0.603275  0.750000  1
  Zr  Zr5  1  0.001048  0.600655  0.250000  1
  Sn  Sn6  1  0.267278  0.999546  0.991834  1
  Sn  Sn7  1  0.733017  0.732005  0.507868  1
  Sn  Sn8  1  0.999754  0.268423  0.496291  1
  Sn  Sn9  1  0.999754  0.268423  0.003709  1
  Sn  Sn10  1  0.733017  0.732005  0.992132  1
  Sn  Sn11  1  0.267278  0.999546  0.508166  1
  Rh  Rh12  1  0.671241  0.337131  0.972006  1
  Rh  Rh13  1  0.671241  0.337131  0.527994  1
  Rh  Rh14  1  0.328201  0.665730  0.973122  1
  Rh  Rh15  1  0.328201  0.665730  0.526878  1
  Rh  Rh16  1  0.999874  0.004444  0.750000  1
  Rh  Rh17  1  0.000019  0.987149  0.250000  1
