# generated using pymatgen
data_NaLa3Pr3RuBr12
_symmetry_space_group_name_H-M   'P 1'
_cell_length_a   9.66675047
_cell_length_b   9.65846862
_cell_length_c   9.69751491
_cell_angle_alpha   107.10771486
_cell_angle_beta   107.27356789
_cell_angle_gamma   107.18860198
_symmetry_Int_Tables_number   1
_chemical_formula_structural   NaLa3Pr3RuBr12
_chemical_formula_sum   'Na1 La3 Pr3 Ru1 Br12'
_cell_volume   750.09806468
_cell_formula_units_Z   1
loop_
 _symmetry_equiv_pos_site_id
 _symmetry_equiv_pos_as_xyz
  1  'x, y, z'
loop_
 _atom_site_type_symbol
 _atom_site_label
 _atom_site_symmetry_multiplicity
 _atom_site_fract_x
 _atom_site_fract_y
 _atom_site_fract_z
 _atom_site_occupancy
  Na  Na0  1  0.500604  0.500608  0.500610  1
  La  La1  1  0.113004  0.320090  0.030688  1
  La  La2  1  0.319977  0.030421  0.113004  1
  La  La3  1  0.030502  0.112802  0.320013  1
  Pr  Pr4  1  0.969163  0.885985  0.681689  1
  Pr  Pr5  1  0.681928  0.969302  0.885987  1
  Pr  Pr6  1  0.885908  0.681790  0.969061  1
  Ru  Ru7  1  0.004235  0.004270  0.004311  1
  Br  Br8  1  0.213186  0.682435  0.070952  1
  Br  Br9  1  0.456192  0.372902  0.158162  1
  Br  Br10  1  0.682736  0.072026  0.213488  1
  Br  Br11  1  0.926336  0.780740  0.313877  1
  Br  Br12  1  0.158088  0.456151  0.373357  1
  Br  Br13  1  0.373096  0.158235  0.456643  1
  Br  Br14  1  0.629465  0.843123  0.545645  1
  Br  Br15  1  0.843288  0.546190  0.629180  1
  Br  Br16  1  0.071434  0.213418  0.682576  1
  Br  Br17  1  0.313696  0.925794  0.780710  1
  Br  Br18  1  0.546111  0.629657  0.843241  1
  Br  Br19  1  0.781055  0.314062  0.926810  1
