# generated using pymatgen
data_Pa2SnIrPd
_symmetry_space_group_name_H-M   'P 1'
_cell_length_a   7.75144878
_cell_length_b   7.75144813
_cell_length_c   3.67497800
_cell_angle_alpha   90.00000000
_cell_angle_beta   90.00000000
_cell_angle_gamma   89.81285124
_symmetry_Int_Tables_number   1
_chemical_formula_structural   Pa2SnIrPd
_chemical_formula_sum   'Pa4 Sn2 Ir2 Pd2'
_cell_volume   220.80970316
_cell_formula_units_Z   2
loop_
 _symmetry_equiv_pos_site_id
 _symmetry_equiv_pos_as_xyz
  1  'x, y, z'
loop_
 _atom_site_type_symbol
 _atom_site_label
 _atom_site_symmetry_multiplicity
 _atom_site_fract_x
 _atom_site_fract_y
 _atom_site_fract_z
 _atom_site_occupancy
  Pa  Pa0  1  0.679160  0.179160  0.500000  1
  Pa  Pa1  1  0.320840  0.820840  0.500000  1
  Pa  Pa2  1  0.168052  0.331948  0.500000  1
  Pa  Pa3  1  0.831948  0.668052  0.500000  1
  Sn  Sn4  1  0.000000  0.000000  0.000000  1
  Sn  Sn5  1  0.500000  0.500000  0.000000  1
  Ir  Ir6  1  0.131746  0.631746  0.000000  1
  Ir  Ir7  1  0.868254  0.368254  0.000000  1
  Pd  Pd8  1  0.628380  0.871620  0.000000  1
  Pd  Pd9  1  0.371620  0.128380  0.000000  1
