# generated using pymatgen
data_Li4Pr4SnBi3
_symmetry_space_group_name_H-M   'P 1'
_cell_length_a   9.81448300
_cell_length_b   9.81448359
_cell_length_c   7.54638400
_cell_angle_alpha   90.00000000
_cell_angle_beta   90.00000000
_cell_angle_gamma   120.00000137
_symmetry_Int_Tables_number   1
_chemical_formula_structural   Li4Pr4SnBi3
_chemical_formula_sum   'Li8 Pr8 Sn2 Bi6'
_cell_volume   629.51257052
_cell_formula_units_Z   2
loop_
 _symmetry_equiv_pos_site_id
 _symmetry_equiv_pos_as_xyz
  1  'x, y, z'
loop_
 _atom_site_type_symbol
 _atom_site_label
 _atom_site_symmetry_multiplicity
 _atom_site_fract_x
 _atom_site_fract_y
 _atom_site_fract_z
 _atom_site_occupancy
  Li  Li0  1  0.830598  0.169402  0.716447  1
  Li  Li1  1  0.830598  0.661194  0.716447  1
  Li  Li2  1  0.338806  0.169402  0.716447  1
  Li  Li3  1  0.169402  0.830598  0.216447  1
  Li  Li4  1  0.169402  0.338806  0.216447  1
  Li  Li5  1  0.661194  0.830598  0.216447  1
  Li  Li6  1  0.666667  0.333333  0.332726  1
  Li  Li7  1  0.333333  0.666667  0.832726  1
  Pr  Pr8  1  0.487979  0.512021  0.505635  1
  Pr  Pr9  1  0.487979  0.975958  0.505635  1
  Pr  Pr10  1  0.024042  0.512021  0.505635  1
  Pr  Pr11  1  0.512021  0.487979  0.005635  1
  Pr  Pr12  1  0.512021  0.024042  0.005635  1
  Pr  Pr13  1  0.975958  0.487979  0.005635  1
  Pr  Pr14  1  0.000000  0.000000  0.497984  1
  Pr  Pr15  1  0.000000  0.000000  0.997984  1
  Sn  Sn16  1  0.666667  0.333333  0.736059  1
  Sn  Sn17  1  0.333333  0.666667  0.236059  1
  Bi  Bi18  1  0.833537  0.166463  0.265329  1
  Bi  Bi19  1  0.833537  0.667074  0.265329  1
  Bi  Bi20  1  0.332926  0.166463  0.265329  1
  Bi  Bi21  1  0.166463  0.833537  0.765329  1
  Bi  Bi22  1  0.166463  0.332926  0.765329  1
  Bi  Bi23  1  0.667074  0.833537  0.765329  1
