# generated using pymatgen
data_Dy2Tm3Lu3(P3Ir4)4
_symmetry_space_group_name_H-M   'P 1'
_cell_length_a   12.92783000
_cell_length_b   12.92782983
_cell_length_c   3.98537100
_cell_angle_alpha   90.00000000
_cell_angle_beta   90.00000000
_cell_angle_gamma   120.00000043
_symmetry_Int_Tables_number   1
_chemical_formula_structural   Dy2Tm3Lu3(P3Ir4)4
_chemical_formula_sum   'Dy2 Tm3 Lu3 P12 Ir16'
_cell_volume   576.83372719
_cell_formula_units_Z   1
loop_
 _symmetry_equiv_pos_site_id
 _symmetry_equiv_pos_as_xyz
  1  'x, y, z'
loop_
 _atom_site_type_symbol
 _atom_site_label
 _atom_site_symmetry_multiplicity
 _atom_site_fract_x
 _atom_site_fract_y
 _atom_site_fract_z
 _atom_site_occupancy
  Dy  Dy0  1  0.333333  0.666667  0.500000  1
  Dy  Dy1  1  0.666667  0.333333  0.500000  1
  Tm  Tm2  1  0.000000  0.814288  0.000000  1
  Tm  Tm3  1  0.185712  0.185712  0.000000  1
  Tm  Tm4  1  0.814288  0.000000  0.000000  1
  Lu  Lu5  1  0.000000  0.446690  0.500000  1
  Lu  Lu6  1  0.553310  0.553310  0.500000  1
  Lu  Lu7  1  0.446690  0.000000  0.500000  1
  P  P8  1  0.000000  0.652197  0.500000  1
  P  P9  1  0.347803  0.347803  0.500000  1
  P  P10  1  0.652197  0.000000  0.500000  1
  P  P11  1  0.516542  0.687602  0.000000  1
  P  P12  1  0.312398  0.828941  0.000000  1
  P  P13  1  0.171059  0.483458  0.000000  1
  P  P14  1  0.483458  0.171059  0.000000  1
  P  P15  1  0.687602  0.516542  0.000000  1
  P  P16  1  0.828941  0.312398  0.000000  1
  P  P17  1  0.000000  0.176277  0.500000  1
  P  P18  1  0.823723  0.823723  0.500000  1
  P  P19  1  0.176277  0.000000  0.500000  1
  Ir  Ir20  1  0.509544  0.866302  0.000000  1
  Ir  Ir21  1  0.133698  0.643242  0.000000  1
  Ir  Ir22  1  0.356758  0.490456  0.000000  1
  Ir  Ir23  1  0.490456  0.356758  0.000000  1
  Ir  Ir24  1  0.866302  0.509544  0.000000  1
  Ir  Ir25  1  0.643242  0.133698  0.000000  1
  Ir  Ir26  1  0.000000  0.275703  0.000000  1
  Ir  Ir27  1  0.724297  0.724297  0.000000  1
  Ir  Ir28  1  0.275703  0.000000  0.000000  1
  Ir  Ir29  1  0.630176  0.808771  0.500000  1
  Ir  Ir30  1  0.191229  0.821405  0.500000  1
  Ir  Ir31  1  0.178595  0.369824  0.500000  1
  Ir  Ir32  1  0.369824  0.178595  0.500000  1
  Ir  Ir33  1  0.808771  0.630176  0.500000  1
  Ir  Ir34  1  0.821405  0.191229  0.500000  1
  Ir  Ir35  1  0.000000  0.000000  0.500000  1
