# generated using pymatgen
data_Zr6O
_symmetry_space_group_name_H-M   'P 1'
_cell_length_a   5.65368900
_cell_length_b   5.65368936
_cell_length_c   10.42438400
_cell_angle_alpha   90.00000000
_cell_angle_beta   90.00000000
_cell_angle_gamma   119.99999206
_symmetry_Int_Tables_number   1
_chemical_formula_structural   Zr6O
_chemical_formula_sum   'Zr12 O2'
_cell_volume   288.56584410
_cell_formula_units_Z   2
loop_
 _symmetry_equiv_pos_site_id
 _symmetry_equiv_pos_as_xyz
  1  'x, y, z'
loop_
 _atom_site_type_symbol
 _atom_site_label
 _atom_site_symmetry_multiplicity
 _atom_site_fract_x
 _atom_site_fract_y
 _atom_site_fract_z
 _atom_site_occupancy
  Zr  Zr0  1  0.667731  0.663745  0.378165  1
  Zr  Zr1  1  0.332269  0.996014  0.878165  1
  Zr  Zr2  1  0.663745  0.996014  0.621835  1
  Zr  Zr3  1  0.663745  0.667731  0.878165  1
  Zr  Zr4  1  0.336255  0.332269  0.121835  1
  Zr  Zr5  1  0.996014  0.332269  0.378165  1
  Zr  Zr6  1  0.336255  0.003986  0.378165  1
  Zr  Zr7  1  0.667731  0.003986  0.121835  1
  Zr  Zr8  1  0.003986  0.336255  0.878165  1
  Zr  Zr9  1  0.332269  0.336255  0.621835  1
  Zr  Zr10  1  0.003986  0.667731  0.621835  1
  Zr  Zr11  1  0.996014  0.663745  0.121835  1
  O  O12  1  0.666667  0.333333  0.250000  1
  O  O13  1  0.333333  0.666667  0.750000  1
