# generated using pymatgen
data_Pu6ScNbSb10
_symmetry_space_group_name_H-M   'P 1'
_cell_length_a   9.25539000
_cell_length_b   9.25539012
_cell_length_c   6.23509400
_cell_angle_alpha   90.00000000
_cell_angle_beta   90.00000000
_cell_angle_gamma   119.99999957
_symmetry_Int_Tables_number   1
_chemical_formula_structural   Pu6ScNbSb10
_chemical_formula_sum   'Pu6 Sc1 Nb1 Sb10'
_cell_volume   462.55469307
_cell_formula_units_Z   1
loop_
 _symmetry_equiv_pos_site_id
 _symmetry_equiv_pos_as_xyz
  1  'x, y, z'
loop_
 _atom_site_type_symbol
 _atom_site_label
 _atom_site_symmetry_multiplicity
 _atom_site_fract_x
 _atom_site_fract_y
 _atom_site_fract_z
 _atom_site_occupancy
  Pu  Pu0  1  0.384703  0.000000  0.750035  1
  Pu  Pu1  1  0.384703  0.384703  0.249965  1
  Pu  Pu2  1  0.000000  0.615297  0.249965  1
  Pu  Pu3  1  0.000000  0.384703  0.750035  1
  Pu  Pu4  1  0.615297  0.615297  0.750035  1
  Pu  Pu5  1  0.615297  0.000000  0.249965  1
  Sc  Sc6  1  0.000000  0.000000  0.500000  1
  Nb  Nb7  1  0.000000  0.000000  0.000000  1
  Sb  Sb8  1  0.666667  0.333333  0.500000  1
  Sb  Sb9  1  0.333333  0.666667  0.000000  1
  Sb  Sb10  1  0.735154  0.000000  0.754540  1
  Sb  Sb11  1  0.735154  0.735154  0.245460  1
  Sb  Sb12  1  0.333333  0.666667  0.500000  1
  Sb  Sb13  1  0.666667  0.333333  0.000000  1
  Sb  Sb14  1  0.264846  0.000000  0.245460  1
  Sb  Sb15  1  0.264846  0.264846  0.754540  1
  Sb  Sb16  1  0.000000  0.735154  0.754540  1
  Sb  Sb17  1  0.000000  0.264846  0.245460  1
