# generated using pymatgen
data_Ca20Zn7Ag5
_symmetry_space_group_name_H-M   'P 1'
_cell_length_a   8.00685734
_cell_length_b   8.00686289
_cell_length_c   14.83133201
_cell_angle_alpha   89.99976047
_cell_angle_beta   90.00738947
_cell_angle_gamma   90.05341849
_symmetry_Int_Tables_number   1
_chemical_formula_structural   Ca20Zn7Ag5
_chemical_formula_sum   'Ca20 Zn7 Ag5'
_cell_volume   950.83343999
_cell_formula_units_Z   1
loop_
 _symmetry_equiv_pos_site_id
 _symmetry_equiv_pos_as_xyz
  1  'x, y, z'
loop_
 _atom_site_type_symbol
 _atom_site_label
 _atom_site_symmetry_multiplicity
 _atom_site_fract_x
 _atom_site_fract_y
 _atom_site_fract_z
 _atom_site_occupancy
  Ca  Ca0  1  0.667972  0.167529  0.104384  1
  Ca  Ca1  1  0.168653  0.667581  0.603929  1
  Ca  Ca2  1  0.331765  0.832728  0.104386  1
  Ca  Ca3  1  0.831704  0.332008  0.603918  1
  Ca  Ca4  1  0.832223  0.668455  0.103807  1
  Ca  Ca5  1  0.332034  0.168666  0.603498  1
  Ca  Ca6  1  0.167845  0.331413  0.103580  1
  Ca  Ca7  1  0.667894  0.831420  0.603441  1
  Ca  Ca8  1  0.832654  0.331542  0.896489  1
  Ca  Ca9  1  0.332222  0.831827  0.395187  1
  Ca  Ca10  1  0.167755  0.668087  0.896501  1
  Ca  Ca11  1  0.667515  0.168449  0.395174  1
  Ca  Ca12  1  0.668383  0.832331  0.896989  1
  Ca  Ca13  1  0.168833  0.331902  0.395967  1
  Ca  Ca14  1  0.331557  0.167726  0.896934  1
  Ca  Ca15  1  0.831375  0.667983  0.395787  1
  Ca  Ca16  1  0.500102  0.499636  0.751264  1
  Ca  Ca17  1  0.998883  0.999499  0.250122  1
  Ca  Ca18  1  0.000370  0.999905  0.749843  1
  Ca  Ca19  1  0.500501  0.501100  0.248778  1
  Zn  Zn20  1  0.619950  0.120006  0.750331  1
  Zn  Zn21  1  0.121350  0.619780  0.249663  1
  Zn  Zn22  1  0.880205  0.378694  0.249645  1
  Zn  Zn23  1  0.380020  0.880023  0.750333  1
  Zn  Zn24  1  0.879495  0.620485  0.750332  1
  Zn  Zn25  1  0.377812  0.122194  0.249656  1
  Zn  Zn26  1  0.121581  0.378451  0.750323  1
  Ag  Ag27  1  0.499609  0.500680  0.499872  1
  Ag  Ag28  1  0.499602  0.500686  0.000146  1
  Ag  Ag29  1  0.999303  0.000384  0.499870  1
  Ag  Ag30  1  0.621528  0.878426  0.249715  1
  Ag  Ag31  1  0.999303  0.000403  0.000138  1
