# generated using pymatgen
data_Th2Sc3Tl4
_symmetry_space_group_name_H-M   'P 1'
_cell_length_a   7.87402900
_cell_length_b   8.09491700
_cell_length_c   15.25405200
_cell_angle_alpha   90.00000000
_cell_angle_beta   90.00000000
_cell_angle_gamma   90.00000000
_symmetry_Int_Tables_number   1
_chemical_formula_structural   Th2Sc3Tl4
_chemical_formula_sum   'Th8 Sc12 Tl16'
_cell_volume   972.28734387
_cell_formula_units_Z   4
loop_
 _symmetry_equiv_pos_site_id
 _symmetry_equiv_pos_as_xyz
  1  'x, y, z'
loop_
 _atom_site_type_symbol
 _atom_site_label
 _atom_site_symmetry_multiplicity
 _atom_site_fract_x
 _atom_site_fract_y
 _atom_site_fract_z
 _atom_site_occupancy
  Th  Th0  1  0.502271  0.321350  0.906502  1
  Th  Th1  1  0.002271  0.178650  0.593498  1
  Th  Th2  1  0.497729  0.678650  0.406502  1
  Th  Th3  1  0.997729  0.821350  0.093498  1
  Th  Th4  1  0.497729  0.678650  0.093498  1
  Th  Th5  1  0.997729  0.821350  0.406502  1
  Th  Th6  1  0.502271  0.321350  0.593498  1
  Th  Th7  1  0.002271  0.178650  0.906502  1
  Sc  Sc8  1  0.336181  0.839762  0.875107  1
  Sc  Sc9  1  0.836181  0.660238  0.624893  1
  Sc  Sc10  1  0.663819  0.160238  0.375107  1
  Sc  Sc11  1  0.163819  0.339762  0.124893  1
  Sc  Sc12  1  0.663819  0.160238  0.124893  1
  Sc  Sc13  1  0.163819  0.339762  0.375107  1
  Sc  Sc14  1  0.336181  0.839762  0.624893  1
  Sc  Sc15  1  0.836181  0.660238  0.875107  1
  Sc  Sc16  1  0.174567  0.503623  0.750000  1
  Sc  Sc17  1  0.674567  0.996377  0.750000  1
  Sc  Sc18  1  0.825433  0.496377  0.250000  1
  Sc  Sc19  1  0.325433  0.003623  0.250000  1
  Tl  Tl20  1  0.322742  0.044535  0.043530  1
  Tl  Tl21  1  0.822742  0.455465  0.456470  1
  Tl  Tl22  1  0.677258  0.955465  0.543530  1
  Tl  Tl23  1  0.177258  0.544535  0.956470  1
  Tl  Tl24  1  0.677258  0.955465  0.956470  1
  Tl  Tl25  1  0.177258  0.544535  0.543530  1
  Tl  Tl26  1  0.322742  0.044535  0.456470  1
  Tl  Tl27  1  0.822742  0.455465  0.043530  1
  Tl  Tl28  1  0.532023  0.629299  0.750000  1
  Tl  Tl29  1  0.032023  0.870701  0.750000  1
  Tl  Tl30  1  0.467977  0.370701  0.250000  1
  Tl  Tl31  1  0.967977  0.129299  0.250000  1
  Tl  Tl32  1  0.306514  0.139313  0.750000  1
  Tl  Tl33  1  0.806514  0.360687  0.750000  1
  Tl  Tl34  1  0.693486  0.860687  0.250000  1
  Tl  Tl35  1  0.193486  0.639313  0.250000  1
