# generated using pymatgen
data_Dy5MgCr2(Co4P3)4
_symmetry_space_group_name_H-M   'P 1'
_cell_length_a   12.06407311
_cell_length_b   12.06407280
_cell_length_c   3.69068100
_cell_angle_alpha   90.00000000
_cell_angle_beta   90.00000000
_cell_angle_gamma   120.18086619
_symmetry_Int_Tables_number   1
_chemical_formula_structural   Dy5MgCr2(Co4P3)4
_chemical_formula_sum   'Dy5 Mg1 Cr2 Co16 P12'
_cell_volume   464.33417440
_cell_formula_units_Z   1
loop_
 _symmetry_equiv_pos_site_id
 _symmetry_equiv_pos_as_xyz
  1  'x, y, z'
loop_
 _atom_site_type_symbol
 _atom_site_label
 _atom_site_symmetry_multiplicity
 _atom_site_fract_x
 _atom_site_fract_y
 _atom_site_fract_z
 _atom_site_occupancy
  Dy  Dy0  1  0.668117  0.331021  0.000000  1
  Dy  Dy1  1  0.331021  0.668117  0.000000  1
  Dy  Dy2  1  0.183609  0.183609  0.500000  1
  Dy  Dy3  1  0.812486  0.001341  0.500000  1
  Dy  Dy4  1  0.001341  0.812486  0.500000  1
  Mg  Mg5  1  0.559022  0.559022  0.000000  1
  Cr  Cr6  1  0.444980  0.001837  0.000000  1
  Cr  Cr7  1  0.001837  0.444980  0.000000  1
  Co  Co8  1  0.823304  0.200346  0.000000  1
  Co  Co9  1  0.803475  0.622227  0.000000  1
  Co  Co10  1  0.374538  0.174291  0.000000  1
  Co  Co11  1  0.200346  0.823304  0.000000  1
  Co  Co12  1  0.622227  0.803475  0.000000  1
  Co  Co13  1  0.174291  0.374538  0.000000  1
  Co  Co14  1  0.644038  0.127761  0.500000  1
  Co  Co15  1  0.879783  0.518684  0.500000  1
  Co  Co16  1  0.481488  0.352588  0.500000  1
  Co  Co17  1  0.127761  0.644038  0.500000  1
  Co  Co18  1  0.518684  0.879783  0.500000  1
  Co  Co19  1  0.352588  0.481488  0.500000  1
  Co  Co20  1  0.718086  0.718086  0.500000  1
  Co  Co21  1  0.281926  0.998634  0.500000  1
  Co  Co22  1  0.998634  0.281926  0.500000  1
  Co  Co23  1  0.998322  0.998322  0.000000  1
  P  P24  1  0.358246  0.358246  0.000000  1
  P  P25  1  0.633433  0.002867  0.000000  1
  P  P26  1  0.002867  0.633433  0.000000  1
  P  P27  1  0.838285  0.317314  0.500000  1
  P  P28  1  0.691985  0.518038  0.500000  1
  P  P29  1  0.478420  0.162842  0.500000  1
  P  P30  1  0.317314  0.838285  0.500000  1
  P  P31  1  0.518038  0.691985  0.500000  1
  P  P32  1  0.162842  0.478420  0.500000  1
  P  P33  1  0.819562  0.819562  0.000000  1
  P  P34  1  0.178480  0.998624  0.000000  1
  P  P35  1  0.998624  0.178480  0.000000  1
