# generated using pymatgen
data_Ce2Dy3Os2
_symmetry_space_group_name_H-M   'P 1'
_cell_length_a   6.41540187
_cell_length_b   7.16544766
_cell_length_c   8.75389226
_cell_angle_alpha   95.74947058
_cell_angle_beta   111.49570401
_cell_angle_gamma   90.00000103
_symmetry_Int_Tables_number   1
_chemical_formula_structural   Ce2Dy3Os2
_chemical_formula_sum   'Ce4 Dy6 Os4'
_cell_volume   372.24354227
_cell_formula_units_Z   2
loop_
 _symmetry_equiv_pos_site_id
 _symmetry_equiv_pos_as_xyz
  1  'x, y, z'
loop_
 _atom_site_type_symbol
 _atom_site_label
 _atom_site_symmetry_multiplicity
 _atom_site_fract_x
 _atom_site_fract_y
 _atom_site_fract_z
 _atom_site_occupancy
  Ce  Ce0  1  0.795988  0.093707  0.813587  1
  Ce  Ce1  1  0.982401  0.406293  0.186413  1
  Ce  Ce2  1  0.204012  0.906293  0.186413  1
  Ce  Ce3  1  0.017599  0.593707  0.813587  1
  Dy  Dy4  1  0.208198  0.181245  0.566423  1
  Dy  Dy5  1  0.641775  0.318755  0.433577  1
  Dy  Dy6  1  0.791802  0.818755  0.433577  1
  Dy  Dy7  1  0.358225  0.681245  0.566423  1
  Dy  Dy8  1  0.423258  0.250000  0.000000  1
  Dy  Dy9  1  0.576742  0.750000  0.000000  1
  Os  Os10  1  0.622153  0.413466  0.779893  1
  Os  Os11  1  0.842259  0.086534  0.220107  1
  Os  Os12  1  0.377847  0.586534  0.220107  1
  Os  Os13  1  0.157741  0.913466  0.779893  1
