# generated using pymatgen
data_La2Y10Lu8Si15Au
_symmetry_space_group_name_H-M   'P 1'
_cell_length_a   7.36707802
_cell_length_b   7.75537701
_cell_length_c   14.54124400
_cell_angle_alpha   89.72466750
_cell_angle_beta   90.00414529
_cell_angle_gamma   89.98018347
_symmetry_Int_Tables_number   1
_chemical_formula_structural   La2Y10Lu8Si15Au
_chemical_formula_sum   'La2 Y10 Lu8 Si15 Au1'
_cell_volume   830.79658812
_cell_formula_units_Z   1
loop_
 _symmetry_equiv_pos_site_id
 _symmetry_equiv_pos_as_xyz
  1  'x, y, z'
loop_
 _atom_site_type_symbol
 _atom_site_label
 _atom_site_symmetry_multiplicity
 _atom_site_fract_x
 _atom_site_fract_y
 _atom_site_fract_z
 _atom_site_occupancy
  La  La0  1  0.518075  0.571850  0.342497  1
  La  La1  1  0.017978  0.424730  0.657516  1
  Y  Y2  1  0.652834  0.235927  0.999040  1
  Y  Y3  1  0.156482  0.759073  0.000718  1
  Y  Y4  1  0.343317  0.260890  0.500106  1
  Y  Y5  1  0.844437  0.737076  0.499772  1
  Y  Y6  1  0.481766  0.934382  0.843084  1
  Y  Y7  1  0.982555  0.072512  0.153896  1
  Y  Y8  1  0.479027  0.936079  0.156061  1
  Y  Y9  1  0.980723  0.071787  0.846740  1
  Y  Y10  1  0.520858  0.568173  0.653279  1
  Y  Y11  1  0.017792  0.428078  0.345376  1
  Lu  Lu12  1  0.818528  0.574387  0.872864  1
  Lu  Lu13  1  0.319075  0.424792  0.127370  1
  Lu  Lu14  1  0.178301  0.926262  0.373828  1
  Lu  Lu15  1  0.677554  0.070006  0.626413  1
  Lu  Lu16  1  0.177681  0.926719  0.627461  1
  Lu  Lu17  1  0.676197  0.070350  0.372469  1
  Lu  Lu18  1  0.822869  0.570496  0.127533  1
  Lu  Lu19  1  0.323240  0.428578  0.872393  1
  Si  Si20  1  0.028441  0.360249  0.000074  1
  Si  Si21  1  0.471402  0.864384  0.501429  1
  Si  Si22  1  0.969867  0.131774  0.499034  1
  Si  Si23  1  0.654579  0.279466  0.789814  1
  Si  Si24  1  0.153331  0.720631  0.209690  1
  Si  Si25  1  0.342613  0.212490  0.287418  1
  Si  Si26  1  0.846510  0.786535  0.713007  1
  Si  Si27  1  0.353831  0.215030  0.711672  1
  Si  Si28  1  0.854621  0.784501  0.287387  1
  Si  Si29  1  0.655633  0.274631  0.208768  1
  Si  Si30  1  0.152496  0.725904  0.792007  1
  Si  Si31  1  0.779062  0.881088  0.000201  1
  Si  Si32  1  0.267772  0.129333  0.999786  1
  Si  Si33  1  0.226546  0.628187  0.502069  1
  Si  Si34  1  0.726360  0.369626  0.498483  1
  Au  Au35  1  0.527644  0.644023  0.000741  1
