# generated using pymatgen
data_La7Tb4Nd9Sn16
_symmetry_space_group_name_H-M   'P 1'
_cell_length_a   8.26749309
_cell_length_b   8.42625558
_cell_length_c   15.99565600
_cell_angle_alpha   90.01344295
_cell_angle_beta   90.20338242
_cell_angle_gamma   89.85398447
_symmetry_Int_Tables_number   1
_chemical_formula_structural   La7Tb4Nd9Sn16
_chemical_formula_sum   'La7 Tb4 Nd9 Sn16'
_cell_volume   1114.31086792
_cell_formula_units_Z   1
loop_
 _symmetry_equiv_pos_site_id
 _symmetry_equiv_pos_as_xyz
  1  'x, y, z'
loop_
 _atom_site_type_symbol
 _atom_site_label
 _atom_site_symmetry_multiplicity
 _atom_site_fract_x
 _atom_site_fract_y
 _atom_site_fract_z
 _atom_site_occupancy
  La  La0  1  0.014098  0.181054  0.597965  1
  La  La1  1  0.486231  0.680552  0.403268  1
  La  La2  1  0.985077  0.818906  0.096858  1
  La  La3  1  0.484522  0.679838  0.096777  1
  La  La4  1  0.986331  0.819322  0.403208  1
  La  La5  1  0.513721  0.319969  0.597316  1
  La  La6  1  0.014777  0.181442  0.902376  1
  Tb  Tb7  1  0.194337  0.501831  0.750556  1
  Tb  Tb8  1  0.693573  0.998272  0.750645  1
  Tb  Tb9  1  0.805431  0.497755  0.249602  1
  Tb  Tb10  1  0.305953  0.002010  0.249817  1
  Nd  Nd11  1  0.362509  0.836845  0.878210  1
  Nd  Nd12  1  0.860721  0.663596  0.621905  1
  Nd  Nd13  1  0.639387  0.163820  0.377952  1
  Nd  Nd14  1  0.137553  0.337501  0.120306  1
  Nd  Nd15  1  0.637292  0.162952  0.121416  1
  Nd  Nd16  1  0.139176  0.336590  0.378642  1
  Nd  Nd17  1  0.360763  0.836336  0.622707  1
  Nd  Nd18  1  0.862405  0.662476  0.879286  1
  Nd  Nd19  1  0.516769  0.319807  0.901263  1
  Sn  Sn20  1  0.298629  0.036679  0.043197  1
  Sn  Sn21  1  0.800041  0.462748  0.456711  1
  Sn  Sn22  1  0.699145  0.963445  0.543617  1
  Sn  Sn23  1  0.205178  0.534762  0.955305  1
  Sn  Sn24  1  0.700859  0.964741  0.956159  1
  Sn  Sn25  1  0.199555  0.537893  0.543575  1
  Sn  Sn26  1  0.300888  0.036969  0.456986  1
  Sn  Sn27  1  0.795290  0.461590  0.042658  1
  Sn  Sn28  1  0.560088  0.616838  0.750619  1
  Sn  Sn29  1  0.059322  0.882311  0.750298  1
  Sn  Sn30  1  0.439633  0.382472  0.249810  1
  Sn  Sn31  1  0.940748  0.118048  0.249584  1
  Sn  Sn32  1  0.321646  0.145792  0.750939  1
  Sn  Sn33  1  0.818788  0.355701  0.750310  1
  Sn  Sn34  1  0.679647  0.854883  0.250095  1
  Sn  Sn35  1  0.179919  0.644253  0.250063  1
