# generated using pymatgen
data_Be8V2CrRu
_symmetry_space_group_name_H-M   'P 1'
_cell_length_a   4.28392400
_cell_length_b   4.28392312
_cell_length_c   7.02346500
_cell_angle_alpha   90.00000000
_cell_angle_beta   90.00000000
_cell_angle_gamma   120.00000677
_symmetry_Int_Tables_number   1
_chemical_formula_structural   Be8V2CrRu
_chemical_formula_sum   'Be8 V2 Cr1 Ru1'
_cell_volume   111.62602269
_cell_formula_units_Z   1
loop_
 _symmetry_equiv_pos_site_id
 _symmetry_equiv_pos_as_xyz
  1  'x, y, z'
loop_
 _atom_site_type_symbol
 _atom_site_label
 _atom_site_symmetry_multiplicity
 _atom_site_fract_x
 _atom_site_fract_y
 _atom_site_fract_z
 _atom_site_occupancy
  Be  Be0  1  0.000000  0.000000  0.999841  1
  Be  Be1  1  0.000000  0.000000  0.500841  1
  Be  Be2  1  0.830332  0.660663  0.247724  1
  Be  Be3  1  0.169218  0.830782  0.753025  1
  Be  Be4  1  0.661564  0.830782  0.753025  1
  Be  Be5  1  0.339337  0.169668  0.247724  1
  Be  Be6  1  0.830332  0.169668  0.247724  1
  Be  Be7  1  0.169218  0.338436  0.753025  1
  V  V8  1  0.333333  0.666667  0.060903  1
  V  V9  1  0.666667  0.333333  0.566751  1
  Cr  Cr10  1  0.666667  0.333333  0.933688  1
  Ru  Ru11  1  0.333333  0.666667  0.435730  1
