# generated using pymatgen
data_SmHo3Al15(SiRh2)3
_symmetry_space_group_name_H-M   'P 1'
_cell_length_a   7.53377379
_cell_length_b   7.49099000
_cell_length_c   9.40071924
_cell_angle_alpha   89.98699512
_cell_angle_beta   89.93297861
_cell_angle_gamma   119.74387135
_symmetry_Int_Tables_number   1
_chemical_formula_structural   SmHo3Al15(SiRh2)3
_chemical_formula_sum   'Sm1 Ho3 Al15 Si3 Rh6'
_cell_volume   460.63626556
_cell_formula_units_Z   1
loop_
 _symmetry_equiv_pos_site_id
 _symmetry_equiv_pos_as_xyz
  1  'x, y, z'
loop_
 _atom_site_type_symbol
 _atom_site_label
 _atom_site_symmetry_multiplicity
 _atom_site_fract_x
 _atom_site_fract_y
 _atom_site_fract_z
 _atom_site_occupancy
  Sm  Sm0  1  0.320788  0.993314  0.750002  1
  Ho  Ho1  1  0.994103  0.664200  0.247288  1
  Ho  Ho2  1  0.006150  0.341649  0.753934  1
  Ho  Ho3  1  0.675752  0.001275  0.247861  1
  Al  Al4  1  0.128253  0.126233  0.250057  1
  Al  Al5  1  0.870635  0.871386  0.749370  1
  Al  Al6  1  0.338973  0.002481  0.422041  1
  Al  Al7  1  0.001212  0.330444  0.429596  1
  Al  Al8  1  0.667229  0.002235  0.574371  1
  Al  Al9  1  0.663348  0.998313  0.923387  1
  Al  Al10  1  0.338655  0.002733  0.078262  1
  Al  Al11  1  0.332953  0.332001  0.553664  1
  Al  Al12  1  0.664492  0.668258  0.445755  1
  Al  Al13  1  0.663802  0.667926  0.055785  1
  Al  Al14  1  0.335039  0.332603  0.946820  1
  Al  Al15  1  0.338094  0.550938  0.250209  1
  Al  Al16  1  0.663128  0.451367  0.750270  1
  Al  Al17  1  0.549023  0.343846  0.250098  1
  Al  Al18  1  0.454832  0.656612  0.749740  1
  Si  Si19  1  0.001852  0.328969  0.075615  1
  Si  Si20  1  0.995717  0.670185  0.931920  1
  Si  Si21  1  0.996850  0.664095  0.563452  1
  Rh  Rh22  1  0.689044  0.337288  0.002029  1
  Rh  Rh23  1  0.310716  0.662613  0.998034  1
  Rh  Rh24  1  0.319389  0.670038  0.502081  1
  Rh  Rh25  1  0.680123  0.336155  0.498879  1
  Rh  Rh26  1  0.999332  0.000014  0.000040  1
  Rh  Rh27  1  0.000514  0.992827  0.499438  1
