# generated using pymatgen
data_Pa2Co5NiSn2
_symmetry_space_group_name_H-M   'P 1'
_cell_length_a   5.27841984
_cell_length_b   7.20538800
_cell_length_c   8.26130737
_cell_angle_alpha   90.00000000
_cell_angle_beta   91.76937203
_cell_angle_gamma   90.00000000
_symmetry_Int_Tables_number   1
_chemical_formula_structural   Pa2Co5NiSn2
_chemical_formula_sum   'Pa4 Co10 Ni2 Sn4'
_cell_volume   314.05301438
_cell_formula_units_Z   2
loop_
 _symmetry_equiv_pos_site_id
 _symmetry_equiv_pos_as_xyz
  1  'x, y, z'
loop_
 _atom_site_type_symbol
 _atom_site_label
 _atom_site_symmetry_multiplicity
 _atom_site_fract_x
 _atom_site_fract_y
 _atom_site_fract_z
 _atom_site_occupancy
  Pa  Pa0  1  0.758854  0.894710  0.840887  1
  Pa  Pa1  1  0.741146  0.394710  0.659113  1
  Pa  Pa2  1  0.263366  0.114270  0.148871  1
  Pa  Pa3  1  0.236634  0.614270  0.351129  1
  Co  Co4  1  0.733808  0.571352  0.391186  1
  Co  Co5  1  0.766192  0.071352  0.108814  1
  Co  Co6  1  0.241337  0.425689  0.607123  1
  Co  Co7  1  0.258663  0.925689  0.892877  1
  Co  Co8  1  0.496886  0.736002  0.621567  1
  Co  Co9  1  0.003114  0.236002  0.878433  1
  Co  Co10  1  0.997639  0.740559  0.621955  1
  Co  Co11  1  0.502361  0.240559  0.878045  1
  Co  Co12  1  0.480460  0.256271  0.374832  1
  Co  Co13  1  0.019540  0.756271  0.125168  1
  Ni  Ni14  1  0.977868  0.262863  0.381041  1
  Ni  Ni15  1  0.522132  0.762863  0.118959  1
  Sn  Sn16  1  0.747195  0.932287  0.395899  1
  Sn  Sn17  1  0.752805  0.432287  0.104101  1
  Sn  Sn18  1  0.251569  0.065997  0.606899  1
  Sn  Sn19  1  0.248431  0.565997  0.893101  1
