# generated using pymatgen
data_Nb3Pd8Pt
_symmetry_space_group_name_H-M   'P 1'
_cell_length_a   5.56057900
_cell_length_b   13.81881400
_cell_length_c   4.93789200
_cell_angle_alpha   90.00000000
_cell_angle_beta   90.00000000
_cell_angle_gamma   90.00000000
_symmetry_Int_Tables_number   1
_chemical_formula_structural   Nb3Pd8Pt
_chemical_formula_sum   'Nb6 Pd16 Pt2'
_cell_volume   379.43061825
_cell_formula_units_Z   2
loop_
 _symmetry_equiv_pos_site_id
 _symmetry_equiv_pos_as_xyz
  1  'x, y, z'
loop_
 _atom_site_type_symbol
 _atom_site_label
 _atom_site_symmetry_multiplicity
 _atom_site_fract_x
 _atom_site_fract_y
 _atom_site_fract_z
 _atom_site_occupancy
  Nb  Nb0  1  0.499999  0.500000  0.012800  1
  Nb  Nb1  1  0.000000  0.336482  0.330314  1
  Nb  Nb2  1  0.000000  0.663518  0.330314  1
  Nb  Nb3  1  0.499999  0.163518  0.669686  1
  Nb  Nb4  1  0.499999  0.836482  0.669686  1
  Nb  Nb5  1  0.000000  0.000000  0.987200  1
  Pd  Pd6  1  0.248217  0.167750  0.164406  1
  Pd  Pd7  1  0.751782  0.167750  0.164406  1
  Pd  Pd8  1  0.248217  0.832251  0.164406  1
  Pd  Pd9  1  0.751782  0.832251  0.164406  1
  Pd  Pd10  1  0.499999  0.333932  0.338007  1
  Pd  Pd11  1  0.499999  0.666067  0.338007  1
  Pd  Pd12  1  0.247853  0.000000  0.485214  1
  Pd  Pd13  1  0.752146  0.000000  0.485214  1
  Pd  Pd14  1  0.252146  0.500000  0.514786  1
  Pd  Pd15  1  0.747854  0.500000  0.514786  1
  Pd  Pd16  1  0.000000  0.166067  0.661993  1
  Pd  Pd17  1  0.000000  0.833933  0.661993  1
  Pd  Pd18  1  0.251782  0.332250  0.835594  1
  Pd  Pd19  1  0.748218  0.332250  0.835594  1
  Pd  Pd20  1  0.251782  0.667750  0.835594  1
  Pd  Pd21  1  0.748218  0.667750  0.835594  1
  Pt  Pt22  1  0.000000  0.500000  0.026306  1
  Pt  Pt23  1  0.499999  0.000000  0.973694  1
