# generated using pymatgen
data_Hf3Zr5Co4(Si7Rh2)2
_symmetry_space_group_name_H-M   'P 1'
_cell_length_a   9.59381658
_cell_length_b   9.59382410
_cell_length_c   9.59394704
_cell_angle_alpha   94.28751783
_cell_angle_beta   94.28601258
_cell_angle_gamma   148.25686070
_symmetry_Int_Tables_number   1
_chemical_formula_structural   Hf3Zr5Co4(Si7Rh2)2
_chemical_formula_sum   'Hf3 Zr5 Co4 Si14 Rh4'
_cell_volume   446.88833001
_cell_formula_units_Z   1
loop_
 _symmetry_equiv_pos_site_id
 _symmetry_equiv_pos_as_xyz
  1  'x, y, z'
loop_
 _atom_site_type_symbol
 _atom_site_label
 _atom_site_symmetry_multiplicity
 _atom_site_fract_x
 _atom_site_fract_y
 _atom_site_fract_z
 _atom_site_occupancy
  Hf  Hf0  1  0.136947  0.137227  0.274074  1
  Hf  Hf1  1  0.862775  0.863051  0.725923  1
  Hf  Hf2  1  0.863063  0.136955  0.000003  1
  Zr  Zr3  1  0.136533  0.863451  0.999998  1
  Zr  Zr4  1  0.498268  0.305300  0.806396  1
  Zr  Zr5  1  0.498522  0.691559  0.193092  1
  Zr  Zr6  1  0.694703  0.501741  0.193594  1
  Zr  Zr7  1  0.308434  0.501471  0.806906  1
  Co  Co8  1  0.598146  0.401854  0.499993  1
  Co  Co9  1  0.901798  0.098203  0.499989  1
  Co  Co10  1  0.901739  0.401114  0.803205  1
  Co  Co11  1  0.598898  0.098283  0.196815  1
  Si  Si12  1  0.542025  0.132793  0.590813  1
  Si  Si13  1  0.542227  0.951369  0.409281  1
  Si  Si14  1  0.867209  0.457983  0.409198  1
  Si  Si15  1  0.048633  0.457781  0.590731  1
  Si  Si16  1  0.750395  0.751056  0.999991  1
  Si  Si17  1  0.248942  0.249597  0.999999  1
  Si  Si18  1  0.291525  0.291599  0.583147  1
  Si  Si19  1  0.708405  0.708481  0.416856  1
  Si  Si20  1  0.708675  0.291322  0.000000  1
  Si  Si21  1  0.291606  0.708409  0.000003  1
  Si  Si22  1  0.979184  0.274120  0.294949  1
  Si  Si23  1  0.978752  0.683491  0.704177  1
  Si  Si24  1  0.725900  0.020839  0.705049  1
  Si  Si25  1  0.316508  0.021260  0.295810  1
  Rh  Rh26  1  0.392732  0.892414  0.785402  1
  Rh  Rh27  1  0.107509  0.607210  0.214612  1
  Rh  Rh28  1  0.107111  0.892904  0.499992  1
  Rh  Rh29  1  0.392834  0.607168  0.500004  1
