# generated using pymatgen
data_Er2Be2Co5
_symmetry_space_group_name_H-M   'P 1'
_cell_length_a   4.96304178
_cell_length_b   4.96304260
_cell_length_c   11.44887127
_cell_angle_alpha   77.48189529
_cell_angle_beta   77.48189333
_cell_angle_gamma   59.99999127
_symmetry_Int_Tables_number   1
_chemical_formula_structural   Er2Be2Co5
_chemical_formula_sum   'Er4 Be4 Co10'
_cell_volume   236.45172607
_cell_formula_units_Z   2
loop_
 _symmetry_equiv_pos_site_id
 _symmetry_equiv_pos_as_xyz
  1  'x, y, z'
loop_
 _atom_site_type_symbol
 _atom_site_label
 _atom_site_symmetry_multiplicity
 _atom_site_fract_x
 _atom_site_fract_y
 _atom_site_fract_z
 _atom_site_occupancy
  Er  Er0  1  0.949629  0.949629  0.151110  1
  Er  Er1  1  0.050371  0.050371  0.848890  1
  Er  Er2  1  0.852075  0.852075  0.443774  1
  Er  Er3  1  0.147925  0.147925  0.556227  1
  Be  Be4  1  0.718398  0.718398  0.844808  1
  Be  Be5  1  0.281602  0.281602  0.155192  1
  Be  Be6  1  0.614407  0.614407  0.156782  1
  Be  Be7  1  0.385593  0.385593  0.843218  1
  Co  Co8  1  0.500000  0.500000  0.500000  1
  Co  Co9  1  0.000000  0.500000  0.000000  1
  Co  Co10  1  0.500000  0.000000  0.000000  1
  Co  Co11  1  0.500000  0.500000  0.000000  1
  Co  Co12  1  0.394235  0.394235  0.315421  1
  Co  Co13  1  0.896108  0.394235  0.315421  1
  Co  Co14  1  0.394235  0.896108  0.315421  1
  Co  Co15  1  0.605765  0.605765  0.684579  1
  Co  Co16  1  0.103892  0.605765  0.684579  1
  Co  Co17  1  0.605765  0.103892  0.684579  1
