# generated using pymatgen
data_SmAgRh2O7
_symmetry_space_group_name_H-M   'P 1'
_cell_length_a   7.23727882
_cell_length_b   7.23727849
_cell_length_c   7.40229600
_cell_angle_alpha   59.24282783
_cell_angle_beta   59.24282942
_cell_angle_gamma   59.30111293
_symmetry_Int_Tables_number   1
_chemical_formula_structural   SmAgRh2O7
_chemical_formula_sum   'Sm2 Ag2 Rh4 O14'
_cell_volume   269.55202778
_cell_formula_units_Z   2
loop_
 _symmetry_equiv_pos_site_id
 _symmetry_equiv_pos_as_xyz
  1  'x, y, z'
loop_
 _atom_site_type_symbol
 _atom_site_label
 _atom_site_symmetry_multiplicity
 _atom_site_fract_x
 _atom_site_fract_y
 _atom_site_fract_z
 _atom_site_occupancy
  Sm  Sm0  1  0.125000  0.125000  0.125000  1
  Sm  Sm1  1  0.125000  0.125000  0.625000  1
  Ag  Ag2  1  0.625000  0.125000  0.125000  1
  Ag  Ag3  1  0.125000  0.625000  0.125000  1
  Rh  Rh4  1  0.625000  0.625000  0.125000  1
  Rh  Rh5  1  0.625000  0.625000  0.625000  1
  Rh  Rh6  1  0.625000  0.125000  0.625000  1
  Rh  Rh7  1  0.125000  0.625000  0.625000  1
  O  O8  1  0.708144  0.295218  0.299416  1
  O  O9  1  0.708144  0.295218  0.697222  1
  O  O10  1  0.985101  0.985101  0.014899  1
  O  O11  1  0.295218  0.708144  0.299416  1
  O  O12  1  0.697204  0.697204  0.302796  1
  O  O13  1  0.954782  0.541856  0.552778  1
  O  O14  1  0.295218  0.708144  0.697222  1
  O  O15  1  0.264899  0.264899  0.235101  1
  O  O16  1  0.954782  0.541856  0.950584  1
  O  O17  1  0.541856  0.954782  0.552778  1
  O  O18  1  0.552796  0.552796  0.947204  1
  O  O19  1  0.963488  0.963488  0.536512  1
  O  O20  1  0.541856  0.954782  0.950584  1
  O  O21  1  0.286512  0.286512  0.713488  1
