# generated using pymatgen
data_SrSm3(Rh2O7)2
_symmetry_space_group_name_H-M   'P 1'
_cell_length_a   7.35660045
_cell_length_b   7.33865739
_cell_length_c   7.35660000
_cell_angle_alpha   59.91908888
_cell_angle_beta   60.00000200
_cell_angle_gamma   59.91908560
_symmetry_Int_Tables_number   1
_chemical_formula_structural   SrSm3(Rh2O7)2
_chemical_formula_sum   'Sr1 Sm3 Rh4 O14'
_cell_volume   280.49408609
_cell_formula_units_Z   1
loop_
 _symmetry_equiv_pos_site_id
 _symmetry_equiv_pos_as_xyz
  1  'x, y, z'
loop_
 _atom_site_type_symbol
 _atom_site_label
 _atom_site_symmetry_multiplicity
 _atom_site_fract_x
 _atom_site_fract_y
 _atom_site_fract_z
 _atom_site_occupancy
  Sr  Sr0  1  0.125000  0.625000  0.125000  1
  Sm  Sm1  1  0.125000  0.125000  0.125000  1
  Sm  Sm2  1  0.625000  0.125000  0.125000  1
  Sm  Sm3  1  0.125000  0.125000  0.625000  1
  Rh  Rh4  1  0.625000  0.625000  0.625000  1
  Rh  Rh5  1  0.625000  0.625000  0.125000  1
  Rh  Rh6  1  0.125000  0.625000  0.625000  1
  Rh  Rh7  1  0.625000  0.125000  0.625000  1
  O  O8  1  0.255272  0.234186  0.255272  1
  O  O9  1  0.297256  0.711661  0.297256  1
  O  O10  1  0.955260  0.957414  0.543663  1
  O  O11  1  0.543663  0.957414  0.543663  1
  O  O12  1  0.693828  0.711661  0.297256  1
  O  O13  1  0.952744  0.538339  0.556172  1
  O  O14  1  0.706337  0.292586  0.706337  1
  O  O15  1  0.294740  0.292586  0.706337  1
  O  O16  1  0.706337  0.292586  0.294740  1
  O  O17  1  0.297256  0.711661  0.693828  1
  O  O18  1  0.952744  0.538339  0.952744  1
  O  O19  1  0.556172  0.538339  0.952744  1
  O  O20  1  0.994728  0.015814  0.994728  1
  O  O21  1  0.543663  0.957414  0.955260  1
