# generated using pymatgen
data_SmEr4Th3(ReB6)4
_symmetry_space_group_name_H-M   'P 1'
_cell_length_a   3.74358600
_cell_length_b   9.22323261
_cell_length_c   11.65623804
_cell_angle_alpha   89.93228136
_cell_angle_beta   90.00000000
_cell_angle_gamma   90.00000000
_symmetry_Int_Tables_number   1
_chemical_formula_structural   SmEr4Th3(ReB6)4
_chemical_formula_sum   'Sm1 Er4 Th3 Re4 B24'
_cell_volume   402.46589170
_cell_formula_units_Z   1
loop_
 _symmetry_equiv_pos_site_id
 _symmetry_equiv_pos_as_xyz
  1  'x, y, z'
loop_
 _atom_site_type_symbol
 _atom_site_label
 _atom_site_symmetry_multiplicity
 _atom_site_fract_x
 _atom_site_fract_y
 _atom_site_fract_z
 _atom_site_occupancy
  Sm  Sm0  1  0.000000  0.322727  0.413754  1
  Er  Er1  1  0.000000  0.944924  0.371734  1
  Er  Er2  1  0.000000  0.056899  0.627562  1
  Er  Er3  1  0.000000  0.443967  0.128627  1
  Er  Er4  1  0.000000  0.554945  0.872697  1
  Th  Th5  1  0.000000  0.676053  0.585335  1
  Th  Th6  1  0.000000  0.821597  0.086083  1
  Th  Th7  1  0.000000  0.178434  0.914605  1
  Re  Re8  1  0.000000  0.640171  0.319736  1
  Re  Re9  1  0.000000  0.360361  0.680449  1
  Re  Re10  1  0.000000  0.138459  0.180207  1
  Re  Re11  1  0.000000  0.860733  0.819402  1
  B  B12  1  0.500000  0.555232  0.430176  1
  B  B13  1  0.500000  0.443776  0.569159  1
  B  B14  1  0.500000  0.056229  0.070637  1
  B  B15  1  0.500000  0.943735  0.929286  1
  B  B16  1  0.500000  0.749579  0.416414  1
  B  B17  1  0.500000  0.250199  0.582494  1
  B  B18  1  0.500000  0.250659  0.083934  1
  B  B19  1  0.500000  0.749490  0.916509  1
  B  B20  1  0.500000  0.791500  0.266707  1
  B  B21  1  0.500000  0.208760  0.733047  1
  B  B22  1  0.500000  0.292277  0.234186  1
  B  B23  1  0.500000  0.708420  0.766396  1
  B  B24  1  0.500000  0.630153  0.186390  1
  B  B25  1  0.500000  0.369383  0.813894  1
  B  B26  1  0.500000  0.131335  0.314787  1
  B  B27  1  0.500000  0.869495  0.685754  1
  B  B28  1  0.500000  0.985453  0.214437  1
  B  B29  1  0.500000  0.014956  0.785618  1
  B  B30  1  0.500000  0.483972  0.286228  1
  B  B31  1  0.500000  0.514440  0.713736  1
  B  B32  1  0.500000  0.602246  0.028167  1
  B  B33  1  0.500000  0.397715  0.972413  1
  B  B34  1  0.500000  0.101655  0.471894  1
  B  B35  1  0.500000  0.900072  0.527544  1
