# generated using pymatgen
data_Y3Hf2Sc(SnRh)6
_symmetry_space_group_name_H-M   'P 1'
_cell_length_a   7.48685329
_cell_length_b   7.45939245
_cell_length_c   7.54399000
_cell_angle_alpha   90.00000000
_cell_angle_beta   90.00000000
_cell_angle_gamma   119.86444845
_symmetry_Int_Tables_number   1
_chemical_formula_structural   Y3Hf2Sc(SnRh)6
_chemical_formula_sum   'Y3 Hf2 Sc1 Sn6 Rh6'
_cell_volume   365.36429333
_cell_formula_units_Z   1
loop_
 _symmetry_equiv_pos_site_id
 _symmetry_equiv_pos_as_xyz
  1  'x, y, z'
loop_
 _atom_site_type_symbol
 _atom_site_label
 _atom_site_symmetry_multiplicity
 _atom_site_fract_x
 _atom_site_fract_y
 _atom_site_fract_z
 _atom_site_occupancy
  Y  Y0  1  0.999944  0.404926  0.750000  1
  Y  Y1  1  0.591845  0.595046  0.750000  1
  Y  Y2  1  0.408246  0.003442  0.750000  1
  Hf  Hf3  1  0.606657  0.603373  0.250000  1
  Hf  Hf4  1  0.393702  0.997221  0.250000  1
  Sc  Sc5  1  0.999497  0.396185  0.250000  1
  Sn  Sn6  1  0.263155  0.266027  0.489902  1
  Sn  Sn7  1  0.000269  0.730199  0.495331  1
  Sn  Sn8  1  0.000269  0.730199  0.004669  1
  Sn  Sn9  1  0.736494  0.002803  0.490213  1
  Sn  Sn10  1  0.736494  0.002803  0.009787  1
  Sn  Sn11  1  0.263155  0.266027  0.010098  1
  Rh  Rh12  1  0.339638  0.672063  0.462351  1
  Rh  Rh13  1  0.660443  0.332542  0.462597  1
  Rh  Rh14  1  0.339638  0.672063  0.037649  1
  Rh  Rh15  1  0.000113  0.000537  0.750000  1
  Rh  Rh16  1  0.999997  0.992002  0.250000  1
  Rh  Rh17  1  0.660443  0.332542  0.037403  1
