# generated using pymatgen
data_Ti2(SiMo)3
_symmetry_space_group_name_H-M   'P 1'
_cell_length_a   7.32240163
_cell_length_b   7.32240142
_cell_length_c   7.32240055
_cell_angle_alpha   96.64763262
_cell_angle_beta   96.64763750
_cell_angle_gamma   140.21705593
_symmetry_Int_Tables_number   1
_chemical_formula_structural   Ti2(SiMo)3
_chemical_formula_sum   'Ti4 Si6 Mo6'
_cell_volume   236.23492070
_cell_formula_units_Z   2
loop_
 _symmetry_equiv_pos_site_id
 _symmetry_equiv_pos_as_xyz
  1  'x, y, z'
loop_
 _atom_site_type_symbol
 _atom_site_label
 _atom_site_symmetry_multiplicity
 _atom_site_fract_x
 _atom_site_fract_y
 _atom_site_fract_z
 _atom_site_occupancy
  Ti  Ti0  1  0.724814  0.576365  0.301177  1
  Ti  Ti1  1  0.275186  0.423635  0.698823  1
  Ti  Ti2  1  0.576365  0.275186  0.851551  1
  Ti  Ti3  1  0.423635  0.724814  0.148449  1
  Si  Si4  1  0.165763  0.666895  0.832657  1
  Si  Si5  1  0.333105  0.165763  0.498868  1
  Si  Si6  1  0.666895  0.834237  0.501132  1
  Si  Si7  1  0.834237  0.333105  0.167343  1
  Si  Si8  1  0.753656  0.753656  0.000000  1
  Si  Si9  1  0.246344  0.246344  0.000000  1
  Mo  Mo10  1  0.074965  0.221592  0.296555  1
  Mo  Mo11  1  0.778408  0.074965  0.853373  1
  Mo  Mo12  1  0.221592  0.925035  0.146627  1
  Mo  Mo13  1  0.925035  0.778408  0.703445  1
  Mo  Mo14  1  0.750000  0.250000  0.500000  1
  Mo  Mo15  1  0.250000  0.750000  0.500000  1
