# generated using pymatgen
data_Er2TmAg3PtPb2
_symmetry_space_group_name_H-M   'P 1'
_cell_length_a   8.20007922
_cell_length_b   8.20698508
_cell_length_c   3.62648900
_cell_angle_alpha   90.00000000
_cell_angle_beta   90.00000000
_cell_angle_gamma   120.03452889
_symmetry_Int_Tables_number   1
_chemical_formula_structural   Er2TmAg3PtPb2
_chemical_formula_sum   'Er2 Tm1 Ag3 Pt1 Pb2'
_cell_volume   211.28442133
_cell_formula_units_Z   1
loop_
 _symmetry_equiv_pos_site_id
 _symmetry_equiv_pos_as_xyz
  1  'x, y, z'
loop_
 _atom_site_type_symbol
 _atom_site_label
 _atom_site_symmetry_multiplicity
 _atom_site_fract_x
 _atom_site_fract_y
 _atom_site_fract_z
 _atom_site_occupancy
  Er  Er0  1  0.580313  0.953549  0.500000  1
  Er  Er1  1  0.373066  0.419645  0.500000  1
  Tm  Tm2  1  0.048071  0.627228  0.500000  1
  Ag  Ag3  1  0.707403  0.708587  0.000000  1
  Ag  Ag4  1  0.001212  0.293273  0.000000  1
  Ag  Ag5  1  0.290465  0.997585  0.000000  1
  Pt  Pt6  1  0.333014  0.666692  0.000000  1
  Pb  Pb7  1  0.999844  0.000018  0.500000  1
  Pb  Pb8  1  0.666611  0.333424  0.000000  1
