# generated using pymatgen
data_NdCu2Bi2TeSeO4
_symmetry_space_group_name_H-M   'P 1'
_cell_length_a   12.93479521
_cell_length_b   3.95522195
_cell_length_c   3.95522200
_cell_angle_alpha   90.00000000
_cell_angle_beta   98.79448916
_cell_angle_gamma   98.79448664
_symmetry_Int_Tables_number   1
_chemical_formula_structural   NdCu2Bi2TeSeO4
_chemical_formula_sum   'Nd1 Cu2 Bi2 Te1 Se1 O4'
_cell_volume   197.56245795
_cell_formula_units_Z   1
loop_
 _symmetry_equiv_pos_site_id
 _symmetry_equiv_pos_as_xyz
  1  'x, y, z'
loop_
 _atom_site_type_symbol
 _atom_site_label
 _atom_site_symmetry_multiplicity
 _atom_site_fract_x
 _atom_site_fract_y
 _atom_site_fract_z
 _atom_site_occupancy
  Nd  Nd0  1  0.994494  0.997247  0.997247  1
  Cu  Cu1  1  0.513297  0.756648  0.256648  1
  Cu  Cu2  1  0.513297  0.256648  0.756648  1
  Bi  Bi3  1  0.792206  0.396102  0.396102  1
  Bi  Bi4  1  0.197256  0.598628  0.598628  1
  Te  Te5  1  0.377425  0.188712  0.188712  1
  Se  Se6  1  0.629919  0.814959  0.814959  1
  O  O7  1  0.111380  0.555688  0.055689  1
  O  O8  1  0.879674  0.939837  0.439837  1
  O  O9  1  0.111380  0.055689  0.555688  1
  O  O10  1  0.879674  0.439837  0.939837  1
