# generated using pymatgen
data_Zr10CdHgBi5Pb
_symmetry_space_group_name_H-M   'P 1'
_cell_length_a   8.94342510
_cell_length_b   8.92682124
_cell_length_c   6.04874904
_cell_angle_alpha   89.98613403
_cell_angle_beta   90.00692107
_cell_angle_gamma   119.93860940
_symmetry_Int_Tables_number   1
_chemical_formula_structural   Zr10CdHgBi5Pb
_chemical_formula_sum   'Zr10 Cd1 Hg1 Bi5 Pb1'
_cell_volume   418.47086385
_cell_formula_units_Z   1
loop_
 _symmetry_equiv_pos_site_id
 _symmetry_equiv_pos_as_xyz
  1  'x, y, z'
loop_
 _atom_site_type_symbol
 _atom_site_label
 _atom_site_symmetry_multiplicity
 _atom_site_fract_x
 _atom_site_fract_y
 _atom_site_fract_z
 _atom_site_occupancy
  Zr  Zr0  1  0.666988  0.333473  0.000645  1
  Zr  Zr1  1  0.333012  0.666486  0.000645  1
  Zr  Zr2  1  0.333027  0.666516  0.499380  1
  Zr  Zr3  1  0.666973  0.333489  0.499380  1
  Zr  Zr4  1  0.720093  0.720517  0.750016  1
  Zr  Zr5  1  0.279907  0.000425  0.750016  1
  Zr  Zr6  1  0.000000  0.279941  0.750152  1
  Zr  Zr7  1  0.279984  0.280118  0.249985  1
  Zr  Zr8  1  0.720016  0.000134  0.249985  1
  Zr  Zr9  1  0.000000  0.719354  0.249946  1
  Cd  Cd10  1  0.000000  0.000516  0.499342  1
  Hg  Hg11  1  0.000000  0.000486  0.000582  1
  Bi  Bi12  1  0.380468  0.380999  0.749698  1
  Bi  Bi13  1  0.619532  0.000531  0.749698  1
  Bi  Bi14  1  0.000000  0.618589  0.749683  1
  Bi  Bi15  1  0.618927  0.619075  0.250283  1
  Bi  Bi16  1  0.381073  0.000148  0.250283  1
  Pb  Pb17  1  0.000000  0.379202  0.250282  1
