# generated using pymatgen
data_Rb2HgSe2
_symmetry_space_group_name_H-M   'P 1'
_cell_length_a   7.97739600
_cell_length_b   8.66303500
_cell_length_c   11.84901700
_cell_angle_alpha   90.00000000
_cell_angle_beta   90.00000000
_cell_angle_gamma   90.00000000
_symmetry_Int_Tables_number   1
_chemical_formula_structural   Rb2HgSe2
_chemical_formula_sum   'Rb8 Hg4 Se8'
_cell_volume   818.86732635
_cell_formula_units_Z   4
loop_
 _symmetry_equiv_pos_site_id
 _symmetry_equiv_pos_as_xyz
  1  'x, y, z'
loop_
 _atom_site_type_symbol
 _atom_site_label
 _atom_site_symmetry_multiplicity
 _atom_site_fract_x
 _atom_site_fract_y
 _atom_site_fract_z
 _atom_site_occupancy
  Rb  Rb0  1  0.750000  0.952365  0.887618  1
  Rb  Rb1  1  0.250000  0.547635  0.887618  1
  Rb  Rb2  1  0.500000  0.250000  0.396121  1
  Rb  Rb3  1  0.000000  0.250000  0.396121  1
  Rb  Rb4  1  0.500000  0.750000  0.603879  1
  Rb  Rb5  1  0.000000  0.750000  0.603879  1
  Rb  Rb6  1  0.250000  0.047635  0.112382  1
  Rb  Rb7  1  0.750000  0.452365  0.112382  1
  Hg  Hg8  1  0.750000  0.835990  0.284665  1
  Hg  Hg9  1  0.750000  0.335990  0.715335  1
  Hg  Hg10  1  0.250000  0.664010  0.284665  1
  Hg  Hg11  1  0.250000  0.164010  0.715335  1
  Se  Se12  1  0.750000  0.072067  0.166660  1
  Se  Se13  1  0.250000  0.410370  0.609226  1
  Se  Se14  1  0.750000  0.589630  0.390774  1
  Se  Se15  1  0.250000  0.427933  0.166660  1
  Se  Se16  1  0.250000  0.910370  0.390774  1
  Se  Se17  1  0.750000  0.572067  0.833340  1
  Se  Se18  1  0.250000  0.927933  0.833340  1
  Se  Se19  1  0.750000  0.089630  0.609226  1
