# generated using pymatgen
data_LaPr4Bi3Br
_symmetry_space_group_name_H-M   'P 1'
_cell_length_a   9.71734200
_cell_length_b   9.71867655
_cell_length_c   6.81268800
_cell_angle_alpha   90.00000000
_cell_angle_beta   90.00000000
_cell_angle_gamma   119.99545766
_symmetry_Int_Tables_number   1
_chemical_formula_structural   LaPr4Bi3Br
_chemical_formula_sum   'La2 Pr8 Bi6 Br2'
_cell_volume   557.21605951
_cell_formula_units_Z   2
loop_
 _symmetry_equiv_pos_site_id
 _symmetry_equiv_pos_as_xyz
  1  'x, y, z'
loop_
 _atom_site_type_symbol
 _atom_site_label
 _atom_site_symmetry_multiplicity
 _atom_site_fract_x
 _atom_site_fract_y
 _atom_site_fract_z
 _atom_site_occupancy
  La  La0  1  0.271808  0.271729  0.750000  1
  La  La1  1  0.000078  0.728271  0.750000  1
  Pr  Pr2  1  0.727221  0.000000  0.750000  1
  Pr  Pr3  1  0.999770  0.273674  0.250000  1
  Pr  Pr4  1  0.726096  0.726326  0.250000  1
  Pr  Pr5  1  0.333593  0.666815  0.499594  1
  Pr  Pr6  1  0.333593  0.666815  0.000406  1
  Pr  Pr7  1  0.666779  0.333185  0.499594  1
  Pr  Pr8  1  0.666779  0.333185  0.000406  1
  Pr  Pr9  1  0.274024  0.000000  0.250000  1
  Bi  Bi10  1  0.385924  0.000000  0.750000  1
  Bi  Bi11  1  0.615712  0.000000  0.250000  1
  Bi  Bi12  1  0.999956  0.615682  0.250000  1
  Bi  Bi13  1  0.615734  0.616321  0.750000  1
  Bi  Bi14  1  0.999413  0.383679  0.750000  1
  Bi  Bi15  1  0.384275  0.384318  0.250000  1
  Br  Br16  1  0.999623  0.000000  0.499208  1
  Br  Br17  1  0.999623  0.000000  0.000792  1
