# generated using pymatgen
data_TbEr15Cd4OsPt3
_symmetry_space_group_name_H-M   'P 1'
_cell_length_a   9.62939319
_cell_length_b   9.62939347
_cell_length_c   9.63024648
_cell_angle_alpha   59.49105727
_cell_angle_beta   59.49104672
_cell_angle_gamma   59.42726916
_symmetry_Int_Tables_number   1
_chemical_formula_structural   TbEr15Cd4OsPt3
_chemical_formula_sum   'Tb1 Er15 Cd4 Os1 Pt3'
_cell_volume   623.80694813
_cell_formula_units_Z   1
loop_
 _symmetry_equiv_pos_site_id
 _symmetry_equiv_pos_as_xyz
  1  'x, y, z'
loop_
 _atom_site_type_symbol
 _atom_site_label
 _atom_site_symmetry_multiplicity
 _atom_site_fract_x
 _atom_site_fract_y
 _atom_site_fract_z
 _atom_site_occupancy
  Tb  Tb0  1  0.937371  0.937371  0.558648  1
  Er  Er1  1  0.351902  0.351902  0.351924  1
  Er  Er2  1  0.350351  0.350351  0.947958  1
  Er  Er3  1  0.350632  0.947830  0.350138  1
  Er  Er4  1  0.947830  0.350632  0.350138  1
  Er  Er5  1  0.814243  0.189327  0.188500  1
  Er  Er6  1  0.188653  0.809567  0.809838  1
  Er  Er7  1  0.189327  0.814243  0.188500  1
  Er  Er8  1  0.809567  0.188653  0.809838  1
  Er  Er9  1  0.188961  0.188961  0.814348  1
  Er  Er10  1  0.809714  0.809714  0.188218  1
  Er  Er11  1  0.935264  0.565023  0.565654  1
  Er  Er12  1  0.557777  0.937579  0.938022  1
  Er  Er13  1  0.565023  0.935264  0.565654  1
  Er  Er14  1  0.937579  0.557777  0.938022  1
  Er  Er15  1  0.565624  0.565624  0.935338  1
  Cd  Cd16  1  0.580448  0.580448  0.580338  1
  Cd  Cd17  1  0.581290  0.581290  0.253747  1
  Cd  Cd18  1  0.580529  0.254472  0.581245  1
  Cd  Cd19  1  0.254472  0.580529  0.581245  1
  Os  Os20  1  0.143485  0.143485  0.143023  1
  Pt  Pt21  1  0.143685  0.143685  0.572788  1
  Pt  Pt22  1  0.143641  0.572636  0.143440  1
  Pt  Pt23  1  0.572636  0.143641  0.143440  1
