# generated using pymatgen
data_Nd2GaSiPt4
_symmetry_space_group_name_H-M   'P 1'
_cell_length_a   4.10446598
_cell_length_b   4.18505600
_cell_length_c   9.58091094
_cell_angle_alpha   90.00000000
_cell_angle_beta   102.36859729
_cell_angle_gamma   90.00000000
_symmetry_Int_Tables_number   1
_chemical_formula_structural   Nd2GaSiPt4
_chemical_formula_sum   'Nd2 Ga1 Si1 Pt4'
_cell_volume   160.75550844
_cell_formula_units_Z   1
loop_
 _symmetry_equiv_pos_site_id
 _symmetry_equiv_pos_as_xyz
  1  'x, y, z'
loop_
 _atom_site_type_symbol
 _atom_site_label
 _atom_site_symmetry_multiplicity
 _atom_site_fract_x
 _atom_site_fract_y
 _atom_site_fract_z
 _atom_site_occupancy
  Nd  Nd0  1  0.601691  0.250000  0.203380  1
  Nd  Nd1  1  0.401828  0.750000  0.803656  1
  Ga  Ga2  1  0.824644  0.250000  0.649287  1
  Si  Si3  1  0.176613  0.750000  0.353227  1
  Pt  Pt4  1  0.957129  0.250000  0.914257  1
  Pt  Pt5  1  0.050080  0.750000  0.100161  1
  Pt  Pt6  1  0.244072  0.250000  0.488144  1
  Pt  Pt7  1  0.743943  0.750000  0.487887  1
