# generated using pymatgen
data_Cs4La4Ti3GeSe16
_symmetry_space_group_name_H-M   'P 1'
_cell_length_a   7.24936285
_cell_length_b   7.06426682
_cell_length_c   19.97690155
_cell_angle_alpha   70.86996667
_cell_angle_beta   90.06292327
_cell_angle_gamma   89.92670298
_symmetry_Int_Tables_number   1
_chemical_formula_structural   Cs4La4Ti3GeSe16
_chemical_formula_sum   'Cs4 La4 Ti3 Ge1 Se16'
_cell_volume   966.54833825
_cell_formula_units_Z   1
loop_
 _symmetry_equiv_pos_site_id
 _symmetry_equiv_pos_as_xyz
  1  'x, y, z'
loop_
 _atom_site_type_symbol
 _atom_site_label
 _atom_site_symmetry_multiplicity
 _atom_site_fract_x
 _atom_site_fract_y
 _atom_site_fract_z
 _atom_site_occupancy
  Cs  Cs0  1  0.754796  0.726205  0.033440  1
  Cs  Cs1  1  0.244346  0.272868  0.967104  1
  Cs  Cs2  1  0.744094  0.724148  0.533014  1
  Cs  Cs3  1  0.253861  0.275576  0.466905  1
  La  La4  1  0.233384  0.230006  0.226099  1
  La  La5  1  0.730175  0.772821  0.273637  1
  La  La6  1  0.769265  0.774270  0.773000  1
  La  La7  1  0.268982  0.225711  0.726975  1
  Ti  Ti8  1  0.732191  0.213766  0.836050  1
  Ti  Ti9  1  0.768049  0.212780  0.335875  1
  Ti  Ti10  1  0.232260  0.786152  0.664031  1
  Ge  Ge11  1  0.267015  0.787144  0.164983  1
  Se  Se12  1  0.504949  0.034782  0.142349  1
  Se  Se13  1  0.759845  0.414460  0.410663  1
  Se  Se14  1  0.004232  0.006817  0.847407  1
  Se  Se15  1  0.829232  0.422301  0.217822  1
  Se  Se16  1  0.993706  0.033201  0.642670  1
  Se  Se17  1  0.263517  0.591818  0.089303  1
  Se  Se18  1  0.738313  0.415461  0.910640  1
  Se  Se19  1  0.332074  0.572951  0.282118  1
  Se  Se20  1  0.238211  0.584497  0.589440  1
  Se  Se21  1  0.494038  0.967076  0.857263  1
  Se  Se22  1  0.670526  0.425076  0.718475  1
  Se  Se23  1  0.170870  0.574864  0.781616  1
  Se  Se24  1  0.006702  0.965964  0.356930  1
  Se  Se25  1  0.995224  0.989395  0.152068  1
  Se  Se26  1  0.496230  0.006715  0.347585  1
  Se  Se27  1  0.503913  0.993173  0.652537  1
