# generated using pymatgen
data_Ho4Er4In2IrPd
_symmetry_space_group_name_H-M   'P 1'
_cell_length_a   9.61409969
_cell_length_b   9.64631683
_cell_length_c   9.64571183
_cell_angle_alpha   60.17074266
_cell_angle_beta   60.06372880
_cell_angle_gamma   60.05867429
_symmetry_Int_Tables_number   1
_chemical_formula_structural   Ho4Er4In2IrPd
_chemical_formula_sum   'Ho8 Er8 In4 Ir2 Pd2'
_cell_volume   633.94104427
_cell_formula_units_Z   2
loop_
 _symmetry_equiv_pos_site_id
 _symmetry_equiv_pos_as_xyz
  1  'x, y, z'
loop_
 _atom_site_type_symbol
 _atom_site_label
 _atom_site_symmetry_multiplicity
 _atom_site_fract_x
 _atom_site_fract_y
 _atom_site_fract_z
 _atom_site_occupancy
  Ho  Ho0  1  0.061531  0.061008  0.435023  1
  Ho  Ho1  1  0.649242  0.057620  0.642267  1
  Ho  Ho2  1  0.186124  0.808328  0.194433  1
  Ho  Ho3  1  0.440571  0.063018  0.434036  1
  Ho  Ho4  1  0.185617  0.194533  0.808851  1
  Ho  Ho5  1  0.655535  0.649312  0.649429  1
  Ho  Ho6  1  0.049821  0.647406  0.647442  1
  Ho  Ho7  1  0.438435  0.062072  0.061685  1
  Er  Er8  1  0.649357  0.642224  0.057448  1
  Er  Er9  1  0.190591  0.809035  0.809763  1
  Er  Er10  1  0.811189  0.194383  0.809645  1
  Er  Er11  1  0.809827  0.189739  0.189312  1
  Er  Er12  1  0.811391  0.809124  0.194514  1
  Er  Er13  1  0.064050  0.437048  0.436421  1
  Er  Er14  1  0.440721  0.434504  0.062461  1
  Er  Er15  1  0.061298  0.435725  0.060419  1
  In  In16  1  0.750173  0.416935  0.416953  1
  In  In17  1  0.416645  0.417442  0.749567  1
  In  In18  1  0.416835  0.749384  0.417349  1
  In  In19  1  0.415392  0.416800  0.416457  1
  Ir  Ir20  1  0.856649  0.861359  0.426711  1
  Ir  Ir21  1  0.856165  0.427285  0.861938  1
  Pd  Pd22  1  0.854349  0.857290  0.858590  1
  Pd  Pd23  1  0.428493  0.858430  0.859290  1
