# generated using pymatgen
data_ZnCu11(SiNi)4
_symmetry_space_group_name_H-M   'P 1'
_cell_length_a   6.17165416
_cell_length_b   6.18475483
_cell_length_c   6.15507664
_cell_angle_alpha   89.97351416
_cell_angle_beta   90.19003602
_cell_angle_gamma   90.36118381
_symmetry_Int_Tables_number   1
_chemical_formula_structural   ZnCu11(SiNi)4
_chemical_formula_sum   'Zn1 Cu11 Si4 Ni4'
_cell_volume   234.93432568
_cell_formula_units_Z   1
loop_
 _symmetry_equiv_pos_site_id
 _symmetry_equiv_pos_as_xyz
  1  'x, y, z'
loop_
 _atom_site_type_symbol
 _atom_site_label
 _atom_site_symmetry_multiplicity
 _atom_site_fract_x
 _atom_site_fract_y
 _atom_site_fract_z
 _atom_site_occupancy
  Zn  Zn0  1  0.119683  0.204356  0.460820  1
  Cu  Cu1  1  0.379855  0.793194  0.954536  1
  Cu  Cu2  1  0.879512  0.706272  0.046426  1
  Cu  Cu3  1  0.455103  0.121266  0.206116  1
  Cu  Cu4  1  0.619932  0.293562  0.545615  1
  Cu  Cu5  1  0.953921  0.383088  0.794572  1
  Cu  Cu6  1  0.045340  0.875005  0.707101  1
  Cu  Cu7  1  0.544448  0.619165  0.292591  1
  Cu  Cu8  1  0.207167  0.454170  0.120051  1
  Cu  Cu9  1  0.706554  0.045941  0.879404  1
  Cu  Cu10  1  0.292366  0.546870  0.619441  1
  Cu  Cu11  1  0.791306  0.954577  0.378074  1
  Si  Si12  1  0.063224  0.062164  0.056974  1
  Si  Si13  1  0.441847  0.930904  0.566661  1
  Si  Si14  1  0.930953  0.574344  0.433066  1
  Si  Si15  1  0.563915  0.434540  0.936648  1
  Ni  Ni16  1  0.683338  0.680743  0.685340  1
  Ni  Ni17  1  0.820045  0.316519  0.184818  1
  Ni  Ni18  1  0.317534  0.182031  0.814727  1
  Ni  Ni19  1  0.183957  0.821288  0.317016  1
