# generated using pymatgen
data_Tm10CoBi4Ru
_symmetry_space_group_name_H-M   'P 1'
_cell_length_a   7.88452965
_cell_length_b   8.90375800
_cell_length_c   12.31026899
_cell_angle_alpha   90.00000000
_cell_angle_beta   89.64706744
_cell_angle_gamma   90.00000000
_symmetry_Int_Tables_number   1
_chemical_formula_structural   Tm10CoBi4Ru
_chemical_formula_sum   'Tm20 Co2 Bi8 Ru2'
_cell_volume   864.18841826
_cell_formula_units_Z   2
loop_
 _symmetry_equiv_pos_site_id
 _symmetry_equiv_pos_as_xyz
  1  'x, y, z'
loop_
 _atom_site_type_symbol
 _atom_site_label
 _atom_site_symmetry_multiplicity
 _atom_site_fract_x
 _atom_site_fract_y
 _atom_site_fract_z
 _atom_site_occupancy
  Tm  Tm0  1  0.345505  0.750000  0.700309  1
  Tm  Tm1  1  0.654495  0.250000  0.299691  1
  Tm  Tm2  1  0.844695  0.250000  0.794018  1
  Tm  Tm3  1  0.155305  0.750000  0.205982  1
  Tm  Tm4  1  0.882151  0.750000  0.807813  1
  Tm  Tm5  1  0.117849  0.250000  0.192187  1
  Tm  Tm6  1  0.385725  0.250000  0.685957  1
  Tm  Tm7  1  0.614275  0.750000  0.314043  1
  Tm  Tm8  1  0.673531  0.539112  0.562670  1
  Tm  Tm9  1  0.326469  0.460888  0.437330  1
  Tm  Tm10  1  0.175587  0.457772  0.935209  1
  Tm  Tm11  1  0.326469  0.039112  0.437330  1
  Tm  Tm12  1  0.824413  0.542228  0.064791  1
  Tm  Tm13  1  0.673531  0.960888  0.562670  1
  Tm  Tm14  1  0.824413  0.957772  0.064791  1
  Tm  Tm15  1  0.175587  0.042228  0.935209  1
  Tm  Tm16  1  0.056471  0.750000  0.497695  1
  Tm  Tm17  1  0.943529  0.250000  0.502305  1
  Tm  Tm18  1  0.555367  0.250000  0.003696  1
  Tm  Tm19  1  0.444633  0.750000  0.996304  1
  Co  Co20  1  0.567190  0.250000  0.507227  1
  Co  Co21  1  0.432810  0.750000  0.492773  1
  Bi  Bi22  1  0.570102  0.508517  0.826598  1
  Bi  Bi23  1  0.429898  0.491483  0.173402  1
  Bi  Bi24  1  0.070494  0.490853  0.671788  1
  Bi  Bi25  1  0.429898  0.008517  0.173402  1
  Bi  Bi26  1  0.929506  0.509147  0.328212  1
  Bi  Bi27  1  0.570102  0.991483  0.826598  1
  Bi  Bi28  1  0.929506  0.990853  0.328212  1
  Bi  Bi29  1  0.070494  0.009147  0.671788  1
  Ru  Ru30  1  0.072714  0.750000  0.990178  1
  Ru  Ru31  1  0.927286  0.250000  0.009822  1
