# generated using pymatgen
data_Cs2Ti(ClF)3
_symmetry_space_group_name_H-M   'P 1'
_cell_length_a   7.14579500
_cell_length_b   11.07372400
_cell_length_c   12.69949200
_cell_angle_alpha   90.00000000
_cell_angle_beta   90.00000000
_cell_angle_gamma   90.00000000
_symmetry_Int_Tables_number   1
_chemical_formula_structural   Cs2Ti(ClF)3
_chemical_formula_sum   'Cs8 Ti4 Cl12 F12'
_cell_volume   1004.91793388
_cell_formula_units_Z   4
loop_
 _symmetry_equiv_pos_site_id
 _symmetry_equiv_pos_as_xyz
  1  'x, y, z'
loop_
 _atom_site_type_symbol
 _atom_site_label
 _atom_site_symmetry_multiplicity
 _atom_site_fract_x
 _atom_site_fract_y
 _atom_site_fract_z
 _atom_site_occupancy
  Cs  Cs0  1  0.250000  0.658895  0.910921  1
  Cs  Cs1  1  0.250000  0.158895  0.589079  1
  Cs  Cs2  1  0.750000  0.341105  0.089079  1
  Cs  Cs3  1  0.750000  0.841105  0.410921  1
  Cs  Cs4  1  0.250000  0.971989  0.166051  1
  Cs  Cs5  1  0.250000  0.471989  0.333949  1
  Cs  Cs6  1  0.750000  0.028011  0.833949  1
  Cs  Cs7  1  0.750000  0.528011  0.666051  1
  Ti  Ti8  1  0.250000  0.713943  0.572348  1
  Ti  Ti9  1  0.250000  0.213943  0.927652  1
  Ti  Ti10  1  0.750000  0.286057  0.427652  1
  Ti  Ti11  1  0.750000  0.786057  0.072348  1
  Cl  Cl12  1  0.250000  0.875962  0.443130  1
  Cl  Cl13  1  0.250000  0.375962  0.056870  1
  Cl  Cl14  1  0.750000  0.124038  0.556870  1
  Cl  Cl15  1  0.750000  0.624038  0.943130  1
  Cl  Cl16  1  0.014110  0.816921  0.671549  1
  Cl  Cl17  1  0.485890  0.316921  0.828451  1
  Cl  Cl18  1  0.514110  0.183079  0.328451  1
  Cl  Cl19  1  0.985890  0.683079  0.171549  1
  Cl  Cl20  1  0.985890  0.183079  0.328451  1
  Cl  Cl21  1  0.514110  0.683079  0.171549  1
  Cl  Cl22  1  0.485890  0.816921  0.671549  1
  Cl  Cl23  1  0.014110  0.316921  0.828451  1
  F  F24  1  0.250000  0.590748  0.670357  1
  F  F25  1  0.250000  0.090748  0.829643  1
  F  F26  1  0.750000  0.409252  0.329643  1
  F  F27  1  0.750000  0.909252  0.170357  1
  F  F28  1  0.060282  0.640086  0.494259  1
  F  F29  1  0.439718  0.140086  0.005741  1
  F  F30  1  0.560282  0.359914  0.505741  1
  F  F31  1  0.939718  0.859914  0.994259  1
  F  F32  1  0.939718  0.359914  0.505741  1
  F  F33  1  0.560282  0.859914  0.994259  1
  F  F34  1  0.439718  0.640086  0.494259  1
  F  F35  1  0.060282  0.140086  0.005741  1
