# generated using pymatgen
data_Ho2Zn(PRh2)6
_symmetry_space_group_name_H-M   'P 1'
_cell_length_a   9.65383200
_cell_length_b   9.65383135
_cell_length_c   3.88845900
_cell_angle_alpha   90.00000000
_cell_angle_beta   90.00000000
_cell_angle_gamma   120.00000224
_symmetry_Int_Tables_number   1
_chemical_formula_structural   Ho2Zn(PRh2)6
_chemical_formula_sum   'Ho2 Zn1 P6 Rh12'
_cell_volume   313.83949051
_cell_formula_units_Z   1
loop_
 _symmetry_equiv_pos_site_id
 _symmetry_equiv_pos_as_xyz
  1  'x, y, z'
loop_
 _atom_site_type_symbol
 _atom_site_label
 _atom_site_symmetry_multiplicity
 _atom_site_fract_x
 _atom_site_fract_y
 _atom_site_fract_z
 _atom_site_occupancy
  Ho  Ho0  1  0.333333  0.666667  0.752320  1
  Ho  Ho1  1  0.666667  0.333333  0.247680  1
  Zn  Zn2  1  0.000000  0.000000  0.500000  1
  P  P3  1  0.402056  0.284620  0.748187  1
  P  P4  1  0.715380  0.117435  0.748187  1
  P  P5  1  0.882565  0.597944  0.748187  1
  P  P6  1  0.597944  0.715380  0.251813  1
  P  P7  1  0.284620  0.882565  0.251813  1
  P  P8  1  0.117435  0.402056  0.251813  1
  Rh  Rh9  1  0.452255  0.066099  0.749024  1
  Rh  Rh10  1  0.933901  0.386156  0.749024  1
  Rh  Rh11  1  0.613844  0.547745  0.749024  1
  Rh  Rh12  1  0.547745  0.933901  0.250976  1
  Rh  Rh13  1  0.066099  0.613844  0.250976  1
  Rh  Rh14  1  0.386156  0.452255  0.250976  1
  Rh  Rh15  1  0.158809  0.283734  0.754015  1
  Rh  Rh16  1  0.716266  0.875075  0.754015  1
  Rh  Rh17  1  0.124925  0.841191  0.754015  1
  Rh  Rh18  1  0.841191  0.716266  0.245985  1
  Rh  Rh19  1  0.283734  0.124925  0.245985  1
  Rh  Rh20  1  0.875075  0.158809  0.245985  1
