# generated using pymatgen
data_Ce2Th(SiPd)4
_symmetry_space_group_name_H-M   'P 1'
_cell_length_a   4.14926688
_cell_length_b   4.23525113
_cell_length_c   12.73144404
_cell_angle_alpha   99.57452061
_cell_angle_beta   99.37837430
_cell_angle_gamma   89.99999371
_symmetry_Int_Tables_number   1
_chemical_formula_structural   Ce2Th(SiPd)4
_chemical_formula_sum   'Ce2 Th1 Si4 Pd4'
_cell_volume   217.58219447
_cell_formula_units_Z   1
loop_
 _symmetry_equiv_pos_site_id
 _symmetry_equiv_pos_as_xyz
  1  'x, y, z'
loop_
 _atom_site_type_symbol
 _atom_site_label
 _atom_site_symmetry_multiplicity
 _atom_site_fract_x
 _atom_site_fract_y
 _atom_site_fract_z
 _atom_site_occupancy
  Ce  Ce0  1  0.145707  0.645708  0.291413  1
  Ce  Ce1  1  0.854294  0.354294  0.708587  1
  Th  Th2  1  0.000000  0.000000  0.000000  1
  Si  Si3  1  0.548319  0.548319  0.096637  1
  Si  Si4  1  0.695645  0.195645  0.391289  1
  Si  Si5  1  0.304355  0.804356  0.608711  1
  Si  Si6  1  0.451681  0.451681  0.903363  1
  Pd  Pd7  1  0.597119  0.097119  0.194239  1
  Pd  Pd8  1  0.249594  0.249594  0.499187  1
  Pd  Pd9  1  0.750407  0.750407  0.500814  1
  Pd  Pd10  1  0.402881  0.902882  0.805761  1
