# generated using pymatgen
data_Li4Ca3ThSi8
_symmetry_space_group_name_H-M   'P 1'
_cell_length_a   3.82070400
_cell_length_b   7.87625101
_cell_length_c   10.61051719
_cell_angle_alpha   89.79985006
_cell_angle_beta   90.00000000
_cell_angle_gamma   90.00000000
_symmetry_Int_Tables_number   1
_chemical_formula_structural   Li4Ca3ThSi8
_chemical_formula_sum   'Li4 Ca3 Th1 Si8'
_cell_volume   319.29847539
_cell_formula_units_Z   1
loop_
 _symmetry_equiv_pos_site_id
 _symmetry_equiv_pos_as_xyz
  1  'x, y, z'
loop_
 _atom_site_type_symbol
 _atom_site_label
 _atom_site_symmetry_multiplicity
 _atom_site_fract_x
 _atom_site_fract_y
 _atom_site_fract_z
 _atom_site_occupancy
  Li  Li0  1  0.250000  0.997831  0.388190  1
  Li  Li1  1  0.750000  0.998682  0.607163  1
  Li  Li2  1  0.250000  0.498029  0.111133  1
  Li  Li3  1  0.750000  0.509638  0.887608  1
  Ca  Ca4  1  0.750000  0.864713  0.136457  1
  Ca  Ca5  1  0.250000  0.634083  0.634706  1
  Ca  Ca6  1  0.750000  0.364943  0.367486  1
  Th  Th7  1  0.250000  0.132592  0.865714  1
  Si  Si8  1  0.750000  0.268845  0.064759  1
  Si  Si9  1  0.250000  0.738987  0.932575  1
  Si  Si10  1  0.750000  0.766924  0.431543  1
  Si  Si11  1  0.250000  0.228452  0.571040  1
  Si  Si12  1  0.750000  0.837531  0.820828  1
  Si  Si13  1  0.250000  0.164694  0.172649  1
  Si  Si14  1  0.750000  0.328049  0.683951  1
  Si  Si15  1  0.250000  0.666007  0.324200  1
