# generated using pymatgen
data_Nb8V4Si9Ge
_symmetry_space_group_name_H-M   'P 1'
_cell_length_a   5.02446133
_cell_length_b   7.92117829
_cell_length_c   9.49925676
_cell_angle_alpha   114.73274629
_cell_angle_beta   105.33522351
_cell_angle_gamma   89.99999699
_symmetry_Int_Tables_number   1
_chemical_formula_structural   Nb8V4Si9Ge
_chemical_formula_sum   'Nb8 V4 Si9 Ge1'
_cell_volume   328.50764307
_cell_formula_units_Z   1
loop_
 _symmetry_equiv_pos_site_id
 _symmetry_equiv_pos_as_xyz
  1  'x, y, z'
loop_
 _atom_site_type_symbol
 _atom_site_label
 _atom_site_symmetry_multiplicity
 _atom_site_fract_x
 _atom_site_fract_y
 _atom_site_fract_z
 _atom_site_occupancy
  Nb  Nb0  1  0.642092  0.030257  0.284182  1
  Nb  Nb1  1  0.357648  0.970686  0.715298  1
  Nb  Nb2  1  0.856611  0.739186  0.713224  1
  Nb  Nb3  1  0.143858  0.258831  0.287715  1
  Nb  Nb4  1  0.937884  0.192238  0.875768  1
  Nb  Nb5  1  0.063602  0.808924  0.127203  1
  Nb  Nb6  1  0.563992  0.319595  0.127984  1
  Nb  Nb7  1  0.436238  0.680514  0.872476  1
  V  V8  1  0.557459  0.311718  0.617810  1
  V  V9  1  0.942537  0.687657  0.380582  1
  V  V10  1  0.438044  0.687657  0.380582  1
  V  V11  1  0.060352  0.311718  0.617810  1
  Si  Si12  1  0.216332  0.013298  0.432662  1
  Si  Si13  1  0.717094  0.422279  0.434188  1
  Si  Si14  1  0.282935  0.577954  0.565870  1
  Si  Si15  1  0.567731  0.652077  0.135462  1
  Si  Si16  1  0.432359  0.348006  0.864718  1
  Si  Si17  1  0.932479  0.515578  0.864958  1
  Si  Si18  1  0.067604  0.484316  0.135208  1
  Si  Si19  1  0.250142  0.999813  0.000031  1
  Si  Si20  1  0.749889  0.999813  0.000031  1
  Ge  Ge21  1  0.783118  0.987885  0.566238  1
