# generated using pymatgen
data_Hf6Al16FeCuNi5
_symmetry_space_group_name_H-M   'P 1'
_cell_length_a   8.50668268
_cell_length_b   8.49750948
_cell_length_c   8.49751107
_cell_angle_alpha   59.90255800
_cell_angle_beta   59.96428973
_cell_angle_gamma   59.96428757
_symmetry_Int_Tables_number   1
_chemical_formula_structural   Hf6Al16FeCuNi5
_chemical_formula_sum   'Hf6 Al16 Fe1 Cu1 Ni5'
_cell_volume   433.78397185
_cell_formula_units_Z   1
loop_
 _symmetry_equiv_pos_site_id
 _symmetry_equiv_pos_as_xyz
  1  'x, y, z'
loop_
 _atom_site_type_symbol
 _atom_site_label
 _atom_site_symmetry_multiplicity
 _atom_site_fract_x
 _atom_site_fract_y
 _atom_site_fract_z
 _atom_site_occupancy
  Hf  Hf0  1  0.689091  0.689054  0.310946  1
  Hf  Hf1  1  0.310909  0.689054  0.310946  1
  Hf  Hf2  1  0.687979  0.312021  0.312021  1
  Hf  Hf3  1  0.310909  0.310946  0.689054  1
  Hf  Hf4  1  0.689091  0.310946  0.689054  1
  Hf  Hf5  1  0.312021  0.687979  0.687979  1
  Al  Al6  1  0.883210  0.881218  0.352360  1
  Al  Al7  1  0.883210  0.352360  0.881218  1
  Al  Al8  1  0.351195  0.880121  0.880121  1
  Al  Al9  1  0.888564  0.880121  0.880121  1
  Al  Al10  1  0.116790  0.118782  0.647640  1
  Al  Al11  1  0.116790  0.647640  0.118782  1
  Al  Al12  1  0.648805  0.119879  0.119879  1
  Al  Al13  1  0.111436  0.119879  0.119879  1
  Al  Al14  1  0.668645  0.662819  0.999891  1
  Al  Al15  1  0.668645  0.999891  0.662819  1
  Al  Al16  1  0.001467  0.665924  0.665924  1
  Al  Al17  1  0.666686  0.665924  0.665924  1
  Al  Al18  1  0.331355  0.337181  0.000109  1
  Al  Al19  1  0.331355  0.000109  0.337181  1
  Al  Al20  1  0.998533  0.334076  0.334076  1
  Al  Al21  1  0.333314  0.334076  0.334076  1
  Fe  Fe22  1  0.000000  0.000000  0.000000  1
  Cu  Cu23  1  0.500000  0.000000  0.000000  1
  Ni  Ni24  1  0.000000  0.000000  0.500000  1
  Ni  Ni25  1  0.500000  0.000000  0.500000  1
  Ni  Ni26  1  0.000000  0.500000  0.500000  1
  Ni  Ni27  1  0.500000  0.500000  0.000000  1
  Ni  Ni28  1  0.000000  0.500000  0.000000  1
