# generated using pymatgen
data_LiLaYbZnSi3
_symmetry_space_group_name_H-M   'P 1'
_cell_length_a   9.44986524
_cell_length_b   9.44986495
_cell_length_c   6.88534400
_cell_angle_alpha   90.00000000
_cell_angle_beta   90.00000000
_cell_angle_gamma   153.19401401
_symmetry_Int_Tables_number   1
_chemical_formula_structural   LiLaYbZnSi3
_chemical_formula_sum   'Li2 La2 Yb2 Zn2 Si6'
_cell_volume   277.28429625
_cell_formula_units_Z   2
loop_
 _symmetry_equiv_pos_site_id
 _symmetry_equiv_pos_as_xyz
  1  'x, y, z'
loop_
 _atom_site_type_symbol
 _atom_site_label
 _atom_site_symmetry_multiplicity
 _atom_site_fract_x
 _atom_site_fract_y
 _atom_site_fract_z
 _atom_site_occupancy
  Li  Li0  1  0.811403  0.188597  0.939335  1
  Li  Li1  1  0.188597  0.811403  0.439335  1
  La  La2  1  0.447400  0.552600  0.754476  1
  La  La3  1  0.552600  0.447400  0.254476  1
  Yb  Yb4  1  0.656488  0.343512  0.746455  1
  Yb  Yb5  1  0.343512  0.656488  0.246455  1
  Zn  Zn6  1  0.193539  0.806461  0.053617  1
  Zn  Zn7  1  0.806461  0.193539  0.553617  1
  Si  Si8  1  0.278121  0.721879  0.748194  1
  Si  Si9  1  0.721879  0.278121  0.248194  1
  Si  Si10  1  0.940227  0.059773  0.426854  1
  Si  Si11  1  0.056245  0.943755  0.581072  1
  Si  Si12  1  0.943755  0.056245  0.081072  1
  Si  Si13  1  0.059773  0.940227  0.926854  1
