# generated using pymatgen
data_TcRh8
_symmetry_space_group_name_H-M   'P 1'
_cell_length_a   6.08823474
_cell_length_b   6.08823499
_cell_length_c   6.08823449
_cell_angle_alpha   95.73433332
_cell_angle_beta   95.73434394
_cell_angle_gamma   143.14611655
_symmetry_Int_Tables_number   1
_chemical_formula_structural   TcRh8
_chemical_formula_sum   'Tc1 Rh8'
_cell_volume   128.41183111
_cell_formula_units_Z   1
loop_
 _symmetry_equiv_pos_site_id
 _symmetry_equiv_pos_as_xyz
  1  'x, y, z'
loop_
 _atom_site_type_symbol
 _atom_site_label
 _atom_site_symmetry_multiplicity
 _atom_site_fract_x
 _atom_site_fract_y
 _atom_site_fract_z
 _atom_site_occupancy
  Tc  Tc0  1  0.000000  0.000000  0.000000  1
  Rh  Rh1  1  0.662963  0.337036  0.000000  1
  Rh  Rh2  1  0.337036  0.662963  0.000000  1
  Rh  Rh3  1  0.662963  0.662963  0.325927  1
  Rh  Rh4  1  0.330775  0.000000  0.330775  1
  Rh  Rh5  1  0.000000  0.330775  0.330775  1
  Rh  Rh6  1  0.669225  0.000000  0.669225  1
  Rh  Rh7  1  0.000000  0.669225  0.669225  1
  Rh  Rh8  1  0.337037  0.337037  0.674073  1
