# generated using pymatgen
data_ThMn2(CrC2)2
_symmetry_space_group_name_H-M   'P 1'
_cell_length_a   5.69647369
_cell_length_b   5.69647339
_cell_length_c   5.83461263
_cell_angle_alpha   95.89774375
_cell_angle_beta   93.41122796
_cell_angle_gamma   146.49212164
_symmetry_Int_Tables_number   1
_chemical_formula_structural   ThMn2(CrC2)2
_chemical_formula_sum   'Th1 Mn2 Cr2 C4'
_cell_volume   100.26852204
_cell_formula_units_Z   1
loop_
 _symmetry_equiv_pos_site_id
 _symmetry_equiv_pos_as_xyz
  1  'x, y, z'
loop_
 _atom_site_type_symbol
 _atom_site_label
 _atom_site_symmetry_multiplicity
 _atom_site_fract_x
 _atom_site_fract_y
 _atom_site_fract_z
 _atom_site_occupancy
  Th  Th0  1  0.000000  0.000000  0.000000  1
  Mn  Mn1  1  0.812950  0.361343  0.174292  1
  Mn  Mn2  1  0.187050  0.638657  0.825708  1
  Cr  Cr3  1  0.635150  0.827565  0.462714  1
  Cr  Cr4  1  0.364850  0.172435  0.537286  1
  C  C5  1  0.252346  0.399959  0.652304  1
  C  C6  1  0.747654  0.600041  0.347696  1
  C  C7  1  0.397208  0.762400  0.159608  1
  C  C8  1  0.602792  0.237600  0.840392  1
