# generated using pymatgen
data_Sc2CrRe3
_symmetry_space_group_name_H-M   'P 1'
_cell_length_a   5.18361252
_cell_length_b   5.26545766
_cell_length_c   8.56098300
_cell_angle_alpha   90.00000000
_cell_angle_beta   90.00000000
_cell_angle_gamma   120.52369043
_symmetry_Int_Tables_number   1
_chemical_formula_structural   Sc2CrRe3
_chemical_formula_sum   'Sc4 Cr2 Re6'
_cell_volume   201.28288726
_cell_formula_units_Z   2
loop_
 _symmetry_equiv_pos_site_id
 _symmetry_equiv_pos_as_xyz
  1  'x, y, z'
loop_
 _atom_site_type_symbol
 _atom_site_label
 _atom_site_symmetry_multiplicity
 _atom_site_fract_x
 _atom_site_fract_y
 _atom_site_fract_z
 _atom_site_occupancy
  Sc  Sc0  1  0.333709  0.666855  0.438538  1
  Sc  Sc1  1  0.666291  0.333145  0.938538  1
  Sc  Sc2  1  0.666291  0.333145  0.561462  1
  Sc  Sc3  1  0.333709  0.666855  0.061462  1
  Cr  Cr4  1  0.660877  0.830438  0.750000  1
  Cr  Cr5  1  0.339123  0.169562  0.250000  1
  Re  Re6  1  0.826321  0.171439  0.250000  1
  Re  Re7  1  0.173679  0.345118  0.750000  1
  Re  Re8  1  0.173679  0.828561  0.750000  1
  Re  Re9  1  0.826321  0.654882  0.250000  1
  Re  Re10  1  0.000000  0.000000  0.500000  1
  Re  Re11  1  0.000000  0.000000  0.000000  1
