# generated using pymatgen
data_Yb2In3SnPd6
_symmetry_space_group_name_H-M   'P 1'
_cell_length_a   4.64187400
_cell_length_b   9.79721100
_cell_length_c   10.33801200
_cell_angle_alpha   90.00000000
_cell_angle_beta   90.00000000
_cell_angle_gamma   90.00000000
_symmetry_Int_Tables_number   1
_chemical_formula_structural   Yb2In3SnPd6
_chemical_formula_sum   'Yb4 In6 Sn2 Pd12'
_cell_volume   470.14610349
_cell_formula_units_Z   2
loop_
 _symmetry_equiv_pos_site_id
 _symmetry_equiv_pos_as_xyz
  1  'x, y, z'
loop_
 _atom_site_type_symbol
 _atom_site_label
 _atom_site_symmetry_multiplicity
 _atom_site_fract_x
 _atom_site_fract_y
 _atom_site_fract_z
 _atom_site_occupancy
  Yb  Yb0  1  0.250000  0.445984  0.723978  1
  Yb  Yb1  1  0.250000  0.054016  0.223978  1
  Yb  Yb2  1  0.750000  0.553552  0.275362  1
  Yb  Yb3  1  0.750000  0.946448  0.775362  1
  In  In4  1  0.750000  0.111862  0.484094  1
  In  In5  1  0.750000  0.388138  0.984094  1
  In  In6  1  0.250000  0.160323  0.890087  1
  In  In7  1  0.250000  0.339677  0.390087  1
  In  In8  1  0.750000  0.841192  0.110453  1
  In  In9  1  0.750000  0.658808  0.610453  1
  Sn  Sn10  1  0.250000  0.888310  0.514842  1
  Sn  Sn11  1  0.250000  0.611690  0.014842  1
  Pd  Pd12  1  0.250000  0.153077  0.618023  1
  Pd  Pd13  1  0.250000  0.346923  0.118023  1
  Pd  Pd14  1  0.750000  0.846833  0.383938  1
  Pd  Pd15  1  0.750000  0.653167  0.883938  1
  Pd  Pd16  1  0.250000  0.742624  0.739339  1
  Pd  Pd17  1  0.250000  0.757376  0.239339  1
  Pd  Pd18  1  0.750000  0.258405  0.259503  1
  Pd  Pd19  1  0.750000  0.241595  0.759503  1
  Pd  Pd20  1  0.250000  0.894039  0.975167  1
  Pd  Pd21  1  0.250000  0.605961  0.475167  1
  Pd  Pd22  1  0.750000  0.105939  0.025214  1
  Pd  Pd23  1  0.750000  0.394061  0.525214  1
