# generated using pymatgen
data_YbDy8Lu(In2Pt)4
_symmetry_space_group_name_H-M   'P 1'
_cell_length_a   3.61518000
_cell_length_b   8.19080257
_cell_length_c   18.31475380
_cell_angle_alpha   89.91629059
_cell_angle_beta   90.00000000
_cell_angle_gamma   90.00000000
_symmetry_Int_Tables_number   1
_chemical_formula_structural   YbDy8Lu(In2Pt)4
_chemical_formula_sum   'Yb1 Dy8 Lu1 In8 Pt4'
_cell_volume   542.32172816
_cell_formula_units_Z   1
loop_
 _symmetry_equiv_pos_site_id
 _symmetry_equiv_pos_as_xyz
  1  'x, y, z'
loop_
 _atom_site_type_symbol
 _atom_site_label
 _atom_site_symmetry_multiplicity
 _atom_site_fract_x
 _atom_site_fract_y
 _atom_site_fract_z
 _atom_site_occupancy
  Yb  Yb0  1  0.000000  0.999980  0.000045  1
  Dy  Dy1  1  0.000000  0.882453  0.584854  1
  Dy  Dy2  1  0.000000  0.381290  0.914579  1
  Dy  Dy3  1  0.000000  0.618732  0.085589  1
  Dy  Dy4  1  0.000000  0.243340  0.221069  1
  Dy  Dy5  1  0.000000  0.756762  0.779165  1
  Dy  Dy6  1  0.000000  0.256568  0.720584  1
  Dy  Dy7  1  0.000000  0.743370  0.279676  1
  Dy  Dy8  1  0.000000  0.499678  0.499816  1
  Lu  Lu9  1  0.000000  0.116711  0.413430  1
  In  In10  1  0.500000  0.422515  0.351889  1
  In  In11  1  0.500000  0.575379  0.648479  1
  In  In12  1  0.500000  0.074215  0.851116  1
  In  In13  1  0.500000  0.926111  0.149137  1
  In  In14  1  0.500000  0.292417  0.067594  1
  In  In15  1  0.500000  0.707511  0.932426  1
  In  In16  1  0.500000  0.207582  0.566028  1
  In  In17  1  0.500000  0.794050  0.432998  1
  Pt  Pt18  1  0.500000  0.026193  0.305064  1
  Pt  Pt19  1  0.500000  0.975153  0.696407  1
  Pt  Pt20  1  0.500000  0.476447  0.802987  1
  Pt  Pt21  1  0.500000  0.523545  0.197069  1
