# generated using pymatgen
data_Ho2Er7TmRu4
_symmetry_space_group_name_H-M   'P 1'
_cell_length_a   6.27796561
_cell_length_b   7.25690208
_cell_length_c   8.39189914
_cell_angle_alpha   96.78988322
_cell_angle_beta   111.96556615
_cell_angle_gamma   89.99999916
_symmetry_Int_Tables_number   1
_chemical_formula_structural   Ho2Er7TmRu4
_chemical_formula_sum   'Ho2 Er7 Tm1 Ru4'
_cell_volume   351.67673335
_cell_formula_units_Z   1
loop_
 _symmetry_equiv_pos_site_id
 _symmetry_equiv_pos_as_xyz
  1  'x, y, z'
loop_
 _atom_site_type_symbol
 _atom_site_label
 _atom_site_symmetry_multiplicity
 _atom_site_fract_x
 _atom_site_fract_y
 _atom_site_fract_z
 _atom_site_occupancy
  Ho  Ho0  1  0.791316  0.084026  0.813586  1
  Ho  Ho1  1  0.977732  0.415974  0.186414  1
  Er  Er2  1  0.208543  0.915560  0.186305  1
  Er  Er3  1  0.022237  0.584440  0.813695  1
  Er  Er4  1  0.205864  0.184386  0.565202  1
  Er  Er5  1  0.640661  0.315614  0.434798  1
  Er  Er6  1  0.793929  0.815379  0.434517  1
  Er  Er7  1  0.359412  0.684621  0.565483  1
  Er  Er8  1  0.419360  0.250000  0.000000  1
  Tm  Tm9  1  0.580146  0.750000  0.000000  1
  Ru  Ru10  1  0.603069  0.424098  0.779930  1
  Ru  Ru11  1  0.823139  0.075902  0.220070  1
  Ru  Ru12  1  0.397314  0.576700  0.220038  1
  Ru  Ru13  1  0.177276  0.923300  0.779962  1
