# generated using pymatgen
data_Pr7NdInPd24
_symmetry_space_group_name_H-M   'P 1'
_cell_length_a   8.58279800
_cell_length_b   8.58279800
_cell_length_c   8.58279800
_cell_angle_alpha   89.99846459
_cell_angle_beta   90.00153541
_cell_angle_gamma   90.00153541
_symmetry_Int_Tables_number   1
_chemical_formula_structural   Pr7NdInPd24
_chemical_formula_sum   'Pr7 Nd1 In1 Pd24'
_cell_volume   632.24684926
_cell_formula_units_Z   1
loop_
 _symmetry_equiv_pos_site_id
 _symmetry_equiv_pos_as_xyz
  1  'x, y, z'
loop_
 _atom_site_type_symbol
 _atom_site_label
 _atom_site_symmetry_multiplicity
 _atom_site_fract_x
 _atom_site_fract_y
 _atom_site_fract_z
 _atom_site_occupancy
  Pr  Pr0  1  0.251057  0.251082  0.251082  1
  Pr  Pr1  1  0.748927  0.748905  0.748905  1
  Pr  Pr2  1  0.748918  0.748943  0.251082  1
  Pr  Pr3  1  0.748918  0.251082  0.748943  1
  Pr  Pr4  1  0.251095  0.251073  0.748905  1
  Pr  Pr5  1  0.251095  0.748905  0.251073  1
  Pr  Pr6  1  0.251033  0.748967  0.748967  1
  Nd  Nd7  1  0.748874  0.251126  0.251126  1
  In  In8  1  0.999959  0.000041  0.000041  1
  Pd  Pd9  1  0.267510  0.500021  0.999972  1
  Pd  Pd10  1  0.732492  0.499678  0.000373  1
  Pd  Pd11  1  0.999627  0.267508  0.499678  1
  Pd  Pd12  1  0.500322  0.267508  0.000373  1
  Pd  Pd13  1  0.000028  0.732490  0.500021  1
  Pd  Pd14  1  0.499979  0.732490  0.999972  1
  Pd  Pd15  1  0.500322  0.000373  0.267508  1
  Pd  Pd16  1  0.267510  0.999972  0.500021  1
  Pd  Pd17  1  0.499979  0.999972  0.732490  1
  Pd  Pd18  1  0.732492  0.000373  0.499678  1
  Pd  Pd19  1  0.999627  0.499678  0.267508  1
  Pd  Pd20  1  0.000028  0.500021  0.732490  1
  Pd  Pd21  1  0.255457  0.500034  0.500034  1
  Pd  Pd22  1  0.744544  0.499617  0.499617  1
  Pd  Pd23  1  0.500383  0.255456  0.499617  1
  Pd  Pd24  1  0.499966  0.744543  0.500034  1
  Pd  Pd25  1  0.500383  0.499617  0.255456  1
  Pd  Pd26  1  0.499966  0.500034  0.744543  1
  Pd  Pd27  1  0.315209  0.999966  0.999966  1
  Pd  Pd28  1  0.684846  0.000306  0.000306  1
  Pd  Pd29  1  0.999694  0.315154  0.000306  1
  Pd  Pd30  1  0.000034  0.684791  0.999966  1
  Pd  Pd31  1  0.999694  0.000306  0.315154  1
  Pd  Pd32  1  0.000034  0.999966  0.684791  1
