# generated using pymatgen
data_CsLu(AgTe2)4
_symmetry_space_group_name_H-M   'P 1'
_cell_length_a   12.13315992
_cell_length_b   12.13316001
_cell_length_c   10.99788224
_cell_angle_alpha   85.05792230
_cell_angle_beta   85.05792191
_cell_angle_gamma   14.97212854
_symmetry_Int_Tables_number   1
_chemical_formula_structural   CsLu(AgTe2)4
_chemical_formula_sum   'Cs1 Lu1 Ag4 Te8'
_cell_volume   416.69502022
_cell_formula_units_Z   1
loop_
 _symmetry_equiv_pos_site_id
 _symmetry_equiv_pos_as_xyz
  1  'x, y, z'
loop_
 _atom_site_type_symbol
 _atom_site_label
 _atom_site_symmetry_multiplicity
 _atom_site_fract_x
 _atom_site_fract_y
 _atom_site_fract_z
 _atom_site_occupancy
  Cs  Cs0  1  0.000000  0.000000  0.000000  1
  Lu  Lu1  1  0.500000  0.500000  0.500000  1
  Ag  Ag2  1  0.209957  0.209957  0.140952  1
  Ag  Ag3  1  0.844355  0.844355  0.493107  1
  Ag  Ag4  1  0.155645  0.155645  0.506893  1
  Ag  Ag5  1  0.790043  0.790043  0.859048  1
  Te  Te6  1  0.923531  0.923531  0.686636  1
  Te  Te7  1  0.076469  0.076469  0.313364  1
  Te  Te8  1  0.584129  0.584129  0.693970  1
  Te  Te9  1  0.415871  0.415871  0.306030  1
  Te  Te10  1  0.660499  0.660499  0.960236  1
  Te  Te11  1  0.339501  0.339501  0.039764  1
  Te  Te12  1  0.739689  0.739689  0.346994  1
  Te  Te13  1  0.260311  0.260311  0.653006  1
