# generated using pymatgen
data_Pr2Dy(AlI)2
_symmetry_space_group_name_H-M   'P 1'
_cell_length_a   9.88094377
_cell_length_b   9.88094409
_cell_length_c   12.14529400
_cell_angle_alpha   59.68451318
_cell_angle_beta   59.68451210
_cell_angle_gamma   25.09538676
_symmetry_Int_Tables_number   1
_chemical_formula_structural   Pr2Dy(AlI)2
_chemical_formula_sum   'Pr4 Dy2 Al4 I4'
_cell_volume   430.45956718
_cell_formula_units_Z   2
loop_
 _symmetry_equiv_pos_site_id
 _symmetry_equiv_pos_as_xyz
  1  'x, y, z'
loop_
 _atom_site_type_symbol
 _atom_site_label
 _atom_site_symmetry_multiplicity
 _atom_site_fract_x
 _atom_site_fract_y
 _atom_site_fract_z
 _atom_site_occupancy
  Pr  Pr0  1  0.755428  0.755428  0.800180  1
  Pr  Pr1  1  0.244572  0.244572  0.199820  1
  Pr  Pr2  1  0.534854  0.534854  0.311543  1
  Pr  Pr3  1  0.465146  0.465146  0.688457  1
  Dy  Dy4  1  0.831174  0.831174  0.390954  1
  Dy  Dy5  1  0.168826  0.168826  0.609046  1
  Al  Al6  1  0.925915  0.925915  0.529349  1
  Al  Al7  1  0.074085  0.074085  0.470651  1
  Al  Al8  1  0.336114  0.336114  0.580182  1
  Al  Al9  1  0.663886  0.663886  0.419818  1
  I  I10  1  0.421400  0.421400  0.176611  1
  I  I11  1  0.578600  0.578600  0.823389  1
  I  I12  1  0.860150  0.860150  0.942145  1
  I  I13  1  0.139850  0.139850  0.057855  1
