# generated using pymatgen
data_Tb12Si11Ir
_symmetry_space_group_name_H-M   'P 1'
_cell_length_a   3.86214600
_cell_length_b   5.73749133
_cell_length_c   24.07581526
_cell_angle_alpha   82.53369258
_cell_angle_beta   90.00000000
_cell_angle_gamma   90.00000000
_symmetry_Int_Tables_number   1
_chemical_formula_structural   Tb12Si11Ir
_chemical_formula_sum   'Tb12 Si11 Ir1'
_cell_volume   528.97341240
_cell_formula_units_Z   1
loop_
 _symmetry_equiv_pos_site_id
 _symmetry_equiv_pos_as_xyz
  1  'x, y, z'
loop_
 _atom_site_type_symbol
 _atom_site_label
 _atom_site_symmetry_multiplicity
 _atom_site_fract_x
 _atom_site_fract_y
 _atom_site_fract_z
 _atom_site_occupancy
  Tb  Tb0  1  0.750000  0.350780  0.063632  1
  Tb  Tb1  1  0.250000  0.660125  0.939745  1
  Tb  Tb2  1  0.750000  0.523753  0.223404  1
  Tb  Tb3  1  0.250000  0.468971  0.773420  1
  Tb  Tb4  1  0.750000  0.166306  0.393401  1
  Tb  Tb5  1  0.250000  0.827553  0.606417  1
  Tb  Tb6  1  0.750000  0.351952  0.559745  1
  Tb  Tb7  1  0.250000  0.643086  0.439968  1
  Tb  Tb8  1  0.750000  0.993919  0.726742  1
  Tb  Tb9  1  0.250000  0.996603  0.273885  1
  Tb  Tb10  1  0.750000  0.169028  0.892948  1
  Tb  Tb11  1  0.250000  0.828218  0.107226  1
  Si  Si12  1  0.750000  0.876705  0.011917  1
  Si  Si13  1  0.250000  0.145610  0.987419  1
  Si  Si14  1  0.750000  0.051821  0.179240  1
  Si  Si15  1  0.250000  0.954969  0.820984  1
  Si  Si16  1  0.750000  0.702163  0.345894  1
  Si  Si17  1  0.250000  0.290427  0.654001  1
  Si  Si18  1  0.750000  0.864151  0.512035  1
  Si  Si19  1  0.250000  0.132314  0.487518  1
  Si  Si20  1  0.750000  0.531962  0.679049  1
  Si  Si21  1  0.250000  0.462680  0.321233  1
  Si  Si22  1  0.750000  0.683706  0.845762  1
  Ir  Ir23  1  0.250000  0.323198  0.154414  1
