# generated using pymatgen
data_YTm2In3Pt2Rh
_symmetry_space_group_name_H-M   'P 1'
_cell_length_a   7.67912818
_cell_length_b   7.65746456
_cell_length_c   3.80397100
_cell_angle_alpha   90.00000000
_cell_angle_beta   90.00000000
_cell_angle_gamma   119.90671718
_symmetry_Int_Tables_number   1
_chemical_formula_structural   YTm2In3Pt2Rh
_chemical_formula_sum   'Y1 Tm2 In3 Pt2 Rh1'
_cell_volume   193.89749676
_cell_formula_units_Z   1
loop_
 _symmetry_equiv_pos_site_id
 _symmetry_equiv_pos_as_xyz
  1  'x, y, z'
loop_
 _atom_site_type_symbol
 _atom_site_label
 _atom_site_symmetry_multiplicity
 _atom_site_fract_x
 _atom_site_fract_y
 _atom_site_fract_z
 _atom_site_occupancy
  Y  Y0  1  0.000000  0.403665  0.500000  1
  Tm  Tm1  1  0.596623  0.596493  0.500000  1
  Tm  Tm2  1  0.403377  0.999870  0.500000  1
  In  In3  1  0.259123  0.258255  0.000000  1
  In  In4  1  0.000000  0.742498  0.000000  1
  In  In5  1  0.740877  0.999132  0.000000  1
  Pt  Pt6  1  0.336644  0.669231  0.000000  1
  Pt  Pt7  1  0.663356  0.332586  0.000000  1
  Rh  Rh8  1  0.000000  0.998270  0.500000  1
