# generated using pymatgen
data_Tb6DyHo(MoO6)4
_symmetry_space_group_name_H-M   'P 1'
_cell_length_a   9.97495385
_cell_length_b   9.97495292
_cell_length_c   5.41413300
_cell_angle_alpha   75.04128850
_cell_angle_beta   75.04128493
_cell_angle_gamma   68.17105886
_symmetry_Int_Tables_number   1
_chemical_formula_structural   Tb6DyHo(MoO6)4
_chemical_formula_sum   'Tb6 Dy1 Ho1 Mo4 O24'
_cell_volume   475.17029276
_cell_formula_units_Z   1
loop_
 _symmetry_equiv_pos_site_id
 _symmetry_equiv_pos_as_xyz
  1  'x, y, z'
loop_
 _atom_site_type_symbol
 _atom_site_label
 _atom_site_symmetry_multiplicity
 _atom_site_fract_x
 _atom_site_fract_y
 _atom_site_fract_z
 _atom_site_occupancy
  Tb  Tb0  1  0.447738  0.215970  0.378356  1
  Tb  Tb1  1  0.784030  0.552262  0.121644  1
  Tb  Tb2  1  0.552349  0.784012  0.621591  1
  Tb  Tb3  1  0.215988  0.447651  0.878409  1
  Tb  Tb4  1  0.863630  0.136370  0.250000  1
  Tb  Tb5  1  0.136297  0.863703  0.750000  1
  Dy  Dy6  1  0.394087  0.605913  0.250000  1
  Ho  Ho7  1  0.605579  0.394421  0.750000  1
  Mo  Mo8  1  0.296544  0.011056  0.061732  1
  Mo  Mo9  1  0.988944  0.703456  0.438268  1
  Mo  Mo10  1  0.703444  0.989042  0.938124  1
  Mo  Mo11  1  0.010958  0.296556  0.561876  1
  O  O12  1  0.608894  0.572190  0.921920  1
  O  O13  1  0.427810  0.391106  0.578080  1
  O  O14  1  0.391534  0.427195  0.077132  1
  O  O15  1  0.572805  0.608466  0.422868  1
  O  O16  1  0.337806  0.807441  0.920782  1
  O  O17  1  0.192559  0.662194  0.579218  1
  O  O18  1  0.662076  0.193089  0.078294  1
  O  O19  1  0.806911  0.337924  0.421706  1
  O  O20  1  0.326124  0.884677  0.373606  1
  O  O21  1  0.115323  0.673876  0.126394  1
  O  O22  1  0.673894  0.115300  0.626400  1
  O  O23  1  0.884700  0.326106  0.873600  1
  O  O24  1  0.182987  0.288939  0.636556  1
  O  O25  1  0.711061  0.817013  0.863444  1
  O  O26  1  0.817050  0.711086  0.363434  1
  O  O27  1  0.288914  0.182950  0.136566  1
  O  O28  1  0.047720  0.111569  0.514786  1
  O  O29  1  0.888431  0.952280  0.985214  1
  O  O30  1  0.952271  0.888454  0.485189  1
  O  O31  1  0.111546  0.047729  0.014811  1
  O  O32  1  0.024759  0.432071  0.257011  1
  O  O33  1  0.567929  0.975241  0.242989  1
  O  O34  1  0.975214  0.567908  0.742971  1
  O  O35  1  0.432092  0.024786  0.757029  1
