# generated using pymatgen
data_Sc7Pa(CoOs)4
_symmetry_space_group_name_H-M   'P 1'
_cell_length_a   6.40383252
_cell_length_b   4.56203600
_cell_length_c   9.09272774
_cell_angle_alpha   90.00000000
_cell_angle_beta   90.04620657
_cell_angle_gamma   90.00000000
_symmetry_Int_Tables_number   1
_chemical_formula_structural   Sc7Pa(CoOs)4
_chemical_formula_sum   'Sc7 Pa1 Co4 Os4'
_cell_volume   265.63953997
_cell_formula_units_Z   1
loop_
 _symmetry_equiv_pos_site_id
 _symmetry_equiv_pos_as_xyz
  1  'x, y, z'
loop_
 _atom_site_type_symbol
 _atom_site_label
 _atom_site_symmetry_multiplicity
 _atom_site_fract_x
 _atom_site_fract_y
 _atom_site_fract_z
 _atom_site_occupancy
  Sc  Sc0  1  0.002277  0.750001  0.125017  1
  Sc  Sc1  1  0.499804  0.250001  0.387637  1
  Sc  Sc2  1  0.999782  0.250001  0.377557  1
  Sc  Sc3  1  0.997930  0.750001  0.625044  1
  Sc  Sc4  1  0.497063  0.750001  0.625039  1
  Sc  Sc5  1  0.999828  0.250001  0.872400  1
  Sc  Sc6  1  0.499841  0.250001  0.862350  1
  Pa  Pa7  1  0.502448  0.750001  0.124978  1
  Co  Co8  1  0.742673  0.250001  0.124994  1
  Co  Co9  1  0.256151  0.750001  0.368085  1
  Co  Co10  1  0.749820  0.250001  0.625001  1
  Co  Co11  1  0.256150  0.750001  0.881936  1
  Os  Os12  1  0.255790  0.250001  0.124992  1
  Os  Os13  1  0.747208  0.750001  0.372343  1
  Os  Os14  1  0.245998  0.250001  0.624981  1
  Os  Os15  1  0.747238  0.750001  0.877646  1
