# generated using pymatgen
data_Ho3Fe8NiP6
_symmetry_space_group_name_H-M   'P 1'
_cell_length_a   3.71098800
_cell_length_b   10.46286700
_cell_length_c   12.18126800
_cell_angle_alpha   90.00000000
_cell_angle_beta   90.00000000
_cell_angle_gamma   90.00000000
_symmetry_Int_Tables_number   1
_chemical_formula_structural   Ho3Fe8NiP6
_chemical_formula_sum   'Ho6 Fe16 Ni2 P12'
_cell_volume   472.96908325
_cell_formula_units_Z   2
loop_
 _symmetry_equiv_pos_site_id
 _symmetry_equiv_pos_as_xyz
  1  'x, y, z'
loop_
 _atom_site_type_symbol
 _atom_site_label
 _atom_site_symmetry_multiplicity
 _atom_site_fract_x
 _atom_site_fract_y
 _atom_site_fract_z
 _atom_site_occupancy
  Ho  Ho0  1  0.000000  0.500000  0.522778  1
  Ho  Ho1  1  0.500000  0.000000  0.477222  1
  Ho  Ho2  1  0.500000  0.817327  0.206235  1
  Ho  Ho3  1  0.500000  0.182673  0.206235  1
  Ho  Ho4  1  0.000000  0.682673  0.793765  1
  Ho  Ho5  1  0.000000  0.317327  0.793765  1
  Fe  Fe6  1  0.500000  0.500000  0.153115  1
  Fe  Fe7  1  0.000000  0.000000  0.846885  1
  Fe  Fe8  1  0.000000  0.500000  0.988711  1
  Fe  Fe9  1  0.500000  0.000000  0.011289  1
  Fe  Fe10  1  0.500000  0.327688  0.996612  1
  Fe  Fe11  1  0.500000  0.672312  0.996612  1
  Fe  Fe12  1  0.000000  0.172312  0.003388  1
  Fe  Fe13  1  0.000000  0.827688  0.003388  1
  Fe  Fe14  1  0.500000  0.299339  0.429845  1
  Fe  Fe15  1  0.500000  0.700661  0.429845  1
  Fe  Fe16  1  0.000000  0.200661  0.570155  1
  Fe  Fe17  1  0.000000  0.799339  0.570155  1
  Fe  Fe18  1  0.500000  0.882200  0.709838  1
  Fe  Fe19  1  0.500000  0.117800  0.709838  1
  Fe  Fe20  1  0.000000  0.617800  0.290162  1
  Fe  Fe21  1  0.000000  0.382200  0.290162  1
  Ni  Ni22  1  0.500000  0.500000  0.701112  1
  Ni  Ni23  1  0.000000  0.000000  0.298888  1
  P  P24  1  0.500000  0.500000  0.885791  1
  P  P25  1  0.000000  0.000000  0.114209  1
  P  P26  1  0.500000  0.500000  0.342101  1
  P  P27  1  0.000000  0.000000  0.657899  1
  P  P28  1  0.500000  0.305002  0.613497  1
  P  P29  1  0.500000  0.694998  0.613497  1
  P  P30  1  0.000000  0.194998  0.386503  1
  P  P31  1  0.000000  0.805002  0.386503  1
  P  P32  1  0.500000  0.850943  0.888737  1
  P  P33  1  0.500000  0.149057  0.888737  1
  P  P34  1  0.000000  0.649057  0.111263  1
  P  P35  1  0.000000  0.350943  0.111263  1
