# generated using pymatgen
data_K5ZrUF13
_symmetry_space_group_name_H-M   'P 1'
_cell_length_a   7.17217093
_cell_length_b   7.17216997
_cell_length_c   9.37774306
_cell_angle_alpha   83.41237008
_cell_angle_beta   83.41236852
_cell_angle_gamma   51.29416251
_symmetry_Int_Tables_number   1
_chemical_formula_structural   K5ZrUF13
_chemical_formula_sum   'K5 Zr1 U1 F13'
_cell_volume   373.38142447
_cell_formula_units_Z   1
loop_
 _symmetry_equiv_pos_site_id
 _symmetry_equiv_pos_as_xyz
  1  'x, y, z'
loop_
 _atom_site_type_symbol
 _atom_site_label
 _atom_site_symmetry_multiplicity
 _atom_site_fract_x
 _atom_site_fract_y
 _atom_site_fract_z
 _atom_site_occupancy
  K  K0  1  0.222267  0.222267  0.850301  1
  K  K1  1  0.779068  0.779068  0.153582  1
  K  K2  1  0.499906  0.499906  0.003605  1
  K  K3  1  0.657278  0.657278  0.564932  1
  K  K4  1  0.342543  0.342543  0.421950  1
  Zr  Zr5  1  0.073697  0.073697  0.260206  1
  U  U6  1  0.929688  0.929688  0.731038  1
  F  F7  1  0.050191  0.592585  0.641023  1
  F  F8  1  0.592585  0.050191  0.641023  1
  F  F9  1  0.955808  0.385911  0.353932  1
  F  F10  1  0.385911  0.955808  0.353932  1
  F  F11  1  0.651338  0.079896  0.919591  1
  F  F12  1  0.079896  0.651338  0.919591  1
  F  F13  1  0.333521  0.926694  0.091024  1
  F  F14  1  0.926694  0.333521  0.091024  1
  F  F15  1  0.288613  0.826237  0.752594  1
  F  F16  1  0.826237  0.288613  0.752594  1
  F  F17  1  0.734562  0.167208  0.254115  1
  F  F18  1  0.167208  0.734562  0.254115  1
  F  F19  1  0.002990  0.002990  0.489827  1
