# generated using pymatgen
data_NdTm3(Rh2O7)2
_symmetry_space_group_name_H-M   'P 1'
_cell_length_a   7.25501020
_cell_length_b   7.18633211
_cell_length_c   7.18633200
_cell_angle_alpha   60.00000969
_cell_angle_beta   60.31266127
_cell_angle_gamma   60.31266254
_symmetry_Int_Tables_number   1
_chemical_formula_structural   NdTm3(Rh2O7)2
_chemical_formula_sum   'Nd1 Tm3 Rh4 O14'
_cell_volume   266.17910622
_cell_formula_units_Z   1
loop_
 _symmetry_equiv_pos_site_id
 _symmetry_equiv_pos_as_xyz
  1  'x, y, z'
loop_
 _atom_site_type_symbol
 _atom_site_label
 _atom_site_symmetry_multiplicity
 _atom_site_fract_x
 _atom_site_fract_y
 _atom_site_fract_z
 _atom_site_occupancy
  Nd  Nd0  1  0.625000  0.125000  0.125000  1
  Tm  Tm1  1  0.125000  0.625000  0.125000  1
  Tm  Tm2  1  0.125000  0.125000  0.625000  1
  Tm  Tm3  1  0.125000  0.125000  0.125000  1
  Rh  Rh4  1  0.125000  0.625000  0.625000  1
  Rh  Rh5  1  0.625000  0.125000  0.625000  1
  Rh  Rh6  1  0.625000  0.625000  0.125000  1
  Rh  Rh7  1  0.625000  0.625000  0.625000  1
  O  O8  1  0.722721  0.701743  0.287768  1
  O  O9  1  0.286910  0.288111  0.712489  1
  O  O10  1  0.722721  0.287768  0.701743  1
  O  O11  1  0.286910  0.712489  0.288111  1
  O  O12  1  0.286910  0.712489  0.712489  1
  O  O13  1  0.722721  0.287768  0.287768  1
  O  O14  1  0.527279  0.548257  0.962232  1
  O  O15  1  0.963090  0.961889  0.537511  1
  O  O16  1  0.527279  0.962232  0.548257  1
  O  O17  1  0.963090  0.537511  0.961889  1
  O  O18  1  0.963090  0.537511  0.537511  1
  O  O19  1  0.527279  0.962232  0.962232  1
  O  O20  1  0.236670  0.254443  0.254443  1
  O  O21  1  0.013330  0.995557  0.995557  1
