# generated using pymatgen
data_CeThBe25Co
_symmetry_space_group_name_H-M   'P 1'
_cell_length_a   7.31296896
_cell_length_b   7.29348381
_cell_length_c   7.29168334
_cell_angle_alpha   60.17485101
_cell_angle_beta   59.87332227
_cell_angle_gamma   60.45356416
_symmetry_Int_Tables_number   1
_chemical_formula_structural   CeThBe25Co
_chemical_formula_sum   'Ce1 Th1 Be25 Co1'
_cell_volume   276.03320618
_cell_formula_units_Z   1
loop_
 _symmetry_equiv_pos_site_id
 _symmetry_equiv_pos_as_xyz
  1  'x, y, z'
loop_
 _atom_site_type_symbol
 _atom_site_label
 _atom_site_symmetry_multiplicity
 _atom_site_fract_x
 _atom_site_fract_y
 _atom_site_fract_z
 _atom_site_occupancy
  Ce  Ce0  1  0.756933  0.749449  0.744091  1
  Th  Th1  1  0.251038  0.244034  0.250234  1
  Be  Be2  1  0.287276  0.713849  0.065695  1
  Be  Be3  1  0.000918  0.999018  0.004192  1
  Be  Be4  1  0.503118  0.497062  0.499631  1
  Be  Be5  1  0.709500  0.291810  0.934435  1
  Be  Be6  1  0.436049  0.787184  0.212431  1
  Be  Be7  1  0.211272  0.564972  0.437301  1
  Be  Be8  1  0.436698  0.564454  0.788908  1
  Be  Be9  1  0.563148  0.438287  0.207217  1
  Be  Be10  1  0.564346  0.786263  0.438307  1
  Be  Be11  1  0.212511  0.437043  0.787549  1
  Be  Be12  1  0.936109  0.291697  0.060625  1
  Be  Be13  1  0.060520  0.290085  0.709240  1
  Be  Be14  1  0.289918  0.062071  0.937928  1
  Be  Be15  1  0.061544  0.707396  0.938953  1
  Be  Be16  1  0.293678  0.937362  0.709216  1
  Be  Be17  1  0.936511  0.711314  0.291222  1
  Be  Be18  1  0.709234  0.062838  0.289629  1
  Be  Be19  1  0.711145  0.938435  0.058423  1
  Be  Be20  1  0.216590  0.782291  0.566999  1
  Be  Be21  1  0.786998  0.438497  0.563763  1
  Be  Be22  1  0.784599  0.567574  0.210868  1
  Be  Be23  1  0.433538  0.214208  0.564194  1
  Be  Be24  1  0.563020  0.211815  0.787794  1
  Be  Be25  1  0.785550  0.213436  0.434417  1
  Be  Be26  1  0.941151  0.057127  0.705744  1
  Co  Co27  1  0.057090  0.940426  0.300994  1
