# generated using pymatgen
data_Yb13Sm(PbN4)2
_symmetry_space_group_name_H-M   'P 1'
_cell_length_a   3.51657300
_cell_length_b   11.78229352
_cell_length_c   11.30244700
_cell_angle_alpha   90.06890691
_cell_angle_beta   90.00000000
_cell_angle_gamma   90.00000000
_symmetry_Int_Tables_number   1
_chemical_formula_structural   Yb13Sm(PbN4)2
_chemical_formula_sum   'Yb13 Sm1 Pb2 N8'
_cell_volume   468.29728520
_cell_formula_units_Z   1
loop_
 _symmetry_equiv_pos_site_id
 _symmetry_equiv_pos_as_xyz
  1  'x, y, z'
loop_
 _atom_site_type_symbol
 _atom_site_label
 _atom_site_symmetry_multiplicity
 _atom_site_fract_x
 _atom_site_fract_y
 _atom_site_fract_z
 _atom_site_occupancy
  Yb  Yb0  1  0.500148  0.662721  0.249394  1
  Yb  Yb1  1  0.500148  0.337279  0.750606  1
  Yb  Yb2  1  0.499940  0.160904  0.254186  1
  Yb  Yb3  1  0.499940  0.839096  0.745814  1
  Yb  Yb4  1  0.499859  0.000000  0.500000  1
  Yb  Yb5  1  0.000070  0.925748  0.261469  1
  Yb  Yb6  1  0.000070  0.074252  0.738531  1
  Yb  Yb7  1  0.999736  0.421451  0.244892  1
  Yb  Yb8  1  0.999736  0.578549  0.755108  1
  Yb  Yb9  1  0.999731  0.763948  0.483724  1
  Yb  Yb10  1  0.999731  0.236052  0.516276  1
  Yb  Yb11  1  0.000427  0.255982  0.016925  1
  Yb  Yb12  1  0.000427  0.744018  0.983075  1
  Sm  Sm13  1  0.499704  0.500000  0.000000  1
  Pb  Pb14  1  0.497011  0.500000  0.500000  1
  Pb  Pb15  1  0.503144  0.000000  0.000000  1
  N  N16  1  0.000222  0.596699  0.127201  1
  N  N17  1  0.000222  0.403301  0.872799  1
  N  N18  1  0.999903  0.099950  0.368308  1
  N  N19  1  0.999903  0.900050  0.631692  1
  N  N20  1  0.499973  0.831095  0.359287  1
  N  N21  1  0.499973  0.168905  0.640713  1
  N  N22  1  0.499992  0.334550  0.137150  1
  N  N23  1  0.499992  0.665450  0.862850  1
