# generated using pymatgen
data_Sm6OsI10
_symmetry_space_group_name_H-M   'P 1'
_cell_length_a   7.88149912
_cell_length_b   9.88586197
_cell_length_c   9.94246682
_cell_angle_alpha   107.60057997
_cell_angle_beta   97.10823232
_cell_angle_gamma   105.01564147
_symmetry_Int_Tables_number   1
_chemical_formula_structural   Sm6OsI10
_chemical_formula_sum   'Sm6 Os1 I10'
_cell_volume   695.80053025
_cell_formula_units_Z   1
loop_
 _symmetry_equiv_pos_site_id
 _symmetry_equiv_pos_as_xyz
  1  'x, y, z'
loop_
 _atom_site_type_symbol
 _atom_site_label
 _atom_site_symmetry_multiplicity
 _atom_site_fract_x
 _atom_site_fract_y
 _atom_site_fract_z
 _atom_site_occupancy
  Sm  Sm0  1  0.351163  0.126996  0.167883  1
  Sm  Sm1  1  0.648837  0.873004  0.832117  1
  Sm  Sm2  1  0.971651  0.284543  0.084866  1
  Sm  Sm3  1  0.028349  0.715457  0.915134  1
  Sm  Sm4  1  0.884880  0.959188  0.244448  1
  Sm  Sm5  1  0.115120  0.040812  0.755552  1
  Os  Os6  1  0.000000  0.000000  0.000000  1
  I  I7  1  0.356626  0.454586  0.273359  1
  I  I8  1  0.643374  0.545414  0.726641  1
  I  I9  1  0.789045  0.262021  0.349989  1
  I  I10  1  0.210955  0.737979  0.650011  1
  I  I11  1  0.547282  0.183421  0.909057  1
  I  I12  1  0.452718  0.816579  0.090943  1
  I  I13  1  0.737430  0.911382  0.538273  1
  I  I14  1  0.262570  0.088618  0.461727  1
  I  I15  1  0.913217  0.630201  0.180155  1
  I  I16  1  0.086783  0.369799  0.819845  1
