# generated using pymatgen
data_LiYb8Si16Tc11
_symmetry_space_group_name_H-M   'P 1'
_cell_length_a   6.78987600
_cell_length_b   6.84299315
_cell_length_c   12.65574600
_cell_angle_alpha   90.00000000
_cell_angle_beta   90.00000000
_cell_angle_gamma   89.85097037
_symmetry_Int_Tables_number   1
_chemical_formula_structural   LiYb8Si16Tc11
_chemical_formula_sum   'Li1 Yb8 Si16 Tc11'
_cell_volume   588.02288574
_cell_formula_units_Z   1
loop_
 _symmetry_equiv_pos_site_id
 _symmetry_equiv_pos_as_xyz
  1  'x, y, z'
loop_
 _atom_site_type_symbol
 _atom_site_label
 _atom_site_symmetry_multiplicity
 _atom_site_fract_x
 _atom_site_fract_y
 _atom_site_fract_z
 _atom_site_occupancy
  Li  Li0  1  0.671340  0.997217  0.250000  1
  Yb  Yb1  1  0.489131  0.655694  0.590822  1
  Yb  Yb2  1  0.991321  0.843305  0.909380  1
  Yb  Yb3  1  0.504407  0.336279  0.091546  1
  Yb  Yb4  1  0.005147  0.162022  0.413347  1
  Yb  Yb5  1  0.504407  0.336279  0.408454  1
  Yb  Yb6  1  0.005147  0.162022  0.086653  1
  Yb  Yb7  1  0.489131  0.655694  0.909178  1
  Yb  Yb8  1  0.991321  0.843305  0.590620  1
  Si  Si9  1  0.654956  0.948829  0.457210  1
  Si  Si10  1  0.153160  0.553987  0.051547  1
  Si  Si11  1  0.349758  0.046496  0.947005  1
  Si  Si12  1  0.848102  0.455606  0.552594  1
  Si  Si13  1  0.349758  0.046496  0.552995  1
  Si  Si14  1  0.848102  0.455606  0.947406  1
  Si  Si15  1  0.654956  0.948829  0.042790  1
  Si  Si16  1  0.153160  0.553987  0.448453  1
  Si  Si17  1  0.468389  0.354005  0.750000  1
  Si  Si18  1  0.969721  0.147263  0.750000  1
  Si  Si19  1  0.531572  0.638317  0.250000  1
  Si  Si20  1  0.045129  0.840391  0.250000  1
  Si  Si21  1  0.683492  0.862827  0.750000  1
  Si  Si22  1  0.184568  0.637885  0.750000  1
  Si  Si23  1  0.276249  0.117541  0.250000  1
  Si  Si24  1  0.822251  0.385007  0.250000  1
  Tc  Tc25  1  0.673179  0.154624  0.628218  1
  Tc  Tc26  1  0.173905  0.347582  0.873185  1
  Tc  Tc27  1  0.341378  0.842166  0.122065  1
  Tc  Tc28  1  0.821913  0.664502  0.376227  1
  Tc  Tc29  1  0.341378  0.842166  0.377935  1
  Tc  Tc30  1  0.821913  0.664502  0.123773  1
  Tc  Tc31  1  0.673179  0.154624  0.871782  1
  Tc  Tc32  1  0.173905  0.347582  0.626815  1
  Tc  Tc33  1  0.827528  0.503323  0.750000  1
  Tc  Tc34  1  0.326667  0.997980  0.750000  1
  Tc  Tc35  1  0.180376  0.496060  0.250000  1
