# generated using pymatgen
data_Ca6Si24OsRu7
_symmetry_space_group_name_H-M   'P 1'
_cell_length_a   10.19200684
_cell_length_b   10.19200653
_cell_length_c   8.19141905
_cell_angle_alpha   89.99279862
_cell_angle_beta   89.99280598
_cell_angle_gamma   132.56951779
_symmetry_Int_Tables_number   1
_chemical_formula_structural   Ca6Si24OsRu7
_chemical_formula_sum   'Ca6 Si24 Os1 Ru7'
_cell_volume   626.65133687
_cell_formula_units_Z   1
loop_
 _symmetry_equiv_pos_site_id
 _symmetry_equiv_pos_as_xyz
  1  'x, y, z'
loop_
 _atom_site_type_symbol
 _atom_site_label
 _atom_site_symmetry_multiplicity
 _atom_site_fract_x
 _atom_site_fract_y
 _atom_site_fract_z
 _atom_site_occupancy
  Ca  Ca0  1  0.499809  0.500191  0.500000  1
  Ca  Ca1  1  0.000070  0.999930  0.000000  1
  Ca  Ca2  1  0.501686  0.001579  0.749957  1
  Ca  Ca3  1  0.998421  0.498314  0.250043  1
  Ca  Ca4  1  0.498273  0.998231  0.249876  1
  Ca  Ca5  1  0.001769  0.501727  0.750124  1
  Si  Si6  1  0.794228  0.205772  0.500000  1
  Si  Si7  1  0.294190  0.705810  0.000000  1
  Si  Si8  1  0.205919  0.794081  0.500000  1
  Si  Si9  1  0.705853  0.294147  0.000000  1
  Si  Si10  1  0.332735  0.332866  0.832637  1
  Si  Si11  1  0.667134  0.667265  0.167363  1
  Si  Si12  1  0.167177  0.166908  0.332535  1
  Si  Si13  1  0.833092  0.832823  0.667465  1
  Si  Si14  1  0.124753  0.892073  0.730388  1
  Si  Si15  1  0.107927  0.875247  0.269612  1
  Si  Si16  1  0.607643  0.375402  0.229747  1
  Si  Si17  1  0.624598  0.392357  0.770253  1
  Si  Si18  1  0.874465  0.107004  0.269147  1
  Si  Si19  1  0.892996  0.125535  0.730853  1
  Si  Si20  1  0.392529  0.624968  0.769725  1
  Si  Si21  1  0.375032  0.607471  0.230275  1
  Si  Si22  1  0.345821  0.113157  0.507773  1
  Si  Si23  1  0.886843  0.654179  0.492227  1
  Si  Si24  1  0.386256  0.153258  0.007433  1
  Si  Si25  1  0.846742  0.613744  0.992567  1
  Si  Si26  1  0.653002  0.885894  0.491518  1
  Si  Si27  1  0.114106  0.346998  0.508482  1
  Si  Si28  1  0.613689  0.846521  0.992220  1
  Si  Si29  1  0.153479  0.386311  0.007780  1
  Os  Os30  1  0.668938  0.331062  0.500000  1
  Ru  Ru31  1  0.169077  0.830923  0.000000  1
  Ru  Ru32  1  0.330979  0.669021  0.500000  1
  Ru  Ru33  1  0.830945  0.169055  0.000000  1
  Ru  Ru34  1  0.125009  0.125307  0.624635  1
  Ru  Ru35  1  0.874693  0.874991  0.375365  1
  Ru  Ru36  1  0.374587  0.374462  0.124604  1
  Ru  Ru37  1  0.625538  0.625413  0.875396  1
