# generated using pymatgen
data_ErTmLu2(WO6)2
_symmetry_space_group_name_H-M   'P 1'
_cell_length_a   5.32727600
_cell_length_b   7.61238998
_cell_length_c   11.31540728
_cell_angle_alpha   75.33199607
_cell_angle_beta   90.00000000
_cell_angle_gamma   90.00000000
_symmetry_Int_Tables_number   1
_chemical_formula_structural   ErTmLu2(WO6)2
_chemical_formula_sum   'Er2 Tm2 Lu4 W4 O24'
_cell_volume   443.92201141
_cell_formula_units_Z   2
loop_
 _symmetry_equiv_pos_site_id
 _symmetry_equiv_pos_as_xyz
  1  'x, y, z'
loop_
 _atom_site_type_symbol
 _atom_site_label
 _atom_site_symmetry_multiplicity
 _atom_site_fract_x
 _atom_site_fract_y
 _atom_site_fract_z
 _atom_site_occupancy
  Er  Er0  1  0.684650  0.500000  0.250000  1
  Er  Er1  1  0.315350  0.500000  0.750000  1
  Tm  Tm2  1  0.741986  0.000000  0.250000  1
  Tm  Tm3  1  0.258014  0.000000  0.750000  1
  Lu  Lu4  1  0.182910  0.205797  0.421003  1
  Lu  Lu5  1  0.182910  0.794203  0.078997  1
  Lu  Lu6  1  0.817090  0.794203  0.578997  1
  Lu  Lu7  1  0.817090  0.205797  0.921003  1
  W  W8  1  0.256322  0.275867  0.114454  1
  W  W9  1  0.256322  0.724133  0.385546  1
  W  W10  1  0.743678  0.724133  0.885546  1
  W  W11  1  0.743678  0.275867  0.614454  1
  O  O12  1  0.458220  0.206438  0.275229  1
  O  O13  1  0.458220  0.793562  0.224771  1
  O  O14  1  0.541780  0.793562  0.724771  1
  O  O15  1  0.541780  0.206438  0.775229  1
  O  O16  1  0.044338  0.057571  0.103804  1
  O  O17  1  0.044338  0.942429  0.396196  1
  O  O18  1  0.955662  0.942429  0.896196  1
  O  O19  1  0.955662  0.057571  0.603804  1
  O  O20  1  0.978864  0.287350  0.230172  1
  O  O21  1  0.978864  0.712650  0.269828  1
  O  O22  1  0.021136  0.712650  0.769828  1
  O  O23  1  0.021136  0.287350  0.730172  1
  O  O24  1  0.852234  0.365380  0.449627  1
  O  O25  1  0.852234  0.634620  0.050373  1
  O  O26  1  0.147766  0.634620  0.550373  1
  O  O27  1  0.147766  0.365380  0.949627  1
  O  O28  1  0.640621  0.512827  0.614313  1
  O  O29  1  0.640621  0.487173  0.885687  1
  O  O30  1  0.359379  0.487173  0.385687  1
  O  O31  1  0.359379  0.512827  0.114313  1
  O  O32  1  0.458922  0.154346  0.568451  1
  O  O33  1  0.458922  0.845654  0.931549  1
  O  O34  1  0.541078  0.845654  0.431549  1
  O  O35  1  0.541078  0.154346  0.068451  1
