# generated using pymatgen
data_TbDy15In4Ru3Rh
_symmetry_space_group_name_H-M   'P 1'
_cell_length_a   9.64104474
_cell_length_b   9.67325706
_cell_length_c   9.67295355
_cell_angle_alpha   59.87290511
_cell_angle_beta   59.75160376
_cell_angle_gamma   59.75185249
_symmetry_Int_Tables_number   1
_chemical_formula_structural   TbDy15In4Ru3Rh
_chemical_formula_sum   'Tb1 Dy15 In4 Ru3 Rh1'
_cell_volume   634.87060738
_cell_formula_units_Z   1
loop_
 _symmetry_equiv_pos_site_id
 _symmetry_equiv_pos_as_xyz
  1  'x, y, z'
loop_
 _atom_site_type_symbol
 _atom_site_label
 _atom_site_symmetry_multiplicity
 _atom_site_fract_x
 _atom_site_fract_y
 _atom_site_fract_z
 _atom_site_occupancy
  Tb  Tb0  1  0.061392  0.440156  0.440153  1
  Dy  Dy1  1  0.808661  0.808510  0.191648  1
  Dy  Dy2  1  0.808661  0.191649  0.808510  1
  Dy  Dy3  1  0.190910  0.194783  0.809952  1
  Dy  Dy4  1  0.652298  0.043928  0.650666  1
  Dy  Dy5  1  0.058441  0.057255  0.443063  1
  Dy  Dy6  1  0.441331  0.437278  0.061619  1
  Dy  Dy7  1  0.652289  0.650502  0.650516  1
  Dy  Dy8  1  0.811324  0.192209  0.192212  1
  Dy  Dy9  1  0.190323  0.809005  0.809010  1
  Dy  Dy10  1  0.041722  0.652560  0.652575  1
  Dy  Dy11  1  0.443390  0.059430  0.059437  1
  Dy  Dy12  1  0.441360  0.061596  0.437283  1
  Dy  Dy13  1  0.058455  0.443040  0.057272  1
  Dy  Dy14  1  0.652313  0.650666  0.043901  1
  Dy  Dy15  1  0.190898  0.809953  0.194786  1
  In  In16  1  0.418991  0.418228  0.418222  1
  In  In17  1  0.417467  0.417750  0.747416  1
  In  In18  1  0.417468  0.747428  0.417725  1
  In  In19  1  0.747885  0.417026  0.417020  1
  Ru  Ru20  1  0.858112  0.417949  0.859174  1
  Ru  Ru21  1  0.858409  0.861246  0.861229  1
  Ru  Ru22  1  0.858107  0.859181  0.417944  1
  Rh  Rh23  1  0.419793  0.858675  0.858668  1
