# generated using pymatgen
data_DyTm5(CoSn6)2
_symmetry_space_group_name_H-M   'P 1'
_cell_length_a   8.43231529
_cell_length_b   8.43231607
_cell_length_c   13.08850830
_cell_angle_alpha   89.99532910
_cell_angle_beta   90.00467687
_cell_angle_gamma   148.79114292
_symmetry_Int_Tables_number   1
_chemical_formula_structural   DyTm5(CoSn6)2
_chemical_formula_sum   'Dy1 Tm5 Co2 Sn12'
_cell_volume   482.22209279
_cell_formula_units_Z   1
loop_
 _symmetry_equiv_pos_site_id
 _symmetry_equiv_pos_as_xyz
  1  'x, y, z'
loop_
 _atom_site_type_symbol
 _atom_site_label
 _atom_site_symmetry_multiplicity
 _atom_site_fract_x
 _atom_site_fract_y
 _atom_site_fract_z
 _atom_site_occupancy
  Dy  Dy0  1  0.899975  0.100025  0.405441  1
  Tm  Tm1  1  0.898914  0.101086  0.093981  1
  Tm  Tm2  1  0.101233  0.898767  0.595286  1
  Tm  Tm3  1  0.900727  0.099273  0.751243  1
  Tm  Tm4  1  0.100822  0.899178  0.905519  1
  Tm  Tm5  1  0.099338  0.900662  0.248939  1
  Co  Co6  1  0.299289  0.700711  0.249628  1
  Co  Co7  1  0.700253  0.299747  0.750210  1
  Sn  Sn8  1  0.756400  0.243600  0.571540  1
  Sn  Sn9  1  0.427496  0.572504  0.576579  1
  Sn  Sn10  1  0.573631  0.426369  0.424421  1
  Sn  Sn11  1  0.732500  0.267500  0.249477  1
  Sn  Sn12  1  0.267144  0.732856  0.750110  1
  Sn  Sn13  1  0.243423  0.756577  0.070935  1
  Sn  Sn14  1  0.243339  0.756661  0.428755  1
  Sn  Sn15  1  0.573358  0.426642  0.074511  1
  Sn  Sn16  1  0.454372  0.545628  0.248394  1
  Sn  Sn17  1  0.545593  0.454407  0.750859  1
  Sn  Sn18  1  0.756289  0.243711  0.928905  1
  Sn  Sn19  1  0.425903  0.574097  0.925268  1
