# generated using pymatgen
data_Nd4Sm2NiCl10
_symmetry_space_group_name_H-M   'P 1'
_cell_length_a   7.29313718
_cell_length_b   9.19257459
_cell_length_c   9.20902021
_cell_angle_alpha   109.24573177
_cell_angle_beta   95.67126593
_cell_angle_gamma   106.11161391
_symmetry_Int_Tables_number   1
_chemical_formula_structural   Nd4Sm2NiCl10
_chemical_formula_sum   'Nd4 Sm2 Ni1 Cl10'
_cell_volume   547.53622359
_cell_formula_units_Z   1
loop_
 _symmetry_equiv_pos_site_id
 _symmetry_equiv_pos_as_xyz
  1  'x, y, z'
loop_
 _atom_site_type_symbol
 _atom_site_label
 _atom_site_symmetry_multiplicity
 _atom_site_fract_x
 _atom_site_fract_y
 _atom_site_fract_z
 _atom_site_occupancy
  Nd  Nd0  1  0.139397  0.052054  0.751900  1
  Nd  Nd1  1  0.860603  0.947946  0.248100  1
  Nd  Nd2  1  0.969275  0.305971  0.101833  1
  Nd  Nd3  1  0.030725  0.694029  0.898167  1
  Sm  Sm4  1  0.361429  0.136750  0.183689  1
  Sm  Sm5  1  0.638571  0.863250  0.816311  1
  Ni  Ni6  1  0.000000  0.000000  0.000000  1
  Cl  Cl7  1  0.549763  0.169782  0.923282  1
  Cl  Cl8  1  0.450237  0.830218  0.076718  1
  Cl  Cl9  1  0.352218  0.445350  0.265266  1
  Cl  Cl10  1  0.647782  0.554650  0.734734  1
  Cl  Cl11  1  0.240219  0.077158  0.442712  1
  Cl  Cl12  1  0.759781  0.922842  0.557288  1
  Cl  Cl13  1  0.777314  0.248220  0.341834  1
  Cl  Cl14  1  0.222686  0.751780  0.658166  1
  Cl  Cl15  1  0.084476  0.362388  0.833590  1
  Cl  Cl16  1  0.915524  0.637612  0.166410  1
