# generated using pymatgen
data_Ta3Ti2ZnRu6
_symmetry_space_group_name_H-M   'P 1'
_cell_length_a   4.41081900
_cell_length_b   6.25504000
_cell_length_c   13.25178500
_cell_angle_alpha   90.00000000
_cell_angle_beta   90.00036777
_cell_angle_gamma   90.00000000
_symmetry_Int_Tables_number   1
_chemical_formula_structural   Ta3Ti2ZnRu6
_chemical_formula_sum   'Ta6 Ti4 Zn2 Ru12'
_cell_volume   365.61475081
_cell_formula_units_Z   2
loop_
 _symmetry_equiv_pos_site_id
 _symmetry_equiv_pos_as_xyz
  1  'x, y, z'
loop_
 _atom_site_type_symbol
 _atom_site_label
 _atom_site_symmetry_multiplicity
 _atom_site_fract_x
 _atom_site_fract_y
 _atom_site_fract_z
 _atom_site_occupancy
  Ta  Ta0  1  0.999967  0.500000  0.994584  1
  Ta  Ta1  1  0.499827  0.000000  0.166680  1
  Ta  Ta2  1  0.999828  0.500000  0.333329  1
  Ta  Ta3  1  0.499969  0.000000  0.505401  1
  Ta  Ta4  1  0.000173  0.500000  0.672618  1
  Ta  Ta5  1  0.500171  0.000000  0.827390  1
  Ti  Ti6  1  0.999984  0.000000  0.999102  1
  Ti  Ti7  1  0.499818  0.500000  0.166494  1
  Ti  Ti8  1  0.999816  0.000000  0.333521  1
  Ti  Ti9  1  0.499985  0.500000  0.500867  1
  Zn  Zn10  1  0.000211  0.000000  0.667695  1
  Zn  Zn11  1  0.500210  0.500000  0.832312  1
  Ru  Ru12  1  0.499984  0.247541  0.001024  1
  Ru  Ru13  1  0.499984  0.752458  0.001024  1
  Ru  Ru14  1  0.999841  0.249462  0.165761  1
  Ru  Ru15  1  0.999841  0.750537  0.165761  1
  Ru  Ru16  1  0.499837  0.250518  0.334255  1
  Ru  Ru17  1  0.499837  0.749483  0.334255  1
  Ru  Ru18  1  0.999986  0.252453  0.498975  1
  Ru  Ru19  1  0.999986  0.747548  0.498975  1
  Ru  Ru20  1  0.500188  0.253678  0.663844  1
  Ru  Ru21  1  0.500188  0.746323  0.663844  1
  Ru  Ru22  1  0.000182  0.246336  0.836145  1
  Ru  Ru23  1  0.000182  0.753663  0.836145  1
