# generated using pymatgen
data_Dy15Tm(AlRh)4
_symmetry_space_group_name_H-M   'P 1'
_cell_length_a   9.50667743
_cell_length_b   9.51680416
_cell_length_c   9.51680581
_cell_angle_alpha   59.97350406
_cell_angle_beta   60.03519130
_cell_angle_gamma   60.03519530
_symmetry_Int_Tables_number   1
_chemical_formula_structural   Dy15Tm(AlRh)4
_chemical_formula_sum   'Dy15 Tm1 Al4 Rh4'
_cell_volume   609.03154131
_cell_formula_units_Z   1
loop_
 _symmetry_equiv_pos_site_id
 _symmetry_equiv_pos_as_xyz
  1  'x, y, z'
loop_
 _atom_site_type_symbol
 _atom_site_label
 _atom_site_symmetry_multiplicity
 _atom_site_fract_x
 _atom_site_fract_y
 _atom_site_fract_z
 _atom_site_occupancy
  Dy  Dy0  1  0.691617  0.692079  0.308095  1
  Dy  Dy1  1  0.308209  0.692079  0.308095  1
  Dy  Dy2  1  0.936740  0.937078  0.562466  1
  Dy  Dy3  1  0.147363  0.146042  0.559231  1
  Dy  Dy4  1  0.563715  0.937078  0.562466  1
  Dy  Dy5  1  0.148061  0.147326  0.147326  1
  Dy  Dy6  1  0.308209  0.308095  0.692079  1
  Dy  Dy7  1  0.936732  0.563268  0.563268  1
  Dy  Dy8  1  0.563715  0.562466  0.937078  1
  Dy  Dy9  1  0.563304  0.936696  0.936696  1
  Dy  Dy10  1  0.936740  0.562466  0.937078  1
  Dy  Dy11  1  0.147363  0.559231  0.146042  1
  Dy  Dy12  1  0.308023  0.691977  0.691977  1
  Dy  Dy13  1  0.691617  0.308095  0.692079  1
  Dy  Dy14  1  0.557288  0.147326  0.147326  1
  Tm  Tm15  1  0.692493  0.307507  0.307507  1
  Al  Al16  1  0.922398  0.923130  0.232073  1
  Al  Al17  1  0.232253  0.922795  0.922795  1
  Al  Al18  1  0.922398  0.232073  0.923130  1
  Al  Al19  1  0.922156  0.922795  0.922795  1
  Rh  Rh20  1  0.358240  0.356927  0.356927  1
  Rh  Rh21  1  0.927907  0.356927  0.356927  1
  Rh  Rh22  1  0.356728  0.357857  0.928687  1
  Rh  Rh23  1  0.356728  0.928687  0.357857  1
