# generated using pymatgen
data_NpSeO6
_symmetry_space_group_name_H-M   'P 1'
_cell_length_a   5.74908700
_cell_length_b   6.95696002
_cell_length_c   13.48527528
_cell_angle_alpha   75.75009414
_cell_angle_beta   90.00000000
_cell_angle_gamma   90.00000000
_symmetry_Int_Tables_number   1
_chemical_formula_structural   NpSeO6
_chemical_formula_sum   'Np4 Se4 O24'
_cell_volume   522.76396322
_cell_formula_units_Z   4
loop_
 _symmetry_equiv_pos_site_id
 _symmetry_equiv_pos_as_xyz
  1  'x, y, z'
loop_
 _atom_site_type_symbol
 _atom_site_label
 _atom_site_symmetry_multiplicity
 _atom_site_fract_x
 _atom_site_fract_y
 _atom_site_fract_z
 _atom_site_occupancy
  Np  Np0  1  0.216935  0.334786  0.850938  1
  Np  Np1  1  0.716935  0.665214  0.649062  1
  Np  Np2  1  0.783065  0.665214  0.149062  1
  Np  Np3  1  0.283065  0.334786  0.350938  1
  Se  Se4  1  0.051470  0.795162  0.387230  1
  Se  Se5  1  0.448530  0.795162  0.887230  1
  Se  Se6  1  0.948530  0.204838  0.612770  1
  Se  Se7  1  0.551470  0.204838  0.112770  1
  O  O8  1  0.485320  0.422019  0.783285  1
  O  O9  1  0.285856  0.651629  0.385741  1
  O  O10  1  0.052943  0.736815  0.088008  1
  O  O11  1  0.447057  0.736815  0.588008  1
  O  O12  1  0.552943  0.263185  0.411992  1
  O  O13  1  0.605634  0.820677  0.780913  1
  O  O14  1  0.514680  0.577981  0.216715  1
  O  O15  1  0.355918  0.016804  0.896584  1
  O  O16  1  0.105634  0.179323  0.719087  1
  O  O17  1  0.785856  0.348371  0.114259  1
  O  O18  1  0.947057  0.263185  0.911992  1
  O  O19  1  0.855918  0.983196  0.603416  1
  O  O20  1  0.985320  0.577981  0.716715  1
  O  O21  1  0.644082  0.983196  0.103416  1
  O  O22  1  0.394366  0.179323  0.219087  1
  O  O23  1  0.882047  0.698367  0.487009  1
  O  O24  1  0.144082  0.016804  0.396584  1
  O  O25  1  0.117953  0.301633  0.512991  1
  O  O26  1  0.214144  0.651629  0.885741  1
  O  O27  1  0.617953  0.698367  0.987009  1
  O  O28  1  0.894366  0.820677  0.280913  1
  O  O29  1  0.382047  0.301633  0.012991  1
  O  O30  1  0.014680  0.422019  0.283285  1
  O  O31  1  0.714144  0.348371  0.614259  1
