# generated using pymatgen
data_Lu5Th3(Ta3Si4)4
_symmetry_space_group_name_H-M   'P 1'
_cell_length_a   7.05817127
_cell_length_b   7.06042185
_cell_length_c   13.09025747
_cell_angle_alpha   89.83084014
_cell_angle_beta   90.01353807
_cell_angle_gamma   90.06733513
_symmetry_Int_Tables_number   1
_chemical_formula_structural   Lu5Th3(Ta3Si4)4
_chemical_formula_sum   'Lu5 Th3 Ta12 Si16'
_cell_volume   652.33221551
_cell_formula_units_Z   1
loop_
 _symmetry_equiv_pos_site_id
 _symmetry_equiv_pos_as_xyz
  1  'x, y, z'
loop_
 _atom_site_type_symbol
 _atom_site_label
 _atom_site_symmetry_multiplicity
 _atom_site_fract_x
 _atom_site_fract_y
 _atom_site_fract_z
 _atom_site_occupancy
  Lu  Lu0  1  0.000491  0.341310  0.216543  1
  Lu  Lu1  1  0.998154  0.659740  0.719403  1
  Lu  Lu2  1  0.159464  0.501643  0.467914  1
  Lu  Lu3  1  0.499104  0.838899  0.031261  1
  Lu  Lu4  1  0.839341  0.499424  0.969004  1
  Th  Th5  1  0.497352  0.163123  0.531859  1
  Th  Th6  1  0.337615  0.996040  0.782627  1
  Th  Th7  1  0.662933  0.003725  0.281199  1
  Ta  Ta8  1  0.167862  0.169380  0.999494  1
  Ta  Ta9  1  0.830800  0.831667  0.499451  1
  Ta  Ta10  1  0.331289  0.669925  0.248454  1
  Ta  Ta11  1  0.668001  0.330797  0.751261  1
  Ta  Ta12  1  0.156634  0.990944  0.373464  1
  Ta  Ta13  1  0.845142  0.006294  0.876349  1
  Ta  Ta14  1  0.508826  0.656011  0.626045  1
  Ta  Ta15  1  0.344506  0.494825  0.876294  1
  Ta  Ta16  1  0.492367  0.345696  0.124822  1
  Ta  Ta17  1  0.657295  0.503241  0.373638  1
  Ta  Ta18  1  0.997392  0.157756  0.625316  1
  Ta  Ta19  1  0.003676  0.843404  0.124546  1
  Si  Si20  1  0.289450  0.042621  0.182354  1
  Si  Si21  1  0.715195  0.954088  0.687142  1
  Si  Si22  1  0.453949  0.784714  0.436116  1
  Si  Si23  1  0.202290  0.540975  0.064107  1
  Si  Si24  1  0.545203  0.206718  0.938927  1
  Si  Si25  1  0.801265  0.463144  0.564758  1
  Si  Si26  1  0.036101  0.301879  0.815434  1
  Si  Si27  1  0.961382  0.698383  0.313612  1
  Si  Si28  1  0.361222  0.301692  0.315506  1
  Si  Si29  1  0.637528  0.699344  0.819383  1
  Si  Si30  1  0.197846  0.861840  0.566295  1
  Si  Si31  1  0.126717  0.790215  0.935365  1
  Si  Si32  1  0.798175  0.134749  0.066328  1
  Si  Si33  1  0.880550  0.209755  0.433094  1
  Si  Si34  1  0.289606  0.379506  0.683893  1
  Si  Si35  1  0.705277  0.626535  0.178741  1
