# generated using pymatgen
data_K4MgMnSe4
_symmetry_space_group_name_H-M   'P 1'
_cell_length_a   8.25945289
_cell_length_b   8.25941387
_cell_length_c   8.25942118
_cell_angle_alpha   133.23174435
_cell_angle_beta   128.34599696
_cell_angle_gamma   72.22043151
_symmetry_Int_Tables_number   1
_chemical_formula_structural   K4MgMnSe4
_chemical_formula_sum   'K4 Mg1 Mn1 Se4'
_cell_volume   314.83045637
_cell_formula_units_Z   1
loop_
 _symmetry_equiv_pos_site_id
 _symmetry_equiv_pos_as_xyz
  1  'x, y, z'
loop_
 _atom_site_type_symbol
 _atom_site_label
 _atom_site_symmetry_multiplicity
 _atom_site_fract_x
 _atom_site_fract_y
 _atom_site_fract_z
 _atom_site_occupancy
  K  K0  1  0.480908  0.144553  0.333739  1
  K  K1  1  0.519086  0.852829  0.663640  1
  K  K2  1  0.189191  0.355455  0.836369  1
  K  K3  1  0.810813  0.647172  0.166262  1
  Mg  Mg4  1  0.999999  0.249999  0.250000  1
  Mn  Mn5  1  0.000005  0.749992  0.749992  1
  Se  Se6  1  0.091609  0.889490  0.192028  1
  Se  Se7  1  0.908390  0.100419  0.797880  1
  Se  Se8  1  0.302541  0.610511  0.702122  1
  Se  Se9  1  0.697458  0.399581  0.307970  1
