# generated using pymatgen
data_Ho12Zn(InFe)2
_symmetry_space_group_name_H-M   'P 1'
_cell_length_a   8.36537992
_cell_length_b   8.36538061
_cell_length_c   8.36538031
_cell_angle_alpha   109.81618417
_cell_angle_beta   109.81617905
_cell_angle_gamma   108.78348507
_symmetry_Int_Tables_number   1
_chemical_formula_structural   Ho12Zn(InFe)2
_chemical_formula_sum   'Ho12 Zn1 In2 Fe2'
_cell_volume   450.59698537
_cell_formula_units_Z   1
loop_
 _symmetry_equiv_pos_site_id
 _symmetry_equiv_pos_as_xyz
  1  'x, y, z'
loop_
 _atom_site_type_symbol
 _atom_site_label
 _atom_site_symmetry_multiplicity
 _atom_site_fract_x
 _atom_site_fract_y
 _atom_site_fract_z
 _atom_site_occupancy
  Ho  Ho0  1  0.446227  0.202835  0.243392  1
  Ho  Ho1  1  0.553773  0.797165  0.756608  1
  Ho  Ho2  1  0.959443  0.202835  0.756608  1
  Ho  Ho3  1  0.202835  0.959443  0.756608  1
  Ho  Ho4  1  0.040557  0.797165  0.243392  1
  Ho  Ho5  1  0.797165  0.040557  0.243392  1
  Ho  Ho6  1  0.202835  0.446227  0.243392  1
  Ho  Ho7  1  0.797165  0.553773  0.756608  1
  Ho  Ho8  1  0.304871  0.304871  0.609743  1
  Ho  Ho9  1  0.695129  0.695129  0.390257  1
  Ho  Ho10  1  0.304871  0.695129  0.000000  1
  Ho  Ho11  1  0.695129  0.304871  0.000000  1
  Zn  Zn12  1  0.000000  0.000000  0.000000  1
  In  In13  1  0.500000  0.000000  0.500000  1
  In  In14  1  0.000000  0.500000  0.500000  1
  Fe  Fe15  1  0.387847  0.387847  0.000000  1
  Fe  Fe16  1  0.612153  0.612153  0.000000  1
