# generated using pymatgen
data_SrLiNd(Si3Pd10)2
_symmetry_space_group_name_H-M   'P 1'
_cell_length_a   8.73777328
_cell_length_b   8.73777381
_cell_length_c   8.73777300
_cell_angle_alpha   60.00000683
_cell_angle_beta   60.00000484
_cell_angle_gamma   60.00000522
_symmetry_Int_Tables_number   1
_chemical_formula_structural   SrLiNd(Si3Pd10)2
_chemical_formula_sum   'Sr1 Li1 Nd1 Si6 Pd20'
_cell_volume   471.72336208
_cell_formula_units_Z   1
loop_
 _symmetry_equiv_pos_site_id
 _symmetry_equiv_pos_as_xyz
  1  'x, y, z'
loop_
 _atom_site_type_symbol
 _atom_site_label
 _atom_site_symmetry_multiplicity
 _atom_site_fract_x
 _atom_site_fract_y
 _atom_site_fract_z
 _atom_site_occupancy
  Sr  Sr0  1  0.250000  0.250000  0.250000  1
  Li  Li1  1  0.000000  0.000000  0.000000  1
  Nd  Nd2  1  0.750000  0.750000  0.750000  1
  Si  Si3  1  0.734664  0.265336  0.265336  1
  Si  Si4  1  0.265336  0.734664  0.734664  1
  Si  Si5  1  0.265336  0.734664  0.265336  1
  Si  Si6  1  0.734664  0.265336  0.734664  1
  Si  Si7  1  0.265336  0.265336  0.734664  1
  Si  Si8  1  0.734664  0.734664  0.265336  1
  Pd  Pd9  1  0.345470  0.997971  0.997971  1
  Pd  Pd10  1  0.658587  0.997971  0.997971  1
  Pd  Pd11  1  0.997971  0.345470  0.658587  1
  Pd  Pd12  1  0.997971  0.658587  0.345470  1
  Pd  Pd13  1  0.997971  0.345470  0.997971  1
  Pd  Pd14  1  0.658587  0.997971  0.345470  1
  Pd  Pd15  1  0.997971  0.658587  0.997971  1
  Pd  Pd16  1  0.345470  0.997971  0.658587  1
  Pd  Pd17  1  0.997971  0.997971  0.345470  1
  Pd  Pd18  1  0.997971  0.997971  0.658587  1
  Pd  Pd19  1  0.658587  0.345470  0.997971  1
  Pd  Pd20  1  0.345470  0.658587  0.997971  1
  Pd  Pd21  1  0.387197  0.387197  0.387197  1
  Pd  Pd22  1  0.615344  0.615344  0.615344  1
  Pd  Pd23  1  0.387197  0.387197  0.838407  1
  Pd  Pd24  1  0.387197  0.838407  0.387197  1
  Pd  Pd25  1  0.615344  0.615344  0.153970  1
  Pd  Pd26  1  0.615344  0.153970  0.615344  1
  Pd  Pd27  1  0.838407  0.387197  0.387197  1
  Pd  Pd28  1  0.153970  0.615344  0.615344  1
