# generated using pymatgen
data_Pr5CrSbO12
_symmetry_space_group_name_H-M   'P 1'
_cell_length_a   7.15438691
_cell_length_b   7.15438784
_cell_length_c   7.68035000
_cell_angle_alpha   74.43731079
_cell_angle_beta   74.43730871
_cell_angle_gamma   50.29062780
_symmetry_Int_Tables_number   1
_chemical_formula_structural   Pr5CrSbO12
_chemical_formula_sum   'Pr5 Cr1 Sb1 O12'
_cell_volume   288.83789184
_cell_formula_units_Z   1
loop_
 _symmetry_equiv_pos_site_id
 _symmetry_equiv_pos_as_xyz
  1  'x, y, z'
loop_
 _atom_site_type_symbol
 _atom_site_label
 _atom_site_symmetry_multiplicity
 _atom_site_fract_x
 _atom_site_fract_y
 _atom_site_fract_z
 _atom_site_occupancy
  Pr  Pr0  1  0.313507  0.296457  0.359144  1
  Pr  Pr1  1  0.703543  0.686493  0.640856  1
  Pr  Pr2  1  0.696712  0.693087  0.165911  1
  Pr  Pr3  1  0.306913  0.303288  0.834089  1
  Pr  Pr4  1  0.001945  0.998055  0.500000  1
  Cr  Cr5  1  0.749129  0.250871  0.000000  1
  Sb  Sb6  1  0.235835  0.764165  0.000000  1
  O  O7  1  0.100694  0.591623  0.577149  1
  O  O8  1  0.990255  0.008059  0.176011  1
  O  O9  1  0.408377  0.899306  0.422851  1
  O  O10  1  0.495327  0.506139  0.173615  1
  O  O11  1  0.100881  0.578591  0.079163  1
  O  O12  1  0.910923  0.399478  0.420844  1
  O  O13  1  0.991941  0.009745  0.823989  1
  O  O14  1  0.600522  0.089076  0.579156  1
  O  O15  1  0.493861  0.504673  0.826385  1
  O  O16  1  0.585439  0.107211  0.075803  1
  O  O17  1  0.421409  0.899119  0.920837  1
  O  O18  1  0.892789  0.414561  0.924197  1
