# generated using pymatgen
data_Cs6SmBiSe3
_symmetry_space_group_name_H-M   'P 1'
_cell_length_a   11.50720800
_cell_length_b   11.50720711
_cell_length_c   9.31788200
_cell_angle_alpha   90.00000000
_cell_angle_beta   90.00000000
_cell_angle_gamma   119.99999682
_symmetry_Int_Tables_number   1
_chemical_formula_structural   Cs6SmBiSe3
_chemical_formula_sum   'Cs12 Sm2 Bi2 Se6'
_cell_volume   1068.53252169
_cell_formula_units_Z   2
loop_
 _symmetry_equiv_pos_site_id
 _symmetry_equiv_pos_as_xyz
  1  'x, y, z'
loop_
 _atom_site_type_symbol
 _atom_site_label
 _atom_site_symmetry_multiplicity
 _atom_site_fract_x
 _atom_site_fract_y
 _atom_site_fract_z
 _atom_site_occupancy
  Cs  Cs0  1  0.142073  0.857927  0.536753  1
  Cs  Cs1  1  0.284145  0.142073  0.036753  1
  Cs  Cs2  1  0.857927  0.715855  0.036753  1
  Cs  Cs3  1  0.142073  0.284145  0.536753  1
  Cs  Cs4  1  0.715855  0.857927  0.536753  1
  Cs  Cs5  1  0.857927  0.142073  0.036753  1
  Cs  Cs6  1  0.528441  0.471559  0.372799  1
  Cs  Cs7  1  0.056882  0.528441  0.872799  1
  Cs  Cs8  1  0.471559  0.943118  0.872799  1
  Cs  Cs9  1  0.528441  0.056882  0.372799  1
  Cs  Cs10  1  0.943118  0.471559  0.372799  1
  Cs  Cs11  1  0.471559  0.528441  0.872799  1
  Sm  Sm12  1  0.333333  0.666667  0.242055  1
  Sm  Sm13  1  0.666667  0.333333  0.742055  1
  Bi  Bi14  1  0.333333  0.666667  0.573061  1
  Bi  Bi15  1  0.666667  0.333333  0.073061  1
  Se  Se16  1  0.196932  0.803068  0.155310  1
  Se  Se17  1  0.393862  0.196932  0.655310  1
  Se  Se18  1  0.803068  0.606138  0.655310  1
  Se  Se19  1  0.196932  0.393862  0.155310  1
  Se  Se20  1  0.606138  0.803068  0.155310  1
  Se  Se21  1  0.803068  0.196932  0.655310  1
