# generated using pymatgen
data_Yb3Ir3RuPbO14
_symmetry_space_group_name_H-M   'P 1'
_cell_length_a   7.20944319
_cell_length_b   7.26344421
_cell_length_c   7.26344400
_cell_angle_alpha   59.99999184
_cell_angle_beta   59.75190317
_cell_angle_gamma   59.75190745
_symmetry_Int_Tables_number   1
_chemical_formula_structural   Yb3Ir3RuPbO14
_chemical_formula_sum   'Yb3 Ir3 Ru1 Pb1 O14'
_cell_volume   267.93724952
_cell_formula_units_Z   1
loop_
 _symmetry_equiv_pos_site_id
 _symmetry_equiv_pos_as_xyz
  1  'x, y, z'
loop_
 _atom_site_type_symbol
 _atom_site_label
 _atom_site_symmetry_multiplicity
 _atom_site_fract_x
 _atom_site_fract_y
 _atom_site_fract_z
 _atom_site_occupancy
  Yb  Yb0  1  0.125000  0.125000  0.125000  1
  Yb  Yb1  1  0.125000  0.125000  0.625000  1
  Yb  Yb2  1  0.125000  0.625000  0.125000  1
  Ir  Ir3  1  0.625000  0.625000  0.625000  1
  Ir  Ir4  1  0.625000  0.625000  0.125000  1
  Ir  Ir5  1  0.625000  0.125000  0.625000  1
  Ru  Ru6  1  0.125000  0.625000  0.625000  1
  Pb  Pb7  1  0.625000  0.125000  0.125000  1
  O  O8  1  0.989683  0.003439  0.003439  1
  O  O9  1  0.260317  0.246561  0.246561  1
  O  O10  1  0.299904  0.298736  0.700680  1
  O  O11  1  0.554198  0.539245  0.953279  1
  O  O12  1  0.695802  0.296721  0.710755  1
  O  O13  1  0.695802  0.296721  0.296721  1
  O  O14  1  0.299904  0.700680  0.700680  1
  O  O15  1  0.299904  0.700680  0.298736  1
  O  O16  1  0.695802  0.710755  0.296721  1
  O  O17  1  0.950096  0.549320  0.549320  1
  O  O18  1  0.554198  0.953279  0.953279  1
  O  O19  1  0.950096  0.951264  0.549320  1
  O  O20  1  0.950096  0.549320  0.951264  1
  O  O21  1  0.554198  0.953279  0.539245  1
