# generated using pymatgen
data_LiTb4Mg3(B6Os)4
_symmetry_space_group_name_H-M   'P 1'
_cell_length_a   3.57008200
_cell_length_b   8.89924511
_cell_length_c   11.28258500
_cell_angle_alpha   89.93429373
_cell_angle_beta   90.00000000
_cell_angle_gamma   90.00000000
_symmetry_Int_Tables_number   1
_chemical_formula_structural   LiTb4Mg3(B6Os)4
_chemical_formula_sum   'Li1 Tb4 Mg3 B24 Os4'
_cell_volume   358.45916484
_cell_formula_units_Z   1
loop_
 _symmetry_equiv_pos_site_id
 _symmetry_equiv_pos_as_xyz
  1  'x, y, z'
loop_
 _atom_site_type_symbol
 _atom_site_label
 _atom_site_symmetry_multiplicity
 _atom_site_fract_x
 _atom_site_fract_y
 _atom_site_fract_z
 _atom_site_occupancy
  Li  Li0  1  0.000000  0.944008  0.372255  1
  Tb  Tb1  1  0.000000  0.320361  0.413660  1
  Tb  Tb2  1  0.000000  0.679782  0.583741  1
  Tb  Tb3  1  0.000000  0.823717  0.088454  1
  Tb  Tb4  1  0.000000  0.177251  0.914816  1
  Mg  Mg5  1  0.000000  0.054526  0.624033  1
  Mg  Mg6  1  0.000000  0.443161  0.129282  1
  Mg  Mg7  1  0.000000  0.556375  0.871965  1
  B  B8  1  0.500000  0.555802  0.431718  1
  B  B9  1  0.500000  0.445018  0.567701  1
  B  B10  1  0.500000  0.055868  0.068411  1
  B  B11  1  0.500000  0.944612  0.932530  1
  B  B12  1  0.500000  0.758280  0.416155  1
  B  B13  1  0.500000  0.244149  0.582714  1
  B  B14  1  0.500000  0.255588  0.082938  1
  B  B15  1  0.500000  0.744474  0.917646  1
  B  B16  1  0.500000  0.794393  0.263910  1
  B  B17  1  0.500000  0.206509  0.736897  1
  B  B18  1  0.500000  0.292596  0.236958  1
  B  B19  1  0.500000  0.706790  0.762964  1
  B  B20  1  0.500000  0.627720  0.182759  1
  B  B21  1  0.500000  0.372589  0.817712  1
  B  B22  1  0.500000  0.125144  0.318497  1
  B  B23  1  0.500000  0.872796  0.681896  1
  B  B24  1  0.500000  0.980045  0.214886  1
  B  B25  1  0.500000  0.019535  0.786513  1
  B  B26  1  0.500000  0.479766  0.286976  1
  B  B27  1  0.500000  0.520006  0.712966  1
  B  B28  1  0.500000  0.592790  0.025478  1
  B  B29  1  0.500000  0.407650  0.974970  1
  B  B30  1  0.500000  0.091402  0.473735  1
  B  B31  1  0.500000  0.907667  0.523478  1
  Os  Os32  1  0.000000  0.639760  0.318368  1
  Os  Os33  1  0.000000  0.360443  0.681934  1
  Os  Os34  1  0.000000  0.139100  0.182396  1
  Os  Os35  1  0.000000  0.860331  0.818686  1
