# generated using pymatgen
data_EuThPPt8
_symmetry_space_group_name_H-M   'P 1'
_cell_length_a   9.16596559
_cell_length_b   9.23381522
_cell_length_c   4.31599900
_cell_angle_alpha   90.00000000
_cell_angle_beta   90.00000000
_cell_angle_gamma   145.45577025
_symmetry_Int_Tables_number   1
_chemical_formula_structural   EuThPPt8
_chemical_formula_sum   'Eu1 Th1 P1 Pt8'
_cell_volume   207.13627473
_cell_formula_units_Z   1
loop_
 _symmetry_equiv_pos_site_id
 _symmetry_equiv_pos_as_xyz
  1  'x, y, z'
loop_
 _atom_site_type_symbol
 _atom_site_label
 _atom_site_symmetry_multiplicity
 _atom_site_fract_x
 _atom_site_fract_y
 _atom_site_fract_z
 _atom_site_occupancy
  Eu  Eu0  1  0.616403  0.373646  0.500000  1
  Th  Th1  1  0.374103  0.626455  0.500000  1
  P  P2  1  0.225590  0.220502  0.000000  1
  Pt  Pt3  1  0.106056  0.884869  0.000000  1
  Pt  Pt4  1  0.895433  0.113188  0.000000  1
  Pt  Pt5  1  0.489678  0.977809  0.000000  1
  Pt  Pt6  1  0.989224  0.489128  0.000000  1
  Pt  Pt7  1  0.194555  0.791272  0.500000  1
  Pt  Pt8  1  0.794842  0.196340  0.500000  1
  Pt  Pt9  1  0.002038  0.003965  0.500000  1
  Pt  Pt10  1  0.625677  0.636426  0.000000  1
