# generated using pymatgen
data_Tm12ZnCo2Ni2Sn
_symmetry_space_group_name_H-M   'P 1'
_cell_length_a   8.23006493
_cell_length_b   8.23006491
_cell_length_c   8.23006486
_cell_angle_alpha   111.82641397
_cell_angle_beta   109.59951771
_cell_angle_gamma   107.02329786
_symmetry_Int_Tables_number   1
_chemical_formula_structural   Tm12ZnCo2Ni2Sn
_chemical_formula_sum   'Tm12 Zn1 Co2 Ni2 Sn1'
_cell_volume   428.37521411
_cell_formula_units_Z   1
loop_
 _symmetry_equiv_pos_site_id
 _symmetry_equiv_pos_as_xyz
  1  'x, y, z'
loop_
 _atom_site_type_symbol
 _atom_site_label
 _atom_site_symmetry_multiplicity
 _atom_site_fract_x
 _atom_site_fract_y
 _atom_site_fract_z
 _atom_site_occupancy
  Tm  Tm0  1  0.430295  0.230445  0.199851  1
  Tm  Tm1  1  0.569705  0.769555  0.800149  1
  Tm  Tm2  1  0.030594  0.230445  0.800149  1
  Tm  Tm3  1  0.969406  0.769555  0.199851  1
  Tm  Tm4  1  0.181353  0.284889  0.466242  1
  Tm  Tm5  1  0.818647  0.715111  0.533758  1
  Tm  Tm6  1  0.181353  0.715111  0.896462  1
  Tm  Tm7  1  0.818647  0.284889  0.103538  1
  Tm  Tm8  1  0.319344  0.629020  0.309674  1
  Tm  Tm9  1  0.680656  0.370980  0.690326  1
  Tm  Tm10  1  0.319344  0.009670  0.690326  1
  Tm  Tm11  1  0.680656  0.990330  0.309674  1
  Zn  Zn12  1  0.000000  0.000000  0.000000  1
  Co  Co13  1  0.115044  0.615044  0.500000  1
  Co  Co14  1  0.884956  0.384956  0.500000  1
  Ni  Ni15  1  0.351588  0.000000  0.351588  1
  Ni  Ni16  1  0.648412  0.000000  0.648412  1
  Sn  Sn17  1  0.500000  0.500000  0.000000  1
