# generated using pymatgen
data_Sr6LiTb(CoO6)2
_symmetry_space_group_name_H-M   'P 1'
_cell_length_a   6.69741074
_cell_length_b   6.72145089
_cell_length_c   6.70849051
_cell_angle_alpha   92.11502934
_cell_angle_beta   92.27011760
_cell_angle_gamma   92.20323650
_symmetry_Int_Tables_number   1
_chemical_formula_structural   Sr6LiTb(CoO6)2
_chemical_formula_sum   'Sr6 Li1 Tb1 Co2 O12'
_cell_volume   301.30805093
_cell_formula_units_Z   1
loop_
 _symmetry_equiv_pos_site_id
 _symmetry_equiv_pos_as_xyz
  1  'x, y, z'
loop_
 _atom_site_type_symbol
 _atom_site_label
 _atom_site_symmetry_multiplicity
 _atom_site_fract_x
 _atom_site_fract_y
 _atom_site_fract_z
 _atom_site_occupancy
  Sr  Sr0  1  0.879053  0.248941  0.621662  1
  Sr  Sr1  1  0.249042  0.623128  0.877085  1
  Sr  Sr2  1  0.621692  0.877363  0.251947  1
  Sr  Sr3  1  0.750559  0.393300  0.107524  1
  Sr  Sr4  1  0.391988  0.106867  0.748714  1
  Sr  Sr5  1  0.107310  0.750718  0.392979  1
  Li  Li6  1  0.750240  0.749062  0.750777  1
  Tb  Tb7  1  0.250192  0.250637  0.249135  1
  Co  Co8  1  0.993281  0.994981  0.994497  1
  Co  Co9  1  0.506467  0.504928  0.505941  1
  O  O10  1  0.220665  0.415597  0.546468  1
  O  O11  1  0.415995  0.547588  0.220538  1
  O  O12  1  0.547008  0.219409  0.414466  1
  O  O13  1  0.918035  0.726387  0.045997  1
  O  O14  1  0.728610  0.045989  0.919822  1
  O  O15  1  0.045632  0.917949  0.726809  1
  O  O16  1  0.772180  0.580893  0.454658  1
  O  O17  1  0.581205  0.453501  0.772241  1
  O  O18  1  0.453997  0.773747  0.582233  1
  O  O19  1  0.084787  0.280524  0.952297  1
  O  O20  1  0.278584  0.953300  0.083804  1
  O  O21  1  0.953480  0.085192  0.280406  1
