# generated using pymatgen
data_Er4LuSc3Pt4
_symmetry_space_group_name_H-M   'P 1'
_cell_length_a   4.65155300
_cell_length_b   6.98290515
_cell_length_c   8.42618930
_cell_angle_alpha   89.90463934
_cell_angle_beta   90.00000000
_cell_angle_gamma   90.00000000
_symmetry_Int_Tables_number   1
_chemical_formula_structural   Er4LuSc3Pt4
_chemical_formula_sum   'Er4 Lu1 Sc3 Pt4'
_cell_volume   273.69365347
_cell_formula_units_Z   1
loop_
 _symmetry_equiv_pos_site_id
 _symmetry_equiv_pos_as_xyz
  1  'x, y, z'
loop_
 _atom_site_type_symbol
 _atom_site_label
 _atom_site_symmetry_multiplicity
 _atom_site_fract_x
 _atom_site_fract_y
 _atom_site_fract_z
 _atom_site_occupancy
  Er  Er0  1  0.250000  0.980343  0.329819  1
  Er  Er1  1  0.250000  0.488448  0.176029  1
  Er  Er2  1  0.750000  0.014401  0.673104  1
  Er  Er3  1  0.750000  0.520627  0.821596  1
  Lu  Lu4  1  0.750000  0.144008  0.074669  1
  Sc  Sc5  1  0.250000  0.357185  0.572869  1
  Sc  Sc6  1  0.250000  0.857529  0.924756  1
  Sc  Sc7  1  0.750000  0.640974  0.426840  1
  Pt  Pt8  1  0.250000  0.251513  0.898395  1
  Pt  Pt9  1  0.250000  0.744038  0.598940  1
  Pt  Pt10  1  0.750000  0.747515  0.097442  1
  Pt  Pt11  1  0.750000  0.253421  0.405542  1
