# generated using pymatgen
data_YbHo3Ir4F28
_symmetry_space_group_name_H-M   'P 1'
_cell_length_a   5.54629017
_cell_length_b   8.87162627
_cell_length_c   11.95922445
_cell_angle_alpha   62.71872936
_cell_angle_beta   89.97411046
_cell_angle_gamma   89.92601933
_symmetry_Int_Tables_number   1
_chemical_formula_structural   YbHo3Ir4F28
_chemical_formula_sum   'Yb1 Ho3 Ir4 F28'
_cell_volume   522.99369229
_cell_formula_units_Z   1
loop_
 _symmetry_equiv_pos_site_id
 _symmetry_equiv_pos_as_xyz
  1  'x, y, z'
loop_
 _atom_site_type_symbol
 _atom_site_label
 _atom_site_symmetry_multiplicity
 _atom_site_fract_x
 _atom_site_fract_y
 _atom_site_fract_z
 _atom_site_occupancy
  Yb  Yb0  1  0.760653  0.817207  0.765219  1
  Ho  Ho1  1  0.263802  0.178739  0.735537  1
  Ho  Ho2  1  0.238918  0.186297  0.234591  1
  Ho  Ho3  1  0.739259  0.814248  0.265458  1
  Ir  Ir4  1  0.758106  0.274002  0.955602  1
  Ir  Ir5  1  0.257576  0.725879  0.544666  1
  Ir  Ir6  1  0.240832  0.725625  0.044436  1
  Ir  Ir7  1  0.741541  0.273354  0.455376  1
  F  F8  1  0.437226  0.703667  0.920094  1
  F  F9  1  0.937045  0.297376  0.581366  1
  F  F10  1  0.559608  0.293749  0.084347  1
  F  F11  1  0.058817  0.705309  0.416519  1
  F  F12  1  0.441485  0.280342  0.541577  1
  F  F13  1  0.947343  0.719501  0.959096  1
  F  F14  1  0.556152  0.721782  0.455475  1
  F  F15  1  0.057462  0.276738  0.044877  1
  F  F16  1  0.770887  0.515959  0.861298  1
  F  F17  1  0.271134  0.479955  0.640229  1
  F  F18  1  0.228091  0.477980  0.141943  1
  F  F19  1  0.727496  0.519771  0.358826  1
  F  F20  1  0.755648  0.028080  0.050671  1
  F  F21  1  0.255863  0.972754  0.448950  1
  F  F22  1  0.242872  0.972130  0.952171  1
  F  F23  1  0.745272  0.031391  0.546995  1
  F  F24  1  0.969861  0.727411  0.634748  1
  F  F25  1  0.465895  0.273107  0.864169  1
  F  F26  1  0.034423  0.272120  0.361946  1
  F  F27  1  0.531834  0.728129  0.138403  1
  F  F28  1  0.046739  0.746318  0.174786  1
  F  F29  1  0.548753  0.253489  0.324575  1
  F  F30  1  0.952695  0.253841  0.826224  1
  F  F31  1  0.451426  0.745092  0.671437  1
  F  F32  1  0.417081  0.970405  0.232021  1
  F  F33  1  0.916870  0.028852  0.267854  1
  F  F34  1  0.583712  0.035724  0.768398  1
  F  F35  1  0.087624  0.973678  0.730121  1
