# generated using pymatgen
data_Ho8Ti9Nb3Si15As
_symmetry_space_group_name_H-M   'P 1'
_cell_length_a   7.04723296
_cell_length_b   7.04581648
_cell_length_c   12.95224779
_cell_angle_alpha   90.03397638
_cell_angle_beta   89.85488557
_cell_angle_gamma   89.95262090
_symmetry_Int_Tables_number   1
_chemical_formula_structural   Ho8Ti9Nb3Si15As
_chemical_formula_sum   'Ho8 Ti9 Nb3 Si15 As1'
_cell_volume   643.12217008
_cell_formula_units_Z   1
loop_
 _symmetry_equiv_pos_site_id
 _symmetry_equiv_pos_as_xyz
  1  'x, y, z'
loop_
 _atom_site_type_symbol
 _atom_site_label
 _atom_site_symmetry_multiplicity
 _atom_site_fract_x
 _atom_site_fract_y
 _atom_site_fract_z
 _atom_site_occupancy
  Ho  Ho0  1  0.340847  0.000757  0.465772  1
  Ho  Ho1  1  0.498110  0.841737  0.717759  1
  Ho  Ho2  1  0.501477  0.158351  0.216667  1
  Ho  Ho3  1  0.840235  0.497890  0.282801  1
  Ho  Ho4  1  0.158580  0.500417  0.783172  1
  Ho  Ho5  1  0.660634  0.996622  0.967434  1
  Ho  Ho6  1  0.998788  0.342917  0.532369  1
  Ho  Ho7  1  0.998827  0.659511  0.033673  1
  Ti  Ti8  1  0.673006  0.672715  0.500058  1
  Ti  Ti9  1  0.153821  0.009505  0.874687  1
  Ti  Ti10  1  0.491043  0.652077  0.125326  1
  Ti  Ti11  1  0.509694  0.346859  0.626732  1
  Ti  Ti12  1  0.653855  0.493916  0.875002  1
  Ti  Ti13  1  0.346424  0.508286  0.374281  1
  Ti  Ti14  1  0.848458  0.992451  0.374749  1
  Ti  Ti15  1  0.008458  0.151817  0.125240  1
  Ti  Ti16  1  0.990061  0.844841  0.624242  1
  Nb  Nb17  1  0.326102  0.326753  0.999892  1
  Nb  Nb18  1  0.173468  0.826999  0.249934  1
  Nb  Nb19  1  0.823799  0.174236  0.749894  1
  Si  Si20  1  0.369223  0.703686  0.933501  1
  Si  Si21  1  0.629716  0.298485  0.434230  1
  Si  Si22  1  0.703117  0.369723  0.066650  1
  Si  Si23  1  0.298292  0.630689  0.566160  1
  Si  Si24  1  0.796741  0.869338  0.184146  1
  Si  Si25  1  0.129864  0.203564  0.316528  1
  Si  Si26  1  0.870311  0.796836  0.815868  1
  Si  Si27  1  0.292608  0.953185  0.063604  1
  Si  Si28  1  0.548085  0.790860  0.314700  1
  Si  Si29  1  0.460466  0.209590  0.818357  1
  Si  Si30  1  0.790628  0.548116  0.684924  1
  Si  Si31  1  0.207902  0.452688  0.186376  1
  Si  Si32  1  0.707416  0.045538  0.563236  1
  Si  Si33  1  0.953194  0.292318  0.936221  1
  Si  Si34  1  0.045551  0.708034  0.435999  1
  As  As35  1  0.201199  0.128691  0.679819  1
