# generated using pymatgen
data_Ho3Si2GeOs2
_symmetry_space_group_name_H-M   'P 1'
_cell_length_a   5.74469214
_cell_length_b   5.74469262
_cell_length_c   13.81374300
_cell_angle_alpha   90.00000000
_cell_angle_beta   90.00000000
_cell_angle_gamma   137.17163442
_symmetry_Int_Tables_number   1
_chemical_formula_structural   Ho3Si2GeOs2
_chemical_formula_sum   'Ho6 Si4 Ge2 Os4'
_cell_volume   309.90525712
_cell_formula_units_Z   2
loop_
 _symmetry_equiv_pos_site_id
 _symmetry_equiv_pos_as_xyz
  1  'x, y, z'
loop_
 _atom_site_type_symbol
 _atom_site_label
 _atom_site_symmetry_multiplicity
 _atom_site_fract_x
 _atom_site_fract_y
 _atom_site_fract_z
 _atom_site_occupancy
  Ho  Ho0  1  0.854791  0.145209  0.250000  1
  Ho  Ho1  1  0.145209  0.854791  0.750000  1
  Ho  Ho2  1  0.425694  0.574306  0.886339  1
  Ho  Ho3  1  0.574306  0.425694  0.113661  1
  Ho  Ho4  1  0.574306  0.425694  0.386339  1
  Ho  Ho5  1  0.425694  0.574306  0.613661  1
  Si  Si6  1  0.117177  0.882823  0.538595  1
  Si  Si7  1  0.882823  0.117177  0.461405  1
  Si  Si8  1  0.882823  0.117177  0.038595  1
  Si  Si9  1  0.117177  0.882823  0.961405  1
  Ge  Ge10  1  0.164164  0.835836  0.250000  1
  Ge  Ge11  1  0.835836  0.164164  0.750000  1
  Os  Os12  1  0.711631  0.288369  0.579896  1
  Os  Os13  1  0.288369  0.711631  0.420104  1
  Os  Os14  1  0.288369  0.711631  0.079896  1
  Os  Os15  1  0.711631  0.288369  0.920104  1
