# generated using pymatgen
data_Ba3(ScSe3)2
_symmetry_space_group_name_H-M   'P 1'
_cell_length_a   8.67806781
_cell_length_b   8.67806696
_cell_length_c   8.67806760
_cell_angle_alpha   93.53653076
_cell_angle_beta   93.53653092
_cell_angle_gamma   93.53652428
_symmetry_Int_Tables_number   1
_chemical_formula_structural   Ba3(ScSe3)2
_chemical_formula_sum   'Ba6 Sc4 Se12'
_cell_volume   649.64024404
_cell_formula_units_Z   2
loop_
 _symmetry_equiv_pos_site_id
 _symmetry_equiv_pos_as_xyz
  1  'x, y, z'
loop_
 _atom_site_type_symbol
 _atom_site_label
 _atom_site_symmetry_multiplicity
 _atom_site_fract_x
 _atom_site_fract_y
 _atom_site_fract_z
 _atom_site_occupancy
  Ba  Ba0  1  0.365390  0.750000  0.134610  1
  Ba  Ba1  1  0.134610  0.365390  0.750000  1
  Ba  Ba2  1  0.750000  0.134610  0.365390  1
  Ba  Ba3  1  0.634610  0.250000  0.865390  1
  Ba  Ba4  1  0.865390  0.634610  0.250000  1
  Ba  Ba5  1  0.250000  0.865390  0.634610  1
  Sc  Sc6  1  0.500000  0.500000  0.500000  1
  Sc  Sc7  1  0.000000  0.000000  0.000000  1
  Sc  Sc8  1  0.250000  0.250000  0.250000  1
  Sc  Sc9  1  0.750000  0.750000  0.750000  1
  Se  Se10  1  0.529593  0.408657  0.198736  1
  Se  Se11  1  0.198736  0.529593  0.408657  1
  Se  Se12  1  0.408657  0.198736  0.529593  1
  Se  Se13  1  0.970407  0.301264  0.091343  1
  Se  Se14  1  0.091343  0.970407  0.301264  1
  Se  Se15  1  0.301264  0.091343  0.970407  1
  Se  Se16  1  0.470407  0.591343  0.801264  1
  Se  Se17  1  0.801264  0.470407  0.591343  1
  Se  Se18  1  0.591343  0.801264  0.470407  1
  Se  Se19  1  0.029593  0.698736  0.908657  1
  Se  Se20  1  0.698736  0.908657  0.029593  1
  Se  Se21  1  0.908657  0.029593  0.698736  1
