# generated using pymatgen
data_HoSiTc4P
_symmetry_space_group_name_H-M   'P 1'
_cell_length_a   7.39343543
_cell_length_b   7.39343543
_cell_length_c   4.02663300
_cell_angle_alpha   90.00000000
_cell_angle_beta   90.00000000
_cell_angle_gamma   89.79851166
_symmetry_Int_Tables_number   1
_chemical_formula_structural   HoSiTc4P
_chemical_formula_sum   'Ho2 Si2 Tc8 P2'
_cell_volume   220.10602545
_cell_formula_units_Z   2
loop_
 _symmetry_equiv_pos_site_id
 _symmetry_equiv_pos_as_xyz
  1  'x, y, z'
loop_
 _atom_site_type_symbol
 _atom_site_label
 _atom_site_symmetry_multiplicity
 _atom_site_fract_x
 _atom_site_fract_y
 _atom_site_fract_z
 _atom_site_occupancy
  Ho  Ho0  1  0.500000  0.500000  0.000000  1
  Ho  Ho1  1  0.000000  0.000000  0.500000  1
  Si  Si2  1  0.711513  0.711513  0.500000  1
  Si  Si3  1  0.288487  0.288487  0.500000  1
  Tc  Tc4  1  0.591817  0.155349  0.500000  1
  Tc  Tc5  1  0.408183  0.844651  0.500000  1
  Tc  Tc6  1  0.083472  0.337601  0.000000  1
  Tc  Tc7  1  0.916528  0.662399  0.000000  1
  Tc  Tc8  1  0.155349  0.591817  0.500000  1
  Tc  Tc9  1  0.844651  0.408183  0.500000  1
  Tc  Tc10  1  0.337601  0.083472  0.000000  1
  Tc  Tc11  1  0.662399  0.916528  0.000000  1
  P  P12  1  0.209387  0.790613  0.000000  1
  P  P13  1  0.790613  0.209387  0.000000  1
