# generated using pymatgen
data_AlZnNiO4
_symmetry_space_group_name_H-M   'P 1'
_cell_length_a   5.83574400
_cell_length_b   5.89296200
_cell_length_c   8.16970400
_cell_angle_alpha   89.99605127
_cell_angle_beta   90.00003647
_cell_angle_gamma   90.00004881
_symmetry_Int_Tables_number   1
_chemical_formula_structural   AlZnNiO4
_chemical_formula_sum   'Al4 Zn4 Ni4 O16'
_cell_volume   280.95463035
_cell_formula_units_Z   4
loop_
 _symmetry_equiv_pos_site_id
 _symmetry_equiv_pos_as_xyz
  1  'x, y, z'
loop_
 _atom_site_type_symbol
 _atom_site_label
 _atom_site_symmetry_multiplicity
 _atom_site_fract_x
 _atom_site_fract_y
 _atom_site_fract_z
 _atom_site_occupancy
  Al  Al0  1  0.750027  0.750008  0.250052  1
  Al  Al1  1  0.249973  0.249991  0.749948  1
  Al  Al2  1  0.249973  0.750008  0.250052  1
  Al  Al3  1  0.750027  0.249991  0.749948  1
  Zn  Zn4  1  0.000000  0.249998  0.127129  1
  Zn  Zn5  1  0.500000  0.750002  0.627143  1
  Zn  Zn6  1  0.500000  0.249997  0.372857  1
  Zn  Zn7  1  0.000000  0.750002  0.872871  1
  Ni  Ni8  1  0.000001  0.500000  0.500000  1
  Ni  Ni9  1  0.500000  0.500000  0.000000  1
  Ni  Ni10  1  0.500000  0.000000  0.000000  1
  Ni  Ni11  1  0.999999  0.000000  0.500000  1
  O  O12  1  0.232241  0.750000  0.480972  1
  O  O13  1  0.732144  0.249998  0.981003  1
  O  O14  1  0.767759  0.749999  0.480972  1
  O  O15  1  0.267856  0.249998  0.981003  1
  O  O16  1  0.267856  0.750002  0.018997  1
  O  O17  1  0.767759  0.250001  0.519028  1
  O  O18  1  0.732144  0.750002  0.018997  1
  O  O19  1  0.232241  0.250001  0.519028  1
  O  O20  1  0.000000  0.967693  0.258256  1
  O  O21  1  0.500000  0.467699  0.758344  1
  O  O22  1  0.000000  0.532307  0.258265  1
  O  O23  1  0.500000  0.032300  0.758343  1
  O  O24  1  0.500000  0.532302  0.241657  1
  O  O25  1  0.000000  0.032307  0.741743  1
  O  O26  1  0.500000  0.967699  0.241657  1
  O  O27  1  0.000000  0.467693  0.741736  1
