# generated using pymatgen
data_Ti3Nb6Ga6B2Mo
_symmetry_space_group_name_H-M   'P 1'
_cell_length_a   7.78416600
_cell_length_b   7.78416643
_cell_length_c   5.26980900
_cell_angle_alpha   90.00000000
_cell_angle_beta   90.00000000
_cell_angle_gamma   119.99999817
_symmetry_Int_Tables_number   1
_chemical_formula_structural   Ti3Nb6Ga6B2Mo
_chemical_formula_sum   'Ti3 Nb6 Ga6 B2 Mo1'
_cell_volume   276.53475171
_cell_formula_units_Z   1
loop_
 _symmetry_equiv_pos_site_id
 _symmetry_equiv_pos_as_xyz
  1  'x, y, z'
loop_
 _atom_site_type_symbol
 _atom_site_label
 _atom_site_symmetry_multiplicity
 _atom_site_fract_x
 _atom_site_fract_y
 _atom_site_fract_z
 _atom_site_occupancy
  Ti  Ti0  1  0.333333  0.666667  0.500000  1
  Ti  Ti1  1  0.333333  0.666667  0.000000  1
  Ti  Ti2  1  0.666667  0.333333  0.000000  1
  Nb  Nb3  1  0.758199  0.757531  0.249537  1
  Nb  Nb4  1  0.242469  0.000668  0.249537  1
  Nb  Nb5  1  0.999332  0.241801  0.249537  1
  Nb  Nb6  1  0.242469  0.241801  0.750463  1
  Nb  Nb7  1  0.758199  0.000668  0.750463  1
  Nb  Nb8  1  0.999332  0.757531  0.750463  1
  Ga  Ga9  1  0.402519  0.402289  0.251182  1
  Ga  Ga10  1  0.597711  0.000230  0.251182  1
  Ga  Ga11  1  0.999770  0.597481  0.251182  1
  Ga  Ga12  1  0.597711  0.597481  0.748818  1
  Ga  Ga13  1  0.402519  0.000230  0.748818  1
  Ga  Ga14  1  0.999770  0.402289  0.748818  1
  B  B15  1  0.000000  0.000000  0.500000  1
  B  B16  1  0.000000  0.000000  0.000000  1
  Mo  Mo17  1  0.666667  0.333333  0.500000  1
