# generated using pymatgen
data_Li21Rh5
_symmetry_space_group_name_H-M   'P 1'
_cell_length_a   8.08259612
_cell_length_b   8.27884428
_cell_length_c   8.08259629
_cell_angle_alpha   109.96381380
_cell_angle_beta   108.97416165
_cell_angle_gamma   109.96381696
_symmetry_Int_Tables_number   1
_chemical_formula_structural   Li21Rh5
_chemical_formula_sum   'Li21 Rh5'
_cell_volume   413.78355323
_cell_formula_units_Z   1
loop_
 _symmetry_equiv_pos_site_id
 _symmetry_equiv_pos_as_xyz
  1  'x, y, z'
loop_
 _atom_site_type_symbol
 _atom_site_label
 _atom_site_symmetry_multiplicity
 _atom_site_fract_x
 _atom_site_fract_y
 _atom_site_fract_z
 _atom_site_occupancy
  Li  Li0  1  0.801067  0.001132  0.000000  1
  Li  Li1  1  0.000000  0.001132  0.801067  1
  Li  Li2  1  0.198933  0.200065  0.198933  1
  Li  Li3  1  0.352322  0.597947  0.352322  1
  Li  Li4  1  0.246519  0.996226  0.645937  1
  Li  Li5  1  0.645937  0.996226  0.246519  1
  Li  Li6  1  0.224511  0.645912  0.000000  1
  Li  Li7  1  0.753481  0.749707  0.399418  1
  Li  Li8  1  0.399418  0.749707  0.753481  1
  Li  Li9  1  0.000000  0.645912  0.224511  1
  Li  Li10  1  0.000000  0.245624  0.647678  1
  Li  Li11  1  0.647678  0.245624  0.000000  1
  Li  Li12  1  0.354063  0.350289  0.600582  1
  Li  Li13  1  0.600582  0.350289  0.354063  1
  Li  Li14  1  0.775489  0.421402  0.775489  1
  Li  Li15  1  0.342995  0.343010  0.000000  1
  Li  Li16  1  0.000000  0.660386  0.658450  1
  Li  Li17  1  0.000000  0.343010  0.342995  1
  Li  Li18  1  0.341550  0.001936  0.341550  1
  Li  Li19  1  0.657005  0.000015  0.657005  1
  Li  Li20  1  0.658450  0.660386  0.000000  1
  Rh  Rh21  1  0.000000  0.818472  0.000000  1
  Rh  Rh22  1  0.000000  0.331685  0.000000  1
  Rh  Rh23  1  0.337800  0.993900  0.000000  1
  Rh  Rh24  1  0.000000  0.993900  0.337800  1
  Rh  Rh25  1  0.662200  0.656100  0.662200  1
