# generated using pymatgen
data_PaTi6Bi
_symmetry_space_group_name_H-M   'P 1'
_cell_length_a   5.30221100
_cell_length_b   5.30221100
_cell_length_c   5.30221100
_cell_angle_alpha   90.00000000
_cell_angle_beta   90.00000000
_cell_angle_gamma   90.00000000
_symmetry_Int_Tables_number   1
_chemical_formula_structural   PaTi6Bi
_chemical_formula_sum   'Pa1 Ti6 Bi1'
_cell_volume   149.06339871
_cell_formula_units_Z   1
loop_
 _symmetry_equiv_pos_site_id
 _symmetry_equiv_pos_as_xyz
  1  'x, y, z'
loop_
 _atom_site_type_symbol
 _atom_site_label
 _atom_site_symmetry_multiplicity
 _atom_site_fract_x
 _atom_site_fract_y
 _atom_site_fract_z
 _atom_site_occupancy
  Pa  Pa0  1  0.000000  0.000000  0.000000  1
  Ti  Ti1  1  0.500001  0.243723  0.000000  1
  Ti  Ti2  1  0.500001  0.756276  0.000000  1
  Ti  Ti3  1  0.000000  0.500002  0.243724  1
  Ti  Ti4  1  0.756276  0.000000  0.500001  1
  Ti  Ti5  1  0.243723  0.000000  0.500001  1
  Ti  Ti6  1  0.000000  0.500002  0.756276  1
  Bi  Bi7  1  0.500001  0.500001  0.500001  1
