# generated using pymatgen
data_Dy2Er8AlSb5
_symmetry_space_group_name_H-M   'P 1'
_cell_length_a   8.87646400
_cell_length_b   8.86076126
_cell_length_c   6.32312300
_cell_angle_alpha   90.00000000
_cell_angle_beta   90.00000000
_cell_angle_gamma   120.05864011
_symmetry_Int_Tables_number   1
_chemical_formula_structural   Dy2Er8AlSb5
_chemical_formula_sum   'Dy2 Er8 Al1 Sb5'
_cell_volume   430.44371059
_cell_formula_units_Z   1
loop_
 _symmetry_equiv_pos_site_id
 _symmetry_equiv_pos_as_xyz
  1  'x, y, z'
loop_
 _atom_site_type_symbol
 _atom_site_label
 _atom_site_symmetry_multiplicity
 _atom_site_fract_x
 _atom_site_fract_y
 _atom_site_fract_z
 _atom_site_occupancy
  Dy  Dy0  1  0.999188  0.243752  0.250000  1
  Dy  Dy1  1  0.755437  0.756248  0.250000  1
  Er  Er2  1  0.009356  0.763678  0.750000  1
  Er  Er3  1  0.752510  0.000000  0.750000  1
  Er  Er4  1  0.245677  0.236322  0.750000  1
  Er  Er5  1  0.242482  0.000000  0.250000  1
  Er  Er6  1  0.334682  0.673093  0.501390  1
  Er  Er7  1  0.661589  0.326907  0.998610  1
  Er  Er8  1  0.661589  0.326907  0.501390  1
  Er  Er9  1  0.334682  0.673093  0.998610  1
  Al  Al10  1  0.396635  0.000000  0.750000  1
  Sb  Sb11  1  0.389971  0.392383  0.250000  1
  Sb  Sb12  1  0.997588  0.607617  0.250000  1
  Sb  Sb13  1  0.001778  0.390749  0.750000  1
  Sb  Sb14  1  0.611029  0.609251  0.750000  1
  Sb  Sb15  1  0.605809  0.000000  0.250000  1
