# generated using pymatgen
data_Zr3Al2ZnPd3
_symmetry_space_group_name_H-M   'P 1'
_cell_length_a   7.14070630
_cell_length_b   7.18870651
_cell_length_c   7.22621213
_cell_angle_alpha   89.76874752
_cell_angle_beta   90.46838332
_cell_angle_gamma   119.77966068
_symmetry_Int_Tables_number   1
_chemical_formula_structural   Zr3Al2ZnPd3
_chemical_formula_sum   'Zr6 Al4 Zn2 Pd6'
_cell_volume   321.94281135
_cell_formula_units_Z   2
loop_
 _symmetry_equiv_pos_site_id
 _symmetry_equiv_pos_as_xyz
  1  'x, y, z'
loop_
 _atom_site_type_symbol
 _atom_site_label
 _atom_site_symmetry_multiplicity
 _atom_site_fract_x
 _atom_site_fract_y
 _atom_site_fract_z
 _atom_site_occupancy
  Zr  Zr0  1  0.015356  0.598561  0.749044  1
  Zr  Zr1  1  0.980541  0.582030  0.251455  1
  Zr  Zr2  1  0.605190  0.017364  0.249264  1
  Zr  Zr3  1  0.587804  0.982632  0.749301  1
  Zr  Zr4  1  0.416841  0.401425  0.249088  1
  Zr  Zr5  1  0.398580  0.418006  0.751505  1
  Al  Al6  1  0.003214  0.255387  0.999622  1
  Al  Al7  1  0.255182  0.998232  0.500072  1
  Al  Al8  1  0.256928  0.001751  0.000109  1
  Al  Al9  1  0.747837  0.744642  0.499630  1
  Zn  Zn10  1  0.000933  0.267368  0.500026  1
  Zn  Zn11  1  0.733568  0.732621  0.000015  1
  Pd  Pd12  1  0.339890  0.672834  0.474927  1
  Pd  Pd13  1  0.658545  0.332333  0.525565  1
  Pd  Pd14  1  0.667076  0.327161  0.974939  1
  Pd  Pd15  1  0.003372  0.000490  0.249927  1
  Pd  Pd16  1  0.002922  0.999501  0.749945  1
  Pd  Pd17  1  0.326223  0.667661  0.025567  1
