# generated using pymatgen
data_Cs5Rb(MoH9)3
_symmetry_space_group_name_H-M   'P 1'
_cell_length_a   10.74739100
_cell_length_b   10.23131824
_cell_length_c   6.46144000
_cell_angle_alpha   90.00000000
_cell_angle_beta   90.00000000
_cell_angle_gamma   121.68307471
_symmetry_Int_Tables_number   1
_chemical_formula_structural   Cs5Rb(MoH9)3
_chemical_formula_sum   'Cs5 Rb1 Mo3 H27'
_cell_volume   604.61138195
_cell_formula_units_Z   1
loop_
 _symmetry_equiv_pos_site_id
 _symmetry_equiv_pos_as_xyz
  1  'x, y, z'
loop_
 _atom_site_type_symbol
 _atom_site_label
 _atom_site_symmetry_multiplicity
 _atom_site_fract_x
 _atom_site_fract_y
 _atom_site_fract_z
 _atom_site_occupancy
  Cs  Cs0  1  0.027329  0.263343  0.500000  1
  Cs  Cs1  1  0.763986  0.736657  0.500000  1
  Cs  Cs2  1  0.024063  0.623783  0.000000  1
  Cs  Cs3  1  0.400280  0.376217  0.000000  1
  Cs  Cs4  1  0.616156  0.000000  0.000000  1
  Rb  Rb5  1  0.211374  0.000000  0.500000  1
  Mo  Mo6  1  0.616829  0.273296  0.500000  1
  Mo  Mo7  1  0.343532  0.726704  0.500000  1
  Mo  Mo8  1  0.997394  0.000000  0.000000  1
  H  H9  1  0.718498  0.215083  0.658411  1
  H  H10  1  0.665193  0.430106  0.650292  1
  H  H11  1  0.534263  0.222554  0.741865  1
  H  H12  1  0.235086  0.569894  0.349708  1
  H  H13  1  0.534263  0.222554  0.258135  1
  H  H14  1  0.718498  0.215083  0.341589  1
  H  H15  1  0.665193  0.430106  0.349708  1
  H  H16  1  0.311708  0.777446  0.741865  1
  H  H17  1  0.503414  0.784917  0.658411  1
  H  H18  1  0.159117  0.000000  0.000000  1
  H  H19  1  0.822532  0.830411  0.000000  1
  H  H20  1  0.992121  0.169589  0.000000  1
  H  H21  1  0.888428  0.000000  0.206708  1
  H  H22  1  0.122905  0.130121  0.812171  1
  H  H23  1  0.992785  0.869879  0.812171  1
  H  H24  1  0.992785  0.869879  0.187829  1
  H  H25  1  0.122905  0.130121  0.187829  1
  H  H26  1  0.888428  0.000000  0.793292  1
  H  H27  1  0.167239  0.697183  0.500000  1
  H  H28  1  0.539285  0.816483  0.500000  1
  H  H29  1  0.383665  0.585983  0.500000  1
  H  H30  1  0.470055  0.302817  0.500000  1
  H  H31  1  0.797682  0.414017  0.500000  1
  H  H32  1  0.722802  0.183517  0.500000  1
  H  H33  1  0.235086  0.569894  0.650292  1
  H  H34  1  0.311708  0.777446  0.258135  1
  H  H35  1  0.503414  0.784917  0.341589  1
