# generated using pymatgen
data_Ba3Al10PtO20
_symmetry_space_group_name_H-M   'P 1'
_cell_length_a   9.74765957
_cell_length_b   9.74765965
_cell_length_c   5.11151722
_cell_angle_alpha   75.44939717
_cell_angle_beta   75.44939740
_cell_angle_gamma   72.00142736
_symmetry_Int_Tables_number   1
_chemical_formula_structural   Ba3Al10PtO20
_chemical_formula_sum   'Ba3 Al10 Pt1 O20'
_cell_volume   439.07541196
_cell_formula_units_Z   1
loop_
 _symmetry_equiv_pos_site_id
 _symmetry_equiv_pos_as_xyz
  1  'x, y, z'
loop_
 _atom_site_type_symbol
 _atom_site_label
 _atom_site_symmetry_multiplicity
 _atom_site_fract_x
 _atom_site_fract_y
 _atom_site_fract_z
 _atom_site_occupancy
  Ba  Ba0  1  0.000000  0.000000  0.000000  1
  Ba  Ba1  1  0.276819  0.276819  0.743027  1
  Ba  Ba2  1  0.723181  0.723181  0.256973  1
  Al  Al3  1  0.849735  0.421903  0.835882  1
  Al  Al4  1  0.578097  0.150265  0.164118  1
  Al  Al5  1  0.150265  0.578097  0.164118  1
  Al  Al6  1  0.421903  0.849735  0.835882  1
  Al  Al7  1  0.364110  0.635890  0.500000  1
  Al  Al8  1  0.635890  0.364110  0.500000  1
  Al  Al9  1  0.992443  0.712792  0.660880  1
  Al  Al10  1  0.287208  0.007557  0.339120  1
  Al  Al11  1  0.007557  0.287208  0.339120  1
  Al  Al12  1  0.712792  0.992443  0.660880  1
  Pt  Pt13  1  0.500000  0.500000  0.000000  1
  O  O14  1  0.556415  0.303404  0.880442  1
  O  O15  1  0.696596  0.443585  0.119558  1
  O  O16  1  0.443585  0.696596  0.119558  1
  O  O17  1  0.303404  0.556415  0.880442  1
  O  O18  1  0.710248  0.013474  0.997240  1
  O  O19  1  0.986526  0.289752  0.002760  1
  O  O20  1  0.289752  0.986526  0.002760  1
  O  O21  1  0.013474  0.710248  0.997240  1
  O  O22  1  0.436191  0.436191  0.407481  1
  O  O23  1  0.563809  0.563809  0.592519  1
  O  O24  1  0.893403  0.893403  0.534184  1
  O  O25  1  0.106597  0.106597  0.465816  1
  O  O26  1  0.882147  0.594682  0.692013  1
  O  O27  1  0.405318  0.117853  0.307987  1
  O  O28  1  0.117853  0.405318  0.307987  1
  O  O29  1  0.594682  0.882147  0.692013  1
  O  O30  1  0.168643  0.659386  0.433086  1
  O  O31  1  0.340614  0.831357  0.566914  1
  O  O32  1  0.831357  0.340614  0.566914  1
  O  O33  1  0.659386  0.168643  0.433086  1
