# generated using pymatgen
data_Hf4BeV4As3
_symmetry_space_group_name_H-M   'P 1'
_cell_length_a   6.73249939
_cell_length_b   3.52577600
_cell_length_c   8.09142000
_cell_angle_alpha   90.00000000
_cell_angle_beta   90.19018409
_cell_angle_gamma   90.00000000
_symmetry_Int_Tables_number   1
_chemical_formula_structural   Hf4BeV4As3
_chemical_formula_sum   'Hf4 Be1 V4 As3'
_cell_volume   192.06728271
_cell_formula_units_Z   1
loop_
 _symmetry_equiv_pos_site_id
 _symmetry_equiv_pos_as_xyz
  1  'x, y, z'
loop_
 _atom_site_type_symbol
 _atom_site_label
 _atom_site_symmetry_multiplicity
 _atom_site_fract_x
 _atom_site_fract_y
 _atom_site_fract_z
 _atom_site_occupancy
  Hf  Hf0  1  0.970635  0.249999  0.166571  1
  Hf  Hf1  1  0.441934  0.249999  0.323727  1
  Hf  Hf2  1  0.547769  0.750000  0.665562  1
  Hf  Hf3  1  0.052360  0.750000  0.841213  1
  Be  Be4  1  0.258489  0.750000  0.137993  1
  V  V5  1  0.617468  0.750000  0.057098  1
  V  V6  1  0.125092  0.750000  0.442383  1
  V  V7  1  0.870872  0.249999  0.556737  1
  V  V8  1  0.371450  0.249999  0.949310  1
  As  As9  1  0.754982  0.750000  0.356340  1
  As  As10  1  0.242688  0.249999  0.639757  1
  As  As11  1  0.746260  0.249999  0.863313  1
