# generated using pymatgen
data_Ta5CoSi7TcNi15
_symmetry_space_group_name_H-M   'P 1'
_cell_length_a   7.95293760
_cell_length_b   7.92487699
_cell_length_c   7.92459799
_cell_angle_alpha   60.23311952
_cell_angle_beta   59.86540109
_cell_angle_gamma   59.86636974
_symmetry_Int_Tables_number   1
_chemical_formula_structural   Ta5CoSi7TcNi15
_chemical_formula_sum   'Ta5 Co1 Si7 Tc1 Ni15'
_cell_volume   353.06539981
_cell_formula_units_Z   1
loop_
 _symmetry_equiv_pos_site_id
 _symmetry_equiv_pos_as_xyz
  1  'x, y, z'
loop_
 _atom_site_type_symbol
 _atom_site_label
 _atom_site_symmetry_multiplicity
 _atom_site_fract_x
 _atom_site_fract_y
 _atom_site_fract_z
 _atom_site_occupancy
  Ta  Ta0  1  0.202852  0.796041  0.195665  1
  Ta  Ta1  1  0.797502  0.198322  0.198330  1
  Ta  Ta2  1  0.801231  0.195582  0.798373  1
  Ta  Ta3  1  0.801228  0.798383  0.195571  1
  Ta  Ta4  1  0.202867  0.195667  0.796030  1
  Co  Co5  1  0.516183  0.161441  0.161451  1
  Si  Si6  1  0.007571  0.992839  0.503765  1
  Si  Si7  1  0.495582  0.991878  0.504294  1
  Si  Si8  1  0.500915  0.499656  0.499671  1
  Si  Si9  1  0.007534  0.503769  0.992824  1
  Si  Si10  1  0.495558  0.504260  0.991907  1
  Si  Si11  1  0.499181  0.999905  0.999926  1
  Si  Si12  1  0.000029  0.499456  0.499427  1
  Tc  Tc13  1  0.143347  0.857407  0.857358  1
  Ni  Ni14  1  0.386053  0.380909  0.380883  1
  Ni  Ni15  1  0.510903  0.829766  0.829785  1
  Ni  Ni16  1  0.618725  0.613792  0.148309  1
  Ni  Ni17  1  0.170874  0.170426  0.488487  1
  Ni  Ni18  1  0.835980  0.834181  0.495762  1
  Ni  Ni19  1  0.164996  0.165024  0.165013  1
  Ni  Ni20  1  0.830206  0.829501  0.829479  1
  Ni  Ni21  1  0.383252  0.381432  0.852309  1
  Ni  Ni22  1  0.835965  0.495753  0.834177  1
  Ni  Ni23  1  0.617173  0.617201  0.617236  1
  Ni  Ni24  1  0.383261  0.852287  0.381494  1
  Ni  Ni25  1  0.150453  0.616863  0.616833  1
  Ni  Ni26  1  0.618727  0.148295  0.613795  1
  Ni  Ni27  1  0.170849  0.488503  0.170384  1
  Ni  Ni28  1  0.851005  0.381460  0.381462  1
