# generated using pymatgen
data_TbSmTh6(ReC2)4
_symmetry_space_group_name_H-M   'P 1'
_cell_length_a   5.34101700
_cell_length_b   6.68914569
_cell_length_c   10.07049894
_cell_angle_alpha   90.16302993
_cell_angle_beta   90.00000000
_cell_angle_gamma   90.00000000
_symmetry_Int_Tables_number   1
_chemical_formula_structural   TbSmTh6(ReC2)4
_chemical_formula_sum   'Tb1 Sm1 Th6 Re4 C8'
_cell_volume   359.78565607
_cell_formula_units_Z   1
loop_
 _symmetry_equiv_pos_site_id
 _symmetry_equiv_pos_as_xyz
  1  'x, y, z'
loop_
 _atom_site_type_symbol
 _atom_site_label
 _atom_site_symmetry_multiplicity
 _atom_site_fract_x
 _atom_site_fract_y
 _atom_site_fract_z
 _atom_site_occupancy
  Tb  Tb0  1  0.250000  0.316665  0.446759  1
  Sm  Sm1  1  0.750000  0.187893  0.947962  1
  Th  Th2  1  0.250000  0.470679  0.778833  1
  Th  Th3  1  0.750000  0.029177  0.281453  1
  Th  Th4  1  0.250000  0.976962  0.720375  1
  Th  Th5  1  0.750000  0.523151  0.221550  1
  Th  Th6  1  0.250000  0.813120  0.048392  1
  Th  Th7  1  0.750000  0.686548  0.547635  1
  Re  Re8  1  0.250000  0.270633  0.139131  1
  Re  Re9  1  0.750000  0.228296  0.636728  1
  Re  Re10  1  0.250000  0.769855  0.363419  1
  Re  Re11  1  0.750000  0.730715  0.862074  1
  C  C12  1  0.250000  0.668807  0.552030  1
  C  C13  1  0.750000  0.826502  0.051905  1
  C  C14  1  0.250000  0.171161  0.950225  1
  C  C15  1  0.750000  0.329359  0.448328  1
  C  C16  1  0.250000  0.035256  0.260501  1
  C  C17  1  0.750000  0.465891  0.757345  1
  C  C18  1  0.250000  0.532027  0.243659  1
  C  C19  1  0.750000  0.967302  0.741693  1
