# generated using pymatgen
data_Dy3Er(SiRh2)8
_symmetry_space_group_name_H-M   'P 1'
_cell_length_a   4.11811100
_cell_length_b   9.09434287
_cell_length_c   11.29389132
_cell_angle_alpha   90.07345947
_cell_angle_beta   90.00000000
_cell_angle_gamma   90.00000000
_symmetry_Int_Tables_number   1
_chemical_formula_structural   Dy3Er(SiRh2)8
_chemical_formula_sum   'Dy3 Er1 Si8 Rh16'
_cell_volume   422.97297455
_cell_formula_units_Z   1
loop_
 _symmetry_equiv_pos_site_id
 _symmetry_equiv_pos_as_xyz
  1  'x, y, z'
loop_
 _atom_site_type_symbol
 _atom_site_label
 _atom_site_symmetry_multiplicity
 _atom_site_fract_x
 _atom_site_fract_y
 _atom_site_fract_z
 _atom_site_occupancy
  Dy  Dy0  1  0.250000  0.148106  0.824702  1
  Dy  Dy1  1  0.250000  0.351633  0.325245  1
  Dy  Dy2  1  0.750000  0.851054  0.174789  1
  Er  Er3  1  0.750000  0.647663  0.675192  1
  Si  Si4  1  0.250000  0.412352  0.636877  1
  Si  Si5  1  0.250000  0.088027  0.136154  1
  Si  Si6  1  0.750000  0.588756  0.363927  1
  Si  Si7  1  0.750000  0.910922  0.862724  1
  Si  Si8  1  0.250000  0.616453  0.058592  1
  Si  Si9  1  0.250000  0.884504  0.558450  1
  Si  Si10  1  0.750000  0.383819  0.941882  1
  Si  Si11  1  0.750000  0.116633  0.441564  1
  Rh  Rh12  1  0.250000  0.616495  0.502634  1
  Rh  Rh13  1  0.250000  0.884946  0.999699  1
  Rh  Rh14  1  0.750000  0.385909  0.499628  1
  Rh  Rh15  1  0.750000  0.114703  0.998904  1
  Rh  Rh16  1  0.250000  0.682848  0.270000  1
  Rh  Rh17  1  0.250000  0.813851  0.768185  1
  Rh  Rh18  1  0.750000  0.316937  0.730965  1
  Rh  Rh19  1  0.750000  0.183427  0.230542  1
  Rh  Rh20  1  0.250000  0.173257  0.559382  1
  Rh  Rh21  1  0.250000  0.326868  0.059029  1
  Rh  Rh22  1  0.750000  0.827409  0.441016  1
  Rh  Rh23  1  0.750000  0.672569  0.940207  1
  Rh  Rh24  1  0.250000  0.007622  0.344436  1
  Rh  Rh25  1  0.250000  0.493304  0.844530  1
  Rh  Rh26  1  0.750000  0.992641  0.655604  1
  Rh  Rh27  1  0.750000  0.507292  0.155142  1
