# generated using pymatgen
data_Gd5Ir2
_symmetry_space_group_name_H-M   'P 1'
_cell_length_a   6.46381499
_cell_length_b   7.19094500
_cell_length_c   8.52972300
_cell_angle_alpha   96.64946168
_cell_angle_beta   112.26552923
_cell_angle_gamma   89.99999996
_symmetry_Int_Tables_number   1
_chemical_formula_structural   Gd5Ir2
_chemical_formula_sum   'Gd10 Ir4'
_cell_volume   364.02440670
_cell_formula_units_Z   2
loop_
 _symmetry_equiv_pos_site_id
 _symmetry_equiv_pos_as_xyz
  1  'x, y, z'
loop_
 _atom_site_type_symbol
 _atom_site_label
 _atom_site_symmetry_multiplicity
 _atom_site_fract_x
 _atom_site_fract_y
 _atom_site_fract_z
 _atom_site_occupancy
  Gd  Gd0  1  0.572732  0.250001  0.000000  1
  Gd  Gd1  1  0.427269  0.750000  0.000001  1
  Gd  Gd2  1  0.207646  0.419270  0.184197  1
  Gd  Gd3  1  0.976550  0.919270  0.184197  1
  Gd  Gd4  1  0.650074  0.814471  0.439902  1
  Gd  Gd5  1  0.789830  0.314471  0.439903  1
  Gd  Gd6  1  0.349926  0.185530  0.560097  1
  Gd  Gd7  1  0.210171  0.685530  0.560098  1
  Gd  Gd8  1  0.792354  0.580730  0.815803  1
  Gd  Gd9  1  0.023449  0.080729  0.815803  1
  Ir  Ir10  1  0.397871  0.074256  0.221178  1
  Ir  Ir11  1  0.823308  0.574256  0.221179  1
  Ir  Ir12  1  0.602130  0.925744  0.778821  1
  Ir  Ir13  1  0.176693  0.425745  0.778822  1
