# generated using pymatgen
data_CsBa3Sr2(ReN4)2
_symmetry_space_group_name_H-M   'P 1'
_cell_length_a   11.07941017
_cell_length_b   10.70231212
_cell_length_c   8.39007051
_cell_angle_alpha   69.74266404
_cell_angle_beta   64.98759413
_cell_angle_gamma   45.26973687
_symmetry_Int_Tables_number   1
_chemical_formula_structural   CsBa3Sr2(ReN4)2
_chemical_formula_sum   'Cs2 Ba6 Sr4 Re4 N16'
_cell_volume   638.65596386
_cell_formula_units_Z   2
loop_
 _symmetry_equiv_pos_site_id
 _symmetry_equiv_pos_as_xyz
  1  'x, y, z'
loop_
 _atom_site_type_symbol
 _atom_site_label
 _atom_site_symmetry_multiplicity
 _atom_site_fract_x
 _atom_site_fract_y
 _atom_site_fract_z
 _atom_site_occupancy
  Cs  Cs0  1  0.573647  0.926353  0.926353  1
  Cs  Cs1  1  0.926353  0.573647  0.573647  1
  Ba  Ba2  1  0.312029  0.687971  0.687971  1
  Ba  Ba3  1  0.111047  0.111047  0.888953  1
  Ba  Ba4  1  0.133813  0.133813  0.366187  1
  Ba  Ba5  1  0.366187  0.366187  0.133813  1
  Ba  Ba6  1  0.687971  0.312029  0.312029  1
  Ba  Ba7  1  0.888953  0.888953  0.111047  1
  Sr  Sr8  1  0.339327  0.339327  0.660673  1
  Sr  Sr9  1  0.905079  0.905079  0.594921  1
  Sr  Sr10  1  0.660673  0.660673  0.339327  1
  Sr  Sr11  1  0.594921  0.594921  0.905079  1
  Re  Re12  1  0.488375  0.011625  0.488375  1
  Re  Re13  1  0.011625  0.488375  0.011625  1
  Re  Re14  1  0.759445  0.240555  0.759445  1
  Re  Re15  1  0.240555  0.759445  0.240555  1
  N  N16  1  0.033329  0.635242  0.829034  1
  N  N17  1  0.710882  0.277208  0.991155  1
  N  N18  1  0.635242  0.033329  0.502395  1
  N  N19  1  0.502395  0.829034  0.635242  1
  N  N20  1  0.242904  0.593996  0.410336  1
  N  N21  1  0.752764  0.410336  0.593996  1
  N  N22  1  0.991155  0.020755  0.710882  1
  N  N23  1  0.549572  0.977168  0.257882  1
  N  N24  1  0.410336  0.752764  0.242904  1
  N  N25  1  0.977168  0.549572  0.215378  1
  N  N26  1  0.277208  0.710882  0.020755  1
  N  N27  1  0.829034  0.502395  0.033329  1
  N  N28  1  0.215378  0.257882  0.977168  1
  N  N29  1  0.593996  0.242904  0.752764  1
  N  N30  1  0.257882  0.215378  0.549572  1
  N  N31  1  0.020755  0.991155  0.277208  1
