# generated using pymatgen
data_Ho7Tm5InGaCo4
_symmetry_space_group_name_H-M   'P 1'
_cell_length_a   8.25194253
_cell_length_b   8.26637129
_cell_length_c   8.26637259
_cell_angle_alpha   112.28633569
_cell_angle_beta   109.60643564
_cell_angle_gamma   106.63613371
_symmetry_Int_Tables_number   1
_chemical_formula_structural   Ho7Tm5InGaCo4
_chemical_formula_sum   'Ho7 Tm5 In1 Ga1 Co4'
_cell_volume   432.66612597
_cell_formula_units_Z   1
loop_
 _symmetry_equiv_pos_site_id
 _symmetry_equiv_pos_as_xyz
  1  'x, y, z'
loop_
 _atom_site_type_symbol
 _atom_site_label
 _atom_site_symmetry_multiplicity
 _atom_site_fract_x
 _atom_site_fract_y
 _atom_site_fract_z
 _atom_site_occupancy
  Ho  Ho0  1  0.568505  0.268473  0.300032  1
  Ho  Ho1  1  0.181524  0.217366  0.398583  1
  Ho  Ho2  1  0.181524  0.782941  0.964160  1
  Ho  Ho3  1  0.675186  0.486733  0.811452  1
  Ho  Ho4  1  0.675186  0.863735  0.188453  1
  Ho  Ho5  1  0.969456  0.266725  0.702731  1
  Ho  Ho6  1  0.033010  0.731153  0.301857  1
  Tm  Tm7  1  0.325189  0.136521  0.813393  1
  Tm  Tm8  1  0.325189  0.511796  0.188666  1
  Tm  Tm9  1  0.818019  0.217205  0.035326  1
  Tm  Tm10  1  0.818019  0.782691  0.600814  1
  Tm  Tm11  1  0.436171  0.734909  0.701261  1
  In  In12  1  0.499622  0.999157  0.500465  1
  Ga  Ga13  1  0.003760  0.500647  0.503113  1
  Co  Co14  1  0.880430  0.885783  0.994648  1
  Co  Co15  1  0.341619  0.500192  0.841427  1
  Co  Co16  1  0.654109  0.499262  0.154847  1
  Co  Co17  1  0.113483  0.114710  0.998773  1
