# generated using pymatgen
data_In(BrO3)3
_symmetry_space_group_name_H-M   'P 1'
_cell_length_a   7.40828469
_cell_length_b   9.09348839
_cell_length_c   8.73124538
_cell_angle_alpha   56.69711036
_cell_angle_beta   88.93024029
_cell_angle_gamma   88.36899702
_symmetry_Int_Tables_number   1
_chemical_formula_structural   In(BrO3)3
_chemical_formula_sum   'In2 Br6 O18'
_cell_volume   491.40244418
_cell_formula_units_Z   2
loop_
 _symmetry_equiv_pos_site_id
 _symmetry_equiv_pos_as_xyz
  1  'x, y, z'
loop_
 _atom_site_type_symbol
 _atom_site_label
 _atom_site_symmetry_multiplicity
 _atom_site_fract_x
 _atom_site_fract_y
 _atom_site_fract_z
 _atom_site_occupancy
  In  In0  1  0.480899  0.323382  0.344185  1
  In  In1  1  0.971481  0.685945  0.649196  1
  Br  Br2  1  0.759178  0.666676  0.011311  1
  Br  Br3  1  0.757130  0.299082  0.704243  1
  Br  Br4  1  0.657048  0.982910  0.306235  1
  Br  Br5  1  0.249967  0.344748  0.960365  1
  Br  Br6  1  0.174430  0.666784  0.307674  1
  Br  Br7  1  0.268969  0.949431  0.709127  1
  O  O8  1  0.622240  0.487865  0.083492  1
  O  O9  1  0.680492  0.376141  0.488239  1
  O  O10  1  0.655516  0.096135  0.413688  1
  O  O11  1  0.126636  0.533181  0.907131  1
  O  O12  1  0.175682  0.590082  0.539568  1
  O  O13  1  0.136869  0.916574  0.572709  1
  O  O14  1  0.764583  0.753561  0.778656  1
  O  O15  1  0.772819  0.487215  0.702405  1
  O  O16  1  0.861796  0.872071  0.375409  1
  O  O17  1  0.312101  0.257706  0.183047  1
  O  O18  1  0.362945  0.574374  0.279988  1
  O  O19  1  0.294494  0.175197  0.571529  1
  O  O20  1  0.640363  0.816449  0.019494  1
  O  O21  1  0.590470  0.197525  0.849619  1
  O  O22  1  0.102445  0.205534  0.977984  1
  O  O23  1  0.139363  0.923234  0.877022  1
  O  O24  1  0.496221  0.839848  0.405875  1
  O  O25  1  0.000864  0.569351  0.289808  1
