# generated using pymatgen
data_Yb8FeSi16W11
_symmetry_space_group_name_H-M   'P 1'
_cell_length_a   6.73284651
_cell_length_b   6.89030857
_cell_length_c   12.94573607
_cell_angle_alpha   89.91653887
_cell_angle_beta   89.94326567
_cell_angle_gamma   90.19134671
_symmetry_Int_Tables_number   1
_chemical_formula_structural   Yb8FeSi16W11
_chemical_formula_sum   'Yb8 Fe1 Si16 W11'
_cell_volume   600.56640674
_cell_formula_units_Z   1
loop_
 _symmetry_equiv_pos_site_id
 _symmetry_equiv_pos_as_xyz
  1  'x, y, z'
loop_
 _atom_site_type_symbol
 _atom_site_label
 _atom_site_symmetry_multiplicity
 _atom_site_fract_x
 _atom_site_fract_y
 _atom_site_fract_z
 _atom_site_occupancy
  Yb  Yb0  1  0.997406  0.166113  0.089915  1
  Yb  Yb1  1  0.000819  0.832309  0.911534  1
  Yb  Yb2  1  0.504480  0.667870  0.910355  1
  Yb  Yb3  1  0.001320  0.833561  0.589489  1
  Yb  Yb4  1  0.499578  0.334738  0.090373  1
  Yb  Yb5  1  0.998680  0.165587  0.408582  1
  Yb  Yb6  1  0.497093  0.336955  0.408837  1
  Yb  Yb7  1  0.501160  0.667707  0.590267  1
  Fe  Fe8  1  0.168936  0.650915  0.125853  1
  Si  Si9  1  0.033589  0.120416  0.750730  1
  Si  Si10  1  0.970122  0.871453  0.242262  1
  Si  Si11  1  0.459225  0.628032  0.246589  1
  Si  Si12  1  0.535382  0.379383  0.751386  1
  Si  Si13  1  0.297400  0.863904  0.750583  1
  Si  Si14  1  0.700464  0.135841  0.250914  1
  Si  Si15  1  0.196951  0.366758  0.247786  1
  Si  Si16  1  0.799555  0.637388  0.750178  1
  Si  Si17  1  0.159705  0.456693  0.544518  1
  Si  Si18  1  0.838895  0.542480  0.454755  1
  Si  Si19  1  0.341184  0.959966  0.452955  1
  Si  Si20  1  0.849125  0.544673  0.050478  1
  Si  Si21  1  0.660789  0.042754  0.543447  1
  Si  Si22  1  0.161344  0.457837  0.957946  1
  Si  Si23  1  0.658965  0.044195  0.955916  1
  Si  Si24  1  0.337255  0.949398  0.050703  1
  W  W25  1  0.159703  0.488420  0.751060  1
  W  W26  1  0.838725  0.511117  0.250657  1
  W  W27  1  0.335903  0.992736  0.249232  1
  W  W28  1  0.658961  0.011534  0.750348  1
  W  W29  1  0.336531  0.168191  0.628495  1
  W  W30  1  0.665662  0.831026  0.371868  1
  W  W31  1  0.164782  0.667382  0.367232  1
  W  W32  1  0.664968  0.837163  0.128229  1
  W  W33  1  0.834638  0.334349  0.627744  1
  W  W34  1  0.333510  0.165592  0.874669  1
  W  W35  1  0.837195  0.335562  0.874113  1
