# generated using pymatgen
data_La2HfMoO7
_symmetry_space_group_name_H-M   'P 1'
_cell_length_a   7.67440639
_cell_length_b   7.61139631
_cell_length_c   7.61139530
_cell_angle_alpha   59.54503127
_cell_angle_beta   59.72577598
_cell_angle_gamma   59.72577954
_symmetry_Int_Tables_number   1
_chemical_formula_structural   La2HfMoO7
_chemical_formula_sum   'La4 Hf2 Mo2 O14'
_cell_volume   311.99142395
_cell_formula_units_Z   2
loop_
 _symmetry_equiv_pos_site_id
 _symmetry_equiv_pos_as_xyz
  1  'x, y, z'
loop_
 _atom_site_type_symbol
 _atom_site_label
 _atom_site_symmetry_multiplicity
 _atom_site_fract_x
 _atom_site_fract_y
 _atom_site_fract_z
 _atom_site_occupancy
  La  La0  1  0.125000  0.625000  0.125000  1
  La  La1  1  0.125000  0.125000  0.625000  1
  La  La2  1  0.625000  0.125000  0.125000  1
  La  La3  1  0.125000  0.125000  0.125000  1
  Hf  Hf4  1  0.125000  0.625000  0.625000  1
  Hf  Hf5  1  0.625000  0.625000  0.625000  1
  Mo  Mo6  1  0.625000  0.125000  0.625000  1
  Mo  Mo7  1  0.625000  0.625000  0.125000  1
  O  O8  1  0.998516  0.001484  0.001484  1
  O  O9  1  0.251484  0.248516  0.248516  1
  O  O10  1  0.294697  0.292294  0.706213  1
  O  O11  1  0.543205  0.543787  0.957706  1
  O  O12  1  0.706795  0.292294  0.706213  1
  O  O13  1  0.703519  0.296481  0.296481  1
  O  O14  1  0.295286  0.704714  0.704714  1
  O  O15  1  0.294697  0.706213  0.292294  1
  O  O16  1  0.706795  0.706213  0.292294  1
  O  O17  1  0.954714  0.545286  0.545286  1
  O  O18  1  0.546481  0.953519  0.953519  1
  O  O19  1  0.955303  0.957706  0.543787  1
  O  O20  1  0.955303  0.543787  0.957706  1
  O  O21  1  0.543205  0.957706  0.543787  1
