# generated using pymatgen
data_Ce4Ta3TiN8
_symmetry_space_group_name_H-M   'P 1'
_cell_length_a   3.32738700
_cell_length_b   5.74916501
_cell_length_c   11.00555779
_cell_angle_alpha   90.03680920
_cell_angle_beta   90.00000000
_cell_angle_gamma   90.00000000
_symmetry_Int_Tables_number   1
_chemical_formula_structural   Ce4Ta3TiN8
_chemical_formula_sum   'Ce4 Ta3 Ti1 N8'
_cell_volume   210.53294163
_cell_formula_units_Z   1
loop_
 _symmetry_equiv_pos_site_id
 _symmetry_equiv_pos_as_xyz
  1  'x, y, z'
loop_
 _atom_site_type_symbol
 _atom_site_label
 _atom_site_symmetry_multiplicity
 _atom_site_fract_x
 _atom_site_fract_y
 _atom_site_fract_z
 _atom_site_occupancy
  Ce  Ce0  1  0.250000  0.580969  0.863105  1
  Ce  Ce1  1  0.750000  0.421290  0.137888  1
  Ce  Ce2  1  0.750000  0.919917  0.358596  1
  Ce  Ce3  1  0.250000  0.079911  0.638060  1
  Ta  Ta4  1  0.750000  0.078397  0.895150  1
  Ta  Ta5  1  0.750000  0.578543  0.607007  1
  Ta  Ta6  1  0.250000  0.420569  0.392289  1
  Ti  Ti7  1  0.250000  0.918079  0.105595  1
  N  N8  1  0.250000  0.664136  0.245153  1
  N  N9  1  0.750000  0.336752  0.754374  1
  N  N10  1  0.750000  0.836486  0.746753  1
  N  N11  1  0.250000  0.162336  0.252914  1
  N  N12  1  0.250000  0.734895  0.509302  1
  N  N13  1  0.750000  0.264874  0.489971  1
  N  N14  1  0.750000  0.775219  0.012873  1
  N  N15  1  0.250000  0.227627  0.990973  1
