# generated using pymatgen
data_Nd10IrOs3
_symmetry_space_group_name_H-M   'P 1'
_cell_length_a   8.90227039
_cell_length_b   8.88851969
_cell_length_c   7.43271887
_cell_angle_alpha   83.61050588
_cell_angle_beta   83.59650168
_cell_angle_gamma   43.89538865
_symmetry_Int_Tables_number   1
_chemical_formula_structural   Nd10IrOs3
_chemical_formula_sum   'Nd10 Ir1 Os3'
_cell_volume   404.82834550
_cell_formula_units_Z   1
loop_
 _symmetry_equiv_pos_site_id
 _symmetry_equiv_pos_as_xyz
  1  'x, y, z'
loop_
 _atom_site_type_symbol
 _atom_site_label
 _atom_site_symmetry_multiplicity
 _atom_site_fract_x
 _atom_site_fract_y
 _atom_site_fract_z
 _atom_site_occupancy
  Nd  Nd0  1  0.021816  0.796067  0.913574  1
  Nd  Nd1  1  0.202171  0.981186  0.585185  1
  Nd  Nd2  1  0.982531  0.203163  0.084649  1
  Nd  Nd3  1  0.799079  0.018663  0.416303  1
  Nd  Nd4  1  0.353178  0.210146  0.816756  1
  Nd  Nd5  1  0.788935  0.646535  0.683382  1
  Nd  Nd6  1  0.646189  0.786339  0.183070  1
  Nd  Nd7  1  0.207690  0.356327  0.318518  1
  Nd  Nd8  1  0.571047  0.430696  0.747564  1
  Nd  Nd9  1  0.429565  0.571017  0.250286  1
  Ir  Ir10  1  0.600236  0.176164  0.075142  1
  Os  Os11  1  0.176540  0.602226  0.574277  1
  Os  Os12  1  0.397000  0.824307  0.926496  1
  Os  Os13  1  0.824022  0.397164  0.424798  1
