# generated using pymatgen
data_Tb3Dy3Co17TcP12
_symmetry_space_group_name_H-M   'P 1'
_cell_length_a   3.70589000
_cell_length_b   10.53660204
_cell_length_c   12.22254804
_cell_angle_alpha   90.00974748
_cell_angle_beta   90.00000000
_cell_angle_gamma   90.00000000
_symmetry_Int_Tables_number   1
_chemical_formula_structural   Tb3Dy3Co17TcP12
_chemical_formula_sum   'Tb3 Dy3 Co17 Tc1 P12'
_cell_volume   477.25979273
_cell_formula_units_Z   1
loop_
 _symmetry_equiv_pos_site_id
 _symmetry_equiv_pos_as_xyz
  1  'x, y, z'
loop_
 _atom_site_type_symbol
 _atom_site_label
 _atom_site_symmetry_multiplicity
 _atom_site_fract_x
 _atom_site_fract_y
 _atom_site_fract_z
 _atom_site_occupancy
  Tb  Tb0  1  0.000000  0.499974  0.523904  1
  Tb  Tb1  1  0.500000  0.000057  0.478130  1
  Tb  Tb2  1  0.000000  0.317033  0.794953  1
  Dy  Dy3  1  0.500000  0.817503  0.206809  1
  Dy  Dy4  1  0.500000  0.182520  0.206652  1
  Dy  Dy5  1  0.000000  0.683002  0.794870  1
  Co  Co6  1  0.000000  0.000010  0.840233  1
  Co  Co7  1  0.500000  0.500279  0.703323  1
  Co  Co8  1  0.000000  0.999991  0.295862  1
  Co  Co9  1  0.000000  0.500038  0.987661  1
  Co  Co10  1  0.500000  0.000037  0.014656  1
  Co  Co11  1  0.500000  0.331870  0.991599  1
  Co  Co12  1  0.500000  0.668094  0.991385  1
  Co  Co13  1  0.000000  0.166456  0.005710  1
  Co  Co14  1  0.000000  0.833525  0.005618  1
  Co  Co15  1  0.500000  0.296603  0.430454  1
  Co  Co16  1  0.500000  0.703398  0.430476  1
  Co  Co17  1  0.000000  0.203370  0.568894  1
  Co  Co18  1  0.000000  0.796591  0.569043  1
  Co  Co19  1  0.500000  0.879130  0.709529  1
  Co  Co20  1  0.500000  0.120614  0.709398  1
  Co  Co21  1  0.000000  0.620678  0.291426  1
  Co  Co22  1  0.000000  0.379332  0.291409  1
  Tc  Tc23  1  0.500000  0.499953  0.156490  1
  P  P24  1  0.500000  0.500288  0.881943  1
  P  P25  1  0.000000  0.000029  0.117049  1
  P  P26  1  0.500000  0.499999  0.348281  1
  P  P27  1  0.000000  0.000020  0.656694  1
  P  P28  1  0.500000  0.310246  0.616135  1
  P  P29  1  0.500000  0.689693  0.616500  1
  P  P30  1  0.000000  0.189037  0.384104  1
  P  P31  1  0.000000  0.810947  0.384109  1
  P  P32  1  0.500000  0.849474  0.892107  1
  P  P33  1  0.500000  0.150227  0.892373  1
  P  P34  1  0.000000  0.655565  0.106145  1
  P  P35  1  0.000000  0.344417  0.106077  1
