# generated using pymatgen
data_Hf18MnRe6GeMo2
_symmetry_space_group_name_H-M   'P 1'
_cell_length_a   8.61646600
_cell_length_b   8.61646648
_cell_length_c   8.56516500
_cell_angle_alpha   90.00000000
_cell_angle_beta   90.00000000
_cell_angle_gamma   119.99999816
_symmetry_Int_Tables_number   1
_chemical_formula_structural   Hf18MnRe6GeMo2
_chemical_formula_sum   'Hf18 Mn1 Re6 Ge1 Mo2'
_cell_volume   550.71227265
_cell_formula_units_Z   1
loop_
 _symmetry_equiv_pos_site_id
 _symmetry_equiv_pos_as_xyz
  1  'x, y, z'
loop_
 _atom_site_type_symbol
 _atom_site_label
 _atom_site_symmetry_multiplicity
 _atom_site_fract_x
 _atom_site_fract_y
 _atom_site_fract_z
 _atom_site_occupancy
  Hf  Hf0  1  0.202776  0.797224  0.443292  1
  Hf  Hf1  1  0.202776  0.405552  0.443292  1
  Hf  Hf2  1  0.594448  0.797224  0.443292  1
  Hf  Hf3  1  0.806946  0.193054  0.546855  1
  Hf  Hf4  1  0.806946  0.613894  0.546855  1
  Hf  Hf5  1  0.386106  0.193054  0.546855  1
  Hf  Hf6  1  0.806946  0.193054  0.953145  1
  Hf  Hf7  1  0.806946  0.613894  0.953145  1
  Hf  Hf8  1  0.386106  0.193054  0.953145  1
  Hf  Hf9  1  0.202776  0.797224  0.056708  1
  Hf  Hf10  1  0.202776  0.405552  0.056708  1
  Hf  Hf11  1  0.594448  0.797224  0.056708  1
  Hf  Hf12  1  0.538909  0.461091  0.250000  1
  Hf  Hf13  1  0.538909  0.077819  0.250000  1
  Hf  Hf14  1  0.922181  0.461091  0.250000  1
  Hf  Hf15  1  0.460000  0.540000  0.750000  1
  Hf  Hf16  1  0.460000  0.920001  0.750000  1
  Hf  Hf17  1  0.079999  0.540000  0.750000  1
  Mn  Mn18  1  0.333333  0.666667  0.250000  1
  Re  Re19  1  0.888933  0.111067  0.250000  1
  Re  Re20  1  0.888933  0.777865  0.250000  1
  Re  Re21  1  0.222135  0.111067  0.250000  1
  Re  Re22  1  0.111306  0.888694  0.750000  1
  Re  Re23  1  0.111306  0.222610  0.750000  1
  Re  Re24  1  0.777390  0.888694  0.750000  1
  Ge  Ge25  1  0.666667  0.333333  0.750000  1
  Mo  Mo26  1  0.000000  0.000000  0.499627  1
  Mo  Mo27  1  0.000000  0.000000  0.000373  1
