# generated using pymatgen
data_Ta3NbAg4F28
_symmetry_space_group_name_H-M   'P 1'
_cell_length_a   5.72169872
_cell_length_b   8.68261257
_cell_length_c   13.07327383
_cell_angle_alpha   68.31652518
_cell_angle_beta   89.95390088
_cell_angle_gamma   90.00812225
_symmetry_Int_Tables_number   1
_chemical_formula_structural   Ta3NbAg4F28
_chemical_formula_sum   'Ta3 Nb1 Ag4 F28'
_cell_volume   603.51363691
_cell_formula_units_Z   1
loop_
 _symmetry_equiv_pos_site_id
 _symmetry_equiv_pos_as_xyz
  1  'x, y, z'
loop_
 _atom_site_type_symbol
 _atom_site_label
 _atom_site_symmetry_multiplicity
 _atom_site_fract_x
 _atom_site_fract_y
 _atom_site_fract_z
 _atom_site_occupancy
  Ta  Ta0  1  0.709735  0.708768  0.060090  1
  Ta  Ta1  1  0.790590  0.708564  0.560670  1
  Ta  Ta2  1  0.290415  0.291340  0.939598  1
  Nb  Nb3  1  0.209011  0.291206  0.440377  1
  Ag  Ag4  1  0.286912  0.858831  0.715376  1
  Ag  Ag5  1  0.786816  0.140582  0.785530  1
  Ag  Ag6  1  0.712718  0.140350  0.285315  1
  Ag  Ag7  1  0.212886  0.859668  0.214692  1
  F  F8  1  0.576257  0.980127  0.742151  1
  F  F9  1  0.075985  0.020521  0.757663  1
  F  F10  1  0.423703  0.020488  0.257555  1
  F  F11  1  0.923518  0.980401  0.241757  1
  F  F12  1  0.384720  0.321823  0.553522  1
  F  F13  1  0.885512  0.679571  0.947176  1
  F  F14  1  0.614639  0.678700  0.447958  1
  F  F15  1  0.114508  0.321037  0.052312  1
  F  F16  1  0.471775  0.255027  0.819173  1
  F  F17  1  0.971716  0.744433  0.681171  1
  F  F18  1  0.528752  0.745357  0.180217  1
  F  F19  1  0.025872  0.254370  0.318800  1
  F  F20  1  0.009470  0.288644  0.850135  1
  F  F21  1  0.509660  0.710582  0.650184  1
  F  F22  1  0.990395  0.711287  0.149321  1
  F  F23  1  0.492033  0.289038  0.349445  1
  F  F24  1  0.247607  0.054918  0.005595  1
  F  F25  1  0.748699  0.945018  0.494854  1
  F  F26  1  0.752789  0.945602  0.993519  1
  F  F27  1  0.253211  0.053199  0.507312  1
  F  F28  1  0.312438  0.523549  0.858041  1
  F  F29  1  0.812432  0.476245  0.641838  1
  F  F30  1  0.687213  0.476251  0.141366  1
  F  F31  1  0.189903  0.524535  0.357334  1
  F  F32  1  0.577417  0.276492  0.013069  1
  F  F33  1  0.077704  0.723262  0.486840  1
  F  F34  1  0.423146  0.724152  0.986192  1
  F  F35  1  0.919840  0.276067  0.513851  1
