# generated using pymatgen
data_HoTh2(P3Pd10)2
_symmetry_space_group_name_H-M   'P 1'
_cell_length_a   8.73828183
_cell_length_b   8.73828177
_cell_length_c   8.73828200
_cell_angle_alpha   59.99999913
_cell_angle_beta   59.99999935
_cell_angle_gamma   59.99999716
_symmetry_Int_Tables_number   1
_chemical_formula_structural   HoTh2(P3Pd10)2
_chemical_formula_sum   'Ho1 Th2 P6 Pd20'
_cell_volume   471.80564864
_cell_formula_units_Z   1
loop_
 _symmetry_equiv_pos_site_id
 _symmetry_equiv_pos_as_xyz
  1  'x, y, z'
loop_
 _atom_site_type_symbol
 _atom_site_label
 _atom_site_symmetry_multiplicity
 _atom_site_fract_x
 _atom_site_fract_y
 _atom_site_fract_z
 _atom_site_occupancy
  Ho  Ho0  1  0.000000  0.000000  0.000000  1
  Th  Th1  1  0.250000  0.250000  0.250000  1
  Th  Th2  1  0.750000  0.750000  0.750000  1
  P  P3  1  0.738442  0.261558  0.261558  1
  P  P4  1  0.261558  0.738442  0.738442  1
  P  P5  1  0.261558  0.738442  0.261558  1
  P  P6  1  0.738442  0.261558  0.738442  1
  P  P7  1  0.261558  0.261558  0.738442  1
  P  P8  1  0.738442  0.738442  0.261558  1
  Pd  Pd9  1  0.384533  0.384533  0.384533  1
  Pd  Pd10  1  0.615467  0.615467  0.615467  1
  Pd  Pd11  1  0.384533  0.384533  0.846402  1
  Pd  Pd12  1  0.384533  0.846402  0.384533  1
  Pd  Pd13  1  0.615467  0.615467  0.153598  1
  Pd  Pd14  1  0.615467  0.153598  0.615467  1
  Pd  Pd15  1  0.846402  0.384533  0.384533  1
  Pd  Pd16  1  0.153598  0.615467  0.615467  1
  Pd  Pd17  1  0.344917  0.000000  0.000000  1
  Pd  Pd18  1  0.655083  0.000000  0.000000  1
  Pd  Pd19  1  0.000000  0.344917  0.655083  1
  Pd  Pd20  1  0.000000  0.655083  0.344917  1
  Pd  Pd21  1  0.000000  0.344917  0.000000  1
  Pd  Pd22  1  0.655083  0.000000  0.344917  1
  Pd  Pd23  1  0.000000  0.655083  0.000000  1
  Pd  Pd24  1  0.344917  0.000000  0.655083  1
  Pd  Pd25  1  0.000000  0.000000  0.344917  1
  Pd  Pd26  1  0.000000  0.000000  0.655083  1
  Pd  Pd27  1  0.655083  0.344917  0.000000  1
  Pd  Pd28  1  0.344917  0.655083  0.000000  1
