# generated using pymatgen
data_Rb4Al3Ga5Au12
_symmetry_space_group_name_H-M   'P 1'
_cell_length_a   5.63477309
_cell_length_b   7.20863503
_cell_length_c   13.60967978
_cell_angle_alpha   89.89503295
_cell_angle_beta   90.07657052
_cell_angle_gamma   89.93850996
_symmetry_Int_Tables_number   1
_chemical_formula_structural   Rb4Al3Ga5Au12
_chemical_formula_sum   'Rb4 Al3 Ga5 Au12'
_cell_volume   552.81015021
_cell_formula_units_Z   1
loop_
 _symmetry_equiv_pos_site_id
 _symmetry_equiv_pos_as_xyz
  1  'x, y, z'
loop_
 _atom_site_type_symbol
 _atom_site_label
 _atom_site_symmetry_multiplicity
 _atom_site_fract_x
 _atom_site_fract_y
 _atom_site_fract_z
 _atom_site_occupancy
  Rb  Rb0  1  0.248806  0.101874  0.073203  1
  Rb  Rb1  1  0.250376  0.398586  0.573532  1
  Rb  Rb2  1  0.749997  0.898198  0.926579  1
  Rb  Rb3  1  0.750607  0.601695  0.426655  1
  Al  Al4  1  0.999331  0.899319  0.656162  1
  Al  Al5  1  0.500928  0.601115  0.156729  1
  Al  Al6  1  0.499610  0.100262  0.343272  1
  Ga  Ga7  1  0.001093  0.395741  0.844833  1
  Ga  Ga8  1  0.002267  0.104958  0.344649  1
  Ga  Ga9  1  0.497862  0.395846  0.844645  1
  Ga  Ga10  1  0.502399  0.895267  0.654616  1
  Ga  Ga11  1  0.997619  0.605419  0.155422  1
  Au  Au12  1  0.247624  0.107653  0.784820  1
  Au  Au13  1  0.256190  0.388845  0.285532  1
  Au  Au14  1  0.743740  0.888544  0.214321  1
  Au  Au15  1  0.754541  0.612354  0.713126  1
  Au  Au16  1  0.246090  0.700370  0.789204  1
  Au  Au17  1  0.256593  0.802226  0.289043  1
  Au  Au18  1  0.743511  0.301551  0.211362  1
  Au  Au19  1  0.752955  0.197048  0.709330  1
  Au  Au20  1  0.255938  0.582643  0.995602  1
  Au  Au21  1  0.246894  0.919797  0.494585  1
  Au  Au22  1  0.748390  0.420085  0.007830  1
  Au  Au23  1  0.746638  0.080603  0.504948  1
