# generated using pymatgen
data_Dy3Er2Si9Mo3P3Ir16
_symmetry_space_group_name_H-M   'P 1'
_cell_length_a   12.83713600
_cell_length_b   12.83713696
_cell_length_c   3.96959200
_cell_angle_alpha   90.00000000
_cell_angle_beta   90.00000000
_cell_angle_gamma   119.99999752
_symmetry_Int_Tables_number   1
_chemical_formula_structural   Dy3Er2Si9Mo3P3Ir16
_chemical_formula_sum   'Dy3 Er2 Si9 Mo3 P3 Ir16'
_cell_volume   566.51684956
_cell_formula_units_Z   1
loop_
 _symmetry_equiv_pos_site_id
 _symmetry_equiv_pos_as_xyz
  1  'x, y, z'
loop_
 _atom_site_type_symbol
 _atom_site_label
 _atom_site_symmetry_multiplicity
 _atom_site_fract_x
 _atom_site_fract_y
 _atom_site_fract_z
 _atom_site_occupancy
  Dy  Dy0  1  0.000000  0.812220  0.000000  1
  Dy  Dy1  1  0.187780  0.187780  0.000000  1
  Dy  Dy2  1  0.812220  0.000000  0.000000  1
  Er  Er3  1  0.333333  0.666667  0.500000  1
  Er  Er4  1  0.666667  0.333333  0.500000  1
  Si  Si5  1  0.000000  0.629400  0.500000  1
  Si  Si6  1  0.370600  0.370600  0.500000  1
  Si  Si7  1  0.629400  0.000000  0.500000  1
  Si  Si8  1  0.519909  0.685941  0.000000  1
  Si  Si9  1  0.314059  0.833966  0.000000  1
  Si  Si10  1  0.166034  0.480091  0.000000  1
  Si  Si11  1  0.480091  0.166034  0.000000  1
  Si  Si12  1  0.685941  0.519909  0.000000  1
  Si  Si13  1  0.833966  0.314059  0.000000  1
  Mo  Mo14  1  0.000000  0.438258  0.500000  1
  Mo  Mo15  1  0.561742  0.561742  0.500000  1
  Mo  Mo16  1  0.438258  0.000000  0.500000  1
  P  P17  1  0.000000  0.178451  0.500000  1
  P  P18  1  0.821549  0.821549  0.500000  1
  P  P19  1  0.178451  0.000000  0.500000  1
  Ir  Ir20  1  0.513326  0.871738  0.000000  1
  Ir  Ir21  1  0.128262  0.641589  0.000000  1
  Ir  Ir22  1  0.358411  0.486674  0.000000  1
  Ir  Ir23  1  0.486674  0.358411  0.000000  1
  Ir  Ir24  1  0.871738  0.513326  0.000000  1
  Ir  Ir25  1  0.641589  0.128262  0.000000  1
  Ir  Ir26  1  0.000000  0.276056  0.000000  1
  Ir  Ir27  1  0.723944  0.723944  0.000000  1
  Ir  Ir28  1  0.276056  0.000000  0.000000  1
  Ir  Ir29  1  0.629478  0.808882  0.500000  1
  Ir  Ir30  1  0.191118  0.820596  0.500000  1
  Ir  Ir31  1  0.179404  0.370522  0.500000  1
  Ir  Ir32  1  0.370522  0.179404  0.500000  1
  Ir  Ir33  1  0.808882  0.629478  0.500000  1
  Ir  Ir34  1  0.820596  0.191118  0.500000  1
  Ir  Ir35  1  0.000000  0.000000  0.500000  1
