# generated using pymatgen
data_Ti3SiIrO
_symmetry_space_group_name_H-M   'P 1'
_cell_length_a   6.73301000
_cell_length_b   6.73301000
_cell_length_c   6.73301000
_cell_angle_alpha   90.00000000
_cell_angle_beta   90.00000000
_cell_angle_gamma   90.00000000
_symmetry_Int_Tables_number   1
_chemical_formula_structural   Ti3SiIrO
_chemical_formula_sum   'Ti12 Si4 Ir4 O4'
_cell_volume   305.23039484
_cell_formula_units_Z   4
loop_
 _symmetry_equiv_pos_site_id
 _symmetry_equiv_pos_as_xyz
  1  'x, y, z'
loop_
 _atom_site_type_symbol
 _atom_site_label
 _atom_site_symmetry_multiplicity
 _atom_site_fract_x
 _atom_site_fract_y
 _atom_site_fract_z
 _atom_site_occupancy
  Ti  Ti0  1  0.793094  0.954400  0.380385  1
  Ti  Ti1  1  0.706906  0.045600  0.880385  1
  Ti  Ti2  1  0.206906  0.454400  0.119615  1
  Ti  Ti3  1  0.293094  0.545600  0.619615  1
  Ti  Ti4  1  0.954400  0.380385  0.793094  1
  Ti  Ti5  1  0.045600  0.880385  0.706906  1
  Ti  Ti6  1  0.454400  0.119615  0.206906  1
  Ti  Ti7  1  0.545600  0.619615  0.293094  1
  Ti  Ti8  1  0.380385  0.793094  0.954400  1
  Ti  Ti9  1  0.880385  0.706906  0.045600  1
  Ti  Ti10  1  0.119615  0.206906  0.454400  1
  Ti  Ti11  1  0.619615  0.293094  0.545600  1
  Si  Si12  1  0.570251  0.429749  0.929749  1
  Si  Si13  1  0.429749  0.929749  0.570251  1
  Si  Si14  1  0.929749  0.570251  0.429749  1
  Si  Si15  1  0.070251  0.070251  0.070251  1
  Ir  Ir16  1  0.176979  0.823021  0.323021  1
  Ir  Ir17  1  0.323021  0.176979  0.823021  1
  Ir  Ir18  1  0.823021  0.323021  0.176979  1
  Ir  Ir19  1  0.676979  0.676979  0.676979  1
  O  O20  1  0.871109  0.128891  0.628891  1
  O  O21  1  0.628891  0.871109  0.128891  1
  O  O22  1  0.128891  0.628891  0.871109  1
  O  O23  1  0.371109  0.371109  0.371109  1
