# generated using pymatgen
data_La2Cr2(Tc5C)3
_symmetry_space_group_name_H-M   'P 1'
_cell_length_a   6.98367808
_cell_length_b   6.98246757
_cell_length_c   6.98367812
_cell_angle_alpha   82.99393026
_cell_angle_beta   83.32606932
_cell_angle_gamma   82.99394358
_symmetry_Int_Tables_number   1
_chemical_formula_structural   La2Cr2(Tc5C)3
_chemical_formula_sum   'La2 Cr2 Tc15 C3'
_cell_volume   333.70081152
_cell_formula_units_Z   1
loop_
 _symmetry_equiv_pos_site_id
 _symmetry_equiv_pos_as_xyz
  1  'x, y, z'
loop_
 _atom_site_type_symbol
 _atom_site_label
 _atom_site_symmetry_multiplicity
 _atom_site_fract_x
 _atom_site_fract_y
 _atom_site_fract_z
 _atom_site_occupancy
  La  La0  1  0.648113  0.647427  0.648113  1
  La  La1  1  0.351887  0.352573  0.351887  1
  Cr  Cr2  1  0.000000  0.000000  0.500000  1
  Cr  Cr3  1  0.500000  0.000000  0.000000  1
  Tc  Tc4  1  0.000000  0.500000  0.000000  1
  Tc  Tc5  1  0.280327  0.725625  0.998984  1
  Tc  Tc6  1  0.722041  0.000000  0.277959  1
  Tc  Tc7  1  0.001016  0.274375  0.719673  1
  Tc  Tc8  1  0.277959  0.000000  0.722041  1
  Tc  Tc9  1  0.998984  0.725625  0.280327  1
  Tc  Tc10  1  0.719673  0.274375  0.001016  1
  Tc  Tc11  1  0.348181  0.341459  0.869378  1
  Tc  Tc12  1  0.341609  0.873325  0.341609  1
  Tc  Tc13  1  0.869378  0.341459  0.348181  1
  Tc  Tc14  1  0.651819  0.658541  0.130622  1
  Tc  Tc15  1  0.658391  0.126675  0.658391  1
  Tc  Tc16  1  0.130622  0.658541  0.651819  1
  Tc  Tc17  1  0.902611  0.903013  0.902611  1
  Tc  Tc18  1  0.097389  0.096987  0.097389  1
  C  C19  1  0.500000  0.500000  0.000000  1
  C  C20  1  0.500000  0.000000  0.500000  1
  C  C21  1  0.000000  0.500000  0.500000  1
