# generated using pymatgen
data_DyTm4Ga2Sb
_symmetry_space_group_name_H-M   'P 1'
_cell_length_a   8.59884700
_cell_length_b   8.63027817
_cell_length_c   6.46020700
_cell_angle_alpha   90.00000000
_cell_angle_beta   90.00000000
_cell_angle_gamma   120.12098089
_symmetry_Int_Tables_number   1
_chemical_formula_structural   DyTm4Ga2Sb
_chemical_formula_sum   'Dy2 Tm8 Ga4 Sb2'
_cell_volume   414.67833683
_cell_formula_units_Z   2
loop_
 _symmetry_equiv_pos_site_id
 _symmetry_equiv_pos_as_xyz
  1  'x, y, z'
loop_
 _atom_site_type_symbol
 _atom_site_label
 _atom_site_symmetry_multiplicity
 _atom_site_fract_x
 _atom_site_fract_y
 _atom_site_fract_z
 _atom_site_occupancy
  Dy  Dy0  1  0.763482  0.750288  0.250000  1
  Dy  Dy1  1  0.763482  0.013194  0.750000  1
  Tm  Tm2  1  0.313407  0.656703  0.000000  1
  Tm  Tm3  1  0.668172  0.334086  0.500000  1
  Tm  Tm4  1  0.668172  0.334086  0.000000  1
  Tm  Tm5  1  0.313407  0.656703  0.500000  1
  Tm  Tm6  1  0.234707  0.000509  0.250000  1
  Tm  Tm7  1  0.234707  0.234196  0.750000  1
  Tm  Tm8  1  0.014373  0.764802  0.750000  1
  Tm  Tm9  1  0.014373  0.249572  0.250000  1
  Ga  Ga10  1  0.999060  0.399705  0.750000  1
  Ga  Ga11  1  0.999060  0.599355  0.250000  1
  Ga  Ga12  1  0.401965  0.397251  0.250000  1
  Ga  Ga13  1  0.401965  0.004714  0.750000  1
  Sb  Sb14  1  0.604836  0.996168  0.250000  1
  Sb  Sb15  1  0.604836  0.608668  0.750000  1
