# generated using pymatgen
data_Ta8FeCoTe8
_symmetry_space_group_name_H-M   'P 1'
_cell_length_a   4.82963600
_cell_length_b   11.05219800
_cell_length_c   19.39860900
_cell_angle_alpha   90.00000000
_cell_angle_beta   90.00000000
_cell_angle_gamma   90.00000000
_symmetry_Int_Tables_number   1
_chemical_formula_structural   Ta8FeCoTe8
_chemical_formula_sum   'Ta16 Fe2 Co2 Te16'
_cell_volume   1035.46076187
_cell_formula_units_Z   2
loop_
 _symmetry_equiv_pos_site_id
 _symmetry_equiv_pos_as_xyz
  1  'x, y, z'
loop_
 _atom_site_type_symbol
 _atom_site_label
 _atom_site_symmetry_multiplicity
 _atom_site_fract_x
 _atom_site_fract_y
 _atom_site_fract_z
 _atom_site_occupancy
  Ta  Ta0  1  0.500552  0.562475  0.386918  1
  Ta  Ta1  1  0.500552  0.437525  0.613082  1
  Ta  Ta2  1  0.499448  0.062475  0.113082  1
  Ta  Ta3  1  0.499448  0.937525  0.886918  1
  Ta  Ta4  1  0.501226  0.698874  0.535617  1
  Ta  Ta5  1  0.501226  0.301126  0.464383  1
  Ta  Ta6  1  0.498774  0.198874  0.964383  1
  Ta  Ta7  1  0.498774  0.801126  0.035617  1
  Ta  Ta8  1  0.998730  0.685145  0.445143  1
  Ta  Ta9  1  0.998730  0.314855  0.554857  1
  Ta  Ta10  1  0.001270  0.185145  0.054857  1
  Ta  Ta11  1  0.001270  0.814855  0.945143  1
  Ta  Ta12  1  0.999446  0.403728  0.394828  1
  Ta  Ta13  1  0.999446  0.596272  0.605172  1
  Ta  Ta14  1  0.000554  0.903728  0.105172  1
  Ta  Ta15  1  0.000554  0.096272  0.894828  1
  Fe  Fe16  1  0.249947  0.500000  0.500000  1
  Fe  Fe17  1  0.750053  0.000000  0.000000  1
  Co  Co18  1  0.750330  0.500000  0.500000  1
  Co  Co19  1  0.249670  0.000000  0.000000  1
  Te  Te20  1  0.999768  0.844053  0.561854  1
  Te  Te21  1  0.999768  0.155947  0.438146  1
  Te  Te22  1  0.000232  0.344053  0.938146  1
  Te  Te23  1  0.000232  0.655947  0.061854  1
  Te  Te24  1  0.501214  0.333578  0.317983  1
  Te  Te25  1  0.501214  0.666422  0.682017  1
  Te  Te26  1  0.498786  0.833578  0.182017  1
  Te  Te27  1  0.498786  0.166422  0.817983  1
  Te  Te28  1  0.500145  0.819814  0.404957  1
  Te  Te29  1  0.500145  0.180186  0.595043  1
  Te  Te30  1  0.499855  0.319814  0.095043  1
  Te  Te31  1  0.499855  0.680186  0.904957  1
  Te  Te32  1  0.998935  0.608428  0.304362  1
  Te  Te33  1  0.998935  0.391572  0.695638  1
  Te  Te34  1  0.001065  0.108428  0.195638  1
  Te  Te35  1  0.001065  0.891572  0.804362  1
