# generated using pymatgen
data_Sm3Dy3Sc2(Co4P3)4
_symmetry_space_group_name_H-M   'P 1'
_cell_length_a   3.73829100
_cell_length_b   10.68961100
_cell_length_c   12.40239200
_cell_angle_alpha   90.00317037
_cell_angle_beta   90.00000000
_cell_angle_gamma   90.00000000
_symmetry_Int_Tables_number   1
_chemical_formula_structural   Sm3Dy3Sc2(Co4P3)4
_chemical_formula_sum   'Sm3 Dy3 Sc2 Co16 P12'
_cell_volume   495.61045581
_cell_formula_units_Z   1
loop_
 _symmetry_equiv_pos_site_id
 _symmetry_equiv_pos_as_xyz
  1  'x, y, z'
loop_
 _atom_site_type_symbol
 _atom_site_label
 _atom_site_symmetry_multiplicity
 _atom_site_fract_x
 _atom_site_fract_y
 _atom_site_fract_z
 _atom_site_occupancy
  Sm  Sm0  1  0.000000  0.499749  0.528519  1
  Sm  Sm1  1  0.500000  0.000361  0.472160  1
  Sm  Sm2  1  0.500000  0.822619  0.205869  1
  Dy  Dy3  1  0.500000  0.178118  0.205253  1
  Dy  Dy4  1  0.000000  0.677483  0.795044  1
  Dy  Dy5  1  0.000000  0.322340  0.794150  1
  Sc  Sc6  1  0.500000  0.499478  0.155635  1
  Sc  Sc7  1  0.000000  0.000092  0.844059  1
  Co  Co8  1  0.500000  0.499583  0.707490  1
  Co  Co9  1  0.000000  0.002418  0.292904  1
  Co  Co10  1  0.000000  0.499362  0.987098  1
  Co  Co11  1  0.500000  0.000813  0.011291  1
  Co  Co12  1  0.500000  0.331010  0.994522  1
  Co  Co13  1  0.500000  0.668238  0.993780  1
  Co  Co14  1  0.000000  0.169463  0.004376  1
  Co  Co15  1  0.000000  0.831355  0.004101  1
  Co  Co16  1  0.500000  0.295683  0.432441  1
  Co  Co17  1  0.500000  0.703967  0.433953  1
  Co  Co18  1  0.000000  0.204776  0.567671  1
  Co  Co19  1  0.000000  0.795321  0.569104  1
  Co  Co20  1  0.500000  0.878143  0.704641  1
  Co  Co21  1  0.500000  0.121877  0.703934  1
  Co  Co22  1  0.000000  0.620344  0.297316  1
  Co  Co23  1  0.000000  0.377822  0.295640  1
  P  P24  1  0.500000  0.499436  0.886058  1
  P  P25  1  0.000000  0.001775  0.112342  1
  P  P26  1  0.500000  0.500105  0.357726  1
  P  P27  1  0.000000  0.999999  0.642502  1
  P  P28  1  0.500000  0.307494  0.616043  1
  P  P29  1  0.500000  0.692089  0.617153  1
  P  P30  1  0.000000  0.192880  0.383962  1
  P  P31  1  0.000000  0.806714  0.386409  1
  P  P32  1  0.500000  0.839466  0.892889  1
  P  P33  1  0.500000  0.160952  0.892341  1
  P  P34  1  0.000000  0.659267  0.104966  1
  P  P35  1  0.000000  0.339407  0.106660  1
