# generated using pymatgen
data_CsRbNa16(GaAs2)6
_symmetry_space_group_name_H-M   'P 1'
_cell_length_a   23.14032400
_cell_length_b   4.86840300
_cell_length_c   17.00771400
_cell_angle_alpha   90.00000000
_cell_angle_beta   90.00000000
_cell_angle_gamma   90.00000000
_symmetry_Int_Tables_number   1
_chemical_formula_structural   CsRbNa16(GaAs2)6
_chemical_formula_sum   'Cs2 Rb2 Na32 Ga12 As24'
_cell_volume   1916.02821895
_cell_formula_units_Z   2
loop_
 _symmetry_equiv_pos_site_id
 _symmetry_equiv_pos_as_xyz
  1  'x, y, z'
loop_
 _atom_site_type_symbol
 _atom_site_label
 _atom_site_symmetry_multiplicity
 _atom_site_fract_x
 _atom_site_fract_y
 _atom_site_fract_z
 _atom_site_occupancy
  Cs  Cs0  1  0.501683  0.250000  0.808768  1
  Cs  Cs1  1  0.001683  0.250000  0.691232  1
  Rb  Rb2  1  0.497521  0.750000  0.191093  1
  Rb  Rb3  1  0.997521  0.750000  0.308907  1
  Na  Na4  1  0.552274  0.250000  0.032935  1
  Na  Na5  1  0.052274  0.250000  0.467065  1
  Na  Na6  1  0.447844  0.750000  0.967812  1
  Na  Na7  1  0.947844  0.750000  0.532188  1
  Na  Na8  1  0.557457  0.250000  0.351204  1
  Na  Na9  1  0.057457  0.250000  0.148796  1
  Na  Na10  1  0.442467  0.750000  0.648497  1
  Na  Na11  1  0.942467  0.750000  0.851503  1
  Na  Na12  1  0.678878  0.250000  0.920633  1
  Na  Na13  1  0.178878  0.250000  0.579367  1
  Na  Na14  1  0.321109  0.750000  0.079586  1
  Na  Na15  1  0.821109  0.750000  0.420414  1
  Na  Na16  1  0.681557  0.250000  0.692197  1
  Na  Na17  1  0.181557  0.250000  0.807803  1
  Na  Na18  1  0.318473  0.750000  0.307656  1
  Na  Na19  1  0.818473  0.750000  0.192344  1
  Na  Na20  1  0.690219  0.250000  0.458509  1
  Na  Na21  1  0.190219  0.250000  0.041491  1
  Na  Na22  1  0.309723  0.750000  0.541457  1
  Na  Na23  1  0.809723  0.750000  0.958543  1
  Na  Na24  1  0.836945  0.250000  0.798278  1
  Na  Na25  1  0.336945  0.250000  0.701722  1
  Na  Na26  1  0.162713  0.750000  0.201720  1
  Na  Na27  1  0.662713  0.750000  0.298280  1
  Na  Na28  1  0.840507  0.250000  0.581806  1
  Na  Na29  1  0.340507  0.250000  0.918194  1
  Na  Na30  1  0.159199  0.750000  0.418045  1
  Na  Na31  1  0.659199  0.750000  0.081955  1
  Na  Na32  1  0.041018  0.250000  0.945196  1
  Na  Na33  1  0.541018  0.250000  0.554804  1
  Na  Na34  1  0.959124  0.750000  0.055051  1
  Na  Na35  1  0.459124  0.750000  0.444949  1
  Ga  Ga36  1  0.715184  0.250000  0.190820  1
  Ga  Ga37  1  0.215184  0.250000  0.309180  1
  Ga  Ga38  1  0.284139  0.750000  0.809311  1
  Ga  Ga39  1  0.784139  0.750000  0.690689  1
  Ga  Ga40  1  0.864036  0.250000  0.069047  1
  Ga  Ga41  1  0.364036  0.250000  0.430953  1
  Ga  Ga42  1  0.136277  0.750000  0.931463  1
  Ga  Ga43  1  0.636277  0.750000  0.568537  1
  Ga  Ga44  1  0.872448  0.250000  0.309571  1
  Ga  Ga45  1  0.372448  0.250000  0.190429  1
  Ga  Ga46  1  0.128016  0.750000  0.690204  1
  Ga  Ga47  1  0.628016  0.750000  0.809796  1
  As  As48  1  0.612765  0.250000  0.192008  1
  As  As49  1  0.112765  0.250000  0.307993  1
  As  As50  1  0.386063  0.750000  0.808022  1
  As  As51  1  0.886063  0.750000  0.691978  1
  As  As52  1  0.759640  0.250000  0.061819  1
  As  As53  1  0.259640  0.250000  0.438181  1
  As  As54  1  0.240495  0.750000  0.938592  1
  As  As55  1  0.740495  0.750000  0.561408  1
  As  As56  1  0.766627  0.250000  0.315667  1
  As  As57  1  0.266627  0.250000  0.184333  1
  As  As58  1  0.233500  0.750000  0.684205  1
  As  As59  1  0.733500  0.750000  0.815795  1
  As  As60  1  0.910628  0.250000  0.943725  1
  As  As61  1  0.410628  0.250000  0.556275  1
  As  As62  1  0.089281  0.750000  0.056351  1
  As  As63  1  0.589281  0.750000  0.443649  1
  As  As64  1  0.917171  0.250000  0.436345  1
  As  As65  1  0.417171  0.250000  0.063655  1
  As  As66  1  0.084155  0.750000  0.562710  1
  As  As67  1  0.584155  0.750000  0.937290  1
  As  As68  1  0.925456  0.250000  0.184421  1
  As  As69  1  0.425456  0.250000  0.315579  1
  As  As70  1  0.075409  0.750000  0.816273  1
  As  As71  1  0.575409  0.750000  0.683727  1
