# generated using pymatgen
data_Ce3Pr(Si5Os3)2
_symmetry_space_group_name_H-M   'P 1'
_cell_length_a   8.19638601
_cell_length_b   8.20902164
_cell_length_c   5.85933770
_cell_angle_alpha   70.43484342
_cell_angle_beta   70.39596352
_cell_angle_gamma   93.58190760
_symmetry_Int_Tables_number   1
_chemical_formula_structural   Ce3Pr(Si5Os3)2
_chemical_formula_sum   'Ce3 Pr1 Si10 Os6'
_cell_volume   343.09015779
_cell_formula_units_Z   1
loop_
 _symmetry_equiv_pos_site_id
 _symmetry_equiv_pos_as_xyz
  1  'x, y, z'
loop_
 _atom_site_type_symbol
 _atom_site_label
 _atom_site_symmetry_multiplicity
 _atom_site_fract_x
 _atom_site_fract_y
 _atom_site_fract_z
 _atom_site_occupancy
  Ce  Ce0  1  0.866989  0.601215  0.758763  1
  Ce  Ce1  1  0.398654  0.132650  0.742048  1
  Ce  Ce2  1  0.132176  0.399583  0.241422  1
  Pr  Pr3  1  0.602081  0.866528  0.256983  1
  Si  Si4  1  0.061110  0.260970  0.834931  1
  Si  Si5  1  0.739363  0.937809  0.663253  1
  Si  Si6  1  0.939883  0.738638  0.164241  1
  Si  Si7  1  0.261076  0.062811  0.335394  1
  Si  Si8  1  0.206796  0.791725  0.752387  1
  Si  Si9  1  0.792497  0.207411  0.249261  1
  Si  Si10  1  0.512359  0.486902  0.750742  1
  Si  Si11  1  0.486470  0.512677  0.249789  1
  Si  Si12  1  0.773615  0.227228  0.750518  1
  Si  Si13  1  0.225507  0.772009  0.249615  1
  Os  Os14  1  0.253673  0.541849  0.635941  1
  Os  Os15  1  0.456913  0.743476  0.867963  1
  Os  Os16  1  0.745328  0.456692  0.366560  1
  Os  Os17  1  0.541245  0.257729  0.134603  1
  Os  Os18  1  0.004617  0.997767  0.747965  1
  Os  Os19  1  0.999647  0.004333  0.247622  1
