# generated using pymatgen
data_TbCeCdNi2
_symmetry_space_group_name_H-M   'P 1'
_cell_length_a   7.47296036
_cell_length_b   7.47296036
_cell_length_c   3.63353300
_cell_angle_alpha   90.00000000
_cell_angle_beta   90.00000000
_cell_angle_gamma   92.24050932
_symmetry_Int_Tables_number   1
_chemical_formula_structural   TbCeCdNi2
_chemical_formula_sum   'Tb2 Ce2 Cd2 Ni4'
_cell_volume   202.76002299
_cell_formula_units_Z   2
loop_
 _symmetry_equiv_pos_site_id
 _symmetry_equiv_pos_as_xyz
  1  'x, y, z'
loop_
 _atom_site_type_symbol
 _atom_site_label
 _atom_site_symmetry_multiplicity
 _atom_site_fract_x
 _atom_site_fract_y
 _atom_site_fract_z
 _atom_site_occupancy
  Tb  Tb0  1  0.173075  0.326925  0.500000  1
  Tb  Tb1  1  0.826925  0.673075  0.500000  1
  Ce  Ce2  1  0.674731  0.174731  0.500000  1
  Ce  Ce3  1  0.325269  0.825269  0.500000  1
  Cd  Cd4  1  0.000000  0.000000  0.000000  1
  Cd  Cd5  1  0.500000  0.500000  0.000000  1
  Ni  Ni6  1  0.125720  0.625720  0.000000  1
  Ni  Ni7  1  0.874280  0.374280  0.000000  1
  Ni  Ni8  1  0.617533  0.882467  0.000000  1
  Ni  Ni9  1  0.382467  0.117533  0.000000  1
