# generated using pymatgen
data_Hf12Tc5Ir6Ru
_symmetry_space_group_name_H-M   'P 1'
_cell_length_a   4.60955600
_cell_length_b   6.50681200
_cell_length_c   13.87009600
_cell_angle_alpha   90.00000000
_cell_angle_beta   90.00004964
_cell_angle_gamma   90.00000000
_symmetry_Int_Tables_number   1
_chemical_formula_structural   Hf12Tc5Ir6Ru
_chemical_formula_sum   'Hf12 Tc5 Ir6 Ru1'
_cell_volume   416.01292266
_cell_formula_units_Z   1
loop_
 _symmetry_equiv_pos_site_id
 _symmetry_equiv_pos_as_xyz
  1  'x, y, z'
loop_
 _atom_site_type_symbol
 _atom_site_label
 _atom_site_symmetry_multiplicity
 _atom_site_fract_x
 _atom_site_fract_y
 _atom_site_fract_z
 _atom_site_occupancy
  Hf  Hf0  1  0.500001  0.250819  0.000000  1
  Hf  Hf1  1  0.500001  0.749181  0.000000  1
  Hf  Hf2  1  0.999991  0.250339  0.166771  1
  Hf  Hf3  1  0.999991  0.749662  0.166771  1
  Hf  Hf4  1  0.499994  0.249931  0.333525  1
  Hf  Hf5  1  0.499994  0.750069  0.333525  1
  Hf  Hf6  1  0.000000  0.249799  0.500000  1
  Hf  Hf7  1  0.000000  0.750201  0.500000  1
  Hf  Hf8  1  0.500005  0.249931  0.666475  1
  Hf  Hf9  1  0.500005  0.750069  0.666475  1
  Hf  Hf10  1  0.000009  0.250339  0.833229  1
  Hf  Hf11  1  0.000009  0.749662  0.833229  1
  Tc  Tc12  1  0.499973  0.499999  0.166160  1
  Tc  Tc13  1  0.999996  0.000000  0.332851  1
  Tc  Tc14  1  0.500001  0.499999  0.500000  1
  Tc  Tc15  1  0.000004  0.000000  0.667149  1
  Tc  Tc16  1  0.500027  0.499999  0.833839  1
  Ir  Ir17  1  0.000000  0.499999  0.000000  1
  Ir  Ir18  1  0.499999  0.000000  0.166613  1
  Ir  Ir19  1  0.999993  0.499999  0.333043  1
  Ir  Ir20  1  0.500001  0.000000  0.500000  1
  Ir  Ir21  1  0.000007  0.499999  0.666958  1
  Ir  Ir22  1  0.500000  0.000000  0.833387  1
  Ru  Ru23  1  0.000000  0.000000  0.000000  1
