# generated using pymatgen
data_Ce2YSn3Ir2Rh
_symmetry_space_group_name_H-M   'P 1'
_cell_length_a   7.51972721
_cell_length_b   7.51972735
_cell_length_c   4.02045800
_cell_angle_alpha   90.00000000
_cell_angle_beta   90.00000000
_cell_angle_gamma   120.31589460
_symmetry_Int_Tables_number   1
_chemical_formula_structural   Ce2YSn3Ir2Rh
_chemical_formula_sum   'Ce2 Y1 Sn3 Ir2 Rh1'
_cell_volume   196.25425976
_cell_formula_units_Z   1
loop_
 _symmetry_equiv_pos_site_id
 _symmetry_equiv_pos_as_xyz
  1  'x, y, z'
loop_
 _atom_site_type_symbol
 _atom_site_label
 _atom_site_symmetry_multiplicity
 _atom_site_fract_x
 _atom_site_fract_y
 _atom_site_fract_z
 _atom_site_occupancy
  Ce  Ce0  1  0.414158  0.999940  0.500000  1
  Ce  Ce1  1  0.999940  0.414158  0.500000  1
  Y  Y2  1  0.591627  0.591627  0.500000  1
  Sn  Sn3  1  0.745093  0.992860  0.000000  1
  Sn  Sn4  1  0.992860  0.745093  0.000000  1
  Sn  Sn5  1  0.261240  0.261240  0.000000  1
  Ir  Ir6  1  0.322333  0.668074  0.000000  1
  Ir  Ir7  1  0.668074  0.322333  0.000000  1
  Rh  Rh8  1  0.004677  0.004677  0.500000  1
