# generated using pymatgen
data_Pu(BiO3)2
_symmetry_space_group_name_H-M   'P 1'
_cell_length_a   5.60306900
_cell_length_b   5.63483900
_cell_length_c   16.83112700
_cell_angle_alpha   90.00000000
_cell_angle_beta   90.00000000
_cell_angle_gamma   90.00000000
_symmetry_Int_Tables_number   1
_chemical_formula_structural   Pu(BiO3)2
_chemical_formula_sum   'Pu4 Bi8 O24'
_cell_volume   531.39893475
_cell_formula_units_Z   4
loop_
 _symmetry_equiv_pos_site_id
 _symmetry_equiv_pos_as_xyz
  1  'x, y, z'
loop_
 _atom_site_type_symbol
 _atom_site_label
 _atom_site_symmetry_multiplicity
 _atom_site_fract_x
 _atom_site_fract_y
 _atom_site_fract_z
 _atom_site_occupancy
  Pu  Pu0  1  0.250082  0.251196  0.749996  1
  Pu  Pu1  1  0.749918  0.751196  0.750004  1
  Pu  Pu2  1  0.750082  0.248804  0.250004  1
  Pu  Pu3  1  0.249918  0.748804  0.249996  1
  Bi  Bi4  1  0.764627  0.263351  0.574268  1
  Bi  Bi5  1  0.235373  0.763351  0.925732  1
  Bi  Bi6  1  0.264627  0.236649  0.425732  1
  Bi  Bi7  1  0.735373  0.736649  0.074268  1
  Bi  Bi8  1  0.735015  0.237348  0.925734  1
  Bi  Bi9  1  0.264985  0.737348  0.574266  1
  Bi  Bi10  1  0.235015  0.262652  0.074266  1
  Bi  Bi11  1  0.764985  0.762652  0.425734  1
  O  O12  1  0.010758  0.504854  0.497756  1
  O  O13  1  0.989242  0.004854  0.002244  1
  O  O14  1  0.510758  0.995146  0.502244  1
  O  O15  1  0.489242  0.495146  0.997756  1
  O  O16  1  0.489606  0.995105  0.002236  1
  O  O17  1  0.510394  0.495105  0.497764  1
  O  O18  1  0.989606  0.504895  0.997764  1
  O  O19  1  0.010394  0.004895  0.502236  1
  O  O20  1  0.054396  0.423716  0.289788  1
  O  O21  1  0.945604  0.923716  0.210212  1
  O  O22  1  0.554396  0.076284  0.710212  1
  O  O23  1  0.445604  0.576284  0.789788  1
  O  O24  1  0.445615  0.073755  0.210369  1
  O  O25  1  0.554385  0.573755  0.289631  1
  O  O26  1  0.945615  0.426245  0.789631  1
  O  O27  1  0.054385  0.926245  0.710369  1
  O  O28  1  0.195739  0.362821  0.642471  1
  O  O29  1  0.804261  0.862821  0.857529  1
  O  O30  1  0.695739  0.137179  0.357529  1
  O  O31  1  0.304261  0.637179  0.142471  1
  O  O32  1  0.304542  0.139091  0.857483  1
  O  O33  1  0.695458  0.639091  0.642517  1
  O  O34  1  0.804542  0.360909  0.142517  1
  O  O35  1  0.195458  0.860909  0.357483  1
