# generated using pymatgen
data_Ti10Ga3AsP2
_symmetry_space_group_name_H-M   'P 1'
_cell_length_a   6.65391345
_cell_length_b   7.79822591
_cell_length_c   9.79300500
_cell_angle_alpha   90.00000000
_cell_angle_beta   90.00000000
_cell_angle_gamma   90.11573670
_symmetry_Int_Tables_number   1
_chemical_formula_structural   Ti10Ga3AsP2
_chemical_formula_sum   'Ti20 Ga6 As2 P4'
_cell_volume   508.14546046
_cell_formula_units_Z   2
loop_
 _symmetry_equiv_pos_site_id
 _symmetry_equiv_pos_as_xyz
  1  'x, y, z'
loop_
 _atom_site_type_symbol
 _atom_site_label
 _atom_site_symmetry_multiplicity
 _atom_site_fract_x
 _atom_site_fract_y
 _atom_site_fract_z
 _atom_site_occupancy
  Ti  Ti0  1  0.818274  0.555217  0.058332  1
  Ti  Ti1  1  0.681726  0.944783  0.558332  1
  Ti  Ti2  1  0.182540  0.056439  0.939920  1
  Ti  Ti3  1  0.317460  0.443561  0.439920  1
  Ti  Ti4  1  0.181381  0.446121  0.939372  1
  Ti  Ti5  1  0.318619  0.053879  0.439372  1
  Ti  Ti6  1  0.821786  0.945650  0.062174  1
  Ti  Ti7  1  0.678214  0.554350  0.562174  1
  Ti  Ti8  1  0.170238  0.753487  0.222092  1
  Ti  Ti9  1  0.329762  0.746513  0.722092  1
  Ti  Ti10  1  0.827101  0.254208  0.778048  1
  Ti  Ti11  1  0.672899  0.245792  0.278048  1
  Ti  Ti12  1  0.478776  0.748273  0.003056  1
  Ti  Ti13  1  0.021224  0.751727  0.503056  1
  Ti  Ti14  1  0.523096  0.251958  0.998039  1
  Ti  Ti15  1  0.976904  0.248042  0.498039  1
  Ti  Ti16  1  0.654862  0.750743  0.290397  1
  Ti  Ti17  1  0.845138  0.749257  0.790397  1
  Ti  Ti18  1  0.343450  0.253381  0.708857  1
  Ti  Ti19  1  0.156550  0.246619  0.208857  1
  Ga  Ga20  1  0.936965  0.505584  0.324501  1
  Ga  Ga21  1  0.563035  0.994416  0.824501  1
  Ga  Ga22  1  0.064375  0.007408  0.677757  1
  Ga  Ga23  1  0.435625  0.492592  0.177757  1
  Ga  Ga24  1  0.062915  0.493765  0.672556  1
  Ga  Ga25  1  0.437085  0.006235  0.172556  1
  As  As26  1  0.936652  0.991082  0.325859  1
  As  As27  1  0.563348  0.508918  0.825859  1
  P  P28  1  0.397987  0.748727  0.471605  1
  P  P29  1  0.102013  0.751273  0.971605  1
  P  P30  1  0.599899  0.249256  0.527435  1
  P  P31  1  0.900101  0.250744  0.027435  1
