# generated using pymatgen
data_Tm8Hf12Si15Au
_symmetry_space_group_name_H-M   'P 1'
_cell_length_a   7.25304537
_cell_length_b   7.28789510
_cell_length_c   13.33754401
_cell_angle_alpha   89.93618256
_cell_angle_beta   89.96825281
_cell_angle_gamma   89.96112313
_symmetry_Int_Tables_number   1
_chemical_formula_structural   Tm8Hf12Si15Au
_chemical_formula_sum   'Tm8 Hf12 Si15 Au1'
_cell_volume   705.01431682
_cell_formula_units_Z   1
loop_
 _symmetry_equiv_pos_site_id
 _symmetry_equiv_pos_as_xyz
  1  'x, y, z'
loop_
 _atom_site_type_symbol
 _atom_site_label
 _atom_site_symmetry_multiplicity
 _atom_site_fract_x
 _atom_site_fract_y
 _atom_site_fract_z
 _atom_site_occupancy
  Tm  Tm0  1  0.991387  0.347384  0.213790  1
  Tm  Tm1  1  0.004396  0.655113  0.715539  1
  Tm  Tm2  1  0.154791  0.498548  0.466906  1
  Tm  Tm3  1  0.504734  0.843226  0.033263  1
  Tm  Tm4  1  0.844223  0.502807  0.965023  1
  Tm  Tm5  1  0.497430  0.153865  0.537744  1
  Tm  Tm6  1  0.343535  0.997639  0.784756  1
  Tm  Tm7  1  0.662395  0.996816  0.283586  1
  Hf  Hf8  1  0.174948  0.176361  0.998882  1
  Hf  Hf9  1  0.826521  0.825190  0.500632  1
  Hf  Hf10  1  0.325146  0.680604  0.249095  1
  Hf  Hf11  1  0.675375  0.324642  0.750204  1
  Hf  Hf12  1  0.145365  0.998023  0.374650  1
  Hf  Hf13  1  0.851899  0.002514  0.874850  1
  Hf  Hf14  1  0.503587  0.649529  0.625106  1
  Hf  Hf15  1  0.352044  0.496488  0.874731  1
  Hf  Hf16  1  0.495858  0.351317  0.121800  1
  Hf  Hf17  1  0.651806  0.509232  0.380091  1
  Hf  Hf18  1  0.996540  0.147687  0.626601  1
  Hf  Hf19  1  0.000198  0.850190  0.123392  1
  Si  Si20  1  0.639139  0.706297  0.818912  1
  Si  Si21  1  0.204940  0.861263  0.568625  1
  Si  Si22  1  0.139475  0.795472  0.931137  1
  Si  Si23  1  0.795036  0.139333  0.067151  1
  Si  Si24  1  0.857952  0.200906  0.434604  1
  Si  Si25  1  0.295553  0.361408  0.682153  1
  Si  Si26  1  0.704615  0.639706  0.180940  1
  Si  Si27  1  0.294487  0.044473  0.181590  1
  Si  Si28  1  0.703278  0.950994  0.685881  1
  Si  Si29  1  0.448901  0.796752  0.435831  1
  Si  Si30  1  0.202562  0.549259  0.063688  1
  Si  Si31  1  0.548293  0.202361  0.934483  1
  Si  Si32  1  0.796857  0.450514  0.566687  1
  Si  Si33  1  0.047738  0.297747  0.815062  1
  Si  Si34  1  0.951902  0.702825  0.313493  1
  Au  Au35  1  0.367096  0.293515  0.319119  1
