# generated using pymatgen
data_Hf4Mn6SiIr
_symmetry_space_group_name_H-M   'P 1'
_cell_length_a   4.91050900
_cell_length_b   4.91050965
_cell_length_c   8.27620200
_cell_angle_alpha   90.00000000
_cell_angle_beta   90.00000000
_cell_angle_gamma   120.00000237
_symmetry_Int_Tables_number   1
_chemical_formula_structural   Hf4Mn6SiIr
_chemical_formula_sum   'Hf4 Mn6 Si1 Ir1'
_cell_volume   172.82827033
_cell_formula_units_Z   1
loop_
 _symmetry_equiv_pos_site_id
 _symmetry_equiv_pos_as_xyz
  1  'x, y, z'
loop_
 _atom_site_type_symbol
 _atom_site_label
 _atom_site_symmetry_multiplicity
 _atom_site_fract_x
 _atom_site_fract_y
 _atom_site_fract_z
 _atom_site_occupancy
  Hf  Hf0  1  0.333333  0.666667  0.569926  1
  Hf  Hf1  1  0.666667  0.333333  0.430074  1
  Hf  Hf2  1  0.666667  0.333333  0.065218  1
  Hf  Hf3  1  0.333333  0.666667  0.934782  1
  Mn  Mn4  1  0.175482  0.350963  0.256776  1
  Mn  Mn5  1  0.824518  0.649037  0.743224  1
  Mn  Mn6  1  0.649037  0.824518  0.256776  1
  Mn  Mn7  1  0.350963  0.175482  0.743224  1
  Mn  Mn8  1  0.175482  0.824518  0.256776  1
  Mn  Mn9  1  0.824518  0.175482  0.743224  1
  Si  Si10  1  0.000000  0.000000  0.500000  1
  Ir  Ir11  1  0.000000  0.000000  0.000000  1
