# generated using pymatgen
data_YbErNp6F30
_symmetry_space_group_name_H-M   'P 1'
_cell_length_a   8.59114274
_cell_length_b   8.59114238
_cell_length_c   8.62771597
_cell_angle_alpha   79.33993901
_cell_angle_beta   79.33993914
_cell_angle_gamma   99.86171525
_symmetry_Int_Tables_number   1
_chemical_formula_structural   YbErNp6F30
_chemical_formula_sum   'Yb1 Er1 Np6 F30'
_cell_volume   600.92017606
_cell_formula_units_Z   1
loop_
 _symmetry_equiv_pos_site_id
 _symmetry_equiv_pos_as_xyz
  1  'x, y, z'
loop_
 _atom_site_type_symbol
 _atom_site_label
 _atom_site_symmetry_multiplicity
 _atom_site_fract_x
 _atom_site_fract_y
 _atom_site_fract_z
 _atom_site_occupancy
  Yb  Yb0  1  0.823669  0.176331  0.750000  1
  Er  Er1  1  0.176546  0.823454  0.250000  1
  Np  Np2  1  0.749231  0.250769  0.250000  1
  Np  Np3  1  0.250359  0.749641  0.750000  1
  Np  Np4  1  0.756924  0.677406  0.674896  1
  Np  Np5  1  0.322594  0.243076  0.825104  1
  Np  Np6  1  0.242628  0.322156  0.327123  1
  Np  Np7  1  0.677844  0.757372  0.172877  1
  F  F8  1  0.469490  0.530510  0.250000  1
  F  F9  1  0.751444  0.961993  0.971059  1
  F  F10  1  0.038007  0.248556  0.528941  1
  F  F11  1  0.247400  0.030542  0.032906  1
  F  F12  1  0.969458  0.752600  0.467094  1
  F  F13  1  0.527196  0.472804  0.750000  1
  F  F14  1  0.774340  0.276492  0.000980  1
  F  F15  1  0.012116  0.281557  0.213963  1
  F  F16  1  0.783429  0.509753  0.218483  1
  F  F17  1  0.509456  0.783968  0.718376  1
  F  F18  1  0.280092  0.012957  0.712130  1
  F  F19  1  0.277285  0.777015  0.492739  1
  F  F20  1  0.222985  0.722715  0.007261  1
  F  F21  1  0.987043  0.719908  0.787870  1
  F  F22  1  0.216032  0.490544  0.781624  1
  F  F23  1  0.490247  0.216571  0.281517  1
  F  F24  1  0.718443  0.987884  0.286037  1
  F  F25  1  0.723508  0.225660  0.499020  1
  F  F26  1  0.320853  0.340325  0.054679  1
  F  F27  1  0.944444  0.812758  0.161441  1
  F  F28  1  0.836778  0.453192  0.683909  1
  F  F29  1  0.445339  0.840568  0.184100  1
  F  F30  1  0.810703  0.934841  0.656939  1
  F  F31  1  0.348002  0.322202  0.551709  1
  F  F32  1  0.677798  0.651998  0.948291  1
  F  F33  1  0.065159  0.189297  0.843061  1
  F  F34  1  0.159432  0.554661  0.315900  1
  F  F35  1  0.546808  0.163222  0.816091  1
  F  F36  1  0.187242  0.055556  0.338559  1
  F  F37  1  0.659675  0.679147  0.445321  1
