# generated using pymatgen
data_YbSbRuF12
_symmetry_space_group_name_H-M   'P 1'
_cell_length_a   5.43060381
_cell_length_b   5.76813606
_cell_length_c   9.34283416
_cell_angle_alpha   73.74082860
_cell_angle_beta   88.66207378
_cell_angle_gamma   62.53672695
_symmetry_Int_Tables_number   1
_chemical_formula_structural   YbSbRuF12
_chemical_formula_sum   'Yb1 Sb1 Ru1 F12'
_cell_volume   247.36327148
_cell_formula_units_Z   1
loop_
 _symmetry_equiv_pos_site_id
 _symmetry_equiv_pos_as_xyz
  1  'x, y, z'
loop_
 _atom_site_type_symbol
 _atom_site_label
 _atom_site_symmetry_multiplicity
 _atom_site_fract_x
 _atom_site_fract_y
 _atom_site_fract_z
 _atom_site_occupancy
  Yb  Yb0  1  0.501205  0.500824  0.498964  1
  Sb  Sb1  1  0.229337  0.994316  0.761455  1
  Ru  Ru2  1  0.770773  0.002535  0.242923  1
  F  F3  1  0.940427  0.225530  0.201930  1
  F  F4  1  0.055857  0.768401  0.794027  1
  F  F5  1  0.009314  0.774338  0.138844  1
  F  F6  1  0.461500  0.783498  0.632378  1
  F  F7  1  0.534559  0.223069  0.365921  1
  F  F8  1  0.961011  0.230648  0.577746  1
  F  F9  1  0.044276  0.768215  0.423049  1
  F  F10  1  0.401569  0.231746  0.689662  1
  F  F11  1  0.597531  0.765729  0.307497  1
  F  F12  1  0.510738  0.776311  0.925977  1
  F  F13  1  0.500453  0.218795  0.078459  1
  F  F14  1  0.981452  0.236045  0.861169  1
