# generated using pymatgen
data_Zr7Pa(Co4As3)4
_symmetry_space_group_name_H-M   'P 1'
_cell_length_a   12.54810531
_cell_length_b   12.54810529
_cell_length_c   3.80494200
_cell_angle_alpha   90.00000000
_cell_angle_beta   90.00000000
_cell_angle_gamma   120.10542513
_symmetry_Int_Tables_number   1
_chemical_formula_structural   Zr7Pa(Co4As3)4
_chemical_formula_sum   'Zr7 Pa1 Co16 As12'
_cell_volume   518.28976823
_cell_formula_units_Z   1
loop_
 _symmetry_equiv_pos_site_id
 _symmetry_equiv_pos_as_xyz
  1  'x, y, z'
loop_
 _atom_site_type_symbol
 _atom_site_label
 _atom_site_symmetry_multiplicity
 _atom_site_fract_x
 _atom_site_fract_y
 _atom_site_fract_z
 _atom_site_occupancy
  Zr  Zr0  1  0.437727  0.437727  0.000000  1
  Zr  Zr1  1  0.000903  0.179810  0.500000  1
  Zr  Zr2  1  0.558190  0.999645  0.000000  1
  Zr  Zr3  1  0.333975  0.666610  0.000000  1
  Zr  Zr4  1  0.666610  0.333975  0.000000  1
  Zr  Zr5  1  0.999645  0.558190  0.000000  1
  Zr  Zr6  1  0.179810  0.000903  0.500000  1
  Pa  Pa7  1  0.827950  0.827950  0.500000  1
  Co  Co8  1  0.626277  0.820469  0.000000  1
  Co  Co9  1  0.372992  0.194362  0.000000  1
  Co  Co10  1  0.000315  0.718909  0.500000  1
  Co  Co11  1  0.277974  0.277974  0.500000  1
  Co  Co12  1  0.877024  0.357777  0.500000  1
  Co  Co13  1  0.718909  0.000315  0.500000  1
  Co  Co14  1  0.820469  0.626277  0.000000  1
  Co  Co15  1  0.183375  0.804285  0.000000  1
  Co  Co16  1  0.357777  0.877024  0.500000  1
  Co  Co17  1  0.123441  0.478955  0.500000  1
  Co  Co18  1  0.643032  0.519620  0.500000  1
  Co  Co19  1  0.995869  0.995869  0.000000  1
  Co  Co20  1  0.519620  0.643032  0.500000  1
  Co  Co21  1  0.478955  0.123441  0.500000  1
  Co  Co22  1  0.194362  0.372992  0.000000  1
  Co  Co23  1  0.804285  0.183375  0.000000  1
  As  As24  1  0.000367  0.347746  0.000000  1
  As  As25  1  0.824941  0.515647  0.500000  1
  As  As26  1  0.689403  0.175843  0.500000  1
  As  As27  1  0.174105  0.174105  0.000000  1
  As  As28  1  0.647767  0.647767  0.000000  1
  As  As29  1  0.823651  0.008242  0.000000  1
  As  As30  1  0.515647  0.824941  0.500000  1
  As  As31  1  0.175843  0.689403  0.500000  1
  As  As32  1  0.347746  0.000367  0.000000  1
  As  As33  1  0.483913  0.308886  0.500000  1
  As  As34  1  0.008242  0.823651  0.000000  1
  As  As35  1  0.308886  0.483913  0.500000  1
