# generated using pymatgen
data_PrTh2(AlRh)3
_symmetry_space_group_name_H-M   'P 1'
_cell_length_a   7.25873478
_cell_length_b   7.16271102
_cell_length_c   4.16058900
_cell_angle_alpha   90.00000000
_cell_angle_beta   90.00000000
_cell_angle_gamma   119.56335427
_symmetry_Int_Tables_number   1
_chemical_formula_structural   PrTh2(AlRh)3
_chemical_formula_sum   'Pr1 Th2 Al3 Rh3'
_cell_volume   188.15592838
_cell_formula_units_Z   1
loop_
 _symmetry_equiv_pos_site_id
 _symmetry_equiv_pos_as_xyz
  1  'x, y, z'
loop_
 _atom_site_type_symbol
 _atom_site_label
 _atom_site_symmetry_multiplicity
 _atom_site_fract_x
 _atom_site_fract_y
 _atom_site_fract_z
 _atom_site_occupancy
  Pr  Pr0  1  0.000000  0.420197  0.500000  1
  Th  Th1  1  0.579651  0.582816  0.500000  1
  Th  Th2  1  0.420349  0.003165  0.500000  1
  Al  Al3  1  0.000000  0.762942  0.000000  1
  Al  Al4  1  0.220136  0.227215  0.000000  1
  Al  Al5  1  0.779864  0.007079  0.000000  1
  Rh  Rh6  1  0.362250  0.689556  0.000000  1
  Rh  Rh7  1  0.637750  0.327305  0.000000  1
  Rh  Rh8  1  0.000000  0.979726  0.500000  1
