# generated using pymatgen
data_Y6Al24CoNiOs6
_symmetry_space_group_name_H-M   'P 1'
_cell_length_a   8.79015500
_cell_length_b   8.79015515
_cell_length_c   9.46198900
_cell_angle_alpha   90.00000000
_cell_angle_beta   90.00000000
_cell_angle_gamma   119.99999566
_symmetry_Int_Tables_number   1
_chemical_formula_structural   Y6Al24CoNiOs6
_chemical_formula_sum   'Y6 Al24 Co1 Ni1 Os6'
_cell_volume   633.14934741
_cell_formula_units_Z   1
loop_
 _symmetry_equiv_pos_site_id
 _symmetry_equiv_pos_as_xyz
  1  'x, y, z'
loop_
 _atom_site_type_symbol
 _atom_site_label
 _atom_site_symmetry_multiplicity
 _atom_site_fract_x
 _atom_site_fract_y
 _atom_site_fract_z
 _atom_site_occupancy
  Y  Y0  1  0.194116  0.388233  0.249629  1
  Y  Y1  1  0.805884  0.611767  0.750371  1
  Y  Y2  1  0.611767  0.805884  0.249629  1
  Y  Y3  1  0.388233  0.194116  0.750371  1
  Y  Y4  1  0.194116  0.805884  0.249629  1
  Y  Y5  1  0.805884  0.194116  0.750371  1
  Al  Al6  1  0.333333  0.666667  0.016236  1
  Al  Al7  1  0.666667  0.333333  0.983764  1
  Al  Al8  1  0.666667  0.333333  0.514710  1
  Al  Al9  1  0.333333  0.666667  0.485290  1
  Al  Al10  1  0.159421  0.318844  0.575604  1
  Al  Al11  1  0.840579  0.681156  0.424396  1
  Al  Al12  1  0.681156  0.840579  0.575604  1
  Al  Al13  1  0.838704  0.677407  0.076280  1
  Al  Al14  1  0.318844  0.159421  0.424396  1
  Al  Al15  1  0.161296  0.322593  0.923720  1
  Al  Al16  1  0.159421  0.840579  0.575604  1
  Al  Al17  1  0.322593  0.161296  0.076280  1
  Al  Al18  1  0.840579  0.159421  0.424396  1
  Al  Al19  1  0.677407  0.838704  0.923720  1
  Al  Al20  1  0.838704  0.161296  0.076280  1
  Al  Al21  1  0.161296  0.838704  0.923720  1
  Al  Al22  1  0.560423  0.120846  0.250370  1
  Al  Al23  1  0.439577  0.879154  0.749630  1
  Al  Al24  1  0.879154  0.439577  0.250370  1
  Al  Al25  1  0.120846  0.560423  0.749630  1
  Al  Al26  1  0.560423  0.439577  0.250370  1
  Al  Al27  1  0.439577  0.560423  0.749630  1
  Al  Al28  1  0.000000  0.000000  0.251280  1
  Al  Al29  1  0.000000  0.000000  0.748720  1
  Co  Co30  1  0.000000  0.000000  0.500000  1
  Ni  Ni31  1  0.000000  0.000000  0.000000  1
  Os  Os32  1  0.500000  0.000000  0.000000  1
  Os  Os33  1  0.000000  0.500000  0.000000  1
  Os  Os34  1  0.500000  0.000000  0.500000  1
  Os  Os35  1  0.500000  0.500000  0.000000  1
  Os  Os36  1  0.000000  0.500000  0.500000  1
  Os  Os37  1  0.500000  0.500000  0.500000  1
