# generated using pymatgen
data_Zr10AgBi3AsPb3
_symmetry_space_group_name_H-M   'P 1'
_cell_length_a   8.86042600
_cell_length_b   8.86042773
_cell_length_c   6.03838400
_cell_angle_alpha   90.00000000
_cell_angle_beta   90.00000000
_cell_angle_gamma   119.99999355
_symmetry_Int_Tables_number   1
_chemical_formula_structural   Zr10AgBi3AsPb3
_chemical_formula_sum   'Zr10 Ag1 Bi3 As1 Pb3'
_cell_volume   410.54491563
_cell_formula_units_Z   1
loop_
 _symmetry_equiv_pos_site_id
 _symmetry_equiv_pos_as_xyz
  1  'x, y, z'
loop_
 _atom_site_type_symbol
 _atom_site_label
 _atom_site_symmetry_multiplicity
 _atom_site_fract_x
 _atom_site_fract_y
 _atom_site_fract_z
 _atom_site_occupancy
  Zr  Zr0  1  0.666667  0.333333  0.502924  1
  Zr  Zr1  1  0.333333  0.666667  0.502924  1
  Zr  Zr2  1  0.333333  0.666667  0.998687  1
  Zr  Zr3  1  0.666667  0.333333  0.998687  1
  Zr  Zr4  1  0.735415  0.735415  0.267935  1
  Zr  Zr5  1  0.264585  0.000000  0.267935  1
  Zr  Zr6  1  0.000000  0.264585  0.267935  1
  Zr  Zr7  1  0.269123  0.269123  0.731654  1
  Zr  Zr8  1  0.730877  0.000000  0.731654  1
  Zr  Zr9  1  0.000000  0.730877  0.731654  1
  Ag  Ag10  1  0.000000  0.000000  0.993818  1
  Bi  Bi11  1  0.389900  0.389900  0.241824  1
  Bi  Bi12  1  0.610100  0.000000  0.241824  1
  Bi  Bi13  1  0.000000  0.610100  0.241824  1
  As  As14  1  0.000000  0.000000  0.503892  1
  Pb  Pb15  1  0.614324  0.614324  0.758277  1
  Pb  Pb16  1  0.385676  0.000000  0.758277  1
  Pb  Pb17  1  0.000000  0.385676  0.758277  1
