# generated using pymatgen
data_Dy2LuMg(B6Ru)2
_symmetry_space_group_name_H-M   'P 1'
_cell_length_a   3.59694500
_cell_length_b   8.98504130
_cell_length_c   11.36432737
_cell_angle_alpha   89.97054747
_cell_angle_beta   90.00000000
_cell_angle_gamma   90.00000000
_symmetry_Int_Tables_number   1
_chemical_formula_structural   Dy2LuMg(B6Ru)2
_chemical_formula_sum   'Dy4 Lu2 Mg2 B24 Ru4'
_cell_volume   367.28023143
_cell_formula_units_Z   2
loop_
 _symmetry_equiv_pos_site_id
 _symmetry_equiv_pos_as_xyz
  1  'x, y, z'
loop_
 _atom_site_type_symbol
 _atom_site_label
 _atom_site_symmetry_multiplicity
 _atom_site_fract_x
 _atom_site_fract_y
 _atom_site_fract_z
 _atom_site_occupancy
  Dy  Dy0  1  0.000000  0.321735  0.414631  1
  Dy  Dy1  1  0.000000  0.678265  0.585369  1
  Dy  Dy2  1  0.000000  0.822873  0.086332  1
  Dy  Dy3  1  0.000000  0.177127  0.913668  1
  Lu  Lu4  1  0.000000  0.443601  0.129028  1
  Lu  Lu5  1  0.000000  0.556399  0.870972  1
  Mg  Mg6  1  0.000000  0.944609  0.374033  1
  Mg  Mg7  1  0.000000  0.055391  0.625967  1
  B  B8  1  0.500000  0.556771  0.433317  1
  B  B9  1  0.500000  0.443229  0.566683  1
  B  B10  1  0.500000  0.053726  0.068535  1
  B  B11  1  0.500000  0.946274  0.931465  1
  B  B12  1  0.500000  0.755161  0.419873  1
  B  B13  1  0.500000  0.244839  0.580127  1
  B  B14  1  0.500000  0.249387  0.081845  1
  B  B15  1  0.500000  0.750613  0.918155  1
  B  B16  1  0.500000  0.794990  0.265593  1
  B  B17  1  0.500000  0.205010  0.734407  1
  B  B18  1  0.500000  0.290057  0.236285  1
  B  B19  1  0.500000  0.709943  0.763715  1
  B  B20  1  0.500000  0.631686  0.185089  1
  B  B21  1  0.500000  0.368314  0.814911  1
  B  B22  1  0.500000  0.126380  0.318678  1
  B  B23  1  0.500000  0.873620  0.681322  1
  B  B24  1  0.500000  0.980353  0.214094  1
  B  B25  1  0.500000  0.019647  0.785906  1
  B  B26  1  0.500000  0.483748  0.288114  1
  B  B27  1  0.500000  0.516252  0.711886  1
  B  B28  1  0.500000  0.604392  0.028195  1
  B  B29  1  0.500000  0.395608  0.971805  1
  B  B30  1  0.500000  0.094277  0.474246  1
  B  B31  1  0.500000  0.905723  0.525754  1
  Ru  Ru32  1  0.000000  0.643586  0.320663  1
  Ru  Ru33  1  0.000000  0.356414  0.679337  1
  Ru  Ru34  1  0.000000  0.137142  0.183514  1
  Ru  Ru35  1  0.000000  0.862858  0.816486  1
