# generated using pymatgen
data_PrNdEr6(WO6)4
_symmetry_space_group_name_H-M   'P 1'
_cell_length_a   5.42594100
_cell_length_b   7.74460824
_cell_length_c   11.50897531
_cell_angle_alpha   75.43770432
_cell_angle_beta   90.00000000
_cell_angle_gamma   90.00000000
_symmetry_Int_Tables_number   1
_chemical_formula_structural   PrNdEr6(WO6)4
_chemical_formula_sum   'Pr1 Nd1 Er6 W4 O24'
_cell_volume   468.09109550
_cell_formula_units_Z   1
loop_
 _symmetry_equiv_pos_site_id
 _symmetry_equiv_pos_as_xyz
  1  'x, y, z'
loop_
 _atom_site_type_symbol
 _atom_site_label
 _atom_site_symmetry_multiplicity
 _atom_site_fract_x
 _atom_site_fract_y
 _atom_site_fract_z
 _atom_site_occupancy
  Pr  Pr0  1  0.686019  0.500000  0.250000  1
  Nd  Nd1  1  0.314385  0.500000  0.750000  1
  Er  Er2  1  0.185169  0.202610  0.423051  1
  Er  Er3  1  0.185169  0.797390  0.076949  1
  Er  Er4  1  0.814997  0.797024  0.577187  1
  Er  Er5  1  0.814997  0.202976  0.922813  1
  Er  Er6  1  0.742771  0.000000  0.250000  1
  Er  Er7  1  0.257275  0.000000  0.750000  1
  W  W8  1  0.254530  0.271467  0.115683  1
  W  W9  1  0.254530  0.728533  0.384317  1
  W  W10  1  0.745419  0.728336  0.883950  1
  W  W11  1  0.745419  0.271664  0.616050  1
  O  O12  1  0.455693  0.202863  0.273946  1
  O  O13  1  0.455693  0.797137  0.226054  1
  O  O14  1  0.543767  0.796445  0.726010  1
  O  O15  1  0.543767  0.203555  0.773990  1
  O  O16  1  0.042631  0.057820  0.103912  1
  O  O17  1  0.042631  0.942180  0.396088  1
  O  O18  1  0.957206  0.942297  0.895782  1
  O  O19  1  0.957206  0.057703  0.604218  1
  O  O20  1  0.986526  0.278497  0.231134  1
  O  O21  1  0.986526  0.721503  0.268866  1
  O  O22  1  0.014517  0.720296  0.769022  1
  O  O23  1  0.014517  0.279704  0.730978  1
  O  O24  1  0.855328  0.358386  0.454525  1
  O  O25  1  0.855328  0.641614  0.045475  1
  O  O26  1  0.145346  0.641478  0.546194  1
  O  O27  1  0.145346  0.358522  0.953806  1
  O  O28  1  0.651692  0.507365  0.612909  1
  O  O29  1  0.651692  0.492635  0.887091  1
  O  O30  1  0.346549  0.492567  0.387621  1
  O  O31  1  0.346549  0.507433  0.112379  1
  O  O32  1  0.463072  0.154691  0.569702  1
  O  O33  1  0.463072  0.845309  0.930298  1
  O  O34  1  0.537333  0.845278  0.430341  1
  O  O35  1  0.537333  0.154722  0.069659  1
