# generated using pymatgen
data_Li6TbDy2In3
_symmetry_space_group_name_H-M   'P 1'
_cell_length_a   4.86036900
_cell_length_b   6.82950300
_cell_length_c   14.56996700
_cell_angle_alpha   90.00000000
_cell_angle_beta   89.99992927
_cell_angle_gamma   90.00000000
_symmetry_Int_Tables_number   1
_chemical_formula_structural   Li6TbDy2In3
_chemical_formula_sum   'Li12 Tb2 Dy4 In6'
_cell_volume   483.63409559
_cell_formula_units_Z   2
loop_
 _symmetry_equiv_pos_site_id
 _symmetry_equiv_pos_as_xyz
  1  'x, y, z'
loop_
 _atom_site_type_symbol
 _atom_site_label
 _atom_site_symmetry_multiplicity
 _atom_site_fract_x
 _atom_site_fract_y
 _atom_site_fract_z
 _atom_site_occupancy
  Li  Li0  1  0.499998  0.250507  0.999923  1
  Li  Li1  1  0.499998  0.749493  0.999923  1
  Li  Li2  1  0.000565  0.249346  0.166788  1
  Li  Li3  1  0.000565  0.750653  0.166788  1
  Li  Li4  1  0.500543  0.250529  0.333386  1
  Li  Li5  1  0.500543  0.749470  0.333386  1
  Li  Li6  1  0.999998  0.249573  0.500019  1
  Li  Li7  1  0.999998  0.750426  0.500019  1
  Li  Li8  1  0.499444  0.250577  0.666695  1
  Li  Li9  1  0.499444  0.749422  0.666695  1
  Li  Li10  1  0.999437  0.249474  0.833194  1
  Li  Li11  1  0.999437  0.750525  0.833194  1
  Tb  Tb12  1  0.000001  0.000000  0.999993  1
  Tb  Tb13  1  0.500581  0.500000  0.166645  1
  Dy  Dy14  1  0.000558  0.000000  0.333331  1
  Dy  Dy15  1  0.499999  0.500000  0.499964  1
  Dy  Dy16  1  0.999437  0.000000  0.666670  1
  Dy  Dy17  1  0.499440  0.500000  0.833407  1
  In  In18  1  0.000000  0.500000  0.000027  1
  In  In19  1  0.500339  0.000000  0.166516  1
  In  In20  1  0.000314  0.500000  0.333432  1
  In  In21  1  0.499999  0.000000  0.500021  1
  In  In22  1  0.999683  0.500000  0.666550  1
  In  In23  1  0.499683  0.000000  0.833433  1
