# generated using pymatgen
data_Tb16MgIn3Co3Pd
_symmetry_space_group_name_H-M   'P 1'
_cell_length_a   9.63640117
_cell_length_b   9.68043220
_cell_length_c   9.63639879
_cell_angle_alpha   59.93391573
_cell_angle_beta   59.84887996
_cell_angle_gamma   59.93391434
_symmetry_Int_Tables_number   1
_chemical_formula_structural   Tb16MgIn3Co3Pd
_chemical_formula_sum   'Tb16 Mg1 In3 Co3 Pd1'
_cell_volume   634.27470064
_cell_formula_units_Z   1
loop_
 _symmetry_equiv_pos_site_id
 _symmetry_equiv_pos_as_xyz
  1  'x, y, z'
loop_
 _atom_site_type_symbol
 _atom_site_label
 _atom_site_symmetry_multiplicity
 _atom_site_fract_x
 _atom_site_fract_y
 _atom_site_fract_z
 _atom_site_occupancy
  Tb  Tb0  1  0.811297  0.810550  0.188638  1
  Tb  Tb1  1  0.811224  0.177585  0.811224  1
  Tb  Tb2  1  0.197440  0.175942  0.812309  1
  Tb  Tb3  1  0.654156  0.037773  0.654156  1
  Tb  Tb4  1  0.060340  0.062955  0.438691  1
  Tb  Tb5  1  0.435262  0.437898  0.063244  1
  Tb  Tb6  1  0.646838  0.661546  0.646838  1
  Tb  Tb7  1  0.812309  0.175942  0.197440  1
  Tb  Tb8  1  0.188638  0.810550  0.811297  1
  Tb  Tb9  1  0.044379  0.661992  0.647378  1
  Tb  Tb10  1  0.438691  0.062955  0.060340  1
  Tb  Tb11  1  0.436075  0.064958  0.436075  1
  Tb  Tb12  1  0.062148  0.439429  0.062148  1
  Tb  Tb13  1  0.647378  0.661992  0.044379  1
  Tb  Tb14  1  0.186233  0.812475  0.186233  1
  Tb  Tb15  1  0.063244  0.437898  0.435262  1
  Mg  Mg16  1  0.422989  0.422346  0.422989  1
  In  In17  1  0.418016  0.417193  0.747279  1
  In  In18  1  0.416796  0.749705  0.416796  1
  In  In19  1  0.747279  0.417193  0.418016  1
  Co  Co20  1  0.858318  0.858699  0.858318  1
  Co  Co21  1  0.859160  0.858327  0.423378  1
  Co  Co22  1  0.423378  0.858327  0.859160  1
  Pd  Pd23  1  0.858413  0.425767  0.858413  1
