# generated using pymatgen
data_Pr16SmY3Sn16
_symmetry_space_group_name_H-M   'P 1'
_cell_length_a   8.30282003
_cell_length_b   8.45984823
_cell_length_c   16.05405800
_cell_angle_alpha   90.00000000
_cell_angle_beta   90.00000000
_cell_angle_gamma   89.97365105
_symmetry_Int_Tables_number   1
_chemical_formula_structural   Pr16SmY3Sn16
_chemical_formula_sum   'Pr16 Sm1 Y3 Sn16'
_cell_volume   1127.64650406
_cell_formula_units_Z   1
loop_
 _symmetry_equiv_pos_site_id
 _symmetry_equiv_pos_as_xyz
  1  'x, y, z'
loop_
 _atom_site_type_symbol
 _atom_site_label
 _atom_site_symmetry_multiplicity
 _atom_site_fract_x
 _atom_site_fract_y
 _atom_site_fract_z
 _atom_site_occupancy
  Pr  Pr0  1  0.367791  0.836931  0.879604  1
  Pr  Pr1  1  0.867359  0.663328  0.620631  1
  Pr  Pr2  1  0.632633  0.162804  0.379277  1
  Pr  Pr3  1  0.132691  0.337116  0.121428  1
  Pr  Pr4  1  0.632633  0.162804  0.120723  1
  Pr  Pr5  1  0.132691  0.337116  0.378572  1
  Pr  Pr6  1  0.367791  0.836931  0.620396  1
  Pr  Pr7  1  0.867359  0.663328  0.879369  1
  Pr  Pr8  1  0.520018  0.319186  0.901485  1
  Pr  Pr9  1  0.019473  0.179985  0.598538  1
  Pr  Pr10  1  0.480055  0.680381  0.400906  1
  Pr  Pr11  1  0.980319  0.819491  0.098698  1
  Pr  Pr12  1  0.480055  0.680381  0.099094  1
  Pr  Pr13  1  0.980319  0.819491  0.401302  1
  Pr  Pr14  1  0.520018  0.319186  0.598515  1
  Pr  Pr15  1  0.019473  0.179985  0.901462  1
  Sm  Sm16  1  0.198551  0.501292  0.750000  1
  Y  Y17  1  0.699747  0.998477  0.750000  1
  Y  Y18  1  0.800259  0.498964  0.250000  1
  Y  Y19  1  0.300119  0.000843  0.250000  1
  Sn  Sn20  1  0.292278  0.034282  0.044223  1
  Sn  Sn21  1  0.792489  0.465952  0.455853  1
  Sn  Sn22  1  0.707557  0.965800  0.543932  1
  Sn  Sn23  1  0.207483  0.535454  0.957683  1
  Sn  Sn24  1  0.707557  0.965800  0.956068  1
  Sn  Sn25  1  0.207483  0.535454  0.542317  1
  Sn  Sn26  1  0.292278  0.034282  0.455777  1
  Sn  Sn27  1  0.792489  0.465952  0.044147  1
  Sn  Sn28  1  0.568071  0.616919  0.750000  1
  Sn  Sn29  1  0.064401  0.885948  0.750000  1
  Sn  Sn30  1  0.435314  0.383740  0.250000  1
  Sn  Sn31  1  0.934850  0.115991  0.250000  1
  Sn  Sn32  1  0.326972  0.143293  0.750000  1
  Sn  Sn33  1  0.824285  0.352439  0.750000  1
  Sn  Sn34  1  0.673862  0.853726  0.250000  1
  Sn  Sn35  1  0.173276  0.646948  0.250000  1
