# generated using pymatgen
data_Ca3Dy7(CuPb3)2
_symmetry_space_group_name_H-M   'P 1'
_cell_length_a   9.19597200
_cell_length_b   9.19597305
_cell_length_c   6.84000400
_cell_angle_alpha   90.00000000
_cell_angle_beta   90.00000000
_cell_angle_gamma   120.00000342
_symmetry_Int_Tables_number   1
_chemical_formula_structural   Ca3Dy7(CuPb3)2
_chemical_formula_sum   'Ca3 Dy7 Cu2 Pb6'
_cell_volume   500.93606802
_cell_formula_units_Z   1
loop_
 _symmetry_equiv_pos_site_id
 _symmetry_equiv_pos_as_xyz
  1  'x, y, z'
loop_
 _atom_site_type_symbol
 _atom_site_label
 _atom_site_symmetry_multiplicity
 _atom_site_fract_x
 _atom_site_fract_y
 _atom_site_fract_z
 _atom_site_occupancy
  Ca  Ca0  1  0.333333  0.666667  0.000000  1
  Ca  Ca1  1  0.666667  0.333333  0.000000  1
  Ca  Ca2  1  0.666667  0.333333  0.500000  1
  Dy  Dy3  1  0.253648  0.000395  0.249436  1
  Dy  Dy4  1  0.746747  0.000395  0.750564  1
  Dy  Dy5  1  0.999605  0.253253  0.249436  1
  Dy  Dy6  1  0.999605  0.746352  0.750564  1
  Dy  Dy7  1  0.746747  0.746352  0.249436  1
  Dy  Dy8  1  0.253648  0.253253  0.750564  1
  Dy  Dy9  1  0.333333  0.666667  0.500000  1
  Cu  Cu10  1  0.000000  0.000000  0.000000  1
  Cu  Cu11  1  0.000000  0.000000  0.500000  1
  Pb  Pb12  1  0.610891  0.997467  0.252485  1
  Pb  Pb13  1  0.386576  0.997467  0.747515  1
  Pb  Pb14  1  0.002533  0.613424  0.252485  1
  Pb  Pb15  1  0.002533  0.389109  0.747515  1
  Pb  Pb16  1  0.386576  0.389109  0.252485  1
  Pb  Pb17  1  0.610891  0.613424  0.747515  1
