# generated using pymatgen
data_Er2ReSi14Ir5
_symmetry_space_group_name_H-M   'P 1'
_cell_length_a   8.00339191
_cell_length_b   8.00339286
_cell_length_c   8.07904089
_cell_angle_alpha   56.82640534
_cell_angle_beta   56.82640256
_cell_angle_gamma   57.01551151
_symmetry_Int_Tables_number   1
_chemical_formula_structural   Er2ReSi14Ir5
_chemical_formula_sum   'Er2 Re1 Si14 Ir5'
_cell_volume   339.66371525
_cell_formula_units_Z   1
loop_
 _symmetry_equiv_pos_site_id
 _symmetry_equiv_pos_as_xyz
  1  'x, y, z'
loop_
 _atom_site_type_symbol
 _atom_site_label
 _atom_site_symmetry_multiplicity
 _atom_site_fract_x
 _atom_site_fract_y
 _atom_site_fract_z
 _atom_site_occupancy
  Er  Er0  1  0.000853  0.003468  0.996573  1
  Er  Er1  1  0.496532  0.499147  0.503427  1
  Re  Re2  1  0.078117  0.421883  0.750000  1
  Si  Si3  1  0.753035  0.746965  0.750000  1
  Si  Si4  1  0.249295  0.250705  0.250000  1
  Si  Si5  1  0.848825  0.064526  0.673295  1
  Si  Si6  1  0.672094  0.852569  0.063256  1
  Si  Si7  1  0.062557  0.671211  0.851826  1
  Si  Si8  1  0.647431  0.827906  0.436744  1
  Si  Si9  1  0.435474  0.651175  0.826705  1
  Si  Si10  1  0.828789  0.437443  0.648174  1
  Si  Si11  1  0.171694  0.562896  0.354689  1
  Si  Si12  1  0.565966  0.350549  0.171167  1
  Si  Si13  1  0.352544  0.174030  0.562027  1
  Si  Si14  1  0.937104  0.328306  0.145311  1
  Si  Si15  1  0.325970  0.147456  0.937973  1
  Si  Si16  1  0.149451  0.934034  0.328833  1
  Ir  Ir17  1  0.250216  0.927526  0.571538  1
  Ir  Ir18  1  0.572474  0.249784  0.928462  1
  Ir  Ir19  1  0.924802  0.575198  0.250000  1
  Ir  Ir20  1  0.427557  0.750780  0.071942  1
  Ir  Ir21  1  0.749220  0.072443  0.428058  1
