# generated using pymatgen
data_Yb4Tc5Ge8Mo
_symmetry_space_group_name_H-M   'P 1'
_cell_length_a   6.92761103
_cell_length_b   6.84016239
_cell_length_c   6.91360158
_cell_angle_alpha   70.29944384
_cell_angle_beta   90.05545989
_cell_angle_gamma   90.40240101
_symmetry_Int_Tables_number   1
_chemical_formula_structural   Yb4Tc5Ge8Mo
_chemical_formula_sum   'Yb4 Tc5 Ge8 Mo1'
_cell_volume   308.42409032
_cell_formula_units_Z   1
loop_
 _symmetry_equiv_pos_site_id
 _symmetry_equiv_pos_as_xyz
  1  'x, y, z'
loop_
 _atom_site_type_symbol
 _atom_site_label
 _atom_site_symmetry_multiplicity
 _atom_site_fract_x
 _atom_site_fract_y
 _atom_site_fract_z
 _atom_site_occupancy
  Yb  Yb0  1  0.667399  0.446362  0.186248  1
  Yb  Yb1  1  0.165514  0.054061  0.815284  1
  Yb  Yb2  1  0.334621  0.552430  0.813152  1
  Yb  Yb3  1  0.833822  0.947247  0.185409  1
  Tc  Tc4  1  0.500411  0.992633  0.497761  1
  Tc  Tc5  1  0.002629  0.503593  0.499058  1
  Tc  Tc6  1  0.158397  0.248582  0.243585  1
  Tc  Tc7  1  0.659430  0.250559  0.755185  1
  Tc  Tc8  1  0.841186  0.752523  0.753995  1
  Ge  Ge9  1  0.452926  0.136046  0.094250  1
  Ge  Ge10  1  0.953648  0.369446  0.900154  1
  Ge  Ge11  1  0.545071  0.868415  0.900123  1
  Ge  Ge12  1  0.046184  0.633397  0.094237  1
  Ge  Ge13  1  0.857966  0.138248  0.500938  1
  Ge  Ge14  1  0.360090  0.358597  0.498425  1
  Ge  Ge15  1  0.135813  0.866665  0.503014  1
  Ge  Ge16  1  0.645533  0.632638  0.502230  1
  Mo  Mo17  1  0.339360  0.748558  0.256950  1
