# generated using pymatgen
data_Eu2DyY3(Co3P2)6
_symmetry_space_group_name_H-M   'P 1'
_cell_length_a   3.72975600
_cell_length_b   10.59357800
_cell_length_c   12.23874400
_cell_angle_alpha   90.00158082
_cell_angle_beta   90.00000000
_cell_angle_gamma   90.00000000
_symmetry_Int_Tables_number   1
_chemical_formula_structural   Eu2DyY3(Co3P2)6
_chemical_formula_sum   'Eu2 Dy1 Y3 Co18 P12'
_cell_volume   483.57065746
_cell_formula_units_Z   1
loop_
 _symmetry_equiv_pos_site_id
 _symmetry_equiv_pos_as_xyz
  1  'x, y, z'
loop_
 _atom_site_type_symbol
 _atom_site_label
 _atom_site_symmetry_multiplicity
 _atom_site_fract_x
 _atom_site_fract_y
 _atom_site_fract_z
 _atom_site_occupancy
  Eu  Eu0  1  0.000000  0.499985  0.523945  1
  Eu  Eu1  1  0.500000  0.000009  0.476070  1
  Dy  Dy2  1  0.500000  0.817021  0.204410  1
  Y  Y3  1  0.500000  0.183001  0.204404  1
  Y  Y4  1  0.000000  0.682972  0.795572  1
  Y  Y5  1  0.000000  0.317026  0.795583  1
  Co  Co6  1  0.500000  0.500017  0.157136  1
  Co  Co7  1  0.000000  0.999998  0.842875  1
  Co  Co8  1  0.500000  0.499999  0.703996  1
  Co  Co9  1  0.000000  0.999901  0.295956  1
  Co  Co10  1  0.000000  0.500001  0.986139  1
  Co  Co11  1  0.500000  0.999980  0.013895  1
  Co  Co12  1  0.500000  0.333491  0.994161  1
  Co  Co13  1  0.500000  0.666522  0.994187  1
  Co  Co14  1  0.000000  0.166503  0.005845  1
  Co  Co15  1  0.000000  0.833497  0.005878  1
  Co  Co16  1  0.500000  0.296216  0.429526  1
  Co  Co17  1  0.500000  0.703802  0.429487  1
  Co  Co18  1  0.000000  0.203797  0.570479  1
  Co  Co19  1  0.000000  0.796206  0.570481  1
  Co  Co20  1  0.500000  0.879965  0.711897  1
  Co  Co21  1  0.500000  0.120036  0.711902  1
  Co  Co22  1  0.000000  0.620087  0.288080  1
  Co  Co23  1  0.000000  0.379967  0.288104  1
  P  P24  1  0.500000  0.499996  0.882987  1
  P  P25  1  0.000000  0.999919  0.117019  1
  P  P26  1  0.500000  0.500006  0.340187  1
  P  P27  1  0.000000  0.999998  0.659813  1
  P  P28  1  0.500000  0.306897  0.616924  1
  P  P29  1  0.500000  0.693102  0.616932  1
  P  P30  1  0.000000  0.193125  0.383078  1
  P  P31  1  0.000000  0.806870  0.383003  1
  P  P32  1  0.500000  0.847529  0.894606  1
  P  P33  1  0.500000  0.152473  0.894602  1
  P  P34  1  0.000000  0.652554  0.105440  1
  P  P35  1  0.000000  0.347532  0.105400  1
