# generated using pymatgen
data_Hf3SiAs2Ru3
_symmetry_space_group_name_H-M   'P 1'
_cell_length_a   7.64582418
_cell_length_b   7.64582524
_cell_length_c   7.64582517
_cell_angle_alpha   127.96325380
_cell_angle_beta   121.11567588
_cell_angle_gamma   82.41924131
_symmetry_Int_Tables_number   1
_chemical_formula_structural   Hf3SiAs2Ru3
_chemical_formula_sum   'Hf6 Si2 As4 Ru6'
_cell_volume   290.01267996
_cell_formula_units_Z   2
loop_
 _symmetry_equiv_pos_site_id
 _symmetry_equiv_pos_as_xyz
  1  'x, y, z'
loop_
 _atom_site_type_symbol
 _atom_site_label
 _atom_site_symmetry_multiplicity
 _atom_site_fract_x
 _atom_site_fract_y
 _atom_site_fract_z
 _atom_site_occupancy
  Hf  Hf0  1  0.468319  0.692472  0.724153  1
  Hf  Hf1  1  0.531681  0.255834  0.224153  1
  Hf  Hf2  1  0.748803  0.837920  0.589116  1
  Hf  Hf3  1  0.251197  0.840314  0.089116  1
  Hf  Hf4  1  0.053678  0.257717  0.704039  1
  Hf  Hf5  1  0.946322  0.650360  0.204039  1
  Si  Si6  1  0.272250  0.271706  0.499457  1
  Si  Si7  1  0.727750  0.227207  0.999457  1
  As  As8  1  0.328805  0.586999  0.248867  1
  As  As9  1  0.671195  0.920062  0.258193  1
  As  As10  1  0.161869  0.920062  0.748867  1
  As  As11  1  0.838131  0.586999  0.758193  1
  Ru  Ru12  1  0.500000  0.492952  0.992952  1
  Ru  Ru13  1  0.000000  0.492952  0.492952  1
  Ru  Ru14  1  0.095866  0.252814  0.106075  1
  Ru  Ru15  1  0.904134  0.010209  0.156948  1
  Ru  Ru16  1  0.353261  0.010209  0.606075  1
  Ru  Ru17  1  0.646739  0.252814  0.656948  1
