# generated using pymatgen
data_Tb17Er3(Ir5Pt)2
_symmetry_space_group_name_H-M   'P 1'
_cell_length_a   10.96964634
_cell_length_b   10.97238701
_cell_length_c   6.35381803
_cell_angle_alpha   89.99548090
_cell_angle_beta   89.96031994
_cell_angle_gamma   89.99709977
_symmetry_Int_Tables_number   1
_chemical_formula_structural   Tb17Er3(Ir5Pt)2
_chemical_formula_sum   'Tb17 Er3 Ir10 Pt2'
_cell_volume   764.76571506
_cell_formula_units_Z   1
loop_
 _symmetry_equiv_pos_site_id
 _symmetry_equiv_pos_as_xyz
  1  'x, y, z'
loop_
 _atom_site_type_symbol
 _atom_site_label
 _atom_site_symmetry_multiplicity
 _atom_site_fract_x
 _atom_site_fract_y
 _atom_site_fract_z
 _atom_site_occupancy
  Tb  Tb0  1  0.291120  0.088247  0.375888  1
  Tb  Tb1  1  0.290927  0.911910  0.876065  1
  Tb  Tb2  1  0.705773  0.089777  0.874095  1
  Tb  Tb3  1  0.705692  0.910107  0.373977  1
  Tb  Tb4  1  0.584632  0.790387  0.878072  1
  Tb  Tb5  1  0.584597  0.209578  0.378233  1
  Tb  Tb6  1  0.411149  0.790867  0.377302  1
  Tb  Tb7  1  0.411048  0.209182  0.877124  1
  Tb  Tb8  1  0.209399  0.411725  0.622430  1
  Tb  Tb9  1  0.209374  0.588307  0.122537  1
  Tb  Tb10  1  0.790387  0.414631  0.122887  1
  Tb  Tb11  1  0.790364  0.585376  0.622726  1
  Tb  Tb12  1  0.913559  0.707547  0.126650  1
  Tb  Tb13  1  0.913490  0.292635  0.626791  1
  Tb  Tb14  1  0.091199  0.707118  0.622827  1
  Tb  Tb15  1  0.091151  0.292648  0.122661  1
  Tb  Tb16  1  0.002832  0.999607  0.500003  1
  Er  Er17  1  0.002892  0.000363  0.000046  1
  Er  Er18  1  0.499851  0.499584  0.999874  1
  Er  Er19  1  0.499850  0.500363  0.499981  1
  Ir  Ir20  1  0.152465  0.153388  0.750823  1
  Ir  Ir21  1  0.152554  0.846658  0.249351  1
  Ir  Ir22  1  0.653930  0.346719  0.749619  1
  Ir  Ir23  1  0.653882  0.653277  0.249570  1
  Ir  Ir24  1  0.347501  0.347150  0.250197  1
  Ir  Ir25  1  0.347524  0.652864  0.750266  1
  Ir  Ir26  1  0.500814  0.999836  0.122677  1
  Ir  Ir27  1  0.500814  0.000198  0.622615  1
  Ir  Ir28  1  0.999570  0.500158  0.877535  1
  Ir  Ir29  1  0.999569  0.499845  0.377503  1
  Pt  Pt30  1  0.845997  0.153122  0.249067  1
  Pt  Pt31  1  0.846092  0.846827  0.750605  1
