# generated using pymatgen
data_Er4AlCo4
_symmetry_space_group_name_H-M   'P 1'
_cell_length_a   5.43334764
_cell_length_b   5.43334735
_cell_length_c   8.87130992
_cell_angle_alpha   70.94608916
_cell_angle_beta   70.94609121
_cell_angle_gamma   43.17378636
_symmetry_Int_Tables_number   1
_chemical_formula_structural   Er4AlCo4
_chemical_formula_sum   'Er4 Al1 Co4'
_cell_volume   167.78381844
_cell_formula_units_Z   1
loop_
 _symmetry_equiv_pos_site_id
 _symmetry_equiv_pos_as_xyz
  1  'x, y, z'
loop_
 _atom_site_type_symbol
 _atom_site_label
 _atom_site_symmetry_multiplicity
 _atom_site_fract_x
 _atom_site_fract_y
 _atom_site_fract_z
 _atom_site_occupancy
  Er  Er0  1  0.745722  0.745722  0.662611  1
  Er  Er1  1  0.254278  0.254278  0.337389  1
  Er  Er2  1  0.391220  0.391220  0.886062  1
  Er  Er3  1  0.608780  0.608780  0.113938  1
  Al  Al4  1  0.500000  0.500000  0.500000  1
  Co  Co5  1  0.037553  0.037553  0.645082  1
  Co  Co6  1  0.962447  0.962447  0.354918  1
  Co  Co7  1  0.093752  0.093752  0.880459  1
  Co  Co8  1  0.906248  0.906248  0.119541  1
