# generated using pymatgen
data_Np4ScGa15
_symmetry_space_group_name_H-M   'P 1'
_cell_length_a   12.54261270
_cell_length_b   12.54261335
_cell_length_c   12.54261331
_cell_angle_alpha   27.88489383
_cell_angle_beta   27.88488834
_cell_angle_gamma   27.88488937
_symmetry_Int_Tables_number   1
_chemical_formula_structural   Np4ScGa15
_chemical_formula_sum   'Np4 Sc1 Ga15'
_cell_volume   381.15628158
_cell_formula_units_Z   1
loop_
 _symmetry_equiv_pos_site_id
 _symmetry_equiv_pos_as_xyz
  1  'x, y, z'
loop_
 _atom_site_type_symbol
 _atom_site_label
 _atom_site_symmetry_multiplicity
 _atom_site_fract_x
 _atom_site_fract_y
 _atom_site_fract_z
 _atom_site_occupancy
  Np  Np0  1  0.129687  0.129687  0.129687  1
  Np  Np1  1  0.870313  0.870313  0.870313  1
  Np  Np2  1  0.400774  0.400774  0.400774  1
  Np  Np3  1  0.599226  0.599226  0.599226  1
  Sc  Sc4  1  0.000000  0.000000  0.000000  1
  Ga  Ga5  1  0.420624  0.887929  0.887929  1
  Ga  Ga6  1  0.887929  0.887929  0.420624  1
  Ga  Ga7  1  0.887929  0.420624  0.887929  1
  Ga  Ga8  1  0.112071  0.579376  0.112071  1
  Ga  Ga9  1  0.112071  0.112071  0.579376  1
  Ga  Ga10  1  0.579376  0.112071  0.112071  1
  Ga  Ga11  1  0.132446  0.635321  0.635321  1
  Ga  Ga12  1  0.635321  0.635321  0.132446  1
  Ga  Ga13  1  0.635321  0.132446  0.635321  1
  Ga  Ga14  1  0.364679  0.867554  0.364679  1
  Ga  Ga15  1  0.364679  0.364679  0.867554  1
  Ga  Ga16  1  0.867554  0.364679  0.364679  1
  Ga  Ga17  1  0.500000  0.500000  0.000000  1
  Ga  Ga18  1  0.500000  0.000000  0.500000  1
  Ga  Ga19  1  0.000000  0.500000  0.500000  1
