# generated using pymatgen
data_Dy6GaNiRu
_symmetry_space_group_name_H-M   'P 1'
_cell_length_a   8.33755803
_cell_length_b   8.33797227
_cell_length_c   8.33755900
_cell_angle_alpha   112.95959506
_cell_angle_beta   110.19363132
_cell_angle_gamma   105.34862507
_symmetry_Int_Tables_number   1
_chemical_formula_structural   Dy6GaNiRu
_chemical_formula_sum   'Dy12 Ga2 Ni2 Ru2'
_cell_volume   444.20162524
_cell_formula_units_Z   2
loop_
 _symmetry_equiv_pos_site_id
 _symmetry_equiv_pos_as_xyz
  1  'x, y, z'
loop_
 _atom_site_type_symbol
 _atom_site_label
 _atom_site_symmetry_multiplicity
 _atom_site_fract_x
 _atom_site_fract_y
 _atom_site_fract_z
 _atom_site_occupancy
  Dy  Dy0  1  0.435124  0.241576  0.193429  1
  Dy  Dy1  1  0.564959  0.758369  0.806658  1
  Dy  Dy2  1  0.048147  0.241576  0.806452  1
  Dy  Dy3  1  0.951711  0.758369  0.193410  1
  Dy  Dy4  1  0.179932  0.279204  0.459204  1
  Dy  Dy5  1  0.819987  0.720760  0.540671  1
  Dy  Dy6  1  0.180091  0.720760  0.900773  1
  Dy  Dy7  1  0.820000  0.279204  0.099272  1
  Dy  Dy8  1  0.329120  0.640385  0.311267  1
  Dy  Dy9  1  0.670928  0.359599  0.688669  1
  Dy  Dy10  1  0.329058  0.017766  0.688708  1
  Dy  Dy11  1  0.670879  0.982341  0.311462  1
  Ga  Ga12  1  0.500039  0.500081  0.000042  1
  Ga  Ga13  1  0.000029  0.000000  0.999970  1
  Ni  Ni14  1  0.117330  0.617441  0.500110  1
  Ni  Ni15  1  0.882636  0.382659  0.500022  1
  Ru  Ru16  1  0.329445  0.999954  0.329372  1
  Ru  Ru17  1  0.670583  0.999954  0.670509  1
