# generated using pymatgen
data_InCoTeO6
_symmetry_space_group_name_H-M   'P 1'
_cell_length_a   5.04980502
_cell_length_b   5.05009521
_cell_length_c   9.38203700
_cell_angle_alpha   90.00508106
_cell_angle_beta   89.99746644
_cell_angle_gamma   120.00188875
_symmetry_Int_Tables_number   1
_chemical_formula_structural   InCoTeO6
_chemical_formula_sum   'In2 Co2 Te2 O12'
_cell_volume   207.20187486
_cell_formula_units_Z   2
loop_
 _symmetry_equiv_pos_site_id
 _symmetry_equiv_pos_as_xyz
  1  'x, y, z'
loop_
 _atom_site_type_symbol
 _atom_site_label
 _atom_site_symmetry_multiplicity
 _atom_site_fract_x
 _atom_site_fract_y
 _atom_site_fract_z
 _atom_site_occupancy
  In  In0  1  0.000000  0.000000  0.000000  1
  In  In1  1  0.000000  0.000000  0.500000  1
  Co  Co2  1  0.333372  0.666686  0.250000  1
  Co  Co3  1  0.666628  0.333314  0.750000  1
  Te  Te4  1  0.333287  0.666643  0.750000  1
  Te  Te5  1  0.666713  0.333357  0.250000  1
  O  O6  1  0.357282  0.361955  0.136523  1
  O  O7  1  0.638059  0.995277  0.136487  1
  O  O8  1  0.004688  0.642673  0.136474  1
  O  O9  1  0.642718  0.638045  0.863477  1
  O  O10  1  0.361941  0.004723  0.863513  1
  O  O11  1  0.995312  0.357327  0.863526  1
  O  O12  1  0.638059  0.642782  0.363513  1
  O  O13  1  0.357282  0.995328  0.363477  1
  O  O14  1  0.004688  0.362016  0.363526  1
  O  O15  1  0.361941  0.357218  0.636487  1
  O  O16  1  0.642718  0.004672  0.636523  1
  O  O17  1  0.995312  0.637984  0.636474  1
