# generated using pymatgen
data_Be8AlReTc2
_symmetry_space_group_name_H-M   'P 1'
_cell_length_a   4.36260400
_cell_length_b   4.36260409
_cell_length_c   7.15820700
_cell_angle_alpha   90.00000000
_cell_angle_beta   90.00000000
_cell_angle_gamma   119.99999928
_symmetry_Int_Tables_number   1
_chemical_formula_structural   Be8AlReTc2
_chemical_formula_sum   'Be8 Al1 Re1 Tc2'
_cell_volume   117.98491495
_cell_formula_units_Z   1
loop_
 _symmetry_equiv_pos_site_id
 _symmetry_equiv_pos_as_xyz
  1  'x, y, z'
loop_
 _atom_site_type_symbol
 _atom_site_label
 _atom_site_symmetry_multiplicity
 _atom_site_fract_x
 _atom_site_fract_y
 _atom_site_fract_z
 _atom_site_occupancy
  Be  Be0  1  0.000000  0.000000  0.999868  1
  Be  Be1  1  0.000000  0.000000  0.506371  1
  Be  Be2  1  0.832131  0.664262  0.249154  1
  Be  Be3  1  0.171210  0.828790  0.751971  1
  Be  Be4  1  0.657580  0.828790  0.751971  1
  Be  Be5  1  0.335738  0.167869  0.249154  1
  Be  Be6  1  0.832131  0.167869  0.249154  1
  Be  Be7  1  0.171210  0.342420  0.751971  1
  Al  Al8  1  0.666667  0.333333  0.934534  1
  Re  Re9  1  0.333333  0.666667  0.436800  1
  Tc  Tc10  1  0.333333  0.666667  0.066193  1
  Tc  Tc11  1  0.666667  0.333333  0.552860  1
