# generated using pymatgen
data_Yb6Er2PPd24
_symmetry_space_group_name_H-M   'P 1'
_cell_length_a   8.27599615
_cell_length_b   8.27599629
_cell_length_c   8.27599600
_cell_angle_alpha   89.95873123
_cell_angle_beta   90.04126877
_cell_angle_gamma   90.04127079
_symmetry_Int_Tables_number   1
_chemical_formula_structural   Yb6Er2PPd24
_chemical_formula_sum   'Yb6 Er2 P1 Pd24'
_cell_volume   566.84001572
_cell_formula_units_Z   1
loop_
 _symmetry_equiv_pos_site_id
 _symmetry_equiv_pos_as_xyz
  1  'x, y, z'
loop_
 _atom_site_type_symbol
 _atom_site_label
 _atom_site_symmetry_multiplicity
 _atom_site_fract_x
 _atom_site_fract_y
 _atom_site_fract_z
 _atom_site_occupancy
  Yb  Yb0  1  0.253452  0.253413  0.253413  1
  Yb  Yb1  1  0.746548  0.746587  0.746587  1
  Yb  Yb2  1  0.746587  0.746548  0.253413  1
  Yb  Yb3  1  0.746587  0.253413  0.746548  1
  Yb  Yb4  1  0.253413  0.253452  0.746587  1
  Yb  Yb5  1  0.253413  0.746587  0.253452  1
  Er  Er6  1  0.254449  0.745551  0.745551  1
  Er  Er7  1  0.745551  0.254449  0.254449  1
  P  P8  1  0.000000  0.000000  0.000000  1
  Pd  Pd9  1  0.256388  0.500456  0.999561  1
  Pd  Pd10  1  0.743612  0.499544  0.000439  1
  Pd  Pd11  1  0.999561  0.256388  0.499544  1
  Pd  Pd12  1  0.500456  0.256388  0.000439  1
  Pd  Pd13  1  0.000439  0.743612  0.500456  1
  Pd  Pd14  1  0.499544  0.743612  0.999561  1
  Pd  Pd15  1  0.500456  0.000439  0.256388  1
  Pd  Pd16  1  0.256388  0.999561  0.500456  1
  Pd  Pd17  1  0.499544  0.999561  0.743612  1
  Pd  Pd18  1  0.743612  0.000439  0.499544  1
  Pd  Pd19  1  0.999561  0.499544  0.256388  1
  Pd  Pd20  1  0.000439  0.500456  0.743612  1
  Pd  Pd21  1  0.251786  0.500038  0.500038  1
  Pd  Pd22  1  0.748214  0.499962  0.499962  1
  Pd  Pd23  1  0.500038  0.251786  0.499962  1
  Pd  Pd24  1  0.499962  0.748214  0.500038  1
  Pd  Pd25  1  0.500038  0.499962  0.251786  1
  Pd  Pd26  1  0.499962  0.500038  0.748214  1
  Pd  Pd27  1  0.275954  0.999914  0.999914  1
  Pd  Pd28  1  0.724046  0.000086  0.000086  1
  Pd  Pd29  1  0.999914  0.275954  0.000086  1
  Pd  Pd30  1  0.000086  0.724046  0.999914  1
  Pd  Pd31  1  0.999914  0.000086  0.275954  1
  Pd  Pd32  1  0.000086  0.999914  0.724046  1
