# generated using pymatgen
data_Nd6V2Co(Ni5P4)3
_symmetry_space_group_name_H-M   'P 1'
_cell_length_a   3.84018000
_cell_length_b   10.71722400
_cell_length_c   12.44781300
_cell_angle_alpha   90.00000000
_cell_angle_beta   90.00000000
_cell_angle_gamma   90.00000000
_symmetry_Int_Tables_number   1
_chemical_formula_structural   Nd6V2Co(Ni5P4)3
_chemical_formula_sum   'Nd6 V2 Co1 Ni15 P12'
_cell_volume   512.30305397
_cell_formula_units_Z   1
loop_
 _symmetry_equiv_pos_site_id
 _symmetry_equiv_pos_as_xyz
  1  'x, y, z'
loop_
 _atom_site_type_symbol
 _atom_site_label
 _atom_site_symmetry_multiplicity
 _atom_site_fract_x
 _atom_site_fract_y
 _atom_site_fract_z
 _atom_site_occupancy
  Nd  Nd0  1  0.000000  0.500000  0.519168  1
  Nd  Nd1  1  0.500000  0.000000  0.480648  1
  Nd  Nd2  1  0.500000  0.816112  0.204945  1
  Nd  Nd3  1  0.500000  0.183888  0.204945  1
  Nd  Nd4  1  0.000000  0.683580  0.794615  1
  Nd  Nd5  1  0.000000  0.316420  0.794615  1
  V  V6  1  0.500000  0.500000  0.147460  1
  V  V7  1  0.000000  0.000000  0.851962  1
  Co  Co8  1  0.500000  0.000000  0.015637  1
  Ni  Ni9  1  0.500000  0.500000  0.701153  1
  Ni  Ni10  1  0.000000  0.000000  0.298193  1
  Ni  Ni11  1  0.000000  0.500000  0.983919  1
  Ni  Ni12  1  0.500000  0.330683  0.991192  1
  Ni  Ni13  1  0.500000  0.669317  0.991192  1
  Ni  Ni14  1  0.000000  0.165134  0.008639  1
  Ni  Ni15  1  0.000000  0.834866  0.008639  1
  Ni  Ni16  1  0.500000  0.301276  0.425647  1
  Ni  Ni17  1  0.500000  0.698724  0.425647  1
  Ni  Ni18  1  0.000000  0.198481  0.574969  1
  Ni  Ni19  1  0.000000  0.801519  0.574969  1
  Ni  Ni20  1  0.500000  0.882674  0.713128  1
  Ni  Ni21  1  0.500000  0.117326  0.713128  1
  Ni  Ni22  1  0.000000  0.617211  0.287238  1
  Ni  Ni23  1  0.000000  0.382789  0.287238  1
  P  P24  1  0.500000  0.500000  0.882628  1
  P  P25  1  0.000000  0.000000  0.117263  1
  P  P26  1  0.500000  0.500000  0.337812  1
  P  P27  1  0.000000  0.000000  0.661723  1
  P  P28  1  0.500000  0.309682  0.612277  1
  P  P29  1  0.500000  0.690318  0.612277  1
  P  P30  1  0.000000  0.190407  0.388104  1
  P  P31  1  0.000000  0.809593  0.388104  1
  P  P32  1  0.500000  0.849852  0.896120  1
  P  P33  1  0.500000  0.150148  0.896120  1
  P  P34  1  0.000000  0.651066  0.104344  1
  P  P35  1  0.000000  0.348934  0.104344  1
