# generated using pymatgen
data_LiThAl3Rh
_symmetry_space_group_name_H-M   'P 1'
_cell_length_a   5.41128800
_cell_length_b   5.41128761
_cell_length_c   4.26784300
_cell_angle_alpha   90.00000000
_cell_angle_beta   90.00000000
_cell_angle_gamma   119.99999017
_symmetry_Int_Tables_number   1
_chemical_formula_structural   LiThAl3Rh
_chemical_formula_sum   'Li1 Th1 Al3 Rh1'
_cell_volume   108.22818498
_cell_formula_units_Z   1
loop_
 _symmetry_equiv_pos_site_id
 _symmetry_equiv_pos_as_xyz
  1  'x, y, z'
loop_
 _atom_site_type_symbol
 _atom_site_label
 _atom_site_symmetry_multiplicity
 _atom_site_fract_x
 _atom_site_fract_y
 _atom_site_fract_z
 _atom_site_occupancy
  Li  Li0  1  0.333333  0.666667  0.000000  1
  Th  Th1  1  0.000000  0.000000  0.000000  1
  Al  Al2  1  0.501885  0.003772  0.500000  1
  Al  Al3  1  0.501885  0.498115  0.500000  1
  Al  Al4  1  0.996228  0.498115  0.500000  1
  Rh  Rh5  1  0.666667  0.333333  0.000000  1
