# generated using pymatgen
data_LiTm4Pt3
_symmetry_space_group_name_H-M   'P 1'
_cell_length_a   8.32730700
_cell_length_b   8.32730690
_cell_length_c   5.64816000
_cell_angle_alpha   90.00000000
_cell_angle_beta   90.00000000
_cell_angle_gamma   120.00000438
_symmetry_Int_Tables_number   1
_chemical_formula_structural   LiTm4Pt3
_chemical_formula_sum   'Li2 Tm8 Pt6'
_cell_volume   339.19289756
_cell_formula_units_Z   2
loop_
 _symmetry_equiv_pos_site_id
 _symmetry_equiv_pos_as_xyz
  1  'x, y, z'
loop_
 _atom_site_type_symbol
 _atom_site_label
 _atom_site_symmetry_multiplicity
 _atom_site_fract_x
 _atom_site_fract_y
 _atom_site_fract_z
 _atom_site_occupancy
  Li  Li0  1  0.666667  0.333333  0.000000  1
  Li  Li1  1  0.333333  0.666667  0.000000  1
  Tm  Tm2  1  0.333333  0.666667  0.500000  1
  Tm  Tm3  1  0.666667  0.333333  0.500000  1
  Tm  Tm4  1  0.747196  0.747196  0.749766  1
  Tm  Tm5  1  0.252804  0.000000  0.749766  1
  Tm  Tm6  1  0.000000  0.252804  0.749766  1
  Tm  Tm7  1  0.252804  0.252804  0.250234  1
  Tm  Tm8  1  0.747196  0.000000  0.250234  1
  Tm  Tm9  1  0.000000  0.747196  0.250234  1
  Pt  Pt10  1  0.394652  0.394652  0.761286  1
  Pt  Pt11  1  0.605348  0.000000  0.761286  1
  Pt  Pt12  1  0.000000  0.605348  0.761286  1
  Pt  Pt13  1  0.605348  0.605348  0.238714  1
  Pt  Pt14  1  0.394652  0.000000  0.238714  1
  Pt  Pt15  1  0.000000  0.394652  0.238714  1
