# generated using pymatgen
data_KLa(CuO2)4
_symmetry_space_group_name_H-M   'P 1'
_cell_length_a   6.40492150
_cell_length_b   6.40492067
_cell_length_c   6.40492000
_cell_angle_alpha   123.56179575
_cell_angle_beta   123.56180161
_cell_angle_gamma   83.93411008
_symmetry_Int_Tables_number   1
_chemical_formula_structural   KLa(CuO2)4
_chemical_formula_sum   'K1 La1 Cu4 O8'
_cell_volume   174.71741548
_cell_formula_units_Z   1
loop_
 _symmetry_equiv_pos_site_id
 _symmetry_equiv_pos_as_xyz
  1  'x, y, z'
loop_
 _atom_site_type_symbol
 _atom_site_label
 _atom_site_symmetry_multiplicity
 _atom_site_fract_x
 _atom_site_fract_y
 _atom_site_fract_z
 _atom_site_occupancy
  K  K0  1  0.000000  0.000000  0.000000  1
  La  La1  1  0.750000  0.250000  0.500000  1
  Cu  Cu2  1  0.872921  0.641556  0.264823  1
  Cu  Cu3  1  0.391901  0.127079  0.768635  1
  Cu  Cu4  1  0.358444  0.623267  0.231365  1
  Cu  Cu5  1  0.376733  0.608099  0.735177  1
  O  O6  1  0.376744  0.955540  0.918631  1
  O  O7  1  0.667851  0.817724  0.384889  1
  O  O8  1  0.717038  0.332149  0.149873  1
  O  O9  1  0.541887  0.623256  0.578797  1
  O  O10  1  0.182276  0.567164  0.850127  1
  O  O11  1  0.044460  0.963090  0.421203  1
  O  O12  1  0.036910  0.458113  0.081369  1
  O  O13  1  0.432836  0.282962  0.615111  1
