# generated using pymatgen
data_Th2Mn3Al20Cu
_symmetry_space_group_name_H-M   'P 1'
_cell_length_a   6.84224380
_cell_length_b   6.83288693
_cell_length_c   9.08377649
_cell_angle_alpha   90.36110174
_cell_angle_beta   90.30016556
_cell_angle_gamma   97.72498641
_symmetry_Int_Tables_number   1
_chemical_formula_structural   Th2Mn3Al20Cu
_chemical_formula_sum   'Th2 Mn3 Al20 Cu1'
_cell_volume   420.81677583
_cell_formula_units_Z   1
loop_
 _symmetry_equiv_pos_site_id
 _symmetry_equiv_pos_as_xyz
  1  'x, y, z'
loop_
 _atom_site_type_symbol
 _atom_site_label
 _atom_site_symmetry_multiplicity
 _atom_site_fract_x
 _atom_site_fract_y
 _atom_site_fract_z
 _atom_site_occupancy
  Th  Th0  1  0.878032  0.130634  0.750062  1
  Th  Th1  1  0.121968  0.869366  0.249938  1
  Mn  Mn2  1  0.000000  0.500000  0.500000  1
  Mn  Mn3  1  0.000000  0.500000  0.000000  1
  Mn  Mn4  1  0.500000  0.000000  0.500000  1
  Al  Al5  1  0.520547  0.775003  0.741550  1
  Al  Al6  1  0.479453  0.224997  0.258450  1
  Al  Al7  1  0.591873  0.861809  0.253879  1
  Al  Al8  1  0.776040  0.767452  0.002218  1
  Al  Al9  1  0.160801  0.840346  0.598644  1
  Al  Al10  1  0.223960  0.232548  0.997782  1
  Al  Al11  1  0.133042  0.407147  0.251842  1
  Al  Al12  1  0.626683  0.384043  0.948805  1
  Al  Al13  1  0.842880  0.163494  0.102604  1
  Al  Al14  1  0.374314  0.622824  0.453941  1
  Al  Al15  1  0.157120  0.836506  0.897396  1
  Al  Al16  1  0.221247  0.483360  0.750333  1
  Al  Al17  1  0.373317  0.615957  0.051195  1
  Al  Al18  1  0.839199  0.159654  0.401356  1
  Al  Al19  1  0.625686  0.377176  0.546059  1
  Al  Al20  1  0.408127  0.138191  0.746121  1
  Al  Al21  1  0.778753  0.516640  0.249667  1
  Al  Al22  1  0.775673  0.773106  0.498633  1
  Al  Al23  1  0.224327  0.226894  0.501367  1
  Al  Al24  1  0.866958  0.592853  0.748158  1
  Cu  Cu25  1  0.500000  0.000000  0.000000  1
