# generated using pymatgen
data_Hf4Ta5TiSi8
_symmetry_space_group_name_H-M   'P 1'
_cell_length_a   6.83980209
_cell_length_b   6.83467140
_cell_length_c   12.64782100
_cell_angle_alpha   90.00000000
_cell_angle_beta   90.00000000
_cell_angle_gamma   89.97127800
_symmetry_Int_Tables_number   1
_chemical_formula_structural   Hf4Ta5TiSi8
_chemical_formula_sum   'Hf8 Ta10 Ti2 Si16'
_cell_volume   591.25772834
_cell_formula_units_Z   2
loop_
 _symmetry_equiv_pos_site_id
 _symmetry_equiv_pos_as_xyz
  1  'x, y, z'
loop_
 _atom_site_type_symbol
 _atom_site_label
 _atom_site_symmetry_multiplicity
 _atom_site_fract_x
 _atom_site_fract_y
 _atom_site_fract_z
 _atom_site_occupancy
  Hf  Hf0  1  0.341305  0.999585  0.469394  1
  Hf  Hf1  1  0.502158  0.840538  0.719768  1
  Hf  Hf2  1  0.497842  0.159462  0.219768  1
  Hf  Hf3  1  0.841583  0.503150  0.280792  1
  Hf  Hf4  1  0.158417  0.496850  0.780792  1
  Hf  Hf5  1  0.658695  0.000416  0.969394  1
  Hf  Hf6  1  0.999158  0.339548  0.529691  1
  Hf  Hf7  1  0.000843  0.660452  0.029691  1
  Ta  Ta8  1  0.330409  0.329625  0.999819  1
  Ta  Ta9  1  0.168887  0.829858  0.250284  1
  Ta  Ta10  1  0.831113  0.170142  0.750284  1
  Ta  Ta11  1  0.669591  0.670375  0.499819  1
  Ta  Ta12  1  0.152082  0.004477  0.873226  1
  Ta  Ta13  1  0.496403  0.652762  0.123821  1
  Ta  Ta14  1  0.503597  0.347238  0.623821  1
  Ta  Ta15  1  0.652004  0.496534  0.876757  1
  Ta  Ta16  1  0.347996  0.503466  0.376757  1
  Ta  Ta17  1  0.847918  0.995523  0.373226  1
  Ti  Ti18  1  0.004688  0.152240  0.125970  1
  Ti  Ti19  1  0.995312  0.847760  0.625970  1
  Si  Si20  1  0.205709  0.132695  0.675306  1
  Si  Si21  1  0.363069  0.707765  0.927112  1
  Si  Si22  1  0.636931  0.292235  0.427112  1
  Si  Si23  1  0.709683  0.360356  0.074675  1
  Si  Si24  1  0.290317  0.639644  0.574675  1
  Si  Si25  1  0.794291  0.867305  0.175306  1
  Si  Si26  1  0.135682  0.206923  0.321648  1
  Si  Si27  1  0.864318  0.793077  0.821648  1
  Si  Si28  1  0.296296  0.957242  0.064562  1
  Si  Si29  1  0.543693  0.800129  0.313232  1
  Si  Si30  1  0.456307  0.199871  0.813232  1
  Si  Si31  1  0.801861  0.546248  0.685214  1
  Si  Si32  1  0.198139  0.453752  0.185214  1
  Si  Si33  1  0.703704  0.042758  0.564562  1
  Si  Si34  1  0.955901  0.298660  0.938729  1
  Si  Si35  1  0.044099  0.701340  0.438729  1
