# generated using pymatgen
data_PrY5Ho4(In2Pd)4
_symmetry_space_group_name_H-M   'P 1'
_cell_length_a   3.65092500
_cell_length_b   8.19006026
_cell_length_c   18.33435874
_cell_angle_alpha   90.23542728
_cell_angle_beta   90.00000000
_cell_angle_gamma   90.00000000
_symmetry_Int_Tables_number   1
_chemical_formula_structural   PrY5Ho4(In2Pd)4
_chemical_formula_sum   'Pr1 Y5 Ho4 In8 Pd4'
_cell_volume   548.21645545
_cell_formula_units_Z   1
loop_
 _symmetry_equiv_pos_site_id
 _symmetry_equiv_pos_as_xyz
  1  'x, y, z'
loop_
 _atom_site_type_symbol
 _atom_site_label
 _atom_site_symmetry_multiplicity
 _atom_site_fract_x
 _atom_site_fract_y
 _atom_site_fract_z
 _atom_site_occupancy
  Pr  Pr0  1  0.000000  0.500000  0.500000  1
  Y  Y1  1  0.000000  0.000000  0.000000  1
  Y  Y2  1  0.000000  0.738971  0.281332  1
  Y  Y3  1  0.000000  0.261029  0.718668  1
  Y  Y4  1  0.000000  0.761897  0.782487  1
  Y  Y5  1  0.000000  0.238103  0.217513  1
  Ho  Ho6  1  0.000000  0.617372  0.083770  1
  Ho  Ho7  1  0.000000  0.382628  0.916230  1
  Ho  Ho8  1  0.000000  0.879584  0.584049  1
  Ho  Ho9  1  0.000000  0.120416  0.415951  1
  In  In10  1  0.500000  0.706222  0.933182  1
  In  In11  1  0.500000  0.293778  0.066818  1
  In  In12  1  0.500000  0.799536  0.431393  1
  In  In13  1  0.500000  0.200464  0.568607  1
  In  In14  1  0.500000  0.583121  0.653452  1
  In  In15  1  0.500000  0.416879  0.346548  1
  In  In16  1  0.500000  0.917754  0.150644  1
  In  In17  1  0.500000  0.082246  0.849356  1
  Pd  Pd18  1  0.500000  0.523665  0.194148  1
  Pd  Pd19  1  0.500000  0.476335  0.805852  1
  Pd  Pd20  1  0.500000  0.975505  0.695315  1
  Pd  Pd21  1  0.500000  0.024495  0.304685  1
