# generated using pymatgen
data_PrNd(TlSe4)2
_symmetry_space_group_name_H-M   'P 1'
_cell_length_a   6.23668300
_cell_length_b   6.23668300
_cell_length_c   8.58075600
_cell_angle_alpha   90.00000000
_cell_angle_beta   90.00000000
_cell_angle_gamma   90.00000000
_symmetry_Int_Tables_number   1
_chemical_formula_structural   PrNd(TlSe4)2
_chemical_formula_sum   'Pr1 Nd1 Tl2 Se8'
_cell_volume   333.75892889
_cell_formula_units_Z   1
loop_
 _symmetry_equiv_pos_site_id
 _symmetry_equiv_pos_as_xyz
  1  'x, y, z'
loop_
 _atom_site_type_symbol
 _atom_site_label
 _atom_site_symmetry_multiplicity
 _atom_site_fract_x
 _atom_site_fract_y
 _atom_site_fract_z
 _atom_site_occupancy
  Pr  Pr0  1  0.000000  0.000000  0.500000  1
  Nd  Nd1  1  0.500000  0.500000  0.500000  1
  Tl  Tl2  1  0.000000  0.000000  0.000000  1
  Tl  Tl3  1  0.500000  0.500000  0.000000  1
  Se  Se4  1  0.634207  0.139506  0.283839  1
  Se  Se5  1  0.139506  0.365794  0.283839  1
  Se  Se6  1  0.860493  0.634207  0.283839  1
  Se  Se7  1  0.365794  0.860493  0.283839  1
  Se  Se8  1  0.365794  0.139506  0.716161  1
  Se  Se9  1  0.860493  0.365794  0.716161  1
  Se  Se10  1  0.139506  0.634207  0.716161  1
  Se  Se11  1  0.634207  0.860493  0.716161  1
