# generated using pymatgen
data_Sc2NiP7Ru11
_symmetry_space_group_name_H-M   'P 1'
_cell_length_a   9.22518950
_cell_length_b   9.37543245
_cell_length_c   3.87697400
_cell_angle_alpha   90.00000000
_cell_angle_beta   90.00000000
_cell_angle_gamma   119.35189782
_symmetry_Int_Tables_number   1
_chemical_formula_structural   Sc2NiP7Ru11
_chemical_formula_sum   'Sc2 Ni1 P7 Ru11'
_cell_volume   292.27353316
_cell_formula_units_Z   1
loop_
 _symmetry_equiv_pos_site_id
 _symmetry_equiv_pos_as_xyz
  1  'x, y, z'
loop_
 _atom_site_type_symbol
 _atom_site_label
 _atom_site_symmetry_multiplicity
 _atom_site_fract_x
 _atom_site_fract_y
 _atom_site_fract_z
 _atom_site_occupancy
  Sc  Sc0  1  0.671962  0.336551  0.500000  1
  Sc  Sc1  1  0.326630  0.655212  0.000000  1
  Ni  Ni2  1  0.550929  0.943342  0.500000  1
  P  P3  1  0.989728  0.996466  0.000000  1
  P  P4  1  0.426576  0.301679  0.000000  1
  P  P5  1  0.590634  0.711694  0.500000  1
  P  P6  1  0.287073  0.880850  0.500000  1
  P  P7  1  0.119190  0.403224  0.500000  1
  P  P8  1  0.706438  0.127655  0.000000  1
  P  P9  1  0.885825  0.581119  0.000000  1
  Ru  Ru10  1  0.389146  0.441649  0.500000  1
  Ru  Ru11  1  0.060486  0.614264  0.500000  1
  Ru  Ru12  1  0.221201  0.090150  0.500000  1
  Ru  Ru13  1  0.875369  0.795812  0.500000  1
  Ru  Ru14  1  0.903102  0.126187  0.500000  1
  Ru  Ru15  1  0.708536  0.885622  0.000000  1
  Ru  Ru16  1  0.113300  0.841531  0.000000  1
  Ru  Ru17  1  0.160726  0.266869  0.000000  1
  Ru  Ru18  1  0.938224  0.369317  0.000000  1
  Ru  Ru19  1  0.636913  0.568502  0.000000  1
  Ru  Ru20  1  0.438011  0.062307  0.000000  1
