# generated using pymatgen
data_LaPrSm2B4I5
_symmetry_space_group_name_H-M   'P 1'
_cell_length_a   9.89704581
_cell_length_b   9.89704534
_cell_length_c   10.02260418
_cell_angle_alpha   75.27158892
_cell_angle_beta   75.27158897
_cell_angle_gamma   25.28068638
_symmetry_Int_Tables_number   1
_chemical_formula_structural   LaPrSm2B4I5
_chemical_formula_sum   'La1 Pr1 Sm2 B4 I5'
_cell_volume   404.76943945
_cell_formula_units_Z   1
loop_
 _symmetry_equiv_pos_site_id
 _symmetry_equiv_pos_as_xyz
  1  'x, y, z'
loop_
 _atom_site_type_symbol
 _atom_site_label
 _atom_site_symmetry_multiplicity
 _atom_site_fract_x
 _atom_site_fract_y
 _atom_site_fract_z
 _atom_site_occupancy
  La  La0  1  0.866426  0.866426  0.066851  1
  Pr  Pr1  1  0.133473  0.133473  0.932168  1
  Sm  Sm2  1  0.504463  0.504463  0.752669  1
  Sm  Sm3  1  0.498645  0.498645  0.245664  1
  B  B4  1  0.316278  0.685497  0.999521  1
  B  B5  1  0.685497  0.316278  0.999521  1
  B  B6  1  0.000178  0.000178  0.094150  1
  B  B7  1  0.000558  0.000558  0.905344  1
  I  I8  1  0.673580  0.673580  0.676573  1
  I  I9  1  0.329053  0.329053  0.327462  1
  I  I10  1  0.330032  0.330032  0.839127  1
  I  I11  1  0.672474  0.672474  0.153201  1
  I  I12  1  0.003644  0.003644  0.497949  1
