# generated using pymatgen
data_Pr8Si13Au3
_symmetry_space_group_name_H-M   'P 1'
_cell_length_a   8.31442300
_cell_length_b   8.31442279
_cell_length_c   8.66376400
_cell_angle_alpha   90.00000000
_cell_angle_beta   90.00000000
_cell_angle_gamma   120.00000483
_symmetry_Int_Tables_number   1
_chemical_formula_structural   Pr8Si13Au3
_chemical_formula_sum   'Pr8 Si13 Au3'
_cell_volume   518.68231954
_cell_formula_units_Z   1
loop_
 _symmetry_equiv_pos_site_id
 _symmetry_equiv_pos_as_xyz
  1  'x, y, z'
loop_
 _atom_site_type_symbol
 _atom_site_label
 _atom_site_symmetry_multiplicity
 _atom_site_fract_x
 _atom_site_fract_y
 _atom_site_fract_z
 _atom_site_occupancy
  Pr  Pr0  1  0.503693  0.496307  0.742863  1
  Pr  Pr1  1  0.503966  0.496034  0.257145  1
  Pr  Pr2  1  0.992615  0.496307  0.742863  1
  Pr  Pr3  1  0.992067  0.496034  0.257145  1
  Pr  Pr4  1  0.503693  0.007385  0.742863  1
  Pr  Pr5  1  0.503966  0.007933  0.257145  1
  Pr  Pr6  1  0.000000  0.000000  0.746738  1
  Pr  Pr7  1  0.000000  0.000000  0.253370  1
  Si  Si8  1  0.836461  0.163539  0.000840  1
  Si  Si9  1  0.164138  0.835862  0.999222  1
  Si  Si10  1  0.327077  0.163539  0.000840  1
  Si  Si11  1  0.163944  0.836056  0.499690  1
  Si  Si12  1  0.671725  0.835862  0.999222  1
  Si  Si13  1  0.834095  0.165905  0.500418  1
  Si  Si14  1  0.836461  0.672923  0.000840  1
  Si  Si15  1  0.672113  0.836056  0.499690  1
  Si  Si16  1  0.164138  0.328275  0.999222  1
  Si  Si17  1  0.331811  0.165905  0.500418  1
  Si  Si18  1  0.163944  0.327887  0.499690  1
  Si  Si19  1  0.834095  0.668189  0.500418  1
  Si  Si20  1  0.666667  0.333333  0.500009  1
  Au  Au21  1  0.666667  0.333333  0.998949  1
  Au  Au22  1  0.333333  0.666667  0.000725  1
  Au  Au23  1  0.333333  0.666667  0.499671  1
