# generated using pymatgen
data_Hf4TiBSb3
_symmetry_space_group_name_H-M   'P 1'
_cell_length_a   8.36381800
_cell_length_b   8.36381849
_cell_length_c   5.65946800
_cell_angle_alpha   90.00000000
_cell_angle_beta   90.00000000
_cell_angle_gamma   119.99999016
_symmetry_Int_Tables_number   1
_chemical_formula_structural   Hf4TiBSb3
_chemical_formula_sum   'Hf8 Ti2 B2 Sb6'
_cell_volume   342.85892279
_cell_formula_units_Z   2
loop_
 _symmetry_equiv_pos_site_id
 _symmetry_equiv_pos_as_xyz
  1  'x, y, z'
loop_
 _atom_site_type_symbol
 _atom_site_label
 _atom_site_symmetry_multiplicity
 _atom_site_fract_x
 _atom_site_fract_y
 _atom_site_fract_z
 _atom_site_occupancy
  Hf  Hf0  1  0.232852  0.000000  0.749159  1
  Hf  Hf1  1  0.767148  0.000000  0.250841  1
  Hf  Hf2  1  0.000000  0.232852  0.749159  1
  Hf  Hf3  1  0.000000  0.767148  0.250841  1
  Hf  Hf4  1  0.767148  0.767148  0.749159  1
  Hf  Hf5  1  0.232852  0.232852  0.250841  1
  Hf  Hf6  1  0.333333  0.666667  0.500000  1
  Hf  Hf7  1  0.666667  0.333333  0.500000  1
  Ti  Ti8  1  0.666667  0.333333  0.000000  1
  Ti  Ti9  1  0.333333  0.666667  0.000000  1
  B  B10  1  0.000000  0.000000  0.500000  1
  B  B11  1  0.000000  0.000000  0.000000  1
  Sb  Sb12  1  0.597426  0.000000  0.757448  1
  Sb  Sb13  1  0.402574  0.000000  0.242552  1
  Sb  Sb14  1  0.000000  0.597426  0.757448  1
  Sb  Sb15  1  0.000000  0.402574  0.242552  1
  Sb  Sb16  1  0.402574  0.402574  0.757448  1
  Sb  Sb17  1  0.597426  0.597426  0.242552  1
