# generated using pymatgen
data_Sm10Ho2Fe2I17
_symmetry_space_group_name_H-M   'P 1'
_cell_length_a   9.84736567
_cell_length_b   11.82610722
_cell_length_c   11.87154665
_cell_angle_alpha   93.39839517
_cell_angle_beta   104.75825949
_cell_angle_gamma   114.24292063
_symmetry_Int_Tables_number   1
_chemical_formula_structural   Sm10Ho2Fe2I17
_chemical_formula_sum   'Sm10 Ho2 Fe2 I17'
_cell_volume   1197.76578683
_cell_formula_units_Z   1
loop_
 _symmetry_equiv_pos_site_id
 _symmetry_equiv_pos_as_xyz
  1  'x, y, z'
loop_
 _atom_site_type_symbol
 _atom_site_label
 _atom_site_symmetry_multiplicity
 _atom_site_fract_x
 _atom_site_fract_y
 _atom_site_fract_z
 _atom_site_occupancy
  Sm  Sm0  1  0.054701  0.508220  0.320174  1
  Sm  Sm1  1  0.990815  0.808224  0.588247  1
  Sm  Sm2  1  0.655764  0.242079  0.279481  1
  Sm  Sm3  1  0.010396  0.189773  0.416130  1
  Sm  Sm4  1  0.219144  0.671589  0.983284  1
  Sm  Sm5  1  0.254025  0.979396  0.889775  1
  Sm  Sm6  1  0.351187  0.759298  0.717641  1
  Sm  Sm7  1  0.945794  0.495907  0.679717  1
  Sm  Sm8  1  0.741875  0.017408  0.108330  1
  Sm  Sm9  1  0.139085  0.286103  0.152338  1
  Ho  Ho10  1  0.781196  0.328369  0.018043  1
  Ho  Ho11  1  0.859145  0.713011  0.845461  1
  Fe  Fe12  1  0.104204  0.738120  0.785576  1
  Fe  Fe13  1  0.896129  0.262106  0.214008  1
  I  I14  1  0.783680  0.528555  0.416909  1
  I  I15  1  0.645962  0.421928  0.767339  1
  I  I16  1  0.842988  0.895330  0.325658  1
  I  I17  1  0.326330  0.213428  0.368308  1
  I  I18  1  0.156575  0.104879  0.674111  1
  I  I19  1  0.587747  0.056504  0.843511  1
  I  I20  1  0.756611  0.186543  0.537429  1
  I  I21  1  0.552143  0.709290  0.953445  1
  I  I22  1  0.356293  0.580030  0.238717  1
  I  I23  1  0.216214  0.471206  0.581778  1
  I  I24  1  0.051374  0.366590  0.897571  1
  I  I25  1  0.453642  0.291311  0.044557  1
  I  I26  1  0.998062  0.998503  0.999478  1
  I  I27  1  0.242967  0.814132  0.461171  1
  I  I28  1  0.413599  0.947306  0.157447  1
  I  I29  1  0.673630  0.785199  0.635095  1
  I  I30  1  0.938724  0.629662  0.099270  1
