# generated using pymatgen
data_Li3Y5(As3Pd4)4
_symmetry_space_group_name_H-M   'P 1'
_cell_length_a   13.42079300
_cell_length_b   13.42079130
_cell_length_c   4.11240400
_cell_angle_alpha   90.00000000
_cell_angle_beta   90.00000000
_cell_angle_gamma   120.00000173
_symmetry_Int_Tables_number   1
_chemical_formula_structural   Li3Y5(As3Pd4)4
_chemical_formula_sum   'Li3 Y5 As12 Pd16'
_cell_volume   641.47937560
_cell_formula_units_Z   1
loop_
 _symmetry_equiv_pos_site_id
 _symmetry_equiv_pos_as_xyz
  1  'x, y, z'
loop_
 _atom_site_type_symbol
 _atom_site_label
 _atom_site_symmetry_multiplicity
 _atom_site_fract_x
 _atom_site_fract_y
 _atom_site_fract_z
 _atom_site_occupancy
  Li  Li0  1  0.558350  0.558350  0.000000  1
  Li  Li1  1  0.441650  0.000000  0.000000  1
  Li  Li2  1  0.000000  0.441650  0.000000  1
  Y  Y3  1  0.190054  0.190054  0.500000  1
  Y  Y4  1  0.809946  0.000000  0.500000  1
  Y  Y5  1  0.000000  0.809946  0.500000  1
  Y  Y6  1  0.333333  0.666667  0.000000  1
  Y  Y7  1  0.666667  0.333333  0.000000  1
  As  As8  1  0.823829  0.823829  0.000000  1
  As  As9  1  0.176171  0.000000  0.000000  1
  As  As10  1  0.000000  0.176171  0.000000  1
  As  As11  1  0.172719  0.485705  0.500000  1
  As  As12  1  0.514295  0.687014  0.500000  1
  As  As13  1  0.312986  0.827281  0.500000  1
  As  As14  1  0.687014  0.514295  0.500000  1
  As  As15  1  0.827281  0.312986  0.500000  1
  As  As16  1  0.485705  0.172719  0.500000  1
  As  As17  1  0.357882  0.357882  0.000000  1
  As  As18  1  0.642118  0.000000  0.000000  1
  As  As19  1  0.000000  0.642118  0.000000  1
  Pd  Pd20  1  0.717457  0.717457  0.500000  1
  Pd  Pd21  1  0.282543  0.000000  0.500000  1
  Pd  Pd22  1  0.000000  0.282543  0.500000  1
  Pd  Pd23  1  0.180424  0.379419  0.000000  1
  Pd  Pd24  1  0.620581  0.801005  0.000000  1
  Pd  Pd25  1  0.198995  0.819576  0.000000  1
  Pd  Pd26  1  0.801005  0.620581  0.000000  1
  Pd  Pd27  1  0.819576  0.198995  0.000000  1
  Pd  Pd28  1  0.379419  0.180424  0.000000  1
  Pd  Pd29  1  0.359541  0.482524  0.500000  1
  Pd  Pd30  1  0.517476  0.877017  0.500000  1
  Pd  Pd31  1  0.122983  0.640459  0.500000  1
  Pd  Pd32  1  0.877017  0.517476  0.500000  1
  Pd  Pd33  1  0.640459  0.122983  0.500000  1
  Pd  Pd34  1  0.482524  0.359541  0.500000  1
  Pd  Pd35  1  0.000000  0.000000  0.000000  1
