# generated using pymatgen
data_SmLu2Al3Ga2Ni
_symmetry_space_group_name_H-M   'P 1'
_cell_length_a   6.91316184
_cell_length_b   6.84518190
_cell_length_c   4.23001600
_cell_angle_alpha   90.00000000
_cell_angle_beta   90.00000000
_cell_angle_gamma   119.67522218
_symmetry_Int_Tables_number   1
_chemical_formula_structural   SmLu2Al3Ga2Ni
_chemical_formula_sum   'Sm1 Lu2 Al3 Ga2 Ni1'
_cell_volume   173.91874077
_cell_formula_units_Z   1
loop_
 _symmetry_equiv_pos_site_id
 _symmetry_equiv_pos_as_xyz
  1  'x, y, z'
loop_
 _atom_site_type_symbol
 _atom_site_label
 _atom_site_symmetry_multiplicity
 _atom_site_fract_x
 _atom_site_fract_y
 _atom_site_fract_z
 _atom_site_occupancy
  Sm  Sm0  1  0.000000  0.412198  0.500000  1
  Lu  Lu1  1  0.593452  0.594866  0.500000  1
  Lu  Lu2  1  0.406548  0.001414  0.500000  1
  Al  Al3  1  0.000000  0.769636  0.000000  1
  Al  Al4  1  0.232584  0.230845  0.000000  1
  Al  Al5  1  0.767416  0.998260  0.000000  1
  Ga  Ga6  1  0.340925  0.670992  0.000000  1
  Ga  Ga7  1  0.659075  0.330066  0.000000  1
  Ni  Ni8  1  0.000000  0.991723  0.500000  1
