# generated using pymatgen
data_Ta3InSe6
_symmetry_space_group_name_H-M   'P 1'
_cell_length_a   6.07898400
_cell_length_b   6.07898537
_cell_length_c   15.66293800
_cell_angle_alpha   90.00000000
_cell_angle_beta   90.00000000
_cell_angle_gamma   120.00001431
_symmetry_Int_Tables_number   1
_chemical_formula_structural   Ta3InSe6
_chemical_formula_sum   'Ta6 In2 Se12'
_cell_volume   501.26328553
_cell_formula_units_Z   2
loop_
 _symmetry_equiv_pos_site_id
 _symmetry_equiv_pos_as_xyz
  1  'x, y, z'
loop_
 _atom_site_type_symbol
 _atom_site_label
 _atom_site_symmetry_multiplicity
 _atom_site_fract_x
 _atom_site_fract_y
 _atom_site_fract_z
 _atom_site_occupancy
  Ta  Ta0  1  0.000000  0.000000  0.000000  1
  Ta  Ta1  1  0.000000  0.000000  0.500000  1
  Ta  Ta2  1  0.333333  0.666667  0.500938  1
  Ta  Ta3  1  0.666667  0.333333  0.000938  1
  Ta  Ta4  1  0.666667  0.333333  0.499062  1
  Ta  Ta5  1  0.333333  0.666667  0.999062  1
  In  In6  1  0.333333  0.666667  0.250000  1
  In  In7  1  0.666667  0.333333  0.750000  1
  Se  Se8  1  0.332931  0.001082  0.105636  1
  Se  Se9  1  0.998918  0.331848  0.105636  1
  Se  Se10  1  0.667069  0.998918  0.605636  1
  Se  Se11  1  0.001082  0.332931  0.894364  1
  Se  Se12  1  0.668152  0.667069  0.105636  1
  Se  Se13  1  0.001082  0.668152  0.605636  1
  Se  Se14  1  0.331848  0.998918  0.894364  1
  Se  Se15  1  0.998918  0.667069  0.394364  1
  Se  Se16  1  0.331848  0.332931  0.605636  1
  Se  Se17  1  0.668152  0.001082  0.394364  1
  Se  Se18  1  0.667069  0.668152  0.894364  1
  Se  Se19  1  0.332931  0.331848  0.394364  1
