# generated using pymatgen
data_CePu3(ReB6)2
_symmetry_space_group_name_H-M   'P 1'
_cell_length_a   3.65929000
_cell_length_b   9.31794096
_cell_length_c   11.41254923
_cell_angle_alpha   89.96175989
_cell_angle_beta   90.00000000
_cell_angle_gamma   90.00000000
_symmetry_Int_Tables_number   1
_chemical_formula_structural   CePu3(ReB6)2
_chemical_formula_sum   'Ce2 Pu6 Re4 B24'
_cell_volume   389.13415432
_cell_formula_units_Z   2
loop_
 _symmetry_equiv_pos_site_id
 _symmetry_equiv_pos_as_xyz
  1  'x, y, z'
loop_
 _atom_site_type_symbol
 _atom_site_label
 _atom_site_symmetry_multiplicity
 _atom_site_fract_x
 _atom_site_fract_y
 _atom_site_fract_z
 _atom_site_occupancy
  Ce  Ce0  1  0.000000  0.334910  0.407421  1
  Ce  Ce1  1  0.000000  0.665090  0.592579  1
  Pu  Pu2  1  0.000000  0.837480  0.091883  1
  Pu  Pu3  1  0.000000  0.162520  0.908117  1
  Pu  Pu4  1  0.000000  0.954373  0.389693  1
  Pu  Pu5  1  0.000000  0.045627  0.610307  1
  Pu  Pu6  1  0.000000  0.459223  0.099093  1
  Pu  Pu7  1  0.000000  0.540777  0.900907  1
  Re  Re8  1  0.000000  0.645444  0.316839  1
  Re  Re9  1  0.000000  0.354556  0.683161  1
  Re  Re10  1  0.000000  0.147620  0.178499  1
  Re  Re11  1  0.000000  0.852380  0.821501  1
  B  B12  1  0.500000  0.553806  0.429370  1
  B  B13  1  0.500000  0.446194  0.570630  1
  B  B14  1  0.500000  0.052973  0.068196  1
  B  B15  1  0.500000  0.947027  0.931804  1
  B  B16  1  0.500000  0.745195  0.421225  1
  B  B17  1  0.500000  0.254805  0.578775  1
  B  B18  1  0.500000  0.244445  0.076115  1
  B  B19  1  0.500000  0.755555  0.923885  1
  B  B20  1  0.500000  0.802972  0.271798  1
  B  B21  1  0.500000  0.197028  0.728202  1
  B  B22  1  0.500000  0.303781  0.225166  1
  B  B23  1  0.500000  0.696219  0.774834  1
  B  B24  1  0.500000  0.644457  0.186731  1
  B  B25  1  0.500000  0.355543  0.813269  1
  B  B26  1  0.500000  0.143876  0.310828  1
  B  B27  1  0.500000  0.856124  0.689172  1
  B  B28  1  0.500000  0.989375  0.217635  1
  B  B29  1  0.500000  0.010625  0.782365  1
  B  B30  1  0.500000  0.488869  0.278488  1
  B  B31  1  0.500000  0.511131  0.721512  1
  B  B32  1  0.500000  0.641065  0.038863  1
  B  B33  1  0.500000  0.358935  0.961137  1
  B  B34  1  0.500000  0.138599  0.461704  1
  B  B35  1  0.500000  0.861401  0.538296  1
