# generated using pymatgen
data_TbPr2(DyPt2)2
_symmetry_space_group_name_H-M   'P 1'
_cell_length_a   7.69866700
_cell_length_b   7.84638200
_cell_length_c   14.81809700
_cell_angle_alpha   90.00000000
_cell_angle_beta   90.00000000
_cell_angle_gamma   90.00000000
_symmetry_Int_Tables_number   1
_chemical_formula_structural   TbPr2(DyPt2)2
_chemical_formula_sum   'Tb4 Pr8 Dy8 Pt16'
_cell_volume   895.11207588
_cell_formula_units_Z   4
loop_
 _symmetry_equiv_pos_site_id
 _symmetry_equiv_pos_as_xyz
  1  'x, y, z'
loop_
 _atom_site_type_symbol
 _atom_site_label
 _atom_site_symmetry_multiplicity
 _atom_site_fract_x
 _atom_site_fract_y
 _atom_site_fract_z
 _atom_site_occupancy
  Tb  Tb0  1  0.335889  0.831372  0.878691  1
  Tb  Tb1  1  0.835889  0.668628  0.621309  1
  Tb  Tb2  1  0.664111  0.168628  0.378691  1
  Tb  Tb3  1  0.164111  0.331372  0.121309  1
  Pr  Pr4  1  0.491078  0.324145  0.901949  1
  Pr  Pr5  1  0.991078  0.175855  0.598051  1
  Pr  Pr6  1  0.508922  0.675855  0.401949  1
  Pr  Pr7  1  0.008922  0.824145  0.098051  1
  Pr  Pr8  1  0.509544  0.676190  0.098408  1
  Pr  Pr9  1  0.009544  0.823810  0.401592  1
  Pr  Pr10  1  0.490456  0.323810  0.598408  1
  Pr  Pr11  1  0.990456  0.176190  0.901592  1
  Dy  Dy12  1  0.664499  0.168910  0.121888  1
  Dy  Dy13  1  0.164499  0.331090  0.378112  1
  Dy  Dy14  1  0.335501  0.831090  0.621888  1
  Dy  Dy15  1  0.835501  0.668910  0.878112  1
  Dy  Dy16  1  0.170434  0.492328  0.749934  1
  Dy  Dy17  1  0.670434  0.007672  0.750066  1
  Dy  Dy18  1  0.829566  0.507672  0.249934  1
  Dy  Dy19  1  0.329566  0.992328  0.250066  1
  Pt  Pt20  1  0.330766  0.031639  0.046632  1
  Pt  Pt21  1  0.830766  0.468361  0.453368  1
  Pt  Pt22  1  0.669234  0.968361  0.546632  1
  Pt  Pt23  1  0.169234  0.531639  0.953368  1
  Pt  Pt24  1  0.671842  0.967951  0.954382  1
  Pt  Pt25  1  0.171842  0.532049  0.545618  1
  Pt  Pt26  1  0.328158  0.032049  0.454382  1
  Pt  Pt27  1  0.828158  0.467951  0.045618  1
  Pt  Pt28  1  0.540538  0.628084  0.750047  1
  Pt  Pt29  1  0.040538  0.871916  0.749953  1
  Pt  Pt30  1  0.459462  0.371916  0.250047  1
  Pt  Pt31  1  0.959462  0.128084  0.249953  1
  Pt  Pt32  1  0.301881  0.134493  0.749950  1
  Pt  Pt33  1  0.801881  0.365507  0.750050  1
  Pt  Pt34  1  0.698119  0.865507  0.249950  1
  Pt  Pt35  1  0.198119  0.634493  0.250050  1
