# generated using pymatgen
data_HoTm2Co7(NiP3)2
_symmetry_space_group_name_H-M   'P 1'
_cell_length_a   3.70181400
_cell_length_b   10.47767600
_cell_length_c   12.17350100
_cell_angle_alpha   90.00000000
_cell_angle_beta   90.00000000
_cell_angle_gamma   90.00000000
_symmetry_Int_Tables_number   1
_chemical_formula_structural   HoTm2Co7(NiP3)2
_chemical_formula_sum   'Ho2 Tm4 Co14 Ni4 P12'
_cell_volume   472.16637297
_cell_formula_units_Z   2
loop_
 _symmetry_equiv_pos_site_id
 _symmetry_equiv_pos_as_xyz
  1  'x, y, z'
loop_
 _atom_site_type_symbol
 _atom_site_label
 _atom_site_symmetry_multiplicity
 _atom_site_fract_x
 _atom_site_fract_y
 _atom_site_fract_z
 _atom_site_occupancy
  Ho  Ho0  1  0.000000  0.500000  0.521633  1
  Ho  Ho1  1  0.500000  0.000000  0.478367  1
  Tm  Tm2  1  0.500000  0.816115  0.205779  1
  Tm  Tm3  1  0.500000  0.183885  0.205779  1
  Tm  Tm4  1  0.000000  0.683885  0.794221  1
  Tm  Tm5  1  0.000000  0.316115  0.794221  1
  Co  Co6  1  0.000000  0.500000  0.984730  1
  Co  Co7  1  0.500000  0.000000  0.015270  1
  Co  Co8  1  0.500000  0.333990  0.995892  1
  Co  Co9  1  0.500000  0.666010  0.995892  1
  Co  Co10  1  0.000000  0.166010  0.004108  1
  Co  Co11  1  0.000000  0.833990  0.004108  1
  Co  Co12  1  0.500000  0.298494  0.430293  1
  Co  Co13  1  0.500000  0.701506  0.430293  1
  Co  Co14  1  0.000000  0.201506  0.569707  1
  Co  Co15  1  0.000000  0.798494  0.569707  1
  Co  Co16  1  0.500000  0.878404  0.710605  1
  Co  Co17  1  0.500000  0.121596  0.710605  1
  Co  Co18  1  0.000000  0.621596  0.289395  1
  Co  Co19  1  0.000000  0.378404  0.289395  1
  Ni  Ni20  1  0.500000  0.500000  0.162107  1
  Ni  Ni21  1  0.000000  0.000000  0.837893  1
  Ni  Ni22  1  0.500000  0.500000  0.703532  1
  Ni  Ni23  1  0.000000  0.000000  0.296468  1
  P  P24  1  0.500000  0.500000  0.882484  1
  P  P25  1  0.000000  0.000000  0.117516  1
  P  P26  1  0.500000  0.500000  0.346732  1
  P  P27  1  0.000000  0.000000  0.653268  1
  P  P28  1  0.500000  0.310566  0.616062  1
  P  P29  1  0.500000  0.689434  0.616062  1
  P  P30  1  0.000000  0.189434  0.383938  1
  P  P31  1  0.000000  0.810566  0.383938  1
  P  P32  1  0.500000  0.845688  0.894047  1
  P  P33  1  0.500000  0.154312  0.894047  1
  P  P34  1  0.000000  0.654312  0.105953  1
  P  P35  1  0.000000  0.345688  0.105953  1
