# generated using pymatgen
data_Sr2DyY(Ir2O7)2
_symmetry_space_group_name_H-M   'P 1'
_cell_length_a   7.35568852
_cell_length_b   7.33505780
_cell_length_c   7.35813613
_cell_angle_alpha   60.10370342
_cell_angle_beta   59.82567889
_cell_angle_gamma   60.09273148
_symmetry_Int_Tables_number   1
_chemical_formula_structural   Sr2DyY(Ir2O7)2
_chemical_formula_sum   'Sr2 Dy1 Y1 Ir4 O14'
_cell_volume   280.76677756
_cell_formula_units_Z   1
loop_
 _symmetry_equiv_pos_site_id
 _symmetry_equiv_pos_as_xyz
  1  'x, y, z'
loop_
 _atom_site_type_symbol
 _atom_site_label
 _atom_site_symmetry_multiplicity
 _atom_site_fract_x
 _atom_site_fract_y
 _atom_site_fract_z
 _atom_site_occupancy
  Sr  Sr0  1  0.125000  0.625000  0.125000  1
  Sr  Sr1  1  0.125000  0.125000  0.125000  1
  Dy  Dy2  1  0.125000  0.125000  0.625000  1
  Y  Y3  1  0.625000  0.125000  0.125000  1
  Ir  Ir4  1  0.125000  0.625000  0.625000  1
  Ir  Ir5  1  0.625000  0.125000  0.625000  1
  Ir  Ir6  1  0.625000  0.625000  0.125000  1
  Ir  Ir7  1  0.625000  0.625000  0.625000  1
  O  O8  1  0.689885  0.715101  0.298937  1
  O  O9  1  0.298832  0.295931  0.689863  1
  O  O10  1  0.702770  0.297380  0.702470  1
  O  O11  1  0.301907  0.698113  0.301868  1
  O  O12  1  0.298832  0.715374  0.689863  1
  O  O13  1  0.689885  0.296077  0.298937  1
  O  O14  1  0.560115  0.534899  0.951063  1
  O  O15  1  0.951168  0.954069  0.560137  1
  O  O16  1  0.547230  0.952620  0.547530  1
  O  O17  1  0.948093  0.551887  0.948132  1
  O  O18  1  0.951168  0.534626  0.560137  1
  O  O19  1  0.560115  0.953923  0.951063  1
  O  O20  1  0.266374  0.233575  0.266476  1
  O  O21  1  0.983626  0.016425  0.983524  1
