# generated using pymatgen
data_Rb4Na2ScInAs4
_symmetry_space_group_name_H-M   'P 1'
_cell_length_a   9.43915195
_cell_length_b   9.43915271
_cell_length_c   9.43897935
_cell_angle_alpha   137.90931850
_cell_angle_beta   136.36393562
_cell_angle_gamma   62.23824688
_symmetry_Int_Tables_number   1
_chemical_formula_structural   Rb4Na2ScInAs4
_chemical_formula_sum   'Rb4 Na2 Sc1 In1 As4'
_cell_volume   384.36343323
_cell_formula_units_Z   1
loop_
 _symmetry_equiv_pos_site_id
 _symmetry_equiv_pos_as_xyz
  1  'x, y, z'
loop_
 _atom_site_type_symbol
 _atom_site_label
 _atom_site_symmetry_multiplicity
 _atom_site_fract_x
 _atom_site_fract_y
 _atom_site_fract_z
 _atom_site_occupancy
  Rb  Rb0  1  0.095296  0.328190  0.777016  1
  Rb  Rb1  1  0.448827  0.171818  0.267117  1
  Rb  Rb2  1  0.904701  0.681711  0.232883  1
  Rb  Rb3  1  0.551175  0.818279  0.722984  1
  Na  Na4  1  0.499998  0.749998  0.250000  1
  Na  Na5  1  0.499998  0.249998  0.750000  1
  Sc  Sc6  1  0.000007  0.250007  0.250000  1
  In  In7  1  0.999996  0.749996  0.750000  1
  As  As8  1  0.119352  0.910345  0.219974  1
  As  As9  1  0.880643  0.100622  0.790986  1
  As  As10  1  0.309635  0.589657  0.709014  1
  As  As11  1  0.690373  0.399379  0.280026  1
