# generated using pymatgen
data_Er6Al24Ru7Rh
_symmetry_space_group_name_H-M   'P 1'
_cell_length_a   8.75971887
_cell_length_b   8.75971829
_cell_length_c   9.58724250
_cell_angle_alpha   89.84537761
_cell_angle_beta   90.15462097
_cell_angle_gamma   119.83774997
_symmetry_Int_Tables_number   1
_chemical_formula_structural   Er6Al24Ru7Rh
_chemical_formula_sum   'Er6 Al24 Ru7 Rh1'
_cell_volume   638.13162156
_cell_formula_units_Z   1
loop_
 _symmetry_equiv_pos_site_id
 _symmetry_equiv_pos_as_xyz
  1  'x, y, z'
loop_
 _atom_site_type_symbol
 _atom_site_label
 _atom_site_symmetry_multiplicity
 _atom_site_fract_x
 _atom_site_fract_y
 _atom_site_fract_z
 _atom_site_occupancy
  Er  Er0  1  0.192180  0.387268  0.250896  1
  Er  Er1  1  0.807820  0.612732  0.749104  1
  Er  Er2  1  0.612732  0.807820  0.250896  1
  Er  Er3  1  0.387268  0.192180  0.749104  1
  Er  Er4  1  0.194147  0.805853  0.250391  1
  Er  Er5  1  0.805853  0.194147  0.749609  1
  Al  Al6  1  0.332599  0.667401  0.019768  1
  Al  Al7  1  0.667401  0.332599  0.980232  1
  Al  Al8  1  0.666505  0.333495  0.519116  1
  Al  Al9  1  0.333495  0.666505  0.480884  1
  Al  Al10  1  0.163613  0.325689  0.577781  1
  Al  Al11  1  0.836387  0.674311  0.422219  1
  Al  Al12  1  0.674311  0.836387  0.577781  1
  Al  Al13  1  0.838637  0.674863  0.078014  1
  Al  Al14  1  0.325689  0.163613  0.422219  1
  Al  Al15  1  0.161363  0.325137  0.921986  1
  Al  Al16  1  0.163207  0.836793  0.577447  1
  Al  Al17  1  0.325137  0.161363  0.078014  1
  Al  Al18  1  0.836793  0.163207  0.422553  1
  Al  Al19  1  0.674863  0.838637  0.921986  1
  Al  Al20  1  0.837164  0.162836  0.077693  1
  Al  Al21  1  0.162836  0.837164  0.922307  1
  Al  Al22  1  0.561207  0.123707  0.249764  1
  Al  Al23  1  0.438793  0.876293  0.750236  1
  Al  Al24  1  0.876293  0.438793  0.249764  1
  Al  Al25  1  0.123707  0.561207  0.750236  1
  Al  Al26  1  0.561450  0.438550  0.250795  1
  Al  Al27  1  0.438550  0.561450  0.749205  1
  Al  Al28  1  0.999785  0.000215  0.250052  1
  Al  Al29  1  0.000215  0.999785  0.749948  1
  Ru  Ru30  1  0.500000  0.000000  0.000000  1
  Ru  Ru31  1  0.000000  0.500000  0.000000  1
  Ru  Ru32  1  0.500000  0.000000  0.500000  1
  Ru  Ru33  1  0.000000  0.500000  0.500000  1
  Ru  Ru34  1  0.500000  0.500000  0.500000  1
  Ru  Ru35  1  0.000000  0.000000  0.000000  1
  Ru  Ru36  1  0.000000  0.000000  0.500000  1
  Rh  Rh37  1  0.500000  0.500000  0.000000  1
