# generated using pymatgen
data_LiLaSi2Au
_symmetry_space_group_name_H-M   'P 1'
_cell_length_a   6.09080295
_cell_length_b   6.09080299
_cell_length_c   6.09080271
_cell_angle_alpha   139.17210198
_cell_angle_beta   139.17210983
_cell_angle_gamma   59.11251918
_symmetry_Int_Tables_number   1
_chemical_formula_structural   LiLaSi2Au
_chemical_formula_sum   'Li1 La1 Si2 Au1'
_cell_volume   95.65161038
_cell_formula_units_Z   1
loop_
 _symmetry_equiv_pos_site_id
 _symmetry_equiv_pos_as_xyz
  1  'x, y, z'
loop_
 _atom_site_type_symbol
 _atom_site_label
 _atom_site_symmetry_multiplicity
 _atom_site_fract_x
 _atom_site_fract_y
 _atom_site_fract_z
 _atom_site_occupancy
  Li  Li0  1  0.750000  0.250000  0.500000  1
  La  La1  1  0.000000  0.000000  0.000000  1
  Si  Si2  1  0.611236  0.611236  0.000000  1
  Si  Si3  1  0.388764  0.388764  0.000000  1
  Au  Au4  1  0.250000  0.750000  0.500000  1
