# generated using pymatgen
data_Pr3NdCo2(PtO6)2
_symmetry_space_group_name_H-M   'P 1'
_cell_length_a   5.49375602
_cell_length_b   5.85597121
_cell_length_c   7.90382883
_cell_angle_alpha   90.03081615
_cell_angle_beta   90.09621725
_cell_angle_gamma   90.00397135
_symmetry_Int_Tables_number   1
_chemical_formula_structural   Pr3NdCo2(PtO6)2
_chemical_formula_sum   'Pr3 Nd1 Co2 Pt2 O12'
_cell_volume   254.27587142
_cell_formula_units_Z   1
loop_
 _symmetry_equiv_pos_site_id
 _symmetry_equiv_pos_as_xyz
  1  'x, y, z'
loop_
 _atom_site_type_symbol
 _atom_site_label
 _atom_site_symmetry_multiplicity
 _atom_site_fract_x
 _atom_site_fract_y
 _atom_site_fract_z
 _atom_site_occupancy
  Pr  Pr0  1  0.518838  0.565647  0.249870  1
  Pr  Pr1  1  0.480881  0.434518  0.750112  1
  Pr  Pr2  1  0.018877  0.935344  0.749882  1
  Nd  Nd3  1  0.980164  0.066856  0.250279  1
  Co  Co4  1  0.499797  0.999990  0.000888  1
  Co  Co5  1  0.000118  0.500500  0.499451  1
  Pt  Pt6  1  0.000158  0.500148  0.000604  1
  Pt  Pt7  1  0.499793  0.000002  0.499233  1
  O  O8  1  0.698339  0.301628  0.052346  1
  O  O9  1  0.808869  0.796780  0.054777  1
  O  O10  1  0.395597  0.967543  0.250645  1
  O  O11  1  0.100232  0.464382  0.249577  1
  O  O12  1  0.693739  0.294395  0.445578  1
  O  O13  1  0.803883  0.804407  0.447139  1
  O  O14  1  0.196986  0.196883  0.550504  1
  O  O15  1  0.307941  0.704154  0.552686  1
  O  O16  1  0.900054  0.532919  0.750540  1
  O  O17  1  0.599947  0.032273  0.749297  1
  O  O18  1  0.192347  0.204786  0.947226  1
  O  O19  1  0.303441  0.696850  0.949361  1
