# generated using pymatgen
data_Pr12GeIrI17
_symmetry_space_group_name_H-M   'P 1'
_cell_length_a   10.10988465
_cell_length_b   12.11062245
_cell_length_c   12.05058835
_cell_angle_alpha   93.75424346
_cell_angle_beta   104.60101601
_cell_angle_gamma   114.79107771
_symmetry_Int_Tables_number   1
_chemical_formula_structural   Pr12GeIrI17
_chemical_formula_sum   'Pr12 Ge1 Ir1 I17'
_cell_volume   1271.36303617
_cell_formula_units_Z   1
loop_
 _symmetry_equiv_pos_site_id
 _symmetry_equiv_pos_as_xyz
  1  'x, y, z'
loop_
 _atom_site_type_symbol
 _atom_site_label
 _atom_site_symmetry_multiplicity
 _atom_site_fract_x
 _atom_site_fract_y
 _atom_site_fract_z
 _atom_site_occupancy
  Pr  Pr0  1  0.061243  0.518985  0.327750  1
  Pr  Pr1  1  0.987851  0.810209  0.578045  1
  Pr  Pr2  1  0.635134  0.239208  0.284056  1
  Pr  Pr3  1  0.014849  0.188914  0.423665  1
  Pr  Pr4  1  0.225771  0.669590  0.994607  1
  Pr  Pr5  1  0.264809  0.990856  0.896139  1
  Pr  Pr6  1  0.358312  0.760156  0.713605  1
  Pr  Pr7  1  0.939630  0.483521  0.675333  1
  Pr  Pr8  1  0.731451  0.006173  0.100877  1
  Pr  Pr9  1  0.156379  0.287537  0.146278  1
  Pr  Pr10  1  0.776397  0.333099  0.003334  1
  Pr  Pr11  1  0.846226  0.711587  0.852753  1
  Ge  Ge12  1  0.895641  0.261759  0.215287  1
  Ir  Ir13  1  0.104177  0.738059  0.785748  1
  I  I14  1  0.781648  0.525353  0.415121  1
  I  I15  1  0.635268  0.417676  0.754090  1
  I  I16  1  0.842105  0.896708  0.323213  1
  I  I17  1  0.323247  0.213222  0.368605  1
  I  I18  1  0.157771  0.105589  0.676239  1
  I  I19  1  0.590392  0.055956  0.843544  1
  I  I20  1  0.752570  0.178857  0.536422  1
  I  I21  1  0.546937  0.701828  0.952881  1
  I  I22  1  0.359010  0.579649  0.245454  1
  I  I23  1  0.216341  0.469862  0.579933  1
  I  I24  1  0.055621  0.365304  0.896595  1
  I  I25  1  0.457261  0.298071  0.047106  1
  I  I26  1  0.000133  0.001557  0.002433  1
  I  I27  1  0.249450  0.823154  0.460500  1
  I  I28  1  0.416011  0.949720  0.161725  1
  I  I29  1  0.674345  0.787037  0.631419  1
  I  I30  1  0.944021  0.630806  0.107247  1
