# generated using pymatgen
data_CaPr2Ti(GaO3)4
_symmetry_space_group_name_H-M   'P 1'
_cell_length_a   10.91209196
_cell_length_b   10.95529328
_cell_length_c   10.95338926
_cell_angle_alpha   109.19578393
_cell_angle_beta   109.44171906
_cell_angle_gamma   109.43661796
_symmetry_Int_Tables_number   1
_chemical_formula_structural   CaPr2Ti(GaO3)4
_chemical_formula_sum   'Ca4 Pr8 Ti4 Ga16 O48'
_cell_volume   1012.19293745
_cell_formula_units_Z   4
loop_
 _symmetry_equiv_pos_site_id
 _symmetry_equiv_pos_as_xyz
  1  'x, y, z'
loop_
 _atom_site_type_symbol
 _atom_site_label
 _atom_site_symmetry_multiplicity
 _atom_site_fract_x
 _atom_site_fract_y
 _atom_site_fract_z
 _atom_site_occupancy
  Ca  Ca0  1  0.623654  0.239270  0.369675  1
  Ca  Ca1  1  0.871415  0.122084  0.244959  1
  Ca  Ca2  1  0.128585  0.877916  0.755041  1
  Ca  Ca3  1  0.376346  0.760730  0.630325  1
  Pr  Pr4  1  0.249878  0.626832  0.873113  1
  Pr  Pr5  1  0.626345  0.373385  0.747848  1
  Pr  Pr6  1  0.126093  0.248617  0.876603  1
  Pr  Pr7  1  0.250465  0.124811  0.372173  1
  Pr  Pr8  1  0.873907  0.751383  0.123397  1
  Pr  Pr9  1  0.749535  0.875189  0.627827  1
  Pr  Pr10  1  0.373655  0.626615  0.252152  1
  Pr  Pr11  1  0.750122  0.373168  0.126887  1
  Ti  Ti12  1  0.000000  0.000000  0.500000  1
  Ti  Ti13  1  0.500000  0.000000  0.000000  1
  Ti  Ti14  1  0.000000  0.500000  0.500000  1
  Ti  Ti15  1  0.500000  0.500000  0.500000  1
  Ga  Ga16  1  0.881537  0.634064  0.755136  1
  Ga  Ga17  1  0.621970  0.749705  0.870770  1
  Ga  Ga18  1  0.870929  0.252754  0.624191  1
  Ga  Ga19  1  0.249853  0.872981  0.127421  1
  Ga  Ga20  1  0.250417  0.374118  0.627496  1
  Ga  Ga21  1  0.500000  0.500000  0.000000  1
  Ga  Ga22  1  0.000000  0.000000  0.000000  1
  Ga  Ga23  1  0.626920  0.876748  0.249386  1
  Ga  Ga24  1  0.373080  0.123252  0.750614  1
  Ga  Ga25  1  0.500000  0.000000  0.500000  1
  Ga  Ga26  1  0.750147  0.127019  0.872578  1
  Ga  Ga27  1  0.749583  0.625882  0.372504  1
  Ga  Ga28  1  0.129071  0.747246  0.375809  1
  Ga  Ga29  1  0.000000  0.500000  0.000000  1
  Ga  Ga30  1  0.378030  0.250295  0.129230  1
  Ga  Ga31  1  0.118463  0.365936  0.244864  1
  O  O32  1  0.305510  0.884907  0.984803  1
  O  O33  1  0.425917  0.303161  0.327959  1
  O  O34  1  0.681011  0.492490  0.603765  1
  O  O35  1  0.024054  0.620338  0.699464  1
  O  O36  1  0.476727  0.801884  0.881214  1
  O  O37  1  0.195329  0.515456  0.614827  1
  O  O38  1  0.883544  0.307133  0.482318  1
  O  O39  1  0.020692  0.402496  0.820311  1
  O  O40  1  0.674989  0.202453  0.579872  1
  O  O41  1  0.401344  0.018530  0.321167  1
  O  O42  1  0.618025  0.018611  0.193888  1
  O  O43  1  0.615826  0.595567  0.914404  1
  O  O44  1  0.078296  0.173222  0.200955  1
  O  O45  1  0.404332  0.383979  0.582172  1
  O  O46  1  0.299241  0.417830  0.822762  1
  O  O47  1  0.101040  0.177313  0.485470  1
  O  O48  1  0.883133  0.584420  0.904090  1
  O  O49  1  0.817496  0.900107  0.015672  1
  O  O50  1  0.917804  0.097698  0.614698  1
  O  O51  1  0.200503  0.676149  0.080720  1
  O  O52  1  0.586119  0.881945  0.403826  1
  O  O53  1  0.826136  0.921618  0.302821  1
  O  O54  1  0.521091  0.320111  0.902641  1
  O  O55  1  0.095247  0.915107  0.119339  1
  O  O56  1  0.904753  0.084893  0.880661  1
  O  O57  1  0.478909  0.679889  0.097359  1
  O  O58  1  0.173864  0.078382  0.697179  1
  O  O59  1  0.413881  0.118055  0.596174  1
  O  O60  1  0.799497  0.323851  0.919280  1
  O  O61  1  0.082196  0.902302  0.385302  1
  O  O62  1  0.182504  0.099893  0.984328  1
  O  O63  1  0.116867  0.415580  0.095910  1
  O  O64  1  0.898960  0.822687  0.514530  1
  O  O65  1  0.700759  0.582170  0.177238  1
  O  O66  1  0.595668  0.616021  0.417828  1
  O  O67  1  0.921704  0.826778  0.799045  1
  O  O68  1  0.384174  0.404433  0.085596  1
  O  O69  1  0.381975  0.981389  0.806112  1
  O  O70  1  0.598656  0.981470  0.678833  1
  O  O71  1  0.325011  0.797547  0.420128  1
  O  O72  1  0.979308  0.597504  0.179689  1
  O  O73  1  0.116456  0.692867  0.517682  1
  O  O74  1  0.804671  0.484544  0.385173  1
  O  O75  1  0.523273  0.198116  0.118786  1
  O  O76  1  0.975946  0.379662  0.300536  1
  O  O77  1  0.318989  0.507510  0.396235  1
  O  O78  1  0.574083  0.696839  0.672041  1
  O  O79  1  0.694490  0.115093  0.015197  1
