# generated using pymatgen
data_ErTm3Co10(Ni5P6)2
_symmetry_space_group_name_H-M   'P 1'
_cell_length_a   3.67295000
_cell_length_b   10.26794620
_cell_length_c   11.82294021
_cell_angle_alpha   90.02221066
_cell_angle_beta   90.00000000
_cell_angle_gamma   90.00000000
_symmetry_Int_Tables_number   1
_chemical_formula_structural   ErTm3Co10(Ni5P6)2
_chemical_formula_sum   'Er1 Tm3 Co10 Ni10 P12'
_cell_volume   445.88623112
_cell_formula_units_Z   1
loop_
 _symmetry_equiv_pos_site_id
 _symmetry_equiv_pos_as_xyz
  1  'x, y, z'
loop_
 _atom_site_type_symbol
 _atom_site_label
 _atom_site_symmetry_multiplicity
 _atom_site_fract_x
 _atom_site_fract_y
 _atom_site_fract_z
 _atom_site_occupancy
  Er  Er0  1  0.750000  0.080572  0.796287  1
  Tm  Tm1  1  0.250000  0.580959  0.704706  1
  Tm  Tm2  1  0.250000  0.919002  0.204638  1
  Tm  Tm3  1  0.750000  0.419581  0.296312  1
  Co  Co4  1  0.750000  0.776171  0.824494  1
  Co  Co5  1  0.750000  0.723471  0.324508  1
  Co  Co6  1  0.250000  0.878452  0.698116  1
  Co  Co7  1  0.250000  0.621019  0.198653  1
  Co  Co8  1  0.750000  0.119851  0.300914  1
  Co  Co9  1  0.750000  0.380339  0.801277  1
  Co  Co10  1  0.250000  0.466217  0.933054  1
  Co  Co11  1  0.250000  0.034053  0.432652  1
  Co  Co12  1  0.750000  0.534183  0.067534  1
  Co  Co13  1  0.750000  0.965730  0.567116  1
  Ni  Ni14  1  0.250000  0.711916  0.989573  1
  Ni  Ni15  1  0.250000  0.788043  0.488401  1
  Ni  Ni16  1  0.750000  0.285089  0.009231  1
  Ni  Ni17  1  0.750000  0.216073  0.508386  1
  Ni  Ni18  1  0.250000  0.409036  0.484621  1
  Ni  Ni19  1  0.250000  0.090712  0.985216  1
  Ni  Ni20  1  0.750000  0.592094  0.515684  1
  Ni  Ni21  1  0.750000  0.906990  0.015853  1
  Ni  Ni22  1  0.250000  0.224761  0.175950  1
  Ni  Ni23  1  0.250000  0.276163  0.675783  1
  P  P24  1  0.250000  0.425320  0.113923  1
  P  P25  1  0.250000  0.074948  0.613639  1
  P  P26  1  0.750000  0.578074  0.886007  1
  P  P27  1  0.750000  0.921837  0.385634  1
  P  P28  1  0.250000  0.270430  0.867475  1
  P  P29  1  0.250000  0.229989  0.367142  1
  P  P30  1  0.750000  0.730276  0.135409  1
  P  P31  1  0.750000  0.769461  0.635168  1
  P  P32  1  0.250000  0.605663  0.387427  1
  P  P33  1  0.250000  0.893507  0.887504  1
  P  P34  1  0.750000  0.398746  0.611048  1
  P  P35  1  0.750000  0.101272  0.110669  1
