# generated using pymatgen
data_Nd17(YRh4)3
_symmetry_space_group_name_H-M   'P 1'
_cell_length_a   11.23935900
_cell_length_b   11.23935900
_cell_length_c   6.56420700
_cell_angle_alpha   90.00000000
_cell_angle_beta   90.00000000
_cell_angle_gamma   90.00000000
_symmetry_Int_Tables_number   1
_chemical_formula_structural   Nd17(YRh4)3
_chemical_formula_sum   'Nd17 Y3 Rh12'
_cell_volume   829.21157286
_cell_formula_units_Z   1
loop_
 _symmetry_equiv_pos_site_id
 _symmetry_equiv_pos_as_xyz
  1  'x, y, z'
loop_
 _atom_site_type_symbol
 _atom_site_label
 _atom_site_symmetry_multiplicity
 _atom_site_fract_x
 _atom_site_fract_y
 _atom_site_fract_z
 _atom_site_occupancy
  Nd  Nd0  1  0.089506  0.290164  0.115755  1
  Nd  Nd1  1  0.789206  0.410735  0.116314  1
  Nd  Nd2  1  0.210794  0.589265  0.116314  1
  Nd  Nd3  1  0.910494  0.709836  0.115755  1
  Nd  Nd4  1  0.411345  0.789114  0.384035  1
  Nd  Nd5  1  0.588655  0.210886  0.384035  1
  Nd  Nd6  1  0.290707  0.089040  0.383439  1
  Nd  Nd7  1  0.709293  0.910960  0.383439  1
  Nd  Nd8  1  0.410735  0.210794  0.883686  1
  Nd  Nd9  1  0.709836  0.089506  0.884245  1
  Nd  Nd10  1  0.290164  0.910494  0.884245  1
  Nd  Nd11  1  0.589265  0.789206  0.883686  1
  Nd  Nd12  1  0.089040  0.709293  0.616561  1
  Nd  Nd13  1  0.910960  0.290707  0.616561  1
  Nd  Nd14  1  0.210886  0.411345  0.615965  1
  Nd  Nd15  1  0.789114  0.588655  0.615965  1
  Nd  Nd16  1  0.000000  0.000000  0.500000  1
  Y  Y17  1  0.000000  0.000000  0.000000  1
  Y  Y18  1  0.500000  0.500000  0.000000  1
  Y  Y19  1  0.500000  0.500000  0.500000  1
  Rh  Rh20  1  0.152415  0.847661  0.246870  1
  Rh  Rh21  1  0.350312  0.349930  0.250344  1
  Rh  Rh22  1  0.649688  0.650070  0.250344  1
  Rh  Rh23  1  0.847585  0.152339  0.246870  1
  Rh  Rh24  1  0.349930  0.649688  0.749656  1
  Rh  Rh25  1  0.152339  0.152415  0.753130  1
  Rh  Rh26  1  0.847661  0.847585  0.753130  1
  Rh  Rh27  1  0.650070  0.350312  0.749656  1
  Rh  Rh28  1  0.000000  0.500000  0.376381  1
  Rh  Rh29  1  0.500000  0.000000  0.124289  1
  Rh  Rh30  1  0.500000  0.000000  0.623619  1
  Rh  Rh31  1  0.000000  0.500000  0.875711  1
