# generated using pymatgen
data_Nd5Ho3(P7Ir8)2
_symmetry_space_group_name_H-M   'P 1'
_cell_length_a   3.96673700
_cell_length_b   12.78108121
_cell_length_c   13.21054215
_cell_angle_alpha   80.92678449
_cell_angle_beta   90.00000000
_cell_angle_gamma   90.00000000
_symmetry_Int_Tables_number   1
_chemical_formula_structural   Nd5Ho3(P7Ir8)2
_chemical_formula_sum   'Nd5 Ho3 P14 Ir16'
_cell_volume   661.38342753
_cell_formula_units_Z   1
loop_
 _symmetry_equiv_pos_site_id
 _symmetry_equiv_pos_as_xyz
  1  'x, y, z'
loop_
 _atom_site_type_symbol
 _atom_site_label
 _atom_site_symmetry_multiplicity
 _atom_site_fract_x
 _atom_site_fract_y
 _atom_site_fract_z
 _atom_site_occupancy
  Nd  Nd0  1  0.250000  0.519299  0.293951  1
  Nd  Nd1  1  0.750000  0.719932  0.897496  1
  Nd  Nd2  1  0.250000  0.104516  0.788291  1
  Nd  Nd3  1  0.750000  0.896169  0.211328  1
  Nd  Nd4  1  0.250000  0.279937  0.101980  1
  Ho  Ho5  1  0.750000  0.791678  0.560487  1
  Ho  Ho6  1  0.250000  0.208076  0.440026  1
  Ho  Ho7  1  0.750000  0.480086  0.705551  1
  P  P8  1  0.250000  0.907744  0.412708  1
  P  P9  1  0.750000  0.472273  0.128011  1
  P  P10  1  0.250000  0.527787  0.869271  1
  P  P11  1  0.750000  0.092575  0.588344  1
  P  P12  1  0.250000  0.741803  0.081564  1
  P  P13  1  0.750000  0.258656  0.917889  1
  P  P14  1  0.750000  0.157005  0.284294  1
  P  P15  1  0.250000  0.841646  0.715603  1
  P  P16  1  0.250000  0.051933  0.099982  1
  P  P17  1  0.750000  0.948303  0.899605  1
  P  P18  1  0.250000  0.315497  0.688226  1
  P  P19  1  0.750000  0.686520  0.312947  1
  P  P20  1  0.250000  0.607883  0.565624  1
  P  P21  1  0.750000  0.389852  0.436921  1
  Ir  Ir22  1  0.250000  0.990379  0.575801  1
  Ir  Ir23  1  0.750000  0.010208  0.424563  1
  Ir  Ir24  1  0.250000  0.660899  0.727141  1
  Ir  Ir25  1  0.750000  0.336359  0.272097  1
  Ir  Ir26  1  0.250000  0.551515  0.046576  1
  Ir  Ir27  1  0.750000  0.448845  0.950576  1
  Ir  Ir28  1  0.250000  0.063186  0.273789  1
  Ir  Ir29  1  0.750000  0.936110  0.726150  1
  Ir  Ir30  1  0.250000  0.422080  0.525976  1
  Ir  Ir31  1  0.750000  0.578306  0.477845  1
  Ir  Ir32  1  0.250000  0.914822  0.997522  1
  Ir  Ir33  1  0.750000  0.085567  0.002021  1
  Ir  Ir34  1  0.250000  0.729781  0.397361  1
  Ir  Ir35  1  0.750000  0.270970  0.604269  1
  Ir  Ir36  1  0.250000  0.343713  0.856225  1
  Ir  Ir37  1  0.750000  0.658091  0.141988  1
