# generated using pymatgen
data_TbZr(Al3Ir)3
_symmetry_space_group_name_H-M   'P 1'
_cell_length_a   7.52832093
_cell_length_b   7.50974368
_cell_length_c   9.37323900
_cell_angle_alpha   90.00000000
_cell_angle_beta   90.00000000
_cell_angle_gamma   119.74183675
_symmetry_Int_Tables_number   1
_chemical_formula_structural   TbZr(Al3Ir)3
_chemical_formula_sum   'Tb2 Zr2 Al18 Ir6'
_cell_volume   460.11615057
_cell_formula_units_Z   2
loop_
 _symmetry_equiv_pos_site_id
 _symmetry_equiv_pos_as_xyz
  1  'x, y, z'
loop_
 _atom_site_type_symbol
 _atom_site_label
 _atom_site_symmetry_multiplicity
 _atom_site_fract_x
 _atom_site_fract_y
 _atom_site_fract_z
 _atom_site_occupancy
  Tb  Tb0  1  0.670260  0.994467  0.250000  1
  Tb  Tb1  1  0.329740  0.005533  0.750000  1
  Zr  Zr2  1  0.995142  0.670559  0.250000  1
  Zr  Zr3  1  0.004858  0.329441  0.750000  1
  Al  Al4  1  0.126130  0.123824  0.250000  1
  Al  Al5  1  0.873870  0.876176  0.750000  1
  Al  Al6  1  0.000205  0.337136  0.074218  1
  Al  Al7  1  0.999795  0.662864  0.925782  1
  Al  Al8  1  0.999795  0.662864  0.574218  1
  Al  Al9  1  0.331752  0.998311  0.422654  1
  Al  Al10  1  0.000205  0.337136  0.425782  1
  Al  Al11  1  0.668248  0.001689  0.577346  1
  Al  Al12  1  0.668248  0.001689  0.922654  1
  Al  Al13  1  0.331752  0.998311  0.077346  1
  Al  Al14  1  0.331325  0.333754  0.555553  1
  Al  Al15  1  0.668675  0.666246  0.444447  1
  Al  Al16  1  0.668675  0.666246  0.055553  1
  Al  Al17  1  0.331325  0.333754  0.944447  1
  Al  Al18  1  0.334210  0.547473  0.250000  1
  Al  Al19  1  0.665790  0.452527  0.750000  1
  Al  Al20  1  0.553676  0.343859  0.250000  1
  Al  Al21  1  0.446324  0.656141  0.750000  1
  Ir  Ir22  1  0.672125  0.327905  0.999519  1
  Ir  Ir23  1  0.327875  0.672095  0.000481  1
  Ir  Ir24  1  0.327875  0.672095  0.499519  1
  Ir  Ir25  1  0.672125  0.327905  0.500481  1
  Ir  Ir26  1  0.000000  0.000000  0.000000  1
  Ir  Ir27  1  0.000000  0.000000  0.500000  1
