# generated using pymatgen
data_Lu3(CoSi)2
_symmetry_space_group_name_H-M   'P 1'
_cell_length_a   5.41858800
_cell_length_b   7.44300400
_cell_length_c   12.39578700
_cell_angle_alpha   90.00000000
_cell_angle_beta   90.00000000
_cell_angle_gamma   90.00000000
_symmetry_Int_Tables_number   1
_chemical_formula_structural   Lu3(CoSi)2
_chemical_formula_sum   'Lu12 Co8 Si8'
_cell_volume   499.92918206
_cell_formula_units_Z   4
loop_
 _symmetry_equiv_pos_site_id
 _symmetry_equiv_pos_as_xyz
  1  'x, y, z'
loop_
 _atom_site_type_symbol
 _atom_site_label
 _atom_site_symmetry_multiplicity
 _atom_site_fract_x
 _atom_site_fract_y
 _atom_site_fract_z
 _atom_site_occupancy
  Lu  Lu0  1  0.630309  0.253951  0.250000  1
  Lu  Lu1  1  0.369691  0.746049  0.750000  1
  Lu  Lu2  1  0.369691  0.753951  0.250000  1
  Lu  Lu3  1  0.630309  0.246049  0.750000  1
  Lu  Lu4  1  0.142833  0.396860  0.101257  1
  Lu  Lu5  1  0.857167  0.603140  0.898743  1
  Lu  Lu6  1  0.857167  0.603140  0.601257  1
  Lu  Lu7  1  0.857167  0.896860  0.398743  1
  Lu  Lu8  1  0.142833  0.396860  0.398743  1
  Lu  Lu9  1  0.142833  0.103140  0.601257  1
  Lu  Lu10  1  0.142833  0.103140  0.898743  1
  Lu  Lu11  1  0.857167  0.896860  0.101257  1
  Co  Co12  1  0.366778  0.030806  0.087637  1
  Co  Co13  1  0.633222  0.969194  0.912363  1
  Co  Co14  1  0.633222  0.969194  0.587637  1
  Co  Co15  1  0.633222  0.530806  0.412363  1
  Co  Co16  1  0.366778  0.030806  0.412363  1
  Co  Co17  1  0.366778  0.469194  0.587637  1
  Co  Co18  1  0.366778  0.469194  0.912363  1
  Co  Co19  1  0.633222  0.530806  0.087637  1
  Si  Si20  1  0.149345  0.103703  0.250000  1
  Si  Si21  1  0.850655  0.896297  0.750000  1
  Si  Si22  1  0.850655  0.603703  0.250000  1
  Si  Si23  1  0.149345  0.396297  0.750000  1
  Si  Si24  1  0.619531  0.250000  0.000000  1
  Si  Si25  1  0.380469  0.750000  0.000000  1
  Si  Si26  1  0.380469  0.750000  0.500000  1
  Si  Si27  1  0.619531  0.250000  0.500000  1
