# generated using pymatgen
data_Tb7Tm13(Cd3Co)2
_symmetry_space_group_name_H-M   'P 1'
_cell_length_a   9.52259474
_cell_length_b   9.51707139
_cell_length_c   9.64177405
_cell_angle_alpha   90.00000094
_cell_angle_beta   89.92149139
_cell_angle_gamma   119.98080584
_symmetry_Int_Tables_number   1
_chemical_formula_structural   Tb7Tm13(Cd3Co)2
_chemical_formula_sum   'Tb7 Tm13 Cd6 Co2'
_cell_volume   756.88453814
_cell_formula_units_Z   1
loop_
 _symmetry_equiv_pos_site_id
 _symmetry_equiv_pos_as_xyz
  1  'x, y, z'
loop_
 _atom_site_type_symbol
 _atom_site_label
 _atom_site_symmetry_multiplicity
 _atom_site_fract_x
 _atom_site_fract_y
 _atom_site_fract_z
 _atom_site_occupancy
  Tb  Tb0  1  0.541808  0.457383  0.250660  1
  Tb  Tb1  1  0.541808  0.084425  0.250660  1
  Tb  Tb2  1  0.916364  0.458182  0.249613  1
  Tb  Tb3  1  0.457855  0.541042  0.749164  1
  Tb  Tb4  1  0.457855  0.916813  0.749164  1
  Tb  Tb5  1  0.083753  0.541876  0.750084  1
  Tb  Tb6  1  0.575631  0.787816  0.064712  1
  Tm  Tm7  1  0.000053  0.000026  0.499877  1
  Tm  Tm8  1  0.001179  0.000589  0.999838  1
  Tm  Tm9  1  0.212161  0.788019  0.435524  1
  Tm  Tm10  1  0.212161  0.424144  0.435524  1
  Tm  Tm11  1  0.577341  0.788671  0.437212  1
  Tm  Tm12  1  0.788089  0.212078  0.564502  1
  Tm  Tm13  1  0.788089  0.576009  0.564502  1
  Tm  Tm14  1  0.423481  0.211739  0.564497  1
  Tm  Tm15  1  0.788422  0.212234  0.935271  1
  Tm  Tm16  1  0.788422  0.576185  0.935271  1
  Tm  Tm17  1  0.424045  0.212022  0.935403  1
  Tm  Tm18  1  0.210328  0.788187  0.064059  1
  Tm  Tm19  1  0.210328  0.422143  0.064059  1
  Cd  Cd20  1  0.886503  0.114191  0.250212  1
  Cd  Cd21  1  0.886503  0.772312  0.250212  1
  Cd  Cd22  1  0.227738  0.113869  0.249979  1
  Cd  Cd23  1  0.113910  0.886176  0.749891  1
  Cd  Cd24  1  0.113910  0.227734  0.749891  1
  Cd  Cd25  1  0.772574  0.886287  0.749543  1
  Co  Co26  1  0.333016  0.666509  0.250749  1
  Co  Co27  1  0.666672  0.333336  0.749924  1
