# generated using pymatgen
data_Tb5SmEuPtI12
_symmetry_space_group_name_H-M   'P 1'
_cell_length_a   9.88275981
_cell_length_b   9.87913341
_cell_length_c   9.88796018
_cell_angle_alpha   106.66240588
_cell_angle_beta   106.71799626
_cell_angle_gamma   106.62347788
_symmetry_Int_Tables_number   1
_chemical_formula_structural   Tb5SmEuPtI12
_chemical_formula_sum   'Tb5 Sm1 Eu1 Pt1 I12'
_cell_volume   811.15955421
_cell_formula_units_Z   1
loop_
 _symmetry_equiv_pos_site_id
 _symmetry_equiv_pos_as_xyz
  1  'x, y, z'
loop_
 _atom_site_type_symbol
 _atom_site_label
 _atom_site_symmetry_multiplicity
 _atom_site_fract_x
 _atom_site_fract_y
 _atom_site_fract_z
 _atom_site_occupancy
  Tb  Tb0  1  0.300199  0.097066  0.024638  1
  Tb  Tb1  1  0.024781  0.300355  0.096508  1
  Tb  Tb2  1  0.902774  0.975055  0.699651  1
  Tb  Tb3  1  0.699523  0.902950  0.974483  1
  Tb  Tb4  1  0.974810  0.699416  0.902124  1
  Sm  Sm5  1  0.098281  0.024796  0.303756  1
  Eu  Eu6  1  0.499983  0.500038  0.499888  1
  Pt  Pt7  1  0.999649  0.999821  0.999010  1
  I  I8  1  0.073107  0.675593  0.221548  1
  I  I9  1  0.223656  0.073970  0.680119  1
  I  I10  1  0.678137  0.222869  0.073464  1
  I  I11  1  0.926419  0.321972  0.776988  1
  I  I12  1  0.773950  0.925531  0.321459  1
  I  I13  1  0.321818  0.777093  0.926403  1
  I  I14  1  0.457257  0.143627  0.375456  1
  I  I15  1  0.375459  0.454364  0.142509  1
  I  I16  1  0.142720  0.377883  0.454719  1
  I  I17  1  0.545535  0.857529  0.624467  1
  I  I18  1  0.624532  0.545633  0.857338  1
  I  I19  1  0.857411  0.624440  0.545472  1
