# generated using pymatgen
data_La3PrAl18(IrPt)3
_symmetry_space_group_name_H-M   'P 1'
_cell_length_a   7.70097410
_cell_length_b   7.69682238
_cell_length_c   9.62610215
_cell_angle_alpha   89.99578676
_cell_angle_beta   89.97803008
_cell_angle_gamma   119.63627014
_symmetry_Int_Tables_number   1
_chemical_formula_structural   La3PrAl18(IrPt)3
_chemical_formula_sum   'La3 Pr1 Al18 Ir3 Pt3'
_cell_volume   495.92762597
_cell_formula_units_Z   1
loop_
 _symmetry_equiv_pos_site_id
 _symmetry_equiv_pos_as_xyz
  1  'x, y, z'
loop_
 _atom_site_type_symbol
 _atom_site_label
 _atom_site_symmetry_multiplicity
 _atom_site_fract_x
 _atom_site_fract_y
 _atom_site_fract_z
 _atom_site_occupancy
  La  La0  1  0.995547  0.669107  0.250273  1
  La  La1  1  0.004896  0.331389  0.749947  1
  La  La2  1  0.668967  0.995438  0.250047  1
  Pr  Pr3  1  0.331024  0.004320  0.749901  1
  Al  Al4  1  0.130008  0.130590  0.250468  1
  Al  Al5  1  0.870768  0.870891  0.749510  1
  Al  Al6  1  0.003032  0.331002  0.074276  1
  Al  Al7  1  0.997405  0.670213  0.924655  1
  Al  Al8  1  0.994865  0.666279  0.573468  1
  Al  Al9  1  0.334550  0.005903  0.427701  1
  Al  Al10  1  0.999015  0.330826  0.427339  1
  Al  Al11  1  0.668465  0.001001  0.573115  1
  Al  Al12  1  0.668306  0.996865  0.925277  1
  Al  Al13  1  0.330582  0.003401  0.074284  1
  Al  Al14  1  0.334629  0.330546  0.548502  1
  Al  Al15  1  0.668467  0.665398  0.452484  1
  Al  Al16  1  0.667460  0.667496  0.050785  1
  Al  Al17  1  0.332521  0.331565  0.948302  1
  Al  Al18  1  0.340655  0.541940  0.250406  1
  Al  Al19  1  0.657927  0.454329  0.746824  1
  Al  Al20  1  0.543829  0.340974  0.253114  1
  Al  Al21  1  0.457911  0.660188  0.749562  1
  Ir  Ir22  1  0.670671  0.329254  0.499809  1
  Ir  Ir23  1  0.999884  0.000061  0.000064  1
  Ir  Ir24  1  0.000159  0.999801  0.499891  1
  Pt  Pt25  1  0.670588  0.329103  0.000021  1
  Pt  Pt26  1  0.328901  0.671115  0.999971  1
  Pt  Pt27  1  0.328967  0.671007  0.500006  1
