# generated using pymatgen
data_Lu2Th3Bi3C
_symmetry_space_group_name_H-M   'P 1'
_cell_length_a   9.31756600
_cell_length_b   9.31756749
_cell_length_c   6.44180800
_cell_angle_alpha   90.00000000
_cell_angle_beta   90.00000000
_cell_angle_gamma   120.00000181
_symmetry_Int_Tables_number   1
_chemical_formula_structural   Lu2Th3Bi3C
_chemical_formula_sum   'Lu4 Th6 Bi6 C2'
_cell_volume   484.33229110
_cell_formula_units_Z   2
loop_
 _symmetry_equiv_pos_site_id
 _symmetry_equiv_pos_as_xyz
  1  'x, y, z'
loop_
 _atom_site_type_symbol
 _atom_site_label
 _atom_site_symmetry_multiplicity
 _atom_site_fract_x
 _atom_site_fract_y
 _atom_site_fract_z
 _atom_site_occupancy
  Lu  Lu0  1  0.666667  0.333333  0.000000  1
  Lu  Lu1  1  0.333333  0.666667  0.000000  1
  Lu  Lu2  1  0.333333  0.666667  0.500000  1
  Lu  Lu3  1  0.666667  0.333333  0.500000  1
  Th  Th4  1  0.779698  0.779698  0.750000  1
  Th  Th5  1  0.220302  0.000000  0.750000  1
  Th  Th6  1  0.000000  0.220302  0.750000  1
  Th  Th7  1  0.220302  0.220302  0.250000  1
  Th  Th8  1  0.779698  0.000000  0.250000  1
  Th  Th9  1  0.000000  0.779698  0.250000  1
  Bi  Bi10  1  0.406521  0.406521  0.750000  1
  Bi  Bi11  1  0.593479  0.000000  0.750000  1
  Bi  Bi12  1  0.000000  0.593479  0.750000  1
  Bi  Bi13  1  0.593479  0.593479  0.250000  1
  Bi  Bi14  1  0.406521  0.000000  0.250000  1
  Bi  Bi15  1  0.000000  0.406521  0.250000  1
  C  C16  1  0.000000  0.000000  0.000000  1
  C  C17  1  0.000000  0.000000  0.500000  1
