# generated using pymatgen
data_SmAg3(Pt2O7)2
_symmetry_space_group_name_H-M   'P 1'
_cell_length_a   7.28207952
_cell_length_b   7.22431481
_cell_length_c   7.22431500
_cell_angle_alpha   59.99999457
_cell_angle_beta   60.26205277
_cell_angle_gamma   60.26205582
_symmetry_Int_Tables_number   1
_chemical_formula_structural   SmAg3(Pt2O7)2
_chemical_formula_sum   'Sm1 Ag3 Pt4 O14'
_cell_volume   269.80043680
_cell_formula_units_Z   1
loop_
 _symmetry_equiv_pos_site_id
 _symmetry_equiv_pos_as_xyz
  1  'x, y, z'
loop_
 _atom_site_type_symbol
 _atom_site_label
 _atom_site_symmetry_multiplicity
 _atom_site_fract_x
 _atom_site_fract_y
 _atom_site_fract_z
 _atom_site_occupancy
  Sm  Sm0  1  0.625000  0.125000  0.125000  1
  Ag  Ag1  1  0.125000  0.125000  0.125000  1
  Ag  Ag2  1  0.125000  0.625000  0.125000  1
  Ag  Ag3  1  0.125000  0.125000  0.625000  1
  Pt  Pt4  1  0.625000  0.625000  0.125000  1
  Pt  Pt5  1  0.625000  0.625000  0.625000  1
  Pt  Pt6  1  0.625000  0.125000  0.625000  1
  Pt  Pt7  1  0.125000  0.625000  0.625000  1
  O  O8  1  0.701832  0.291172  0.291172  1
  O  O9  1  0.701832  0.291172  0.715823  1
  O  O10  1  0.030025  0.989992  0.989992  1
  O  O11  1  0.296245  0.705264  0.293228  1
  O  O12  1  0.701832  0.715823  0.291172  1
  O  O13  1  0.953755  0.544736  0.544736  1
  O  O14  1  0.296245  0.705264  0.705264  1
  O  O15  1  0.219975  0.260008  0.260008  1
  O  O16  1  0.953755  0.544736  0.956772  1
  O  O17  1  0.548168  0.958828  0.534177  1
  O  O18  1  0.548168  0.534177  0.958828  1
  O  O19  1  0.953755  0.956772  0.544736  1
  O  O20  1  0.548168  0.958828  0.958828  1
  O  O21  1  0.296245  0.293228  0.705264  1
