# generated using pymatgen
data_CaErHf2(NiAs)4
_symmetry_space_group_name_H-M   'P 1'
_cell_length_a   3.98816600
_cell_length_b   3.98816557
_cell_length_c   15.03933100
_cell_angle_alpha   90.00000000
_cell_angle_beta   90.00000000
_cell_angle_gamma   120.00002013
_symmetry_Int_Tables_number   1
_chemical_formula_structural   CaErHf2(NiAs)4
_chemical_formula_sum   'Ca1 Er1 Hf2 Ni4 As4'
_cell_volume   207.15979297
_cell_formula_units_Z   1
loop_
 _symmetry_equiv_pos_site_id
 _symmetry_equiv_pos_as_xyz
  1  'x, y, z'
loop_
 _atom_site_type_symbol
 _atom_site_label
 _atom_site_symmetry_multiplicity
 _atom_site_fract_x
 _atom_site_fract_y
 _atom_site_fract_z
 _atom_site_occupancy
  Ca  Ca0  1  0.000000  0.000000  0.000000  1
  Er  Er1  1  0.000000  0.000000  0.500000  1
  Hf  Hf2  1  0.000000  0.000000  0.251399  1
  Hf  Hf3  1  0.000000  0.000000  0.748601  1
  Ni  Ni4  1  0.333333  0.666667  0.163330  1
  Ni  Ni5  1  0.666667  0.333333  0.836670  1
  Ni  Ni6  1  0.666667  0.333333  0.653004  1
  Ni  Ni7  1  0.333333  0.666667  0.346996  1
  As  As8  1  0.333333  0.666667  0.619449  1
  As  As9  1  0.666667  0.333333  0.380551  1
  As  As10  1  0.666667  0.333333  0.128843  1
  As  As11  1  0.333333  0.666667  0.871157  1
