# generated using pymatgen
data_CaMn2(Sb6Ru)2
_symmetry_space_group_name_H-M   'P 1'
_cell_length_a   8.13567078
_cell_length_b   8.14514048
_cell_length_c   8.14543667
_cell_angle_alpha   109.55322382
_cell_angle_beta   109.48717163
_cell_angle_gamma   109.42466652
_symmetry_Int_Tables_number   1
_chemical_formula_structural   CaMn2(Sb6Ru)2
_chemical_formula_sum   'Ca1 Mn2 Sb12 Ru2'
_cell_volume   415.24863830
_cell_formula_units_Z   1
loop_
 _symmetry_equiv_pos_site_id
 _symmetry_equiv_pos_as_xyz
  1  'x, y, z'
loop_
 _atom_site_type_symbol
 _atom_site_label
 _atom_site_symmetry_multiplicity
 _atom_site_fract_x
 _atom_site_fract_y
 _atom_site_fract_z
 _atom_site_occupancy
  Ca  Ca0  1  0.000000  0.000000  0.000000  1
  Mn  Mn1  1  0.500000  0.500000  0.500000  1
  Mn  Mn2  1  0.500000  0.000000  0.000000  1
  Sb  Sb3  1  0.157989  0.495379  0.338434  1
  Sb  Sb4  1  0.503474  0.659934  0.843648  1
  Sb  Sb5  1  0.338396  0.842556  0.181399  1
  Sb  Sb6  1  0.820618  0.662471  0.158153  1
  Sb  Sb7  1  0.661625  0.843058  0.504157  1
  Sb  Sb8  1  0.179382  0.337529  0.841847  1
  Sb  Sb9  1  0.661604  0.157444  0.818601  1
  Sb  Sb10  1  0.338375  0.156942  0.495843  1
  Sb  Sb11  1  0.496526  0.340066  0.156352  1
  Sb  Sb12  1  0.842011  0.504621  0.661566  1
  Sb  Sb13  1  0.841956  0.180407  0.337342  1
  Sb  Sb14  1  0.158044  0.819593  0.662658  1
  Ru  Ru15  1  0.000000  0.500000  0.000000  1
  Ru  Ru16  1  0.000000  0.000000  0.500000  1
