# generated using pymatgen
data_DyU(AlC)6
_symmetry_space_group_name_H-M   'P 1'
_cell_length_a   3.41418400
_cell_length_b   3.41418443
_cell_length_c   17.36165800
_cell_angle_alpha   90.00000000
_cell_angle_beta   90.00000000
_cell_angle_gamma   120.00001518
_symmetry_Int_Tables_number   1
_chemical_formula_structural   DyU(AlC)6
_chemical_formula_sum   'Dy1 U1 Al6 C6'
_cell_volume   175.26518793
_cell_formula_units_Z   1
loop_
 _symmetry_equiv_pos_site_id
 _symmetry_equiv_pos_as_xyz
  1  'x, y, z'
loop_
 _atom_site_type_symbol
 _atom_site_label
 _atom_site_symmetry_multiplicity
 _atom_site_fract_x
 _atom_site_fract_y
 _atom_site_fract_z
 _atom_site_occupancy
  Dy  Dy0  1  0.000000  0.000000  0.000000  1
  U  U1  1  0.000000  0.000000  0.500000  1
  Al  Al2  1  0.333333  0.666667  0.365796  1
  Al  Al3  1  0.666667  0.333333  0.634204  1
  Al  Al4  1  0.666667  0.333333  0.867090  1
  Al  Al5  1  0.333333  0.666667  0.132910  1
  Al  Al6  1  0.333333  0.666667  0.756213  1
  Al  Al7  1  0.666667  0.333333  0.243787  1
  C  C8  1  0.333333  0.666667  0.903983  1
  C  C9  1  0.666667  0.333333  0.096017  1
  C  C10  1  0.666667  0.333333  0.408688  1
  C  C11  1  0.333333  0.666667  0.591312  1
  C  C12  1  0.333333  0.666667  0.250381  1
  C  C13  1  0.666667  0.333333  0.749619  1
