# generated using pymatgen
data_Rb2Y10Ir2Br17
_symmetry_space_group_name_H-M   'P 1'
_cell_length_a   9.36256750
_cell_length_b   10.95187266
_cell_length_c   10.95200200
_cell_angle_alpha   107.98547966
_cell_angle_beta   93.57737727
_cell_angle_gamma   93.57836266
_symmetry_Int_Tables_number   1
_chemical_formula_structural   Rb2Y10Ir2Br17
_chemical_formula_sum   'Rb2 Y10 Ir2 Br17'
_cell_volume   1062.08238964
_cell_formula_units_Z   1
loop_
 _symmetry_equiv_pos_site_id
 _symmetry_equiv_pos_as_xyz
  1  'x, y, z'
loop_
 _atom_site_type_symbol
 _atom_site_label
 _atom_site_symmetry_multiplicity
 _atom_site_fract_x
 _atom_site_fract_y
 _atom_site_fract_z
 _atom_site_occupancy
  Rb  Rb0  1  0.999974  0.803070  0.196893  1
  Rb  Rb1  1  0.000037  0.196927  0.803127  1
  Y  Y2  1  0.430599  0.168859  0.168808  1
  Y  Y3  1  0.570839  0.511320  0.201710  1
  Y  Y4  1  0.821915  0.289438  0.289453  1
  Y  Y5  1  0.306371  0.437622  0.437623  1
  Y  Y6  1  0.429179  0.798343  0.488744  1
  Y  Y7  1  0.570836  0.201658  0.511272  1
  Y  Y8  1  0.693643  0.562361  0.562372  1
  Y  Y9  1  0.178086  0.710557  0.710535  1
  Y  Y10  1  0.429143  0.488689  0.798273  1
  Y  Y11  1  0.569414  0.831138  0.831177  1
  Ir  Ir12  1  0.565982  0.360006  0.360006  1
  Ir  Ir13  1  0.434041  0.640000  0.639992  1
  Br  Br14  1  0.585412  0.683393  0.019412  1
  Br  Br15  1  0.700139  0.065788  0.065814  1
  Br  Br16  1  0.850593  0.444822  0.117838  1
  Br  Br17  1  0.127363  0.214205  0.214212  1
  Br  Br18  1  0.285507  0.611640  0.254726  1
  Br  Br19  1  0.414597  0.980568  0.316562  1
  Br  Br20  1  0.714533  0.745318  0.388403  1
  Br  Br21  1  0.850622  0.117811  0.444860  1
  Br  Br22  1  0.000006  0.499999  0.499999  1
  Br  Br23  1  0.149367  0.882198  0.555180  1
  Br  Br24  1  0.285472  0.254669  0.611589  1
  Br  Br25  1  0.585428  0.019446  0.683428  1
  Br  Br26  1  0.714459  0.388395  0.745306  1
  Br  Br27  1  0.872612  0.785792  0.785779  1
  Br  Br28  1  0.149381  0.555158  0.882163  1
  Br  Br29  1  0.299855  0.934189  0.934177  1
  Br  Br30  1  0.414596  0.316621  0.980570  1
