# generated using pymatgen
data_Pr17Y3(SnPb)8
_symmetry_space_group_name_H-M   'P 1'
_cell_length_a   8.34311800
_cell_length_b   8.46896413
_cell_length_c   16.14606300
_cell_angle_alpha   90.00000000
_cell_angle_beta   90.00000000
_cell_angle_gamma   90.01014807
_symmetry_Int_Tables_number   1
_chemical_formula_structural   Pr17Y3(SnPb)8
_chemical_formula_sum   'Pr17 Y3 Sn8 Pb8'
_cell_volume   1140.84151190
_cell_formula_units_Z   1
loop_
 _symmetry_equiv_pos_site_id
 _symmetry_equiv_pos_as_xyz
  1  'x, y, z'
loop_
 _atom_site_type_symbol
 _atom_site_label
 _atom_site_symmetry_multiplicity
 _atom_site_fract_x
 _atom_site_fract_y
 _atom_site_fract_z
 _atom_site_occupancy
  Pr  Pr0  1  0.623999  0.160092  0.622138  1
  Pr  Pr1  1  0.124096  0.340137  0.878887  1
  Pr  Pr2  1  0.375368  0.839211  0.120588  1
  Pr  Pr3  1  0.876723  0.659994  0.379607  1
  Pr  Pr4  1  0.375368  0.839211  0.379412  1
  Pr  Pr5  1  0.876723  0.659994  0.120393  1
  Pr  Pr6  1  0.623999  0.160092  0.877862  1
  Pr  Pr7  1  0.124096  0.340137  0.621113  1
  Pr  Pr8  1  0.469632  0.679291  0.602424  1
  Pr  Pr9  1  0.969613  0.820716  0.896746  1
  Pr  Pr10  1  0.529810  0.321736  0.102130  1
  Pr  Pr11  1  0.030509  0.180153  0.398082  1
  Pr  Pr12  1  0.529810  0.321736  0.397870  1
  Pr  Pr13  1  0.030509  0.180153  0.101918  1
  Pr  Pr14  1  0.469632  0.679291  0.897576  1
  Pr  Pr15  1  0.969613  0.820716  0.603254  1
  Pr  Pr16  1  0.707017  0.997748  0.250000  1
  Y  Y17  1  0.791456  0.497480  0.750000  1
  Y  Y18  1  0.291307  0.002626  0.750000  1
  Y  Y19  1  0.208588  0.503375  0.250000  1
  Sn  Sn20  1  0.426883  0.380303  0.750000  1
  Sn  Sn21  1  0.927448  0.120494  0.750000  1
  Sn  Sn22  1  0.572252  0.617072  0.250000  1
  Sn  Sn23  1  0.077543  0.878119  0.250000  1
  Sn  Sn24  1  0.663878  0.851774  0.750000  1
  Sn  Sn25  1  0.164743  0.647055  0.750000  1
  Sn  Sn26  1  0.332812  0.148646  0.250000  1
  Sn  Sn27  1  0.836519  0.357811  0.250000  1
  Pb  Pb28  1  0.717039  0.967147  0.457755  1
  Pb  Pb29  1  0.217386  0.530857  0.044550  1
  Pb  Pb30  1  0.282993  0.030971  0.954912  1
  Pb  Pb31  1  0.782608  0.468446  0.545102  1
  Pb  Pb32  1  0.282993  0.030971  0.545088  1
  Pb  Pb33  1  0.782608  0.468446  0.954898  1
  Pb  Pb34  1  0.717039  0.967147  0.042245  1
  Pb  Pb35  1  0.217386  0.530857  0.455450  1
