# generated using pymatgen
data_Ta9(MnS3)2
_symmetry_space_group_name_H-M   'P 1'
_cell_length_a   10.36266800
_cell_length_b   10.36266823
_cell_length_c   6.69803200
_cell_angle_alpha   90.00000000
_cell_angle_beta   90.00000000
_cell_angle_gamma   119.99999928
_symmetry_Int_Tables_number   1
_chemical_formula_structural   Ta9(MnS3)2
_chemical_formula_sum   'Ta18 Mn4 S12'
_cell_volume   622.90387306
_cell_formula_units_Z   2
loop_
 _symmetry_equiv_pos_site_id
 _symmetry_equiv_pos_as_xyz
  1  'x, y, z'
loop_
 _atom_site_type_symbol
 _atom_site_label
 _atom_site_symmetry_multiplicity
 _atom_site_fract_x
 _atom_site_fract_y
 _atom_site_fract_z
 _atom_site_occupancy
  Ta  Ta0  1  0.731951  0.188240  0.500000  1
  Ta  Ta1  1  0.473023  0.259873  0.000000  1
  Ta  Ta2  1  0.542261  0.542261  0.247561  1
  Ta  Ta3  1  0.000000  0.457739  0.752439  1
  Ta  Ta4  1  0.543712  0.811760  0.500000  1
  Ta  Ta5  1  0.188240  0.731951  0.500000  1
  Ta  Ta6  1  0.268049  0.456288  0.500000  1
  Ta  Ta7  1  0.457739  0.000000  0.752439  1
  Ta  Ta8  1  0.811760  0.543712  0.500000  1
  Ta  Ta9  1  0.740127  0.213150  0.000000  1
  Ta  Ta10  1  0.259873  0.473023  0.000000  1
  Ta  Ta11  1  0.786850  0.526977  0.000000  1
  Ta  Ta12  1  0.000000  0.457739  0.247561  1
  Ta  Ta13  1  0.526977  0.786850  0.000000  1
  Ta  Ta14  1  0.456288  0.268049  0.500000  1
  Ta  Ta15  1  0.542261  0.542261  0.752439  1
  Ta  Ta16  1  0.457739  0.000000  0.247561  1
  Ta  Ta17  1  0.213150  0.740127  0.000000  1
  Mn  Mn18  1  0.666667  0.333333  0.279359  1
  Mn  Mn19  1  0.666667  0.333333  0.720641  1
  Mn  Mn20  1  0.333333  0.666667  0.720641  1
  Mn  Mn21  1  0.333333  0.666667  0.279359  1
  S  S22  1  0.296249  0.296249  0.763664  1
  S  S23  1  0.703751  0.000000  0.763664  1
  S  S24  1  0.723373  0.723373  0.500000  1
  S  S25  1  0.276012  0.000000  0.000000  1
  S  S26  1  0.000000  0.703751  0.763664  1
  S  S27  1  0.296249  0.296249  0.236336  1
  S  S28  1  0.000000  0.703751  0.236336  1
  S  S29  1  0.000000  0.276627  0.500000  1
  S  S30  1  0.000000  0.276012  0.000000  1
  S  S31  1  0.723988  0.723988  0.000000  1
  S  S32  1  0.703751  0.000000  0.236336  1
  S  S33  1  0.276627  0.000000  0.500000  1
