# generated using pymatgen
data_Tb3YMgP12Ru19
_symmetry_space_group_name_H-M   'P 1'
_cell_length_a   12.49691325
_cell_length_b   12.52257260
_cell_length_c   3.99681100
_cell_angle_alpha   90.00000000
_cell_angle_beta   90.00000000
_cell_angle_gamma   120.07912200
_symmetry_Int_Tables_number   1
_chemical_formula_structural   Tb3YMgP12Ru19
_chemical_formula_sum   'Tb3 Y1 Mg1 P12 Ru19'
_cell_volume   541.24481317
_cell_formula_units_Z   1
loop_
 _symmetry_equiv_pos_site_id
 _symmetry_equiv_pos_as_xyz
  1  'x, y, z'
loop_
 _atom_site_type_symbol
 _atom_site_label
 _atom_site_symmetry_multiplicity
 _atom_site_fract_x
 _atom_site_fract_y
 _atom_site_fract_z
 _atom_site_occupancy
  Tb  Tb0  1  0.816401  0.815912  0.500000  1
  Tb  Tb1  1  0.672925  0.332739  0.000000  1
  Tb  Tb2  1  0.327072  0.659791  0.000000  1
  Y  Y3  1  0.183540  0.999509  0.500000  1
  Mg  Mg4  1  0.999990  0.189861  0.500000  1
  P  P5  1  0.000025  0.826910  0.000000  1
  P  P6  1  0.194257  0.181374  0.000000  1
  P  P7  1  0.805720  0.987139  0.000000  1
  P  P8  1  0.698614  0.169431  0.500000  1
  P  P9  1  0.830824  0.525131  0.500000  1
  P  P10  1  0.480890  0.306538  0.500000  1
  P  P11  1  0.169190  0.694279  0.500000  1
  P  P12  1  0.519114  0.825649  0.500000  1
  P  P13  1  0.301370  0.470787  0.500000  1
  P  P14  1  0.000005  0.381078  0.000000  1
  P  P15  1  0.625125  0.625924  0.000000  1
  P  P16  1  0.374886  0.000777  0.000000  1
  Ru  Ru17  1  0.000002  0.560459  0.000000  1
  Ru  Ru18  1  0.439896  0.445917  0.000000  1
  Ru  Ru19  1  0.560108  0.006009  0.000000  1
  Ru  Ru20  1  0.000057  0.721594  0.500000  1
  Ru  Ru21  1  0.283470  0.279779  0.500000  1
  Ru  Ru22  1  0.716543  0.996378  0.500000  1
  Ru  Ru23  1  0.825207  0.182641  0.000000  1
  Ru  Ru24  1  0.815534  0.627400  0.000000  1
  Ru  Ru25  1  0.384441  0.194979  0.000000  1
  Ru  Ru26  1  0.184486  0.811939  0.000000  1
  Ru  Ru27  1  0.615513  0.810578  0.000000  1
  Ru  Ru28  1  0.174758  0.357384  0.000000  1
  Ru  Ru29  1  0.874308  0.364792  0.500000  1
  Ru  Ru30  1  0.633522  0.508679  0.500000  1
  Ru  Ru31  1  0.496479  0.126695  0.500000  1
  Ru  Ru32  1  0.366478  0.875153  0.500000  1
  Ru  Ru33  1  0.503525  0.630221  0.500000  1
  Ru  Ru34  1  0.125699  0.490475  0.500000  1
  Ru  Ru35  1  0.000027  0.016092  0.000000  1
