# generated using pymatgen
data_Dy2HoCo3(PRu)6
_symmetry_space_group_name_H-M   'P 1'
_cell_length_a   3.87832200
_cell_length_b   10.76581000
_cell_length_c   12.55824600
_cell_angle_alpha   90.00000000
_cell_angle_beta   90.00000000
_cell_angle_gamma   90.00000000
_symmetry_Int_Tables_number   1
_chemical_formula_structural   Dy2HoCo3(PRu)6
_chemical_formula_sum   'Dy4 Ho2 Co6 P12 Ru12'
_cell_volume   524.34793355
_cell_formula_units_Z   2
loop_
 _symmetry_equiv_pos_site_id
 _symmetry_equiv_pos_as_xyz
  1  'x, y, z'
loop_
 _atom_site_type_symbol
 _atom_site_label
 _atom_site_symmetry_multiplicity
 _atom_site_fract_x
 _atom_site_fract_y
 _atom_site_fract_z
 _atom_site_occupancy
  Dy  Dy0  1  0.000000  0.500000  0.526372  1
  Dy  Dy1  1  0.500000  0.000000  0.471821  1
  Dy  Dy2  1  0.000000  0.681018  0.797233  1
  Dy  Dy3  1  0.000000  0.318982  0.797233  1
  Ho  Ho4  1  0.500000  0.822343  0.203662  1
  Ho  Ho5  1  0.500000  0.177657  0.203662  1
  Co  Co6  1  0.000000  0.500000  0.985586  1
  Co  Co7  1  0.500000  0.000000  0.016458  1
  Co  Co8  1  0.000000  0.161016  0.012995  1
  Co  Co9  1  0.000000  0.838984  0.012995  1
  Co  Co10  1  0.500000  0.500000  0.699871  1
  Co  Co11  1  0.000000  0.000000  0.299665  1
  P  P12  1  0.500000  0.313059  0.617667  1
  P  P13  1  0.500000  0.686941  0.617667  1
  P  P14  1  0.000000  0.187309  0.381823  1
  P  P15  1  0.000000  0.812691  0.381823  1
  P  P16  1  0.500000  0.500000  0.879203  1
  P  P17  1  0.000000  0.000000  0.121214  1
  P  P18  1  0.500000  0.852703  0.896622  1
  P  P19  1  0.500000  0.147297  0.896622  1
  P  P20  1  0.000000  0.656408  0.100601  1
  P  P21  1  0.000000  0.343592  0.100601  1
  P  P22  1  0.500000  0.500000  0.338776  1
  P  P23  1  0.000000  0.000000  0.660837  1
  Ru  Ru24  1  0.500000  0.299010  0.428089  1
  Ru  Ru25  1  0.500000  0.700990  0.428089  1
  Ru  Ru26  1  0.000000  0.201307  0.571425  1
  Ru  Ru27  1  0.000000  0.798693  0.571425  1
  Ru  Ru28  1  0.500000  0.876518  0.714928  1
  Ru  Ru29  1  0.500000  0.123482  0.714928  1
  Ru  Ru30  1  0.000000  0.625482  0.282404  1
  Ru  Ru31  1  0.000000  0.374518  0.282404  1
  Ru  Ru32  1  0.500000  0.327751  0.990720  1
  Ru  Ru33  1  0.500000  0.672249  0.990720  1
  Ru  Ru34  1  0.500000  0.500000  0.152373  1
  Ru  Ru35  1  0.000000  0.000000  0.851485  1
