# generated using pymatgen
data_YbPu(NiGe)2
_symmetry_space_group_name_H-M   'P 1'
_cell_length_a   4.28221600
_cell_length_b   6.90636900
_cell_length_c   7.10705400
_cell_angle_alpha   90.00000000
_cell_angle_beta   90.00000000
_cell_angle_gamma   90.00000000
_symmetry_Int_Tables_number   1
_chemical_formula_structural   YbPu(NiGe)2
_chemical_formula_sum   'Yb2 Pu2 Ni4 Ge4'
_cell_volume   210.18802219
_cell_formula_units_Z   2
loop_
 _symmetry_equiv_pos_site_id
 _symmetry_equiv_pos_as_xyz
  1  'x, y, z'
loop_
 _atom_site_type_symbol
 _atom_site_label
 _atom_site_symmetry_multiplicity
 _atom_site_fract_x
 _atom_site_fract_y
 _atom_site_fract_z
 _atom_site_occupancy
  Yb  Yb0  1  0.750000  0.985970  0.198774  1
  Yb  Yb1  1  0.750000  0.485970  0.301226  1
  Pu  Pu2  1  0.250000  0.016828  0.806971  1
  Pu  Pu3  1  0.250000  0.516828  0.693029  1
  Ni  Ni4  1  0.250000  0.806651  0.411879  1
  Ni  Ni5  1  0.250000  0.306651  0.088121  1
  Ni  Ni6  1  0.750000  0.188240  0.583243  1
  Ni  Ni7  1  0.750000  0.688240  0.916757  1
  Ge  Ge8  1  0.250000  0.186380  0.410378  1
  Ge  Ge9  1  0.250000  0.686380  0.089622  1
  Ge  Ge10  1  0.750000  0.815931  0.587402  1
  Ge  Ge11  1  0.750000  0.315931  0.912598  1
