# generated using pymatgen
data_Hf6FeCo4Sn6Au
_symmetry_space_group_name_H-M   'P 1'
_cell_length_a   7.20457000
_cell_length_b   7.20457067
_cell_length_c   7.17781900
_cell_angle_alpha   90.00000000
_cell_angle_beta   90.00000000
_cell_angle_gamma   119.99998772
_symmetry_Int_Tables_number   1
_chemical_formula_structural   Hf6FeCo4Sn6Au
_chemical_formula_sum   'Hf6 Fe1 Co4 Sn6 Au1'
_cell_volume   322.65571324
_cell_formula_units_Z   1
loop_
 _symmetry_equiv_pos_site_id
 _symmetry_equiv_pos_as_xyz
  1  'x, y, z'
loop_
 _atom_site_type_symbol
 _atom_site_label
 _atom_site_symmetry_multiplicity
 _atom_site_fract_x
 _atom_site_fract_y
 _atom_site_fract_z
 _atom_site_occupancy
  Hf  Hf0  1  0.996224  0.393571  0.755536  1
  Hf  Hf1  1  0.606429  0.602653  0.755536  1
  Hf  Hf2  1  0.397347  0.003776  0.755536  1
  Hf  Hf3  1  0.962114  0.378395  0.245065  1
  Hf  Hf4  1  0.621605  0.583718  0.245065  1
  Hf  Hf5  1  0.416282  0.037886  0.245065  1
  Fe  Fe6  1  0.666667  0.333333  0.527028  1
  Co  Co7  1  0.333333  0.666667  0.038177  1
  Co  Co8  1  0.000000  0.000000  0.759215  1
  Co  Co9  1  0.000000  0.000000  0.246348  1
  Co  Co10  1  0.666667  0.333333  0.958970  1
  Sn  Sn11  1  0.262328  0.255809  0.504824  1
  Sn  Sn12  1  0.993482  0.737672  0.504824  1
  Sn  Sn13  1  0.012439  0.736085  0.001046  1
  Sn  Sn14  1  0.744191  0.006518  0.504824  1
  Sn  Sn15  1  0.723646  0.987561  0.001046  1
  Sn  Sn16  1  0.263915  0.276354  0.001046  1
  Au  Au17  1  0.333333  0.666667  0.450849  1
