# generated using pymatgen
data_Er3Ta2Nb(B2Ru5)2
_symmetry_space_group_name_H-M   'P 1'
_cell_length_a   9.57852384
_cell_length_b   9.57852434
_cell_length_c   3.11559100
_cell_angle_alpha   90.00000000
_cell_angle_beta   90.00000000
_cell_angle_gamma   90.26983470
_symmetry_Int_Tables_number   1
_chemical_formula_structural   Er3Ta2Nb(B2Ru5)2
_chemical_formula_sum   'Er3 Ta2 Nb1 B4 Ru10'
_cell_volume   285.84645856
_cell_formula_units_Z   1
loop_
 _symmetry_equiv_pos_site_id
 _symmetry_equiv_pos_as_xyz
  1  'x, y, z'
loop_
 _atom_site_type_symbol
 _atom_site_label
 _atom_site_symmetry_multiplicity
 _atom_site_fract_x
 _atom_site_fract_y
 _atom_site_fract_z
 _atom_site_occupancy
  Er  Er0  1  0.824144  0.674786  0.000000  1
  Er  Er1  1  0.174786  0.324144  0.000000  1
  Er  Er2  1  0.325634  0.825634  0.000000  1
  Ta  Ta3  1  0.497994  0.503300  0.000000  1
  Ta  Ta4  1  0.003300  0.997994  0.000000  1
  Nb  Nb5  1  0.675548  0.175548  0.000000  1
  B  B6  1  0.623684  0.880943  0.000000  1
  B  B7  1  0.380943  0.123684  0.000000  1
  B  B8  1  0.119072  0.619072  0.000000  1
  B  B9  1  0.876195  0.376195  0.000000  1
  Ru  Ru10  1  0.571354  0.721752  0.500000  1
  Ru  Ru11  1  0.439984  0.280840  0.500000  1
  Ru  Ru12  1  0.069501  0.780382  0.500000  1
  Ru  Ru13  1  0.916548  0.213227  0.500000  1
  Ru  Ru14  1  0.280382  0.569501  0.500000  1
  Ru  Ru15  1  0.713227  0.416548  0.500000  1
  Ru  Ru16  1  0.221752  0.071354  0.500000  1
  Ru  Ru17  1  0.780840  0.939984  0.500000  1
  Ru  Ru18  1  0.509051  0.009051  0.500000  1
  Ru  Ru19  1  0.996062  0.496062  0.500000  1
