# generated using pymatgen
data_Nd2Eu(AgSn)4
_symmetry_space_group_name_H-M   'P 1'
_cell_length_a   8.94811098
_cell_length_b   8.94811022
_cell_length_c   8.94811050
_cell_angle_alpha   149.43193259
_cell_angle_beta   130.53006728
_cell_angle_gamma   59.27802723
_symmetry_Int_Tables_number   1
_chemical_formula_structural   Nd2Eu(AgSn)4
_chemical_formula_sum   'Nd2 Eu1 Ag4 Sn4'
_cell_volume   274.73834964
_cell_formula_units_Z   1
loop_
 _symmetry_equiv_pos_site_id
 _symmetry_equiv_pos_as_xyz
  1  'x, y, z'
loop_
 _atom_site_type_symbol
 _atom_site_label
 _atom_site_symmetry_multiplicity
 _atom_site_fract_x
 _atom_site_fract_y
 _atom_site_fract_z
 _atom_site_occupancy
  Nd  Nd0  1  0.870621  0.870621  0.000000  1
  Nd  Nd1  1  0.129379  0.129379  0.000000  1
  Eu  Eu2  1  0.500000  0.000000  0.500000  1
  Ag  Ag3  1  0.474607  0.670337  0.804271  1
  Ag  Ag4  1  0.866066  0.670337  0.195729  1
  Ag  Ag5  1  0.133934  0.329663  0.804271  1
  Ag  Ag6  1  0.525393  0.329663  0.195729  1
  Sn  Sn7  1  0.283984  0.783984  0.500000  1
  Sn  Sn8  1  0.716016  0.216016  0.500000  1
  Sn  Sn9  1  0.809497  0.500000  0.309497  1
  Sn  Sn10  1  0.190503  0.500000  0.690503  1
