# generated using pymatgen
data_Zr2Cu2IrRhS8
_symmetry_space_group_name_H-M   'P 1'
_cell_length_a   7.15836186
_cell_length_b   7.13175823
_cell_length_c   7.13177160
_cell_angle_alpha   119.62616475
_cell_angle_beta   118.40410959
_cell_angle_gamma   91.61034591
_symmetry_Int_Tables_number   1
_chemical_formula_structural   Zr2Cu2IrRhS8
_chemical_formula_sum   'Zr2 Cu2 Ir1 Rh1 S8'
_cell_volume   261.37045335
_cell_formula_units_Z   1
loop_
 _symmetry_equiv_pos_site_id
 _symmetry_equiv_pos_as_xyz
  1  'x, y, z'
loop_
 _atom_site_type_symbol
 _atom_site_label
 _atom_site_symmetry_multiplicity
 _atom_site_fract_x
 _atom_site_fract_y
 _atom_site_fract_z
 _atom_site_occupancy
  Zr  Zr0  1  0.971236  0.181840  0.716775  1
  Zr  Zr1  1  0.028763  0.745537  0.210605  1
  Cu  Cu2  1  0.377688  0.413620  0.534033  1
  Cu  Cu3  1  0.622380  0.156366  0.035973  1
  Ir  Ir4  1  0.999993  0.761602  0.761593  1
  Rh  Rh5  1  0.499984  0.758851  0.258848  1
  S  S6  1  0.241321  0.971303  0.728761  1
  S  S7  1  0.745150  0.973755  0.234268  1
  S  S8  1  0.759858  0.545503  0.288665  1
  S  S9  1  0.723869  0.958659  0.734986  1
  S  S10  1  0.758691  0.487430  0.729971  1
  S  S11  1  0.240121  0.528799  0.785625  1
  S  S12  1  0.276118  0.011117  0.234783  1
  S  S13  1  0.254830  0.489110  0.228612  1
