# generated using pymatgen
data_CoNi8
_symmetry_space_group_name_H-M   'P 1'
_cell_length_a   5.53811275
_cell_length_b   5.53811184
_cell_length_c   5.53811249
_cell_angle_alpha   95.78440689
_cell_angle_beta   95.78440474
_cell_angle_gamma   142.98033762
_symmetry_Int_Tables_number   1
_chemical_formula_structural   CoNi8
_chemical_formula_sum   'Co1 Ni8'
_cell_volume   96.97899366
_cell_formula_units_Z   1
loop_
 _symmetry_equiv_pos_site_id
 _symmetry_equiv_pos_as_xyz
  1  'x, y, z'
loop_
 _atom_site_type_symbol
 _atom_site_label
 _atom_site_symmetry_multiplicity
 _atom_site_fract_x
 _atom_site_fract_y
 _atom_site_fract_z
 _atom_site_occupancy
  Co  Co0  1  0.000000  0.000000  0.000000  1
  Ni  Ni1  1  0.665245  0.334756  0.000000  1
  Ni  Ni2  1  0.334756  0.665245  0.000000  1
  Ni  Ni3  1  0.665245  0.665245  0.330488  1
  Ni  Ni4  1  0.332203  0.000000  0.332203  1
  Ni  Ni5  1  0.000000  0.332203  0.332203  1
  Ni  Ni6  1  0.667797  0.000000  0.667797  1
  Ni  Ni7  1  0.000000  0.667797  0.667797  1
  Ni  Ni8  1  0.334755  0.334755  0.669511  1
