# generated using pymatgen
data_Tm11LuFe3Sn2
_symmetry_space_group_name_H-M   'P 1'
_cell_length_a   8.24202529
_cell_length_b   8.23686767
_cell_length_c   8.23676319
_cell_angle_alpha   108.60413723
_cell_angle_beta   108.65556989
_cell_angle_gamma   111.14164335
_symmetry_Int_Tables_number   1
_chemical_formula_structural   Tm11LuFe3Sn2
_chemical_formula_sum   'Tm11 Lu1 Fe3 Sn2'
_cell_volume   430.31497241
_cell_formula_units_Z   1
loop_
 _symmetry_equiv_pos_site_id
 _symmetry_equiv_pos_as_xyz
  1  'x, y, z'
loop_
 _atom_site_type_symbol
 _atom_site_label
 _atom_site_symmetry_multiplicity
 _atom_site_fract_x
 _atom_site_fract_y
 _atom_site_fract_z
 _atom_site_occupancy
  Tm  Tm0  1  0.307633  0.307821  0.615067  1
  Tm  Tm1  1  0.692466  0.692546  0.385194  1
  Tm  Tm2  1  0.692470  0.307278  0.999923  1
  Tm  Tm3  1  0.307634  0.692569  0.999813  1
  Tm  Tm4  1  0.192640  0.428380  0.235936  1
  Tm  Tm5  1  0.807271  0.571968  0.764282  1
  Tm  Tm6  1  0.192631  0.956703  0.764254  1
  Tm  Tm7  1  0.956594  0.192345  0.764250  1
  Tm  Tm8  1  0.807273  0.042994  0.235300  1
  Tm  Tm9  1  0.043139  0.807436  0.235703  1
  Tm  Tm10  1  0.428297  0.192496  0.235797  1
  Lu  Lu11  1  0.572190  0.807619  0.764557  1
  Fe  Fe12  1  0.384241  0.384225  0.000016  1
  Fe  Fe13  1  0.615832  0.616018  0.999820  1
  Fe  Fe14  1  0.999655  0.999835  0.999818  1
  Sn  Sn15  1  0.999982  0.499989  0.499991  1
  Sn  Sn16  1  0.500053  0.999778  0.500279  1
