# generated using pymatgen
data_Dy2Mn3Fe7P6
_symmetry_space_group_name_H-M   'P 1'
_cell_length_a   3.64111100
_cell_length_b   10.26682200
_cell_length_c   12.13592400
_cell_angle_alpha   90.00000000
_cell_angle_beta   90.00000000
_cell_angle_gamma   90.00000000
_symmetry_Int_Tables_number   1
_chemical_formula_structural   Dy2Mn3Fe7P6
_chemical_formula_sum   'Dy4 Mn6 Fe14 P12'
_cell_volume   453.67285999
_cell_formula_units_Z   2
loop_
 _symmetry_equiv_pos_site_id
 _symmetry_equiv_pos_as_xyz
  1  'x, y, z'
loop_
 _atom_site_type_symbol
 _atom_site_label
 _atom_site_symmetry_multiplicity
 _atom_site_fract_x
 _atom_site_fract_y
 _atom_site_fract_z
 _atom_site_occupancy
  Dy  Dy0  1  0.250000  0.580235  0.710340  1
  Dy  Dy1  1  0.250000  0.919765  0.210340  1
  Dy  Dy2  1  0.750000  0.419681  0.289663  1
  Dy  Dy3  1  0.750000  0.080319  0.789663  1
  Mn  Mn4  1  0.250000  0.705127  0.991368  1
  Mn  Mn5  1  0.250000  0.794873  0.491368  1
  Mn  Mn6  1  0.750000  0.293532  0.006805  1
  Mn  Mn7  1  0.750000  0.206468  0.506805  1
  Mn  Mn8  1  0.250000  0.407765  0.490750  1
  Mn  Mn9  1  0.250000  0.092235  0.990750  1
  Fe  Fe10  1  0.750000  0.589331  0.510741  1
  Fe  Fe11  1  0.750000  0.910669  0.010741  1
  Fe  Fe12  1  0.250000  0.219773  0.170845  1
  Fe  Fe13  1  0.250000  0.280227  0.670845  1
  Fe  Fe14  1  0.750000  0.778473  0.828505  1
  Fe  Fe15  1  0.750000  0.721527  0.328505  1
  Fe  Fe16  1  0.250000  0.876719  0.695154  1
  Fe  Fe17  1  0.250000  0.623281  0.195154  1
  Fe  Fe18  1  0.750000  0.122513  0.304264  1
  Fe  Fe19  1  0.750000  0.377487  0.804264  1
  Fe  Fe20  1  0.250000  0.462663  0.936331  1
  Fe  Fe21  1  0.250000  0.037337  0.436331  1
  Fe  Fe22  1  0.750000  0.537558  0.064467  1
  Fe  Fe23  1  0.750000  0.962442  0.564467  1
  P  P24  1  0.250000  0.423060  0.112994  1
  P  P25  1  0.250000  0.076940  0.612994  1
  P  P26  1  0.750000  0.575853  0.887177  1
  P  P27  1  0.750000  0.924147  0.387177  1
  P  P28  1  0.250000  0.270135  0.860029  1
  P  P29  1  0.250000  0.229865  0.360029  1
  P  P30  1  0.750000  0.731130  0.139795  1
  P  P31  1  0.750000  0.768870  0.639795  1
  P  P32  1  0.250000  0.604099  0.381211  1
  P  P33  1  0.250000  0.895901  0.881211  1
  P  P34  1  0.750000  0.396158  0.619562  1
  P  P35  1  0.750000  0.103842  0.119562  1
