# generated using pymatgen
data_Dy4Al23ZnPt9
_symmetry_space_group_name_H-M   'P 1'
_cell_length_a   7.53070078
_cell_length_b   7.54906839
_cell_length_c   13.16343291
_cell_angle_alpha   84.57207996
_cell_angle_beta   79.05495445
_cell_angle_gamma   59.91126988
_symmetry_Int_Tables_number   1
_chemical_formula_structural   Dy4Al23ZnPt9
_chemical_formula_sum   'Dy4 Al23 Zn1 Pt9'
_cell_volume   635.72132601
_cell_formula_units_Z   1
loop_
 _symmetry_equiv_pos_site_id
 _symmetry_equiv_pos_as_xyz
  1  'x, y, z'
loop_
 _atom_site_type_symbol
 _atom_site_label
 _atom_site_symmetry_multiplicity
 _atom_site_fract_x
 _atom_site_fract_y
 _atom_site_fract_z
 _atom_site_occupancy
  Dy  Dy0  1  0.393730  0.167540  0.809169  1
  Dy  Dy1  1  0.607331  0.831739  0.189751  1
  Dy  Dy2  1  0.733184  0.498906  0.809139  1
  Dy  Dy3  1  0.266814  0.501842  0.190826  1
  Al  Al4  1  0.320803  0.161813  0.054279  1
  Al  Al5  1  0.146921  0.832147  0.561970  1
  Al  Al6  1  0.853377  0.167878  0.438594  1
  Al  Al7  1  0.480296  0.166441  0.559143  1
  Al  Al8  1  0.519887  0.833538  0.441170  1
  Al  Al9  1  0.217615  0.165150  0.328337  1
  Al  Al10  1  0.783063  0.834528  0.671259  1
  Al  Al11  1  0.435892  0.506928  0.672343  1
  Al  Al12  1  0.563615  0.493532  0.328426  1
  Al  Al13  1  0.108977  0.159740  0.670678  1
  Al  Al14  1  0.890522  0.840187  0.330121  1
  Al  Al15  1  0.353119  0.499848  0.944178  1
  Al  Al16  1  0.648471  0.504577  0.054237  1
  Al  Al17  1  0.016188  0.167445  0.954110  1
  Al  Al18  1  0.981134  0.832163  0.043325  1
  Al  Al19  1  0.186582  0.499512  0.441346  1
  Al  Al20  1  0.813548  0.500455  0.559200  1
  Al  Al21  1  0.734725  0.164568  0.183249  1
  Al  Al22  1  0.264106  0.836076  0.817161  1
  Al  Al23  1  0.057960  0.632161  0.817473  1
  Al  Al24  1  0.939443  0.368214  0.184403  1
  Al  Al25  1  0.852852  0.040798  0.818322  1
  Al  Al26  1  0.144121  0.958526  0.183798  1
  Zn  Zn27  1  0.685038  0.833899  0.938521  1
  Pt  Pt28  1  0.120483  0.491781  0.638848  1
  Pt  Pt29  1  0.879807  0.508163  0.361789  1
  Pt  Pt30  1  0.657093  0.178911  0.001054  1
  Pt  Pt31  1  0.335781  0.828056  0.001682  1
  Pt  Pt32  1  0.537512  0.167237  0.361635  1
  Pt  Pt33  1  0.462136  0.832924  0.638677  1
  Pt  Pt34  1  0.779034  0.174845  0.637694  1
  Pt  Pt35  1  0.221053  0.825127  0.363101  1
  Pt  Pt36  1  0.007785  0.492807  0.000991  1
