# generated using pymatgen
data_Sr7La(CeSn3)2
_symmetry_space_group_name_H-M   'P 1'
_cell_length_a   9.82993632
_cell_length_b   9.83006380
_cell_length_c   9.84984100
_cell_angle_alpha   96.31484046
_cell_angle_beta   96.22551175
_cell_angle_gamma   141.36802949
_symmetry_Int_Tables_number   1
_chemical_formula_structural   Sr7La(CeSn3)2
_chemical_formula_sum   'Sr7 La1 Ce2 Sn6'
_cell_volume   560.88547248
_cell_formula_units_Z   1
loop_
 _symmetry_equiv_pos_site_id
 _symmetry_equiv_pos_as_xyz
  1  'x, y, z'
loop_
 _atom_site_type_symbol
 _atom_site_label
 _atom_site_symmetry_multiplicity
 _atom_site_fract_x
 _atom_site_fract_y
 _atom_site_fract_z
 _atom_site_occupancy
  Sr  Sr0  1  0.914023  0.786635  0.700880  1
  Sr  Sr1  1  0.784975  0.085028  0.869963  1
  Sr  Sr2  1  0.413191  0.715020  0.128289  1
  Sr  Sr3  1  0.214710  0.914479  0.129158  1
  Sr  Sr4  1  0.584414  0.287172  0.871660  1
  Sr  Sr5  1  0.716444  0.582982  0.299249  1
  Sr  Sr6  1  0.285907  0.416264  0.702124  1
  La  La7  1  0.084887  0.212122  0.297634  1
  Ce  Ce8  1  0.251309  0.750689  0.500477  1
  Ce  Ce9  1  0.750004  0.249178  0.500409  1
  Sn  Sn10  1  0.151641  0.653032  0.804570  1
  Sn  Sn11  1  0.852715  0.343632  0.196367  1
  Sn  Sn12  1  0.342689  0.152936  0.495841  1
  Sn  Sn13  1  0.649730  0.842733  0.491992  1
  Sn  Sn14  1  0.246982  0.249339  0.005686  1
  Sn  Sn15  1  0.756378  0.758758  0.005703  1
