# generated using pymatgen
data_Nd8Be3Si12H
_symmetry_space_group_name_H-M   'P 1'
_cell_length_a   8.10226000
_cell_length_b   8.10226088
_cell_length_c   8.51152600
_cell_angle_alpha   90.00000000
_cell_angle_beta   90.00000000
_cell_angle_gamma   119.99999642
_symmetry_Int_Tables_number   1
_chemical_formula_structural   Nd8Be3Si12H
_chemical_formula_sum   'Nd8 Be3 Si12 H1'
_cell_volume   483.89426551
_cell_formula_units_Z   1
loop_
 _symmetry_equiv_pos_site_id
 _symmetry_equiv_pos_as_xyz
  1  'x, y, z'
loop_
 _atom_site_type_symbol
 _atom_site_label
 _atom_site_symmetry_multiplicity
 _atom_site_fract_x
 _atom_site_fract_y
 _atom_site_fract_z
 _atom_site_occupancy
  Nd  Nd0  1  0.000000  0.000000  0.741038  1
  Nd  Nd1  1  0.000000  0.000000  0.235585  1
  Nd  Nd2  1  0.501591  0.498409  0.738187  1
  Nd  Nd3  1  0.501591  0.003183  0.738187  1
  Nd  Nd4  1  0.996817  0.498409  0.738187  1
  Nd  Nd5  1  0.498821  0.501179  0.237281  1
  Nd  Nd6  1  0.002360  0.501179  0.237281  1
  Nd  Nd7  1  0.498821  0.997640  0.237281  1
  Be  Be8  1  0.666667  0.333333  0.986866  1
  Be  Be9  1  0.666667  0.333333  0.490792  1
  Be  Be10  1  0.333333  0.666667  0.468357  1
  Si  Si11  1  0.830584  0.169416  0.987656  1
  Si  Si12  1  0.830584  0.661168  0.987656  1
  Si  Si13  1  0.338832  0.169416  0.987656  1
  Si  Si14  1  0.827753  0.172247  0.486326  1
  Si  Si15  1  0.827753  0.655506  0.486326  1
  Si  Si16  1  0.344494  0.172247  0.486326  1
  Si  Si17  1  0.169367  0.830633  0.494630  1
  Si  Si18  1  0.661267  0.830633  0.494630  1
  Si  Si19  1  0.169367  0.338733  0.494630  1
  Si  Si20  1  0.176604  0.823396  0.986781  1
  Si  Si21  1  0.646793  0.823396  0.986781  1
  Si  Si22  1  0.176604  0.353207  0.986781  1
  H  H23  1  0.333333  0.666667  0.284780  1
