# generated using pymatgen
data_La7DySc12Si15Au
_symmetry_space_group_name_H-M   'P 1'
_cell_length_a   7.32205505
_cell_length_b   7.55937023
_cell_length_c   14.35764316
_cell_angle_alpha   89.83824977
_cell_angle_beta   89.78207712
_cell_angle_gamma   90.31461116
_symmetry_Int_Tables_number   1
_chemical_formula_structural   La7DySc12Si15Au
_chemical_formula_sum   'La7 Dy1 Sc12 Si15 Au1'
_cell_volume   794.67640110
_cell_formula_units_Z   1
loop_
 _symmetry_equiv_pos_site_id
 _symmetry_equiv_pos_as_xyz
  1  'x, y, z'
loop_
 _atom_site_type_symbol
 _atom_site_label
 _atom_site_symmetry_multiplicity
 _atom_site_fract_x
 _atom_site_fract_y
 _atom_site_fract_z
 _atom_site_occupancy
  La  La0  1  0.011630  0.170830  0.097927  1
  La  La1  1  0.988697  0.829730  0.901241  1
  La  La2  1  0.488037  0.671265  0.903156  1
  La  La3  1  0.991418  0.832021  0.596739  1
  La  La4  1  0.510835  0.328976  0.096237  1
  La  La5  1  0.010207  0.171162  0.401443  1
  La  La6  1  0.510086  0.326236  0.402358  1
  Dy  Dy7  1  0.493305  0.676288  0.603313  1
  Sc  Sc8  1  0.161406  0.497494  0.749591  1
  Sc  Sc9  1  0.838532  0.503660  0.250898  1
  Sc  Sc10  1  0.339998  0.992423  0.249315  1
  Sc  Sc11  1  0.663187  0.002478  0.750109  1
  Sc  Sc12  1  0.340492  0.176954  0.627098  1
  Sc  Sc13  1  0.665718  0.822803  0.374943  1
  Sc  Sc14  1  0.168506  0.672158  0.373672  1
  Sc  Sc15  1  0.671346  0.825743  0.125045  1
  Sc  Sc16  1  0.823478  0.327626  0.624409  1
  Sc  Sc17  1  0.328920  0.173674  0.873194  1
  Sc  Sc18  1  0.830049  0.324930  0.874024  1
  Sc  Sc19  1  0.168036  0.675537  0.125060  1
  Si  Si20  1  0.034838  0.132251  0.748687  1
  Si  Si21  1  0.965192  0.871772  0.250497  1
  Si  Si22  1  0.465072  0.626262  0.248967  1
  Si  Si23  1  0.536222  0.379424  0.750374  1
  Si  Si24  1  0.292300  0.881952  0.748297  1
  Si  Si25  1  0.708316  0.115117  0.249613  1
  Si  Si26  1  0.209976  0.383696  0.248991  1
  Si  Si27  1  0.788213  0.618746  0.748949  1
  Si  Si28  1  0.839336  0.540793  0.459818  1
  Si  Si29  1  0.348750  0.954156  0.463440  1
  Si  Si30  1  0.850313  0.537622  0.039057  1
  Si  Si31  1  0.648171  0.030676  0.541186  1
  Si  Si32  1  0.148169  0.462426  0.960146  1
  Si  Si33  1  0.650113  0.037742  0.959213  1
  Si  Si34  1  0.349779  0.962662  0.039485  1
  Au  Au35  1  0.161357  0.462717  0.543506  1
