# generated using pymatgen
data_Hf(VBr4)3
_symmetry_space_group_name_H-M   'P 1'
_cell_length_a   6.28873414
_cell_length_b   7.11749486
_cell_length_c   12.34220500
_cell_angle_alpha   90.00000000
_cell_angle_beta   90.00000000
_cell_angle_gamma   90.12979825
_symmetry_Int_Tables_number   1
_chemical_formula_structural   Hf(VBr4)3
_chemical_formula_sum   'Hf1 V3 Br12'
_cell_volume   552.43608407
_cell_formula_units_Z   1
loop_
 _symmetry_equiv_pos_site_id
 _symmetry_equiv_pos_as_xyz
  1  'x, y, z'
loop_
 _atom_site_type_symbol
 _atom_site_label
 _atom_site_symmetry_multiplicity
 _atom_site_fract_x
 _atom_site_fract_y
 _atom_site_fract_z
 _atom_site_occupancy
  Hf  Hf0  1  0.250010  0.249431  0.500000  1
  V  V1  1  0.750019  0.249501  0.500000  1
  V  V2  1  0.752064  0.750546  0.000000  1
  V  V3  1  0.248180  0.750430  0.000000  1
  Br  Br4  1  0.503490  0.396062  0.353156  1
  Br  Br5  1  0.999544  0.608933  0.858664  1
  Br  Br6  1  0.999544  0.608933  0.141336  1
  Br  Br7  1  0.503490  0.396062  0.646844  1
  Br  Br8  1  0.500316  0.891500  0.859326  1
  Br  Br9  1  0.996375  0.102925  0.353138  1
  Br  Br10  1  0.996375  0.102925  0.646862  1
  Br  Br11  1  0.500316  0.891500  0.140674  1
  Br  Br12  1  0.501532  0.955229  0.500000  1
  Br  Br13  1  0.001527  0.032218  0.000000  1
  Br  Br14  1  0.498894  0.470111  0.000000  1
  Br  Br15  1  0.998326  0.543696  0.500000  1
