# generated using pymatgen
data_Mn3Zn8Fe(PO4)8
_symmetry_space_group_name_H-M   'P 1'
_cell_length_a   5.10646224
_cell_length_b   11.63683978
_cell_length_c   11.63948198
_cell_angle_alpha   96.63418200
_cell_angle_beta   93.12138304
_cell_angle_gamma   93.40288973
_symmetry_Int_Tables_number   1
_chemical_formula_structural   Mn3Zn8Fe(PO4)8
_chemical_formula_sum   'Mn3 Zn8 Fe1 P8 O32'
_cell_volume   684.49904867
_cell_formula_units_Z   1
loop_
 _symmetry_equiv_pos_site_id
 _symmetry_equiv_pos_as_xyz
  1  'x, y, z'
loop_
 _atom_site_type_symbol
 _atom_site_label
 _atom_site_symmetry_multiplicity
 _atom_site_fract_x
 _atom_site_fract_y
 _atom_site_fract_z
 _atom_site_occupancy
  Mn  Mn0  1  0.000000  0.500000  0.000000  1
  Mn  Mn1  1  0.500000  0.000000  0.000000  1
  Mn  Mn2  1  0.500000  0.500000  0.500000  1
  Zn  Zn3  1  0.421822  0.122165  0.757904  1
  Zn  Zn4  1  0.423073  0.622674  0.257623  1
  Zn  Zn5  1  0.926604  0.758285  0.621925  1
  Zn  Zn6  1  0.921668  0.257259  0.123208  1
  Zn  Zn7  1  0.578178  0.877835  0.242096  1
  Zn  Zn8  1  0.576927  0.377326  0.742377  1
  Zn  Zn9  1  0.073396  0.241715  0.378075  1
  Zn  Zn10  1  0.078332  0.742741  0.876792  1
  Fe  Fe11  1  0.000000  0.000000  0.500000  1
  P  P12  1  0.470082  0.804355  0.495524  1
  P  P13  1  0.466392  0.302274  0.996517  1
  P  P14  1  0.966753  0.996330  0.801264  1
  P  P15  1  0.966730  0.496204  0.302743  1
  P  P16  1  0.529918  0.195645  0.504476  1
  P  P17  1  0.533608  0.697726  0.003483  1
  P  P18  1  0.033247  0.003670  0.198736  1
  P  P19  1  0.033270  0.503796  0.697257  1
  O  O20  1  0.571983  0.696656  0.549818  1
  O  O21  1  0.568630  0.194037  0.049830  1
  O  O22  1  0.068736  0.049700  0.692967  1
  O  O23  1  0.069418  0.549500  0.194364  1
  O  O24  1  0.428017  0.303344  0.450182  1
  O  O25  1  0.431370  0.805963  0.950170  1
  O  O26  1  0.931264  0.950300  0.307033  1
  O  O27  1  0.930582  0.450500  0.805636  1
  O  O28  1  0.454039  0.778101  0.360233  1
  O  O29  1  0.454947  0.277940  0.860977  1
  O  O30  1  0.953982  0.860557  0.777297  1
  O  O31  1  0.953770  0.360570  0.278576  1
  O  O32  1  0.545961  0.221899  0.639767  1
  O  O33  1  0.545053  0.722060  0.139023  1
  O  O34  1  0.046018  0.139443  0.222703  1
  O  O35  1  0.046230  0.639430  0.721424  1
  O  O36  1  0.192410  0.832420  0.533467  1
  O  O37  1  0.185539  0.328707  0.031997  1
  O  O38  1  0.686380  0.031629  0.828769  1
  O  O39  1  0.686106  0.531889  0.329544  1
  O  O40  1  0.807590  0.167580  0.466533  1
  O  O41  1  0.814461  0.671293  0.968003  1
  O  O42  1  0.313620  0.968371  0.171231  1
  O  O43  1  0.313894  0.468111  0.670456  1
  O  O44  1  0.670391  0.906673  0.535828  1
  O  O45  1  0.662765  0.404732  0.040162  1
  O  O46  1  0.164000  0.039793  0.903379  1
  O  O47  1  0.163417  0.539830  0.404952  1
  O  O48  1  0.329609  0.093327  0.464172  1
  O  O49  1  0.337235  0.595268  0.959838  1
  O  O50  1  0.836000  0.960207  0.096621  1
  O  O51  1  0.836583  0.460170  0.595048  1
