# generated using pymatgen
data_Lu12TlNi4Rh
_symmetry_space_group_name_H-M   'P 1'
_cell_length_a   8.12424929
_cell_length_b   8.12424977
_cell_length_c   8.12425000
_cell_angle_alpha   111.55237489
_cell_angle_beta   110.51794274
_cell_angle_gamma   106.38843072
_symmetry_Int_Tables_number   1
_chemical_formula_structural   Lu12TlNi4Rh
_chemical_formula_sum   'Lu12 Tl1 Ni4 Rh1'
_cell_volume   411.86309520
_cell_formula_units_Z   1
loop_
 _symmetry_equiv_pos_site_id
 _symmetry_equiv_pos_as_xyz
  1  'x, y, z'
loop_
 _atom_site_type_symbol
 _atom_site_label
 _atom_site_symmetry_multiplicity
 _atom_site_fract_x
 _atom_site_fract_y
 _atom_site_fract_z
 _atom_site_occupancy
  Lu  Lu0  1  0.678448  0.873281  0.194833  1
  Lu  Lu1  1  0.321552  0.516385  0.194833  1
  Lu  Lu2  1  0.816459  0.788737  0.605196  1
  Lu  Lu3  1  0.183541  0.788737  0.972279  1
  Lu  Lu4  1  0.816459  0.211263  0.027721  1
  Lu  Lu5  1  0.183541  0.211263  0.394804  1
  Lu  Lu6  1  0.678448  0.483615  0.805167  1
  Lu  Lu7  1  0.321552  0.126719  0.805167  1
  Lu  Lu8  1  0.588446  0.280731  0.307714  1
  Lu  Lu9  1  0.411554  0.719269  0.692286  1
  Lu  Lu10  1  0.026983  0.719269  0.307714  1
  Lu  Lu11  1  0.973017  0.280731  0.692286  1
  Tl  Tl12  1  0.500000  0.000000  0.500000  1
  Ni  Ni13  1  0.359168  0.500000  0.859168  1
  Ni  Ni14  1  0.640832  0.500000  0.140832  1
  Ni  Ni15  1  0.877179  0.877179  0.000000  1
  Ni  Ni16  1  0.122821  0.122821  0.000000  1
  Rh  Rh17  1  0.000000  0.500000  0.500000  1
