# generated using pymatgen
data_Gd2TcRu3
_symmetry_space_group_name_H-M   'P 1'
_cell_length_a   5.57797144
_cell_length_b   5.57797202
_cell_length_c   5.21570748
_cell_angle_alpha   57.67451415
_cell_angle_beta   57.67451147
_cell_angle_gamma   59.99998679
_symmetry_Int_Tables_number   1
_chemical_formula_structural   Gd2TcRu3
_chemical_formula_sum   'Gd2 Tc1 Ru3'
_cell_volume   110.54917705
_cell_formula_units_Z   1
loop_
 _symmetry_equiv_pos_site_id
 _symmetry_equiv_pos_as_xyz
  1  'x, y, z'
loop_
 _atom_site_type_symbol
 _atom_site_label
 _atom_site_symmetry_multiplicity
 _atom_site_fract_x
 _atom_site_fract_y
 _atom_site_fract_z
 _atom_site_occupancy
  Gd  Gd0  1  0.251230  0.251230  0.246309  1
  Gd  Gd1  1  0.998770  0.998770  0.003691  1
  Tc  Tc2  1  0.625000  0.625000  0.125000  1
  Ru  Ru3  1  0.125000  0.625000  0.625000  1
  Ru  Ru4  1  0.625000  0.625000  0.625000  1
  Ru  Ru5  1  0.625000  0.125000  0.625000  1
