# generated using pymatgen
data_DyY(Si7Rh3)2
_symmetry_space_group_name_H-M   'P 1'
_cell_length_a   7.99246967
_cell_length_b   7.99247061
_cell_length_c   7.99247004
_cell_angle_alpha   57.12879985
_cell_angle_beta   57.12879185
_cell_angle_gamma   57.12879112
_symmetry_Int_Tables_number   1
_chemical_formula_structural   DyY(Si7Rh3)2
_chemical_formula_sum   'Dy1 Y1 Si14 Rh6'
_cell_volume   337.13207509
_cell_formula_units_Z   1
loop_
 _symmetry_equiv_pos_site_id
 _symmetry_equiv_pos_as_xyz
  1  'x, y, z'
loop_
 _atom_site_type_symbol
 _atom_site_label
 _atom_site_symmetry_multiplicity
 _atom_site_fract_x
 _atom_site_fract_y
 _atom_site_fract_z
 _atom_site_occupancy
  Dy  Dy0  1  0.500000  0.500000  0.500000  1
  Y  Y1  1  0.000000  0.000000  0.000000  1
  Si  Si2  1  0.749800  0.749800  0.749800  1
  Si  Si3  1  0.250200  0.250200  0.250200  1
  Si  Si4  1  0.851824  0.064991  0.671943  1
  Si  Si5  1  0.671943  0.851824  0.064991  1
  Si  Si6  1  0.064991  0.671943  0.851824  1
  Si  Si7  1  0.648355  0.827813  0.434683  1
  Si  Si8  1  0.434683  0.648355  0.827813  1
  Si  Si9  1  0.827813  0.434683  0.648355  1
  Si  Si10  1  0.172187  0.565317  0.351645  1
  Si  Si11  1  0.565317  0.351645  0.172187  1
  Si  Si12  1  0.351645  0.172187  0.565317  1
  Si  Si13  1  0.935009  0.328057  0.148176  1
  Si  Si14  1  0.328057  0.148176  0.935009  1
  Si  Si15  1  0.148176  0.935009  0.328057  1
  Rh  Rh16  1  0.069905  0.430713  0.749848  1
  Rh  Rh17  1  0.250152  0.930095  0.569287  1
  Rh  Rh18  1  0.569287  0.250152  0.930095  1
  Rh  Rh19  1  0.930095  0.569287  0.250152  1
  Rh  Rh20  1  0.430713  0.749848  0.069905  1
  Rh  Rh21  1  0.749848  0.069905  0.430713  1
