# generated using pymatgen
data_CdAg10(SnO4)3
_symmetry_space_group_name_H-M   'P 1'
_cell_length_a   8.71747828
_cell_length_b   8.71747781
_cell_length_c   5.86370524
_cell_angle_alpha   70.18625048
_cell_angle_beta   70.18624347
_cell_angle_gamma   71.57991663
_symmetry_Int_Tables_number   1
_chemical_formula_structural   CdAg10(SnO4)3
_chemical_formula_sum   'Cd1 Ag10 Sn3 O12'
_cell_volume   384.09653921
_cell_formula_units_Z   1
loop_
 _symmetry_equiv_pos_site_id
 _symmetry_equiv_pos_as_xyz
  1  'x, y, z'
loop_
 _atom_site_type_symbol
 _atom_site_label
 _atom_site_symmetry_multiplicity
 _atom_site_fract_x
 _atom_site_fract_y
 _atom_site_fract_z
 _atom_site_occupancy
  Cd  Cd0  1  0.416009  0.583991  0.000000  1
  Ag  Ag1  1  0.250433  0.248343  0.002632  1
  Ag  Ag2  1  0.750059  0.750315  0.494350  1
  Ag  Ag3  1  0.249685  0.249941  0.505650  1
  Ag  Ag4  1  0.751657  0.749567  0.997368  1
  Ag  Ag5  1  0.500151  0.002241  0.750718  1
  Ag  Ag6  1  0.997759  0.499849  0.249282  1
  Ag  Ag7  1  0.117603  0.610495  0.635354  1
  Ag  Ag8  1  0.610980  0.116860  0.134997  1
  Ag  Ag9  1  0.389505  0.882397  0.364646  1
  Ag  Ag10  1  0.883140  0.389020  0.865003  1
  Sn  Sn11  1  0.916706  0.083294  0.500000  1
  Sn  Sn12  1  0.584497  0.415503  0.500000  1
  Sn  Sn13  1  0.081212  0.918788  0.000000  1
  O  O14  1  0.664347  0.524013  0.694129  1
  O  O15  1  0.142984  0.035160  0.219944  1
  O  O16  1  0.544586  0.646234  0.232945  1
  O  O17  1  0.028480  0.147357  0.716499  1
  O  O18  1  0.326629  0.864356  0.788319  1
  O  O19  1  0.843969  0.333268  0.294864  1
  O  O20  1  0.353766  0.455414  0.767055  1
  O  O21  1  0.852643  0.971520  0.283501  1
  O  O22  1  0.475987  0.335653  0.305871  1
  O  O23  1  0.964840  0.857016  0.780056  1
  O  O24  1  0.666732  0.156031  0.705136  1
  O  O25  1  0.135644  0.673371  0.211681  1
