# generated using pymatgen
data_La16InHg3Rh4
_symmetry_space_group_name_H-M   'P 1'
_cell_length_a   10.11185609
_cell_length_b   10.11185683
_cell_length_c   10.11185638
_cell_angle_alpha   59.83678495
_cell_angle_beta   59.83678071
_cell_angle_gamma   59.83678468
_symmetry_Int_Tables_number   1
_chemical_formula_structural   La16InHg3Rh4
_chemical_formula_sum   'La16 In1 Hg3 Rh4'
_cell_volume   728.39329389
_cell_formula_units_Z   1
loop_
 _symmetry_equiv_pos_site_id
 _symmetry_equiv_pos_as_xyz
  1  'x, y, z'
loop_
 _atom_site_type_symbol
 _atom_site_label
 _atom_site_symmetry_multiplicity
 _atom_site_fract_x
 _atom_site_fract_y
 _atom_site_fract_z
 _atom_site_occupancy
  La  La0  1  0.348468  0.348468  0.348468  1
  La  La1  1  0.349120  0.349120  0.953030  1
  La  La2  1  0.349120  0.953030  0.349120  1
  La  La3  1  0.953030  0.349120  0.349120  1
  La  La4  1  0.809620  0.190564  0.190564  1
  La  La5  1  0.191351  0.808399  0.808399  1
  La  La6  1  0.190564  0.809619  0.190564  1
  La  La7  1  0.808399  0.191352  0.808399  1
  La  La8  1  0.190564  0.190564  0.809620  1
  La  La9  1  0.808398  0.808399  0.191352  1
  La  La10  1  0.940906  0.561546  0.561546  1
  La  La11  1  0.561782  0.938612  0.938612  1
  La  La12  1  0.561546  0.940906  0.561546  1
  La  La13  1  0.938612  0.561782  0.938612  1
  La  La14  1  0.561546  0.561546  0.940906  1
  La  La15  1  0.938612  0.938612  0.561782  1
  In  In16  1  0.580674  0.580674  0.580674  1
  Hg  Hg17  1  0.583330  0.583330  0.250707  1
  Hg  Hg18  1  0.583330  0.250707  0.583330  1
  Hg  Hg19  1  0.250707  0.583330  0.583330  1
  Rh  Rh20  1  0.141100  0.141100  0.141100  1
  Rh  Rh21  1  0.141569  0.141569  0.576083  1
  Rh  Rh22  1  0.141569  0.576083  0.141569  1
  Rh  Rh23  1  0.576083  0.141569  0.141569  1
