# generated using pymatgen
data_MgTl2(PO3)4
_symmetry_space_group_name_H-M   'P 1'
_cell_length_a   13.13160300
_cell_length_b   7.91894662
_cell_length_c   12.47626100
_cell_angle_alpha   63.59250567
_cell_angle_beta   90.00000000
_cell_angle_gamma   90.00000000
_symmetry_Int_Tables_number   1
_chemical_formula_structural   MgTl2(PO3)4
_chemical_formula_sum   'Mg4 Tl8 P16 O48'
_cell_volume   1162.00951530
_cell_formula_units_Z   4
loop_
 _symmetry_equiv_pos_site_id
 _symmetry_equiv_pos_as_xyz
  1  'x, y, z'
loop_
 _atom_site_type_symbol
 _atom_site_label
 _atom_site_symmetry_multiplicity
 _atom_site_fract_x
 _atom_site_fract_y
 _atom_site_fract_z
 _atom_site_occupancy
  Mg  Mg0  1  0.355816  0.251511  0.487315  1
  Mg  Mg1  1  0.644184  0.748489  0.512685  1
  Mg  Mg2  1  0.855816  0.748489  0.012685  1
  Mg  Mg3  1  0.144184  0.251511  0.987315  1
  Tl  Tl4  1  0.113825  0.452141  0.638302  1
  Tl  Tl5  1  0.134107  0.066593  0.346430  1
  Tl  Tl6  1  0.634107  0.933407  0.153570  1
  Tl  Tl7  1  0.613825  0.547859  0.861698  1
  Tl  Tl8  1  0.865893  0.933407  0.653570  1
  Tl  Tl9  1  0.386175  0.452141  0.138302  1
  Tl  Tl10  1  0.886175  0.547859  0.361698  1
  Tl  Tl11  1  0.365893  0.066593  0.846430  1
  P  P12  1  0.675797  0.071443  0.835500  1
  P  P13  1  0.175797  0.928557  0.664500  1
  P  P14  1  0.427389  0.947856  0.376358  1
  P  P15  1  0.410609  0.576056  0.587640  1
  P  P16  1  0.813562  0.399444  0.696226  1
  P  P17  1  0.089391  0.576056  0.087640  1
  P  P18  1  0.072611  0.947856  0.876358  1
  P  P19  1  0.910609  0.423944  0.912360  1
  P  P20  1  0.313562  0.600556  0.803774  1
  P  P21  1  0.589391  0.423944  0.412360  1
  P  P22  1  0.927389  0.052144  0.123642  1
  P  P23  1  0.324203  0.928557  0.164500  1
  P  P24  1  0.572611  0.052144  0.623642  1
  P  P25  1  0.686438  0.399444  0.196226  1
  P  P26  1  0.186438  0.600556  0.303774  1
  P  P27  1  0.824203  0.071443  0.335500  1
  O  O28  1  0.357876  0.092508  0.385675  1
  O  O29  1  0.342971  0.642857  0.668961  1
  O  O30  1  0.619085  0.259174  0.542135  1
  O  O31  1  0.914072  0.038364  0.256716  1
  O  O32  1  0.595698  0.396653  0.124295  1
  O  O33  1  0.242797  0.433696  0.853371  1
  O  O34  1  0.230029  0.112450  0.594307  1
  O  O35  1  0.642124  0.907492  0.614325  1
  O  O36  1  0.157029  0.642857  0.168961  1
  O  O37  1  0.769971  0.887550  0.405693  1
  O  O38  1  0.585928  0.038364  0.756716  1
  O  O39  1  0.257203  0.433696  0.353371  1
  O  O40  1  0.372852  0.831482  0.098140  1
  O  O41  1  0.039779  0.049375  0.104350  1
  O  O42  1  0.872852  0.168518  0.401860  1
  O  O43  1  0.748978  0.205843  0.228513  1
  O  O44  1  0.460221  0.049375  0.604350  1
  O  O45  1  0.095698  0.603347  0.375705  1
  O  O46  1  0.657029  0.357143  0.331039  1
  O  O47  1  0.380915  0.740826  0.457865  1
  O  O48  1  0.142124  0.092508  0.885675  1
  O  O49  1  0.085928  0.961636  0.743284  1
  O  O50  1  0.742797  0.566304  0.646629  1
  O  O51  1  0.248978  0.794157  0.271487  1
  O  O52  1  0.521434  0.583653  0.614183  1
  O  O53  1  0.627148  0.168518  0.901860  1
  O  O54  1  0.960221  0.950625  0.895650  1
  O  O55  1  0.842971  0.357143  0.831039  1
  O  O56  1  0.864931  0.602935  0.905092  1
  O  O57  1  0.730029  0.887550  0.905693  1
  O  O58  1  0.364931  0.397065  0.594908  1
  O  O59  1  0.404302  0.603347  0.875705  1
  O  O60  1  0.414072  0.961636  0.243284  1
  O  O61  1  0.857876  0.907492  0.114325  1
  O  O62  1  0.478566  0.416347  0.385817  1
  O  O63  1  0.269971  0.112450  0.094307  1
  O  O64  1  0.021434  0.416347  0.885817  1
  O  O65  1  0.135069  0.397065  0.094908  1
  O  O66  1  0.904302  0.396653  0.624295  1
  O  O67  1  0.751022  0.205843  0.728513  1
  O  O68  1  0.978566  0.583653  0.114183  1
  O  O69  1  0.251022  0.794157  0.771487  1
  O  O70  1  0.880915  0.259174  0.042135  1
  O  O71  1  0.635069  0.602935  0.405092  1
  O  O72  1  0.127148  0.831482  0.598140  1
  O  O73  1  0.539779  0.950625  0.395650  1
  O  O74  1  0.757203  0.566304  0.146629  1
  O  O75  1  0.119085  0.740826  0.957865  1
