# generated using pymatgen
data_Tb9YbIr6
_symmetry_space_group_name_H-M   'P 1'
_cell_length_a   10.93667900
_cell_length_b   10.93667900
_cell_length_c   6.37146200
_cell_angle_alpha   90.00000000
_cell_angle_beta   90.00000000
_cell_angle_gamma   90.00000000
_symmetry_Int_Tables_number   1
_chemical_formula_structural   Tb9YbIr6
_chemical_formula_sum   'Tb18 Yb2 Ir12'
_cell_volume   762.09660709
_cell_formula_units_Z   2
loop_
 _symmetry_equiv_pos_site_id
 _symmetry_equiv_pos_as_xyz
  1  'x, y, z'
loop_
 _atom_site_type_symbol
 _atom_site_label
 _atom_site_symmetry_multiplicity
 _atom_site_fract_x
 _atom_site_fract_y
 _atom_site_fract_z
 _atom_site_occupancy
  Tb  Tb0  1  0.289847  0.087771  0.381271  1
  Tb  Tb1  1  0.289847  0.912229  0.881271  1
  Tb  Tb2  1  0.710153  0.087771  0.881271  1
  Tb  Tb3  1  0.710153  0.912229  0.381271  1
  Tb  Tb4  1  0.589330  0.791348  0.879796  1
  Tb  Tb5  1  0.589330  0.208652  0.379796  1
  Tb  Tb6  1  0.410670  0.791348  0.379796  1
  Tb  Tb7  1  0.410670  0.208652  0.879796  1
  Tb  Tb8  1  0.208652  0.410670  0.620204  1
  Tb  Tb9  1  0.208652  0.589330  0.120204  1
  Tb  Tb10  1  0.791348  0.410670  0.120204  1
  Tb  Tb11  1  0.791348  0.589330  0.620204  1
  Tb  Tb12  1  0.912229  0.710153  0.118729  1
  Tb  Tb13  1  0.912229  0.289847  0.618729  1
  Tb  Tb14  1  0.087771  0.710153  0.618729  1
  Tb  Tb15  1  0.087771  0.289847  0.118729  1
  Tb  Tb16  1  0.500000  0.500000  0.000000  1
  Tb  Tb17  1  0.500000  0.500000  0.500000  1
  Yb  Yb18  1  0.000000  0.000000  0.500000  1
  Yb  Yb19  1  0.000000  0.000000  0.000000  1
  Ir  Ir20  1  0.842507  0.157493  0.250000  1
  Ir  Ir21  1  0.842507  0.842507  0.750000  1
  Ir  Ir22  1  0.157493  0.157493  0.750000  1
  Ir  Ir23  1  0.157493  0.842507  0.250000  1
  Ir  Ir24  1  0.653427  0.346573  0.750000  1
  Ir  Ir25  1  0.653427  0.653427  0.250000  1
  Ir  Ir26  1  0.346573  0.346573  0.250000  1
  Ir  Ir27  1  0.346573  0.653427  0.750000  1
  Ir  Ir28  1  0.500000  0.000000  0.120952  1
  Ir  Ir29  1  0.500000  0.000000  0.620952  1
  Ir  Ir30  1  0.000000  0.500000  0.879048  1
  Ir  Ir31  1  0.000000  0.500000  0.379048  1
