# generated using pymatgen
data_Er7Tm5Rh4
_symmetry_space_group_name_H-M   'P 1'
_cell_length_a   6.25933846
_cell_length_b   7.12079909
_cell_length_c   9.29957358
_cell_angle_alpha   89.99732414
_cell_angle_beta   90.04029161
_cell_angle_gamma   90.01827746
_symmetry_Int_Tables_number   1
_chemical_formula_structural   Er7Tm5Rh4
_chemical_formula_sum   'Er7 Tm5 Rh4'
_cell_volume   414.49574223
_cell_formula_units_Z   1
loop_
 _symmetry_equiv_pos_site_id
 _symmetry_equiv_pos_as_xyz
  1  'x, y, z'
loop_
 _atom_site_type_symbol
 _atom_site_label
 _atom_site_symmetry_multiplicity
 _atom_site_fract_x
 _atom_site_fract_y
 _atom_site_fract_z
 _atom_site_occupancy
  Er  Er0  1  0.827012  0.678376  0.063029  1
  Er  Er1  1  0.172848  0.321772  0.563184  1
  Er  Er2  1  0.672877  0.178319  0.436814  1
  Er  Er3  1  0.866542  0.965503  0.750091  1
  Er  Er4  1  0.366280  0.534390  0.249910  1
  Er  Er5  1  0.633466  0.465712  0.750128  1
  Er  Er6  1  0.133695  0.034336  0.249796  1
  Tm  Tm7  1  0.672793  0.178198  0.063097  1
  Tm  Tm8  1  0.172889  0.321689  0.936810  1
  Tm  Tm9  1  0.827151  0.678350  0.436803  1
  Tm  Tm10  1  0.327104  0.821681  0.563353  1
  Tm  Tm11  1  0.327092  0.821847  0.936629  1
  Rh  Rh12  1  0.053483  0.615848  0.750112  1
  Rh  Rh13  1  0.552751  0.884510  0.249807  1
  Rh  Rh14  1  0.447043  0.114883  0.750674  1
  Rh  Rh15  1  0.946973  0.384588  0.249763  1
