# generated using pymatgen
data_Ta6Be2Nb(BRu)6
_symmetry_space_group_name_H-M   'P 1'
_cell_length_a   9.59205300
_cell_length_b   9.59205225
_cell_length_c   3.17954700
_cell_angle_alpha   90.00000000
_cell_angle_beta   90.00000000
_cell_angle_gamma   119.99999912
_symmetry_Int_Tables_number   1
_chemical_formula_structural   Ta6Be2Nb(BRu)6
_chemical_formula_sum   'Ta6 Be2 Nb1 B6 Ru6'
_cell_volume   253.34888097
_cell_formula_units_Z   1
loop_
 _symmetry_equiv_pos_site_id
 _symmetry_equiv_pos_as_xyz
  1  'x, y, z'
loop_
 _atom_site_type_symbol
 _atom_site_label
 _atom_site_symmetry_multiplicity
 _atom_site_fract_x
 _atom_site_fract_y
 _atom_site_fract_z
 _atom_site_occupancy
  Ta  Ta0  1  0.722310  0.636962  0.000000  1
  Ta  Ta1  1  0.363038  0.085348  0.000000  1
  Ta  Ta2  1  0.914652  0.277690  0.000000  1
  Ta  Ta3  1  0.277690  0.363038  0.000000  1
  Ta  Ta4  1  0.636962  0.914652  0.000000  1
  Ta  Ta5  1  0.085348  0.722310  0.000000  1
  Be  Be6  1  0.666667  0.333333  0.000000  1
  Be  Be7  1  0.333333  0.666667  0.000000  1
  Nb  Nb8  1  0.000000  0.000000  0.000000  1
  B  B9  1  0.153635  0.934634  0.500000  1
  B  B10  1  0.065366  0.219001  0.500000  1
  B  B11  1  0.780999  0.846365  0.500000  1
  B  B12  1  0.846365  0.065366  0.500000  1
  B  B13  1  0.934634  0.780999  0.500000  1
  B  B14  1  0.219001  0.153635  0.500000  1
  Ru  Ru15  1  0.356212  0.850303  0.500000  1
  Ru  Ru16  1  0.149697  0.505909  0.500000  1
  Ru  Ru17  1  0.494091  0.643788  0.500000  1
  Ru  Ru18  1  0.643788  0.149697  0.500000  1
  Ru  Ru19  1  0.850303  0.494091  0.500000  1
  Ru  Ru20  1  0.505909  0.356212  0.500000  1
