# generated using pymatgen
data_HoNp3O8
_symmetry_space_group_name_H-M   'P 1'
_cell_length_a   5.36588469
_cell_length_b   5.36373900
_cell_length_c   5.36608269
_cell_angle_alpha   90.00000000
_cell_angle_beta   90.05803271
_cell_angle_gamma   90.00000000
_symmetry_Int_Tables_number   1
_chemical_formula_structural   HoNp3O8
_chemical_formula_sum   'Ho1 Np3 O8'
_cell_volume   154.44224652
_cell_formula_units_Z   1
loop_
 _symmetry_equiv_pos_site_id
 _symmetry_equiv_pos_as_xyz
  1  'x, y, z'
loop_
 _atom_site_type_symbol
 _atom_site_label
 _atom_site_symmetry_multiplicity
 _atom_site_fract_x
 _atom_site_fract_y
 _atom_site_fract_z
 _atom_site_occupancy
  Ho  Ho0  1  0.000000  0.249982  0.250000  1
  Np  Np1  1  0.499999  0.749996  0.250000  1
  Np  Np2  1  0.499999  0.249999  0.750001  1
  Np  Np3  1  0.000000  0.750005  0.750001  1
  O  O4  1  0.253183  0.996838  0.997635  1
  O  O5  1  0.253234  0.503330  0.997634  1
  O  O6  1  0.746817  0.996838  0.502364  1
  O  O7  1  0.746766  0.503330  0.502365  1
  O  O8  1  0.252836  0.503120  0.504148  1
  O  O9  1  0.252798  0.996717  0.504156  1
  O  O10  1  0.747164  0.503120  0.995852  1
  O  O11  1  0.747202  0.996717  0.995844  1
