# generated using pymatgen
data_LaPr(NdTe2)2
_symmetry_space_group_name_H-M   'P 1'
_cell_length_a   9.08837635
_cell_length_b   9.05161454
_cell_length_c   9.05161430
_cell_angle_alpha   59.77338079
_cell_angle_beta   59.86554820
_cell_angle_gamma   59.86555996
_symmetry_Int_Tables_number   1
_chemical_formula_structural   LaPr(NdTe2)2
_chemical_formula_sum   'La2 Pr2 Nd4 Te8'
_cell_volume   524.55562184
_cell_formula_units_Z   2
loop_
 _symmetry_equiv_pos_site_id
 _symmetry_equiv_pos_as_xyz
  1  'x, y, z'
loop_
 _atom_site_type_symbol
 _atom_site_label
 _atom_site_symmetry_multiplicity
 _atom_site_fract_x
 _atom_site_fract_y
 _atom_site_fract_z
 _atom_site_occupancy
  La  La0  1  0.625000  0.625000  0.625000  1
  La  La1  1  0.125000  0.625000  0.625000  1
  Pr  Pr2  1  0.625000  0.125000  0.625000  1
  Pr  Pr3  1  0.625000  0.625000  0.125000  1
  Nd  Nd4  1  0.125000  0.625000  0.125000  1
  Nd  Nd5  1  0.125000  0.125000  0.625000  1
  Nd  Nd6  1  0.625000  0.125000  0.125000  1
  Nd  Nd7  1  0.125000  0.125000  0.125000  1
  Te  Te8  1  0.374136  0.879087  0.372642  1
  Te  Te9  1  0.875864  0.370913  0.877358  1
  Te  Te10  1  0.875864  0.877358  0.370913  1
  Te  Te11  1  0.875146  0.876599  0.876599  1
  Te  Te12  1  0.878343  0.373401  0.373401  1
  Te  Te13  1  0.374136  0.372642  0.879087  1
  Te  Te14  1  0.374854  0.373401  0.373401  1
  Te  Te15  1  0.371657  0.876599  0.876599  1
