# generated using pymatgen
data_Nd2GaSiPd4
_symmetry_space_group_name_H-M   'P 1'
_cell_length_a   5.71266915
_cell_length_b   7.08969300
_cell_length_c   7.61503196
_cell_angle_alpha   90.00000000
_cell_angle_beta   88.85240962
_cell_angle_gamma   90.00000000
_symmetry_Int_Tables_number   1
_chemical_formula_structural   Nd2GaSiPd4
_chemical_formula_sum   'Nd4 Ga2 Si2 Pd8'
_cell_volume   308.35508408
_cell_formula_units_Z   2
loop_
 _symmetry_equiv_pos_site_id
 _symmetry_equiv_pos_as_xyz
  1  'x, y, z'
loop_
 _atom_site_type_symbol
 _atom_site_label
 _atom_site_symmetry_multiplicity
 _atom_site_fract_x
 _atom_site_fract_y
 _atom_site_fract_z
 _atom_site_occupancy
  Nd  Nd0  1  0.139462  0.750000  0.528652  1
  Nd  Nd1  1  0.860538  0.250000  0.471348  1
  Nd  Nd2  1  0.651009  0.250000  0.966393  1
  Nd  Nd3  1  0.348991  0.750000  0.033607  1
  Ga  Ga4  1  0.851622  0.750000  0.877954  1
  Ga  Ga5  1  0.148378  0.250000  0.122046  1
  Si  Si6  1  0.359931  0.250000  0.621940  1
  Si  Si7  1  0.640069  0.750000  0.378060  1
  Pd  Pd8  1  0.586040  0.552801  0.671845  1
  Pd  Pd9  1  0.413960  0.447199  0.328155  1
  Pd  Pd10  1  0.099172  0.445855  0.818551  1
  Pd  Pd11  1  0.413960  0.052801  0.328155  1
  Pd  Pd12  1  0.900828  0.554145  0.181449  1
  Pd  Pd13  1  0.586040  0.947199  0.671845  1
  Pd  Pd14  1  0.900828  0.945855  0.181449  1
  Pd  Pd15  1  0.099172  0.054145  0.818551  1
