# generated using pymatgen
data_TbY3Al18(Pd2Ru)2
_symmetry_space_group_name_H-M   'P 1'
_cell_length_a   7.60086406
_cell_length_b   7.60099722
_cell_length_c   9.50508600
_cell_angle_alpha   90.00000000
_cell_angle_beta   90.00000000
_cell_angle_gamma   119.42952510
_symmetry_Int_Tables_number   1
_chemical_formula_structural   TbY3Al18(Pd2Ru)2
_chemical_formula_sum   'Tb1 Y3 Al18 Pd4 Ru2'
_cell_volume   478.28654371
_cell_formula_units_Z   1
loop_
 _symmetry_equiv_pos_site_id
 _symmetry_equiv_pos_as_xyz
  1  'x, y, z'
loop_
 _atom_site_type_symbol
 _atom_site_label
 _atom_site_symmetry_multiplicity
 _atom_site_fract_x
 _atom_site_fract_y
 _atom_site_fract_z
 _atom_site_occupancy
  Tb  Tb0  1  0.994795  0.669147  0.250000  1
  Y  Y1  1  0.005184  0.330810  0.750000  1
  Y  Y2  1  0.669170  0.994840  0.250000  1
  Y  Y3  1  0.330824  0.005203  0.750000  1
  Al  Al4  1  0.124135  0.124141  0.250000  1
  Al  Al5  1  0.875881  0.875886  0.750000  1
  Al  Al6  1  0.000399  0.329239  0.075913  1
  Al  Al7  1  0.999589  0.670725  0.924139  1
  Al  Al8  1  0.999589  0.670725  0.575861  1
  Al  Al9  1  0.329293  0.000428  0.424086  1
  Al  Al10  1  0.000399  0.329239  0.424087  1
  Al  Al11  1  0.670731  0.999595  0.575844  1
  Al  Al12  1  0.670731  0.999595  0.924156  1
  Al  Al13  1  0.329293  0.000428  0.075914  1
  Al  Al14  1  0.328229  0.328231  0.554338  1
  Al  Al15  1  0.671739  0.671765  0.445635  1
  Al  Al16  1  0.671739  0.671765  0.054365  1
  Al  Al17  1  0.328229  0.328231  0.945662  1
  Al  Al18  1  0.341728  0.546503  0.250000  1
  Al  Al19  1  0.658285  0.453491  0.750000  1
  Al  Al20  1  0.546501  0.341730  0.250000  1
  Al  Al21  1  0.453499  0.658295  0.750000  1
  Pd  Pd22  1  0.672163  0.327775  0.999953  1
  Pd  Pd23  1  0.327834  0.672189  0.999956  1
  Pd  Pd24  1  0.327834  0.672189  0.500044  1
  Pd  Pd25  1  0.672163  0.327775  0.500047  1
  Ru  Ru26  1  0.000023  0.000030  0.999944  1
  Ru  Ru27  1  0.000023  0.000030  0.500056  1
