# generated using pymatgen
data_SrSm6CuBr12
_symmetry_space_group_name_H-M   'P 1'
_cell_length_a   9.37852391
_cell_length_b   9.37852308
_cell_length_c   9.37852400
_cell_angle_alpha   106.22767904
_cell_angle_beta   106.22768393
_cell_angle_gamma   106.22767490
_symmetry_Int_Tables_number   1
_chemical_formula_structural   SrSm6CuBr12
_chemical_formula_sum   'Sr1 Sm6 Cu1 Br12'
_cell_volume   700.95811254
_cell_formula_units_Z   1
loop_
 _symmetry_equiv_pos_site_id
 _symmetry_equiv_pos_as_xyz
  1  'x, y, z'
loop_
 _atom_site_type_symbol
 _atom_site_label
 _atom_site_symmetry_multiplicity
 _atom_site_fract_x
 _atom_site_fract_y
 _atom_site_fract_z
 _atom_site_occupancy
  Sr  Sr0  1  0.500000  0.500000  0.500000  1
  Sm  Sm1  1  0.100633  0.313840  0.020198  1
  Sm  Sm2  1  0.020198  0.100633  0.313840  1
  Sm  Sm3  1  0.313840  0.020198  0.100633  1
  Sm  Sm4  1  0.899367  0.686160  0.979802  1
  Sm  Sm5  1  0.979802  0.899367  0.686160  1
  Sm  Sm6  1  0.686160  0.979802  0.899367  1
  Cu  Cu7  1  0.000000  0.000000  0.000000  1
  Br  Br8  1  0.446567  0.365991  0.143392  1
  Br  Br9  1  0.143392  0.446567  0.365991  1
  Br  Br10  1  0.365991  0.143392  0.446567  1
  Br  Br11  1  0.553433  0.634009  0.856608  1
  Br  Br12  1  0.856608  0.553433  0.634009  1
  Br  Br13  1  0.634009  0.856608  0.553433  1
  Br  Br14  1  0.777120  0.320956  0.927030  1
  Br  Br15  1  0.927030  0.777120  0.320956  1
  Br  Br16  1  0.320956  0.927030  0.777120  1
  Br  Br17  1  0.222880  0.679044  0.072970  1
  Br  Br18  1  0.072970  0.222880  0.679044  1
  Br  Br19  1  0.679044  0.072970  0.222880  1
