# generated using pymatgen
data_ErTmMgNi9
_symmetry_space_group_name_H-M   'P 1'
_cell_length_a   8.42694713
_cell_length_b   8.42694701
_cell_length_c   8.42694843
_cell_angle_alpha   33.73175758
_cell_angle_beta   33.73175883
_cell_angle_gamma   33.73174932
_symmetry_Int_Tables_number   1
_chemical_formula_structural   ErTmMgNi9
_chemical_formula_sum   'Er1 Tm1 Mg1 Ni9'
_cell_volume   164.41541688
_cell_formula_units_Z   1
loop_
 _symmetry_equiv_pos_site_id
 _symmetry_equiv_pos_as_xyz
  1  'x, y, z'
loop_
 _atom_site_type_symbol
 _atom_site_label
 _atom_site_symmetry_multiplicity
 _atom_site_fract_x
 _atom_site_fract_y
 _atom_site_fract_z
 _atom_site_occupancy
  Er  Er0  1  0.003693  0.003693  0.003693  1
  Tm  Tm1  1  0.857122  0.857122  0.857122  1
  Mg  Mg2  1  0.139599  0.139599  0.139599  1
  Ni  Ni3  1  0.583991  0.081637  0.583991  1
  Ni  Ni4  1  0.081637  0.583991  0.583991  1
  Ni  Ni5  1  0.583991  0.583991  0.081637  1
  Ni  Ni6  1  0.415521  0.919804  0.415521  1
  Ni  Ni7  1  0.919804  0.415521  0.415521  1
  Ni  Ni8  1  0.332920  0.332920  0.332920  1
  Ni  Ni9  1  0.415521  0.415521  0.919804  1
  Ni  Ni10  1  0.499751  0.499751  0.499751  1
  Ni  Ni11  1  0.666450  0.666450  0.666450  1
