# generated using pymatgen
data_Dy6TiCo16P12Os
_symmetry_space_group_name_H-M   'P 1'
_cell_length_a   3.71456900
_cell_length_b   10.56469600
_cell_length_c   12.26714000
_cell_angle_alpha   90.00000000
_cell_angle_beta   90.00000000
_cell_angle_gamma   90.00000000
_symmetry_Int_Tables_number   1
_chemical_formula_structural   Dy6TiCo16P12Os
_chemical_formula_sum   'Dy6 Ti1 Co16 P12 Os1'
_cell_volume   481.40296017
_cell_formula_units_Z   1
loop_
 _symmetry_equiv_pos_site_id
 _symmetry_equiv_pos_as_xyz
  1  'x, y, z'
loop_
 _atom_site_type_symbol
 _atom_site_label
 _atom_site_symmetry_multiplicity
 _atom_site_fract_x
 _atom_site_fract_y
 _atom_site_fract_z
 _atom_site_occupancy
  Dy  Dy0  1  0.000000  0.500000  0.525382  1
  Dy  Dy1  1  0.500000  0.000000  0.475360  1
  Dy  Dy2  1  0.500000  0.818432  0.204634  1
  Dy  Dy3  1  0.500000  0.181568  0.204634  1
  Dy  Dy4  1  0.000000  0.680868  0.793575  1
  Dy  Dy5  1  0.000000  0.319132  0.793575  1
  Ti  Ti6  1  0.000000  0.000000  0.847809  1
  Co  Co7  1  0.500000  0.500000  0.702616  1
  Co  Co8  1  0.000000  0.000000  0.296962  1
  Co  Co9  1  0.000000  0.500000  0.987562  1
  Co  Co10  1  0.500000  0.000000  0.013538  1
  Co  Co11  1  0.500000  0.335069  0.991847  1
  Co  Co12  1  0.500000  0.664931  0.991847  1
  Co  Co13  1  0.000000  0.169749  0.008252  1
  Co  Co14  1  0.000000  0.830251  0.008252  1
  Co  Co15  1  0.500000  0.297413  0.430151  1
  Co  Co16  1  0.500000  0.702587  0.430151  1
  Co  Co17  1  0.000000  0.204534  0.567390  1
  Co  Co18  1  0.000000  0.795466  0.567390  1
  Co  Co19  1  0.500000  0.878094  0.707346  1
  Co  Co20  1  0.500000  0.121906  0.707346  1
  Co  Co21  1  0.000000  0.620274  0.292098  1
  Co  Co22  1  0.000000  0.379726  0.292098  1
  P  P23  1  0.500000  0.500000  0.881126  1
  P  P24  1  0.000000  0.000000  0.117452  1
  P  P25  1  0.500000  0.500000  0.350585  1
  P  P26  1  0.000000  0.000000  0.647621  1
  P  P27  1  0.500000  0.310987  0.615141  1
  P  P28  1  0.500000  0.689013  0.615141  1
  P  P29  1  0.000000  0.188815  0.383573  1
  P  P30  1  0.000000  0.811185  0.383573  1
  P  P31  1  0.500000  0.842398  0.894652  1
  P  P32  1  0.500000  0.157602  0.894652  1
  P  P33  1  0.000000  0.652955  0.108114  1
  P  P34  1  0.000000  0.347045  0.108114  1
  Os  Os35  1  0.500000  0.500000  0.160441  1
