# generated using pymatgen
data_CaIrO4
_symmetry_space_group_name_H-M   'P 1'
_cell_length_a   5.18501200
_cell_length_b   5.17169000
_cell_length_c   12.52939800
_cell_angle_alpha   90.00000000
_cell_angle_beta   90.00000000
_cell_angle_gamma   90.00000000
_symmetry_Int_Tables_number   1
_chemical_formula_structural   CaIrO4
_chemical_formula_sum   'Ca4 Ir4 O16'
_cell_volume   335.97924932
_cell_formula_units_Z   4
loop_
 _symmetry_equiv_pos_site_id
 _symmetry_equiv_pos_as_xyz
  1  'x, y, z'
loop_
 _atom_site_type_symbol
 _atom_site_label
 _atom_site_symmetry_multiplicity
 _atom_site_fract_x
 _atom_site_fract_y
 _atom_site_fract_z
 _atom_site_occupancy
  Ca  Ca0  1  0.750000  0.000000  0.667600  1
  Ca  Ca1  1  0.250000  0.500000  0.832400  1
  Ca  Ca2  1  0.250000  0.000000  0.332400  1
  Ca  Ca3  1  0.750000  0.500000  0.167600  1
  Ir  Ir4  1  0.750000  0.500000  0.429617  1
  Ir  Ir5  1  0.250000  0.000000  0.070383  1
  Ir  Ir6  1  0.250000  0.500000  0.570383  1
  Ir  Ir7  1  0.750000  0.000000  0.929617  1
  O  O8  1  0.117859  0.277456  0.676124  1
  O  O9  1  0.617859  0.222544  0.823876  1
  O  O10  1  0.882141  0.777456  0.823876  1
  O  O11  1  0.382141  0.722544  0.676124  1
  O  O12  1  0.882141  0.722544  0.323876  1
  O  O13  1  0.382141  0.777456  0.176124  1
  O  O14  1  0.117859  0.222544  0.176124  1
  O  O15  1  0.617859  0.277456  0.323876  1
  O  O16  1  0.562752  0.302599  0.545498  1
  O  O17  1  0.062752  0.197401  0.954502  1
  O  O18  1  0.437248  0.802599  0.954502  1
  O  O19  1  0.937248  0.697401  0.545498  1
  O  O20  1  0.437248  0.697401  0.454502  1
  O  O21  1  0.937248  0.802599  0.045498  1
  O  O22  1  0.562752  0.197401  0.045498  1
  O  O23  1  0.062752  0.302599  0.454502  1
