# generated using pymatgen
data_TbEr10In9Ru4
_symmetry_space_group_name_H-M   'P 1'
_cell_length_a   3.72584600
_cell_length_b   12.93895175
_cell_length_c   12.93895292
_cell_angle_alpha   112.48339338
_cell_angle_beta   90.00000000
_cell_angle_gamma   90.00000000
_symmetry_Int_Tables_number   1
_chemical_formula_structural   TbEr10In9Ru4
_chemical_formula_sum   'Tb1 Er10 In9 Ru4'
_cell_volume   576.35569711
_cell_formula_units_Z   1
loop_
 _symmetry_equiv_pos_site_id
 _symmetry_equiv_pos_as_xyz
  1  'x, y, z'
loop_
 _atom_site_type_symbol
 _atom_site_label
 _atom_site_symmetry_multiplicity
 _atom_site_fract_x
 _atom_site_fract_y
 _atom_site_fract_z
 _atom_site_occupancy
  Tb  Tb0  1  0.000000  0.000000  0.000000  1
  Er  Er1  1  0.000000  0.917224  0.581826  1
  Er  Er2  1  0.000000  0.082776  0.418174  1
  Er  Er3  1  0.000000  0.581826  0.917224  1
  Er  Er4  1  0.000000  0.418174  0.082776  1
  Er  Er5  1  0.000000  0.161988  0.838012  1
  Er  Er6  1  0.000000  0.838012  0.161988  1
  Er  Er7  1  0.000000  0.373826  0.626174  1
  Er  Er8  1  0.000000  0.626174  0.373826  1
  Er  Er9  1  0.000000  0.689727  0.689727  1
  Er  Er10  1  0.000000  0.310273  0.310273  1
  In  In11  1  0.500000  0.155468  0.631518  1
  In  In12  1  0.500000  0.844532  0.368482  1
  In  In13  1  0.500000  0.631518  0.155468  1
  In  In14  1  0.500000  0.368482  0.844532  1
  In  In15  1  0.500000  0.926004  0.780363  1
  In  In16  1  0.500000  0.073996  0.219637  1
  In  In17  1  0.500000  0.780363  0.926004  1
  In  In18  1  0.500000  0.219637  0.073996  1
  In  In19  1  0.500000  0.500000  0.500000  1
  Ru  Ru20  1  0.500000  0.746418  0.549989  1
  Ru  Ru21  1  0.500000  0.253582  0.450011  1
  Ru  Ru22  1  0.500000  0.549989  0.746418  1
  Ru  Ru23  1  0.500000  0.450011  0.253582  1
