# generated using pymatgen
data_PrDy4(MnB3)2
_symmetry_space_group_name_H-M   'P 1'
_cell_length_a   5.43986599
_cell_length_b   5.43986671
_cell_length_c   8.37402856
_cell_angle_alpha   71.04618677
_cell_angle_beta   71.04617983
_cell_angle_gamma   60.00000742
_symmetry_Int_Tables_number   1
_chemical_formula_structural   PrDy4(MnB3)2
_chemical_formula_sum   'Pr1 Dy4 Mn2 B6'
_cell_volume   198.94029864
_cell_formula_units_Z   1
loop_
 _symmetry_equiv_pos_site_id
 _symmetry_equiv_pos_as_xyz
  1  'x, y, z'
loop_
 _atom_site_type_symbol
 _atom_site_label
 _atom_site_symmetry_multiplicity
 _atom_site_fract_x
 _atom_site_fract_y
 _atom_site_fract_z
 _atom_site_occupancy
  Pr  Pr0  1  0.000000  0.000000  0.000000  1
  Dy  Dy1  1  0.249601  0.249601  0.251196  1
  Dy  Dy2  1  0.750399  0.750399  0.748804  1
  Dy  Dy3  1  0.417761  0.417761  0.746719  1
  Dy  Dy4  1  0.582239  0.582239  0.253281  1
  Mn  Mn5  1  0.115443  0.115443  0.653673  1
  Mn  Mn6  1  0.884557  0.884557  0.346327  1
  B  B7  1  0.166036  0.833964  0.500000  1
  B  B8  1  0.833964  0.500000  0.500000  1
  B  B9  1  0.500000  0.166036  0.500000  1
  B  B10  1  0.166036  0.500000  0.500000  1
  B  B11  1  0.500000  0.833964  0.500000  1
  B  B12  1  0.833964  0.166036  0.500000  1
