# generated using pymatgen
data_Ir8PdS12
_symmetry_space_group_name_H-M   'P 1'
_cell_length_a   7.59820073
_cell_length_b   7.61077262
_cell_length_c   6.34360170
_cell_angle_alpha   76.94886136
_cell_angle_beta   77.06388150
_cell_angle_gamma   91.74590564
_symmetry_Int_Tables_number   1
_chemical_formula_structural   Ir8PdS12
_chemical_formula_sum   'Ir8 Pd1 S12'
_cell_volume   347.02284976
_cell_formula_units_Z   1
loop_
 _symmetry_equiv_pos_site_id
 _symmetry_equiv_pos_as_xyz
  1  'x, y, z'
loop_
 _atom_site_type_symbol
 _atom_site_label
 _atom_site_symmetry_multiplicity
 _atom_site_fract_x
 _atom_site_fract_y
 _atom_site_fract_z
 _atom_site_occupancy
  Ir  Ir0  1  0.163734  0.839214  0.999909  1
  Ir  Ir1  1  0.838782  0.161596  0.999086  1
  Ir  Ir2  1  0.004219  0.001478  0.498483  1
  Ir  Ir3  1  0.347526  0.348195  0.945681  1
  Ir  Ir4  1  0.650628  0.649096  0.055345  1
  Ir  Ir5  1  0.507099  0.218412  0.549080  1
  Ir  Ir6  1  0.218240  0.510965  0.548686  1
  Ir  Ir7  1  0.487631  0.779999  0.453293  1
  Pd  Pd8  1  0.773616  0.489794  0.453751  1
  S  S9  1  0.856989  0.437782  0.095365  1
  S  S10  1  0.561341  0.144935  0.897132  1
  S  S11  1  0.145722  0.562058  0.894896  1
  S  S12  1  0.438888  0.852835  0.105572  1
  S  S13  1  0.116105  0.115364  0.109748  1
  S  S14  1  0.885898  0.884618  0.889618  1
  S  S15  1  0.035499  0.719384  0.386644  1
  S  S16  1  0.289560  0.969943  0.611098  1
  S  S17  1  0.972695  0.281547  0.612977  1
  S  S18  1  0.577300  0.587023  0.738700  1
  S  S19  1  0.412549  0.413947  0.267525  1
  S  S20  1  0.715980  0.031812  0.387412  1
