# generated using pymatgen
data_Lu3Hf5Sc5Si16W7
_symmetry_space_group_name_H-M   'P 1'
_cell_length_a   6.70127603
_cell_length_b   6.91919071
_cell_length_c   13.19689034
_cell_angle_alpha   89.97674670
_cell_angle_beta   90.08854475
_cell_angle_gamma   89.86311826
_symmetry_Int_Tables_number   1
_chemical_formula_structural   Lu3Hf5Sc5Si16W7
_chemical_formula_sum   'Lu3 Hf5 Sc5 Si16 W7'
_cell_volume   611.90305569
_cell_formula_units_Z   1
loop_
 _symmetry_equiv_pos_site_id
 _symmetry_equiv_pos_as_xyz
  1  'x, y, z'
loop_
 _atom_site_type_symbol
 _atom_site_label
 _atom_site_symmetry_multiplicity
 _atom_site_fract_x
 _atom_site_fract_y
 _atom_site_fract_z
 _atom_site_occupancy
  Lu  Lu0  1  0.503737  0.672272  0.594821  1
  Lu  Lu1  1  0.003299  0.827769  0.907997  1
  Lu  Lu2  1  0.496401  0.325941  0.092156  1
  Hf  Hf3  1  0.666395  0.173822  0.624640  1
  Hf  Hf4  1  0.164979  0.329398  0.876965  1
  Hf  Hf5  1  0.334617  0.829406  0.122489  1
  Hf  Hf6  1  0.832738  0.669349  0.375401  1
  Hf  Hf7  1  0.325822  0.827558  0.374310  1
  Sc  Sc8  1  0.995410  0.175925  0.405071  1
  Sc  Sc9  1  0.496984  0.326198  0.402502  1
  Sc  Sc10  1  0.993537  0.177180  0.096473  1
  Sc  Sc11  1  0.505044  0.676098  0.902098  1
  Sc  Sc12  1  0.005269  0.825885  0.595858  1
  Si  Si13  1  0.666903  0.975115  0.454647  1
  Si  Si14  1  0.150381  0.529195  0.047271  1
  Si  Si15  1  0.350101  0.029389  0.952464  1
  Si  Si16  1  0.848161  0.468973  0.546398  1
  Si  Si17  1  0.322722  0.041430  0.542278  1
  Si  Si18  1  0.822968  0.462089  0.960220  1
  Si  Si19  1  0.676737  0.962463  0.039517  1
  Si  Si20  1  0.171613  0.526789  0.463942  1
  Si  Si21  1  0.470524  0.386591  0.754036  1
  Si  Si22  1  0.970593  0.112599  0.748202  1
  Si  Si23  1  0.532884  0.608286  0.249085  1
  Si  Si24  1  0.024474  0.887678  0.245367  1
  Si  Si25  1  0.707469  0.861824  0.749903  1
  Si  Si26  1  0.205837  0.640939  0.750065  1
  Si  Si27  1  0.288062  0.142912  0.250382  1
  Si  Si28  1  0.795260  0.357339  0.249837  1
  W  W29  1  0.821756  0.667322  0.124109  1
  W  W30  1  0.677037  0.168535  0.873894  1
  W  W31  1  0.173778  0.330290  0.629736  1
  W  W32  1  0.842376  0.495741  0.751063  1
  W  W33  1  0.342490  0.007306  0.750752  1
  W  W34  1  0.156715  0.504545  0.248145  1
  W  W35  1  0.656927  0.995852  0.247905  1
