# generated using pymatgen
data_CeU5(Co3P2)6
_symmetry_space_group_name_H-M   'P 1'
_cell_length_a   3.71570300
_cell_length_b   10.41587700
_cell_length_c   12.26327700
_cell_angle_alpha   90.00000000
_cell_angle_beta   90.00000000
_cell_angle_gamma   90.00000000
_symmetry_Int_Tables_number   1
_chemical_formula_structural   CeU5(Co3P2)6
_chemical_formula_sum   'Ce1 U5 Co18 P12'
_cell_volume   474.61709186
_cell_formula_units_Z   1
loop_
 _symmetry_equiv_pos_site_id
 _symmetry_equiv_pos_as_xyz
  1  'x, y, z'
loop_
 _atom_site_type_symbol
 _atom_site_label
 _atom_site_symmetry_multiplicity
 _atom_site_fract_x
 _atom_site_fract_y
 _atom_site_fract_z
 _atom_site_occupancy
  Ce  Ce0  1  0.750000  0.250000  0.477683  1
  U  U1  1  0.250000  0.750000  0.524769  1
  U  U2  1  0.250000  0.932223  0.793334  1
  U  U3  1  0.250000  0.567777  0.793334  1
  U  U4  1  0.750000  0.068046  0.205997  1
  U  U5  1  0.750000  0.431954  0.205997  1
  Co  Co6  1  0.250000  0.250000  0.841954  1
  Co  Co7  1  0.750000  0.750000  0.160552  1
  Co  Co8  1  0.250000  0.250000  0.293108  1
  Co  Co9  1  0.750000  0.750000  0.700032  1
  Co  Co10  1  0.750000  0.250000  0.015258  1
  Co  Co11  1  0.250000  0.750000  0.983722  1
  Co  Co12  1  0.250000  0.418962  0.005050  1
  Co  Co13  1  0.250000  0.081038  0.005050  1
  Co  Co14  1  0.750000  0.583247  0.995005  1
  Co  Co15  1  0.750000  0.916753  0.995005  1
  Co  Co16  1  0.250000  0.450551  0.570028  1
  Co  Co17  1  0.250000  0.049449  0.570028  1
  Co  Co18  1  0.750000  0.552091  0.430288  1
  Co  Co19  1  0.750000  0.947909  0.430288  1
  Co  Co20  1  0.250000  0.870667  0.288850  1
  Co  Co21  1  0.250000  0.629333  0.288850  1
  Co  Co22  1  0.750000  0.128074  0.713001  1
  Co  Co23  1  0.750000  0.371926  0.713001  1
  P  P24  1  0.250000  0.250000  0.113910  1
  P  P25  1  0.750000  0.750000  0.882662  1
  P  P26  1  0.250000  0.250000  0.659622  1
  P  P27  1  0.750000  0.750000  0.344742  1
  P  P28  1  0.250000  0.442745  0.385113  1
  P  P29  1  0.250000  0.057255  0.385113  1
  P  P30  1  0.750000  0.557712  0.613426  1
  P  P31  1  0.750000  0.942288  0.613426  1
  P  P32  1  0.250000  0.901977  0.106530  1
  P  P33  1  0.250000  0.598023  0.106530  1
  P  P34  1  0.750000  0.096319  0.894373  1
  P  P35  1  0.750000  0.403681  0.894373  1
