# generated using pymatgen
data_Tm4Co4P12Ir9Ru7
_symmetry_space_group_name_H-M   'P 1'
_cell_length_a   3.87210700
_cell_length_b   10.80754255
_cell_length_c   12.19670059
_cell_angle_alpha   90.03603930
_cell_angle_beta   90.00000000
_cell_angle_gamma   90.00000000
_symmetry_Int_Tables_number   1
_chemical_formula_structural   Tm4Co4P12Ir9Ru7
_chemical_formula_sum   'Tm4 Co4 P12 Ir9 Ru7'
_cell_volume   510.40695143
_cell_formula_units_Z   1
loop_
 _symmetry_equiv_pos_site_id
 _symmetry_equiv_pos_as_xyz
  1  'x, y, z'
loop_
 _atom_site_type_symbol
 _atom_site_label
 _atom_site_symmetry_multiplicity
 _atom_site_fract_x
 _atom_site_fract_y
 _atom_site_fract_z
 _atom_site_occupancy
  Tm  Tm0  1  0.250000  0.585034  0.705313  1
  Tm  Tm1  1  0.250000  0.914683  0.207065  1
  Tm  Tm2  1  0.750000  0.414423  0.294635  1
  Tm  Tm3  1  0.750000  0.086319  0.793863  1
  Co  Co4  1  0.250000  0.460661  0.932476  1
  Co  Co5  1  0.250000  0.040177  0.433635  1
  Co  Co6  1  0.750000  0.538789  0.067011  1
  Co  Co7  1  0.750000  0.960021  0.566394  1
  P  P8  1  0.250000  0.425953  0.106913  1
  P  P9  1  0.250000  0.074619  0.607569  1
  P  P10  1  0.750000  0.573829  0.892455  1
  P  P11  1  0.750000  0.926106  0.392600  1
  P  P12  1  0.250000  0.267135  0.878194  1
  P  P13  1  0.250000  0.233040  0.377549  1
  P  P14  1  0.750000  0.729542  0.124287  1
  P  P15  1  0.750000  0.766947  0.622232  1
  P  P16  1  0.250000  0.593188  0.394885  1
  P  P17  1  0.250000  0.906083  0.891068  1
  P  P18  1  0.750000  0.406645  0.605018  1
  P  P19  1  0.750000  0.096769  0.107240  1
  Ir  Ir20  1  0.750000  0.905021  0.013279  1
  Ir  Ir21  1  0.250000  0.235865  0.183050  1
  Ir  Ir22  1  0.250000  0.263948  0.684042  1
  Ir  Ir23  1  0.750000  0.764405  0.816287  1
  Ir  Ir24  1  0.750000  0.736076  0.316514  1
  Ir  Ir25  1  0.250000  0.890749  0.702102  1
  Ir  Ir26  1  0.250000  0.608903  0.203729  1
  Ir  Ir27  1  0.750000  0.109030  0.297085  1
  Ir  Ir28  1  0.750000  0.391713  0.795707  1
  Ru  Ru29  1  0.250000  0.717482  0.986160  1
  Ru  Ru30  1  0.250000  0.786930  0.484999  1
  Ru  Ru31  1  0.750000  0.283773  0.012091  1
  Ru  Ru32  1  0.750000  0.213280  0.514705  1
  Ru  Ru33  1  0.250000  0.404350  0.490692  1
  Ru  Ru34  1  0.250000  0.092880  0.989894  1
  Ru  Ru35  1  0.750000  0.595631  0.509260  1
