# generated using pymatgen
data_CaAgP2O7
_symmetry_space_group_name_H-M   'P 1'
_cell_length_a   5.95437586
_cell_length_b   6.81357075
_cell_length_c   7.86046591
_cell_angle_alpha   80.25878519
_cell_angle_beta   86.53141239
_cell_angle_gamma   69.91328260
_symmetry_Int_Tables_number   1
_chemical_formula_structural   CaAgP2O7
_chemical_formula_sum   'Ca2 Ag2 P4 O14'
_cell_volume   295.18659850
_cell_formula_units_Z   2
loop_
 _symmetry_equiv_pos_site_id
 _symmetry_equiv_pos_as_xyz
  1  'x, y, z'
loop_
 _atom_site_type_symbol
 _atom_site_label
 _atom_site_symmetry_multiplicity
 _atom_site_fract_x
 _atom_site_fract_y
 _atom_site_fract_z
 _atom_site_occupancy
  Ca  Ca0  1  0.314035  0.669649  0.657233  1
  Ca  Ca1  1  0.685965  0.330351  0.342767  1
  Ag  Ag2  1  0.279806  0.126515  0.169218  1
  Ag  Ag3  1  0.720194  0.873485  0.830782  1
  P  P4  1  0.164559  0.662113  0.115951  1
  P  P5  1  0.835441  0.337887  0.884049  1
  P  P6  1  0.223669  0.214846  0.614908  1
  P  P7  1  0.776331  0.785154  0.385092  1
  O  O8  1  0.085523  0.715744  0.925220  1
  O  O9  1  0.914477  0.284256  0.074780  1
  O  O10  1  0.279140  0.807513  0.174037  1
  O  O11  1  0.720860  0.192487  0.825963  1
  O  O12  1  0.341219  0.432858  0.155457  1
  O  O13  1  0.658781  0.567142  0.844543  1
  O  O14  1  0.622481  0.649262  0.449053  1
  O  O15  1  0.377519  0.350738  0.550947  1
  O  O16  1  0.051073  0.208840  0.483762  1
  O  O17  1  0.948927  0.791160  0.516238  1
  O  O18  1  0.076323  0.331916  0.774357  1
  O  O19  1  0.629003  0.013084  0.301344  1
  O  O20  1  0.370997  0.986916  0.698656  1
  O  O21  1  0.923677  0.668084  0.225643  1
