# generated using pymatgen
data_Hf16Co5Os2Pt
_symmetry_space_group_name_H-M   'P 1'
_cell_length_a   8.56610183
_cell_length_b   8.57628798
_cell_length_c   8.58030200
_cell_angle_alpha   59.98451623
_cell_angle_beta   59.94514799
_cell_angle_gamma   59.85649667
_symmetry_Int_Tables_number   1
_chemical_formula_structural   Hf16Co5Os2Pt
_chemical_formula_sum   'Hf16 Co5 Os2 Pt1'
_cell_volume   445.00642736
_cell_formula_units_Z   1
loop_
 _symmetry_equiv_pos_site_id
 _symmetry_equiv_pos_as_xyz
  1  'x, y, z'
loop_
 _atom_site_type_symbol
 _atom_site_label
 _atom_site_symmetry_multiplicity
 _atom_site_fract_x
 _atom_site_fract_y
 _atom_site_fract_z
 _atom_site_occupancy
  Hf  Hf0  1  0.189395  0.604115  0.603245  1
  Hf  Hf1  1  0.603390  0.188362  0.604124  1
  Hf  Hf2  1  0.604296  0.606574  0.184350  1
  Hf  Hf3  1  0.604296  0.606574  0.604780  1
  Hf  Hf4  1  0.813237  0.812922  0.186921  1
  Hf  Hf5  1  0.193746  0.178376  0.813939  1
  Hf  Hf6  1  0.813577  0.180261  0.813496  1
  Hf  Hf7  1  0.185353  0.813072  0.187737  1
  Hf  Hf8  1  0.185353  0.813072  0.813838  1
  Hf  Hf9  1  0.813577  0.180261  0.192666  1
  Hf  Hf10  1  0.446270  0.448655  0.052538  1
  Hf  Hf11  1  0.051174  0.051069  0.448879  1
  Hf  Hf12  1  0.450223  0.050792  0.448157  1
  Hf  Hf13  1  0.052834  0.449439  0.052815  1
  Hf  Hf14  1  0.052834  0.449439  0.444913  1
  Hf  Hf15  1  0.450223  0.050792  0.050828  1
  Co  Co16  1  0.822269  0.393951  0.391889  1
  Co  Co17  1  0.393640  0.822797  0.391781  1
  Co  Co18  1  0.392603  0.392847  0.824755  1
  Co  Co19  1  0.392603  0.392847  0.389796  1
  Co  Co20  1  0.496052  0.839035  0.832456  1
  Os  Os21  1  0.831239  0.836542  0.499645  1
  Os  Os22  1  0.831239  0.836542  0.832577  1
  Pt  Pt23  1  0.830583  0.501668  0.833876  1
