# generated using pymatgen
data_Tb2DyThPd4
_symmetry_space_group_name_H-M   'P 1'
_cell_length_a   4.59178300
_cell_length_b   5.64707965
_cell_length_c   7.09918800
_cell_angle_alpha   90.49016360
_cell_angle_beta   90.00000000
_cell_angle_gamma   90.00000000
_symmetry_Int_Tables_number   1
_chemical_formula_structural   Tb2DyThPd4
_chemical_formula_sum   'Tb2 Dy1 Th1 Pd4'
_cell_volume   184.07637513
_cell_formula_units_Z   1
loop_
 _symmetry_equiv_pos_site_id
 _symmetry_equiv_pos_as_xyz
  1  'x, y, z'
loop_
 _atom_site_type_symbol
 _atom_site_label
 _atom_site_symmetry_multiplicity
 _atom_site_fract_x
 _atom_site_fract_y
 _atom_site_fract_z
 _atom_site_occupancy
  Tb  Tb0  1  0.250000  0.141753  0.183167  1
  Tb  Tb1  1  0.750000  0.643206  0.314720  1
  Dy  Dy2  1  0.750000  0.857442  0.819834  1
  Th  Th3  1  0.250000  0.359584  0.682447  1
  Pd  Pd4  1  0.250000  0.844204  0.544863  1
  Pd  Pd5  1  0.250000  0.655038  0.041182  1
  Pd  Pd6  1  0.750000  0.154072  0.456789  1
  Pd  Pd7  1  0.750000  0.344701  0.956997  1
