# generated using pymatgen
data_Ti4In2Rh3Au
_symmetry_space_group_name_H-M   'P 1'
_cell_length_a   7.50978442
_cell_length_b   7.50978377
_cell_length_c   3.04967100
_cell_angle_alpha   90.00000000
_cell_angle_beta   90.00000000
_cell_angle_gamma   89.79350529
_symmetry_Int_Tables_number   1
_chemical_formula_structural   Ti4In2Rh3Au
_chemical_formula_sum   'Ti4 In2 Rh3 Au1'
_cell_volume   171.99074294
_cell_formula_units_Z   1
loop_
 _symmetry_equiv_pos_site_id
 _symmetry_equiv_pos_as_xyz
  1  'x, y, z'
loop_
 _atom_site_type_symbol
 _atom_site_label
 _atom_site_symmetry_multiplicity
 _atom_site_fract_x
 _atom_site_fract_y
 _atom_site_fract_z
 _atom_site_occupancy
  Ti  Ti0  1  0.155738  0.314945  0.000000  1
  Ti  Ti1  1  0.814945  0.655738  0.000000  1
  Ti  Ti2  1  0.668008  0.168008  0.000000  1
  Ti  Ti3  1  0.352905  0.852905  0.000000  1
  In  In4  1  0.998728  0.999030  0.500000  1
  In  In5  1  0.499030  0.498728  0.500000  1
  Rh  Rh6  1  0.371998  0.135382  0.500000  1
  Rh  Rh7  1  0.635382  0.871998  0.500000  1
  Rh  Rh8  1  0.870544  0.370544  0.500000  1
  Au  Au9  1  0.132723  0.632723  0.500000  1
