# generated using pymatgen
data_Pr5IrPt2
_symmetry_space_group_name_H-M   'P 1'
_cell_length_a   11.54029100
_cell_length_b   11.54029100
_cell_length_c   6.59139200
_cell_angle_alpha   90.00000000
_cell_angle_beta   90.00000000
_cell_angle_gamma   90.00000000
_symmetry_Int_Tables_number   1
_chemical_formula_structural   Pr5IrPt2
_chemical_formula_sum   'Pr20 Ir4 Pt8'
_cell_volume   877.83048906
_cell_formula_units_Z   4
loop_
 _symmetry_equiv_pos_site_id
 _symmetry_equiv_pos_as_xyz
  1  'x, y, z'
loop_
 _atom_site_type_symbol
 _atom_site_label
 _atom_site_symmetry_multiplicity
 _atom_site_fract_x
 _atom_site_fract_y
 _atom_site_fract_z
 _atom_site_occupancy
  Pr  Pr0  1  0.295276  0.089156  0.375682  1
  Pr  Pr1  1  0.295276  0.910844  0.875682  1
  Pr  Pr2  1  0.704724  0.089156  0.875682  1
  Pr  Pr3  1  0.704724  0.910844  0.375682  1
  Pr  Pr4  1  0.589156  0.795276  0.875682  1
  Pr  Pr5  1  0.589156  0.204724  0.375682  1
  Pr  Pr6  1  0.410844  0.795276  0.375682  1
  Pr  Pr7  1  0.410844  0.204724  0.875682  1
  Pr  Pr8  1  0.204724  0.410844  0.624318  1
  Pr  Pr9  1  0.204724  0.589156  0.124318  1
  Pr  Pr10  1  0.795276  0.410844  0.124318  1
  Pr  Pr11  1  0.795276  0.589156  0.624318  1
  Pr  Pr12  1  0.910844  0.704724  0.124318  1
  Pr  Pr13  1  0.910844  0.295276  0.624318  1
  Pr  Pr14  1  0.089156  0.704724  0.624318  1
  Pr  Pr15  1  0.089156  0.295276  0.124318  1
  Pr  Pr16  1  0.000000  0.000000  0.500000  1
  Pr  Pr17  1  0.000000  0.000000  0.000000  1
  Pr  Pr18  1  0.500000  0.500000  0.000000  1
  Pr  Pr19  1  0.500000  0.500000  0.500000  1
  Ir  Ir20  1  0.500000  0.000000  0.115387  1
  Ir  Ir21  1  0.500000  0.000000  0.615387  1
  Ir  Ir22  1  0.000000  0.500000  0.884613  1
  Ir  Ir23  1  0.000000  0.500000  0.384613  1
  Pt  Pt24  1  0.846313  0.153687  0.250000  1
  Pt  Pt25  1  0.846313  0.846313  0.750000  1
  Pt  Pt26  1  0.153687  0.153687  0.750000  1
  Pt  Pt27  1  0.153687  0.846313  0.250000  1
  Pt  Pt28  1  0.653687  0.346313  0.750000  1
  Pt  Pt29  1  0.653687  0.653687  0.250000  1
  Pt  Pt30  1  0.346313  0.346313  0.250000  1
  Pt  Pt31  1  0.346313  0.653687  0.750000  1
