# generated using pymatgen
data_Tb3Tm(MoN3)4
_symmetry_space_group_name_H-M   'P 1'
_cell_length_a   7.33144866
_cell_length_b   7.33144971
_cell_length_c   6.27888650
_cell_angle_alpha   73.57263758
_cell_angle_beta   73.57263936
_cell_angle_gamma   81.49152146
_symmetry_Int_Tables_number   1
_chemical_formula_structural   Tb3Tm(MoN3)4
_chemical_formula_sum   'Tb3 Tm1 Mo4 N12'
_cell_volume   309.65125494
_cell_formula_units_Z   1
loop_
 _symmetry_equiv_pos_site_id
 _symmetry_equiv_pos_as_xyz
  1  'x, y, z'
loop_
 _atom_site_type_symbol
 _atom_site_label
 _atom_site_symmetry_multiplicity
 _atom_site_fract_x
 _atom_site_fract_y
 _atom_site_fract_z
 _atom_site_occupancy
  Tb  Tb0  1  0.706592  0.293408  0.250000  1
  Tb  Tb1  1  0.087104  0.912896  0.250000  1
  Tb  Tb2  1  0.293513  0.706487  0.750000  1
  Tm  Tm3  1  0.911998  0.088002  0.750000  1
  Mo  Mo4  1  0.800678  0.619141  0.771851  1
  Mo  Mo5  1  0.199411  0.379479  0.229912  1
  Mo  Mo6  1  0.620521  0.800589  0.270088  1
  Mo  Mo7  1  0.380859  0.199322  0.728149  1
  N  N8  1  0.216887  0.001783  0.843984  1
  N  N9  1  0.366801  0.347426  0.433048  1
  N  N10  1  0.636101  0.653991  0.565233  1
  N  N11  1  0.625261  0.111111  0.664524  1
  N  N12  1  0.998217  0.783113  0.656016  1
  N  N13  1  0.781504  0.000718  0.147973  1
  N  N14  1  0.110841  0.623042  0.161407  1
  N  N15  1  0.888889  0.374739  0.835476  1
  N  N16  1  0.999282  0.218496  0.352027  1
  N  N17  1  0.346009  0.363899  0.934767  1
  N  N18  1  0.652574  0.633199  0.066952  1
  N  N19  1  0.376958  0.889159  0.338593  1
