# generated using pymatgen
data_Tb6YbFeCl12
_symmetry_space_group_name_H-M   'P 1'
_cell_length_a   8.88524769
_cell_length_b   8.88524698
_cell_length_c   8.88524825
_cell_angle_alpha   106.88299431
_cell_angle_beta   106.88299491
_cell_angle_gamma   106.88300009
_symmetry_Int_Tables_number   1
_chemical_formula_structural   Tb6YbFeCl12
_chemical_formula_sum   'Tb6 Yb1 Fe1 Cl12'
_cell_volume   586.04484443
_cell_formula_units_Z   1
loop_
 _symmetry_equiv_pos_site_id
 _symmetry_equiv_pos_as_xyz
  1  'x, y, z'
loop_
 _atom_site_type_symbol
 _atom_site_label
 _atom_site_symmetry_multiplicity
 _atom_site_fract_x
 _atom_site_fract_y
 _atom_site_fract_z
 _atom_site_occupancy
  Tb  Tb0  1  0.104768  0.022546  0.313325  1
  Tb  Tb1  1  0.313325  0.104768  0.022546  1
  Tb  Tb2  1  0.022546  0.313325  0.104768  1
  Tb  Tb3  1  0.895232  0.977454  0.686675  1
  Tb  Tb4  1  0.686675  0.895232  0.977454  1
  Tb  Tb5  1  0.977454  0.686675  0.895232  1
  Yb  Yb6  1  0.500000  0.500000  0.500000  1
  Fe  Fe7  1  0.000000  0.000000  0.000000  1
  Cl  Cl8  1  0.071223  0.682240  0.216591  1
  Cl  Cl9  1  0.216591  0.071223  0.682240  1
  Cl  Cl10  1  0.682240  0.216591  0.071223  1
  Cl  Cl11  1  0.928777  0.317760  0.783409  1
  Cl  Cl12  1  0.783409  0.928777  0.317760  1
  Cl  Cl13  1  0.317760  0.783409  0.928777  1
  Cl  Cl14  1  0.451066  0.162863  0.372816  1
  Cl  Cl15  1  0.372816  0.451066  0.162863  1
  Cl  Cl16  1  0.162863  0.372816  0.451066  1
  Cl  Cl17  1  0.548934  0.837137  0.627184  1
  Cl  Cl18  1  0.627184  0.548934  0.837137  1
  Cl  Cl19  1  0.837137  0.627184  0.548934  1
