# generated using pymatgen
data_Ce2Lu2Al4Ir3Rh
_symmetry_space_group_name_H-M   'P 1'
_cell_length_a   6.78955819
_cell_length_b   4.28498600
_cell_length_c   7.92191422
_cell_angle_alpha   90.00000000
_cell_angle_beta   90.02725243
_cell_angle_gamma   90.00000000
_symmetry_Int_Tables_number   1
_chemical_formula_structural   Ce2Lu2Al4Ir3Rh
_chemical_formula_sum   'Ce2 Lu2 Al4 Ir3 Rh1'
_cell_volume   230.47350621
_cell_formula_units_Z   1
loop_
 _symmetry_equiv_pos_site_id
 _symmetry_equiv_pos_as_xyz
  1  'x, y, z'
loop_
 _atom_site_type_symbol
 _atom_site_label
 _atom_site_symmetry_multiplicity
 _atom_site_fract_x
 _atom_site_fract_y
 _atom_site_fract_z
 _atom_site_occupancy
  Ce  Ce0  1  0.033163  0.750000  0.822393  1
  Ce  Ce1  1  0.532050  0.750000  0.676326  1
  Lu  Lu2  1  0.965461  0.250000  0.185319  1
  Lu  Lu3  1  0.464555  0.250000  0.315390  1
  Al  Al4  1  0.863328  0.250000  0.553979  1
  Al  Al5  1  0.362758  0.250000  0.944750  1
  Al  Al6  1  0.138495  0.750000  0.432283  1
  Al  Al7  1  0.637699  0.750000  0.068147  1
  Ir  Ir8  1  0.238804  0.250000  0.622954  1
  Ir  Ir9  1  0.261198  0.750000  0.118200  1
  Ir  Ir10  1  0.761693  0.750000  0.380851  1
  Rh  Rh11  1  0.740795  0.250000  0.879406  1
