# generated using pymatgen
data_SrAc(Cd2Ag)2
_symmetry_space_group_name_H-M   'P 1'
_cell_length_a   5.93665000
_cell_length_b   5.93665007
_cell_length_c   8.22762600
_cell_angle_alpha   90.00000000
_cell_angle_beta   90.00000000
_cell_angle_gamma   134.86289031
_symmetry_Int_Tables_number   1
_chemical_formula_structural   SrAc(Cd2Ag)2
_chemical_formula_sum   'Sr1 Ac1 Cd4 Ag2'
_cell_volume   205.53189685
_cell_formula_units_Z   1
loop_
 _symmetry_equiv_pos_site_id
 _symmetry_equiv_pos_as_xyz
  1  'x, y, z'
loop_
 _atom_site_type_symbol
 _atom_site_label
 _atom_site_symmetry_multiplicity
 _atom_site_fract_x
 _atom_site_fract_y
 _atom_site_fract_z
 _atom_site_occupancy
  Sr  Sr0  1  0.931920  0.068080  0.750000  1
  Ac  Ac1  1  0.067185  0.932815  0.250000  1
  Cd  Cd2  1  0.363127  0.636873  0.050636  1
  Cd  Cd3  1  0.363127  0.636873  0.449364  1
  Cd  Cd4  1  0.638576  0.361424  0.561032  1
  Cd  Cd5  1  0.638576  0.361424  0.938968  1
  Ag  Ag6  1  0.775842  0.224158  0.250000  1
  Ag  Ag7  1  0.221645  0.778355  0.750000  1
