# generated using pymatgen
data_Tb3Tm3Al24NiOs7
_symmetry_space_group_name_H-M   'P 1'
_cell_length_a   8.78075425
_cell_length_b   8.77438121
_cell_length_c   9.57665035
_cell_angle_alpha   89.66517742
_cell_angle_beta   90.32550014
_cell_angle_gamma   119.74476166
_symmetry_Int_Tables_number   1
_chemical_formula_structural   Tb3Tm3Al24NiOs7
_chemical_formula_sum   'Tb3 Tm3 Al24 Ni1 Os7'
_cell_volume   640.61069966
_cell_formula_units_Z   1
loop_
 _symmetry_equiv_pos_site_id
 _symmetry_equiv_pos_as_xyz
  1  'x, y, z'
loop_
 _atom_site_type_symbol
 _atom_site_label
 _atom_site_symmetry_multiplicity
 _atom_site_fract_x
 _atom_site_fract_y
 _atom_site_fract_z
 _atom_site_occupancy
  Tb  Tb0  1  0.187400  0.384052  0.250553  1
  Tb  Tb1  1  0.812391  0.615972  0.749486  1
  Tb  Tb2  1  0.615538  0.812236  0.250510  1
  Tm  Tm3  1  0.388394  0.189002  0.748461  1
  Tm  Tm4  1  0.195445  0.804102  0.249824  1
  Tm  Tm5  1  0.803997  0.195717  0.750153  1
  Al  Al6  1  0.334728  0.664960  0.020107  1
  Al  Al7  1  0.664430  0.335123  0.978642  1
  Al  Al8  1  0.666299  0.333583  0.520305  1
  Al  Al9  1  0.333469  0.666201  0.480436  1
  Al  Al10  1  0.165089  0.326448  0.577102  1
  Al  Al11  1  0.835086  0.672765  0.423771  1
  Al  Al12  1  0.672759  0.835044  0.576863  1
  Al  Al13  1  0.837468  0.673259  0.076813  1
  Al  Al14  1  0.326790  0.164571  0.424383  1
  Al  Al15  1  0.162673  0.326127  0.922621  1
  Al  Al16  1  0.164327  0.836389  0.574906  1
  Al  Al17  1  0.326400  0.162617  0.075837  1
  Al  Al18  1  0.835600  0.164215  0.425775  1
  Al  Al19  1  0.673275  0.837567  0.922678  1
  Al  Al20  1  0.835355  0.164377  0.074665  1
  Al  Al21  1  0.164613  0.836490  0.924584  1
  Al  Al22  1  0.560777  0.125665  0.249226  1
  Al  Al23  1  0.438524  0.874804  0.750741  1
  Al  Al24  1  0.874114  0.438780  0.249325  1
  Al  Al25  1  0.125788  0.561090  0.750778  1
  Al  Al26  1  0.559513  0.439955  0.246993  1
  Al  Al27  1  0.440055  0.558606  0.753555  1
  Al  Al28  1  0.000916  0.998645  0.250138  1
  Al  Al29  1  0.002046  0.002877  0.749978  1
  Ni  Ni30  1  0.499383  0.499331  0.999943  1
  Os  Os31  1  0.499597  0.000650  0.999221  1
  Os  Os32  1  0.999598  0.499812  0.999839  1
  Os  Os33  1  0.499601  0.000341  0.500699  1
  Os  Os34  1  0.999824  0.499874  0.500224  1
  Os  Os35  1  0.499614  0.499181  0.500740  1
  Os  Os36  1  0.999529  0.999770  0.000012  1
  Os  Os37  1  0.999596  0.999802  0.500113  1
