# generated using pymatgen
data_DyTm7B24(RhW)2
_symmetry_space_group_name_H-M   'P 1'
_cell_length_a   3.61582500
_cell_length_b   9.15148796
_cell_length_c   11.55997701
_cell_angle_alpha   90.43990944
_cell_angle_beta   90.00000000
_cell_angle_gamma   90.00000000
_symmetry_Int_Tables_number   1
_chemical_formula_structural   DyTm7B24(RhW)2
_chemical_formula_sum   'Dy1 Tm7 B24 Rh2 W2'
_cell_volume   382.51043341
_cell_formula_units_Z   1
loop_
 _symmetry_equiv_pos_site_id
 _symmetry_equiv_pos_as_xyz
  1  'x, y, z'
loop_
 _atom_site_type_symbol
 _atom_site_label
 _atom_site_symmetry_multiplicity
 _atom_site_fract_x
 _atom_site_fract_y
 _atom_site_fract_z
 _atom_site_occupancy
  Dy  Dy0  1  0.500000  0.319941  0.412220  1
  Tm  Tm1  1  0.500000  0.680777  0.588097  1
  Tm  Tm2  1  0.500000  0.175537  0.916558  1
  Tm  Tm3  1  0.500000  0.824427  0.083324  1
  Tm  Tm4  1  0.500000  0.444683  0.126706  1
  Tm  Tm5  1  0.500000  0.555330  0.873140  1
  Tm  Tm6  1  0.500000  0.055232  0.627495  1
  Tm  Tm7  1  0.500000  0.944375  0.372594  1
  B  B8  1  0.000000  0.106500  0.472158  1
  B  B9  1  0.000000  0.892596  0.528127  1
  B  B10  1  0.000000  0.395647  0.970290  1
  B  B11  1  0.000000  0.604452  0.029592  1
  B  B12  1  0.000000  0.132362  0.317943  1
  B  B13  1  0.000000  0.866981  0.681660  1
  B  B14  1  0.000000  0.367473  0.816025  1
  B  B15  1  0.000000  0.632591  0.183969  1
  B  B16  1  0.000000  0.051278  0.065289  1
  B  B17  1  0.000000  0.948552  0.934535  1
  B  B18  1  0.000000  0.446840  0.565915  1
  B  B19  1  0.000000  0.554211  0.434659  1
  B  B20  1  0.000000  0.484201  0.288420  1
  B  B21  1  0.000000  0.516533  0.711248  1
  B  B22  1  0.000000  0.021259  0.785828  1
  B  B23  1  0.000000  0.978471  0.214153  1
  B  B24  1  0.000000  0.251485  0.078553  1
  B  B25  1  0.000000  0.748531  0.921259  1
  B  B26  1  0.000000  0.250626  0.579538  1
  B  B27  1  0.000000  0.749235  0.421263  1
  B  B28  1  0.000000  0.297042  0.236611  1
  B  B29  1  0.000000  0.702709  0.762756  1
  B  B30  1  0.000000  0.208680  0.734530  1
  B  B31  1  0.000000  0.791289  0.265631  1
  Rh  Rh32  1  0.500000  0.361232  0.678962  1
  Rh  Rh33  1  0.500000  0.639242  0.321264  1
  W  W34  1  0.500000  0.139064  0.180622  1
  W  W35  1  0.500000  0.860620  0.819067  1
