# generated using pymatgen
data_Tm19ZrRh12
_symmetry_space_group_name_H-M   'P 1'
_cell_length_a   10.73011600
_cell_length_b   10.73011600
_cell_length_c   6.25688600
_cell_angle_alpha   90.00000000
_cell_angle_beta   90.00000000
_cell_angle_gamma   90.00000000
_symmetry_Int_Tables_number   1
_chemical_formula_structural   Tm19ZrRh12
_chemical_formula_sum   'Tm19 Zr1 Rh12'
_cell_volume   720.38900588
_cell_formula_units_Z   1
loop_
 _symmetry_equiv_pos_site_id
 _symmetry_equiv_pos_as_xyz
  1  'x, y, z'
loop_
 _atom_site_type_symbol
 _atom_site_label
 _atom_site_symmetry_multiplicity
 _atom_site_fract_x
 _atom_site_fract_y
 _atom_site_fract_z
 _atom_site_occupancy
  Tm  Tm0  1  0.288650  0.087519  0.376770  1
  Tm  Tm1  1  0.290882  0.912279  0.876148  1
  Tm  Tm2  1  0.709118  0.087721  0.876148  1
  Tm  Tm3  1  0.711350  0.912481  0.376770  1
  Tm  Tm4  1  0.588439  0.791612  0.876044  1
  Tm  Tm5  1  0.587646  0.208669  0.376761  1
  Tm  Tm6  1  0.412354  0.791331  0.376761  1
  Tm  Tm7  1  0.411561  0.208388  0.876044  1
  Tm  Tm8  1  0.208669  0.412354  0.623239  1
  Tm  Tm9  1  0.208388  0.588439  0.123956  1
  Tm  Tm10  1  0.791612  0.411561  0.123956  1
  Tm  Tm11  1  0.791331  0.587646  0.623239  1
  Tm  Tm12  1  0.912279  0.709118  0.123852  1
  Tm  Tm13  1  0.912481  0.288650  0.623230  1
  Tm  Tm14  1  0.087519  0.711350  0.623230  1
  Tm  Tm15  1  0.087721  0.290882  0.123852  1
  Tm  Tm16  1  0.000000  0.000000  0.000000  1
  Tm  Tm17  1  0.500000  0.500000  0.000000  1
  Tm  Tm18  1  0.500000  0.500000  0.500000  1
  Zr  Zr19  1  0.000000  0.000000  0.500000  1
  Rh  Rh20  1  0.847636  0.149577  0.256287  1
  Rh  Rh21  1  0.850423  0.847636  0.743713  1
  Rh  Rh22  1  0.149577  0.152364  0.743713  1
  Rh  Rh23  1  0.152364  0.850423  0.256287  1
  Rh  Rh24  1  0.654279  0.344976  0.751070  1
  Rh  Rh25  1  0.655024  0.654279  0.248930  1
  Rh  Rh26  1  0.344976  0.345721  0.248930  1
  Rh  Rh27  1  0.345721  0.655024  0.751070  1
  Rh  Rh28  1  0.500000  0.000000  0.125464  1
  Rh  Rh29  1  0.500000  0.000000  0.624676  1
  Rh  Rh30  1  0.000000  0.500000  0.874536  1
  Rh  Rh31  1  0.000000  0.500000  0.375324  1
