# generated using pymatgen
data_Sm4NbCo12Mo3(P3Rh)4
_symmetry_space_group_name_H-M   'P 1'
_cell_length_a   3.77316300
_cell_length_b   10.56981400
_cell_length_c   12.09827800
_cell_angle_alpha   90.00000000
_cell_angle_beta   90.00000000
_cell_angle_gamma   90.00000000
_symmetry_Int_Tables_number   1
_chemical_formula_structural   Sm4NbCo12Mo3(P3Rh)4
_chemical_formula_sum   'Sm4 Nb1 Co12 Mo3 P12 Rh4'
_cell_volume   482.49906016
_cell_formula_units_Z   1
loop_
 _symmetry_equiv_pos_site_id
 _symmetry_equiv_pos_as_xyz
  1  'x, y, z'
loop_
 _atom_site_type_symbol
 _atom_site_label
 _atom_site_symmetry_multiplicity
 _atom_site_fract_x
 _atom_site_fract_y
 _atom_site_fract_z
 _atom_site_occupancy
  Sm  Sm0  1  0.250000  0.582437  0.707359  1
  Sm  Sm1  1  0.250000  0.918048  0.208403  1
  Sm  Sm2  1  0.750000  0.416814  0.291794  1
  Sm  Sm3  1  0.750000  0.083024  0.792014  1
  Nb  Nb4  1  0.250000  0.704510  0.986198  1
  Co  Co5  1  0.250000  0.223321  0.179951  1
  Co  Co6  1  0.250000  0.275913  0.679330  1
  Co  Co7  1  0.750000  0.776263  0.818731  1
  Co  Co8  1  0.750000  0.723856  0.322202  1
  Co  Co9  1  0.250000  0.886558  0.694423  1
  Co  Co10  1  0.250000  0.614348  0.198020  1
  Co  Co11  1  0.750000  0.114893  0.304121  1
  Co  Co12  1  0.750000  0.383944  0.803244  1
  Co  Co13  1  0.250000  0.463427  0.934325  1
  Co  Co14  1  0.250000  0.035032  0.434849  1
  Co  Co15  1  0.750000  0.533315  0.065770  1
  Co  Co16  1  0.750000  0.965631  0.564215  1
  Mo  Mo17  1  0.250000  0.795500  0.484991  1
  Mo  Mo18  1  0.750000  0.295819  0.015005  1
  Mo  Mo19  1  0.750000  0.204379  0.515000  1
  P  P20  1  0.250000  0.420599  0.112906  1
  P  P21  1  0.250000  0.079627  0.612611  1
  P  P22  1  0.750000  0.577135  0.885356  1
  P  P23  1  0.750000  0.920834  0.387043  1
  P  P24  1  0.250000  0.274442  0.863212  1
  P  P25  1  0.250000  0.224513  0.363246  1
  P  P26  1  0.750000  0.723989  0.139601  1
  P  P27  1  0.750000  0.776213  0.636378  1
  P  P28  1  0.250000  0.604364  0.383970  1
  P  P29  1  0.250000  0.898417  0.880406  1
  P  P30  1  0.750000  0.394216  0.617035  1
  P  P31  1  0.750000  0.105954  0.117218  1
  Rh  Rh32  1  0.250000  0.402712  0.486960  1
  Rh  Rh33  1  0.250000  0.098379  0.986268  1
  Rh  Rh34  1  0.750000  0.596873  0.513900  1
  Rh  Rh35  1  0.750000  0.904700  0.013946  1
