# generated using pymatgen
data_TbNdU2As6Ru7
_symmetry_space_group_name_H-M   'P 1'
_cell_length_a   7.20729083
_cell_length_b   7.22630097
_cell_length_c   7.30995283
_cell_angle_alpha   109.32927789
_cell_angle_beta   109.22420014
_cell_angle_gamma   109.34253470
_symmetry_Int_Tables_number   1
_chemical_formula_structural   TbNdU2As6Ru7
_chemical_formula_sum   'Tb1 Nd1 U2 As6 Ru7'
_cell_volume   294.93352272
_cell_formula_units_Z   1
loop_
 _symmetry_equiv_pos_site_id
 _symmetry_equiv_pos_as_xyz
  1  'x, y, z'
loop_
 _atom_site_type_symbol
 _atom_site_label
 _atom_site_symmetry_multiplicity
 _atom_site_fract_x
 _atom_site_fract_y
 _atom_site_fract_z
 _atom_site_occupancy
  Tb  Tb0  1  0.000000  0.500000  0.000000  1
  Nd  Nd1  1  0.500000  0.000000  0.000000  1
  U  U2  1  0.000000  0.000000  0.500000  1
  U  U3  1  0.500000  0.500000  0.500000  1
  As  As4  1  0.312455  0.996840  0.312362  1
  As  As5  1  0.999906  0.315521  0.312362  1
  As  As6  1  0.000094  0.684479  0.687638  1
  As  As7  1  0.312922  0.315758  0.000000  1
  As  As8  1  0.687078  0.684242  0.000000  1
  As  As9  1  0.687545  0.003160  0.687638  1
  Ru  Ru10  1  0.752318  0.512260  0.261449  1
  Ru  Ru11  1  0.509131  0.749189  0.261449  1
  Ru  Ru12  1  0.490869  0.250811  0.738551  1
  Ru  Ru13  1  0.751637  0.251637  0.503273  1
  Ru  Ru14  1  0.248363  0.748363  0.496727  1
  Ru  Ru15  1  0.247682  0.487740  0.738551  1
  Ru  Ru16  1  0.000000  0.000000  0.000000  1
