# generated using pymatgen
data_Dy7Y2Tm11Pt16
_symmetry_space_group_name_H-M   'P 1'
_cell_length_a   7.44096906
_cell_length_b   7.51495842
_cell_length_c   14.62789405
_cell_angle_alpha   89.96862739
_cell_angle_beta   90.00099465
_cell_angle_gamma   90.00800141
_symmetry_Int_Tables_number   1
_chemical_formula_structural   Dy7Y2Tm11Pt16
_chemical_formula_sum   'Dy7 Y2 Tm11 Pt16'
_cell_volume   817.97083261
_cell_formula_units_Z   1
loop_
 _symmetry_equiv_pos_site_id
 _symmetry_equiv_pos_as_xyz
  1  'x, y, z'
loop_
 _atom_site_type_symbol
 _atom_site_label
 _atom_site_symmetry_multiplicity
 _atom_site_fract_x
 _atom_site_fract_y
 _atom_site_fract_z
 _atom_site_occupancy
  Dy  Dy0  1  0.656255  0.832177  0.877980  1
  Dy  Dy1  1  0.998638  0.820514  0.406833  1
  Dy  Dy2  1  0.498224  0.679095  0.093800  1
  Dy  Dy3  1  0.501428  0.320612  0.592795  1
  Dy  Dy4  1  0.001882  0.180290  0.907026  1
  Dy  Dy5  1  0.001317  0.179260  0.592963  1
  Dy  Dy6  1  0.501111  0.320757  0.906948  1
  Y  Y7  1  0.498644  0.679222  0.406909  1
  Y  Y8  1  0.998837  0.820561  0.093140  1
  Tm  Tm9  1  0.681021  0.989835  0.250073  1
  Tm  Tm10  1  0.181000  0.510169  0.250119  1
  Tm  Tm11  1  0.819268  0.489389  0.749518  1
  Tm  Tm12  1  0.318626  0.010704  0.749611  1
  Tm  Tm13  1  0.656058  0.832406  0.622374  1
  Tm  Tm14  1  0.156250  0.667539  0.877352  1
  Tm  Tm15  1  0.843950  0.332527  0.377465  1
  Tm  Tm16  1  0.343714  0.167736  0.122703  1
  Tm  Tm17  1  0.343835  0.167546  0.377479  1
  Tm  Tm18  1  0.844186  0.332608  0.122971  1
  Tm  Tm19  1  0.156200  0.667530  0.622230  1
  Pt  Pt20  1  0.816541  0.641553  0.250201  1
  Pt  Pt21  1  0.316358  0.858537  0.249996  1
  Pt  Pt22  1  0.683614  0.142740  0.749091  1
  Pt  Pt23  1  0.182853  0.357913  0.749841  1
  Pt  Pt24  1  0.546268  0.384054  0.250068  1
  Pt  Pt25  1  0.046402  0.116000  0.250220  1
  Pt  Pt26  1  0.955125  0.884847  0.748991  1
  Pt  Pt27  1  0.452982  0.614247  0.749047  1
  Pt  Pt28  1  0.817907  0.533825  0.542100  1
  Pt  Pt29  1  0.315697  0.966988  0.958396  1
  Pt  Pt30  1  0.682338  0.034062  0.457886  1
  Pt  Pt31  1  0.182757  0.466049  0.042162  1
  Pt  Pt32  1  0.181879  0.465935  0.457897  1
  Pt  Pt33  1  0.681675  0.035374  0.043444  1
  Pt  Pt34  1  0.317779  0.966341  0.542128  1
  Pt  Pt35  1  0.819377  0.531058  0.958247  1
