# generated using pymatgen
data_Ho3Tc(P3Ir4)2
_symmetry_space_group_name_H-M   'P 1'
_cell_length_a   3.96535700
_cell_length_b   11.14878700
_cell_length_c   12.79301700
_cell_angle_alpha   90.00000000
_cell_angle_beta   90.00000000
_cell_angle_gamma   90.00000000
_symmetry_Int_Tables_number   1
_chemical_formula_structural   Ho3Tc(P3Ir4)2
_chemical_formula_sum   'Ho6 Tc2 P12 Ir16'
_cell_volume   565.56547243
_cell_formula_units_Z   2
loop_
 _symmetry_equiv_pos_site_id
 _symmetry_equiv_pos_as_xyz
  1  'x, y, z'
loop_
 _atom_site_type_symbol
 _atom_site_label
 _atom_site_symmetry_multiplicity
 _atom_site_fract_x
 _atom_site_fract_y
 _atom_site_fract_z
 _atom_site_occupancy
  Ho  Ho0  1  0.000000  0.500000  0.521440  1
  Ho  Ho1  1  0.500000  0.000000  0.478560  1
  Ho  Ho2  1  0.500000  0.818783  0.205730  1
  Ho  Ho3  1  0.500000  0.181217  0.205730  1
  Ho  Ho4  1  0.000000  0.681217  0.794270  1
  Ho  Ho5  1  0.000000  0.318783  0.794270  1
  Tc  Tc6  1  0.500000  0.500000  0.162507  1
  Tc  Tc7  1  0.000000  0.000000  0.837493  1
  P  P8  1  0.500000  0.316040  0.618213  1
  P  P9  1  0.500000  0.683960  0.618213  1
  P  P10  1  0.000000  0.183960  0.381787  1
  P  P11  1  0.000000  0.816040  0.381787  1
  P  P12  1  0.500000  0.500000  0.875583  1
  P  P13  1  0.000000  0.000000  0.124417  1
  P  P14  1  0.500000  0.843882  0.886348  1
  P  P15  1  0.500000  0.156118  0.886348  1
  P  P16  1  0.000000  0.656118  0.113652  1
  P  P17  1  0.000000  0.343882  0.113652  1
  P  P18  1  0.500000  0.500000  0.349271  1
  P  P19  1  0.000000  0.000000  0.650729  1
  Ir  Ir20  1  0.000000  0.500000  0.997129  1
  Ir  Ir21  1  0.500000  0.000000  0.002871  1
  Ir  Ir22  1  0.500000  0.297765  0.431838  1
  Ir  Ir23  1  0.500000  0.702235  0.431838  1
  Ir  Ir24  1  0.000000  0.202235  0.568162  1
  Ir  Ir25  1  0.000000  0.797765  0.568162  1
  Ir  Ir26  1  0.500000  0.872325  0.710841  1
  Ir  Ir27  1  0.500000  0.127675  0.710841  1
  Ir  Ir28  1  0.000000  0.627675  0.289159  1
  Ir  Ir29  1  0.000000  0.372325  0.289159  1
  Ir  Ir30  1  0.500000  0.331873  0.981673  1
  Ir  Ir31  1  0.500000  0.668127  0.981673  1
  Ir  Ir32  1  0.000000  0.168127  0.018327  1
  Ir  Ir33  1  0.000000  0.831873  0.018327  1
  Ir  Ir34  1  0.500000  0.500000  0.699545  1
  Ir  Ir35  1  0.000000  0.000000  0.300455  1
