# generated using pymatgen
data_Ta3Cr3SiP2
_symmetry_space_group_name_H-M   'P 1'
_cell_length_a   6.54608900
_cell_length_b   6.54609016
_cell_length_c   3.29734200
_cell_angle_alpha   90.00000000
_cell_angle_beta   90.00000000
_cell_angle_gamma   119.99998907
_symmetry_Int_Tables_number   1
_chemical_formula_structural   Ta3Cr3SiP2
_chemical_formula_sum   'Ta3 Cr3 Si1 P2'
_cell_volume   122.36537975
_cell_formula_units_Z   1
loop_
 _symmetry_equiv_pos_site_id
 _symmetry_equiv_pos_as_xyz
  1  'x, y, z'
loop_
 _atom_site_type_symbol
 _atom_site_label
 _atom_site_symmetry_multiplicity
 _atom_site_fract_x
 _atom_site_fract_y
 _atom_site_fract_z
 _atom_site_occupancy
  Ta  Ta0  1  0.398499  0.404140  0.500000  1
  Ta  Ta1  1  0.595860  0.994359  0.500000  1
  Ta  Ta2  1  0.005641  0.601501  0.500000  1
  Cr  Cr3  1  0.003583  0.251231  0.000000  1
  Cr  Cr4  1  0.247648  0.996417  0.000000  1
  Cr  Cr5  1  0.748769  0.752352  0.000000  1
  Si  Si6  1  0.666667  0.333333  0.000000  1
  P  P7  1  0.333333  0.666667  0.000000  1
  P  P8  1  0.000000  0.000000  0.500000  1
