# generated using pymatgen
data_Er8Be4Si11Hg
_symmetry_space_group_name_H-M   'P 1'
_cell_length_a   7.90522593
_cell_length_b   7.90522735
_cell_length_c   7.96656501
_cell_angle_alpha   89.99623125
_cell_angle_beta   90.00376610
_cell_angle_gamma   119.74928741
_symmetry_Int_Tables_number   1
_chemical_formula_structural   Er8Be4Si11Hg
_chemical_formula_sum   'Er8 Be4 Si11 Hg1'
_cell_volume   432.23708892
_cell_formula_units_Z   1
loop_
 _symmetry_equiv_pos_site_id
 _symmetry_equiv_pos_as_xyz
  1  'x, y, z'
loop_
 _atom_site_type_symbol
 _atom_site_label
 _atom_site_symmetry_multiplicity
 _atom_site_fract_x
 _atom_site_fract_y
 _atom_site_fract_z
 _atom_site_occupancy
  Er  Er0  1  0.995422  0.492944  0.246333  1
  Er  Er1  1  0.500516  0.499484  0.249076  1
  Er  Er2  1  0.506119  0.002671  0.753723  1
  Er  Er3  1  0.997329  0.493881  0.753723  1
  Er  Er4  1  0.499392  0.500608  0.750816  1
  Er  Er5  1  0.507056  0.004578  0.246333  1
  Er  Er6  1  0.996186  0.003814  0.753966  1
  Er  Er7  1  0.996057  0.003943  0.245947  1
  Be  Be8  1  0.333796  0.666204  0.003088  1
  Be  Be9  1  0.666813  0.333187  0.997046  1
  Be  Be10  1  0.666577  0.333423  0.503281  1
  Be  Be11  1  0.340144  0.659856  0.496369  1
  Si  Si12  1  0.173372  0.345758  0.499839  1
  Si  Si13  1  0.654242  0.826628  0.499839  1
  Si  Si14  1  0.345517  0.173027  0.999756  1
  Si  Si15  1  0.816752  0.650268  0.500266  1
  Si  Si16  1  0.827346  0.172654  0.999670  1
  Si  Si17  1  0.826973  0.654483  0.999756  1
  Si  Si18  1  0.172867  0.345374  0.000303  1
  Si  Si19  1  0.654626  0.827133  0.000303  1
  Si  Si20  1  0.349732  0.183248  0.500266  1
  Si  Si21  1  0.827361  0.172639  0.500243  1
  Si  Si22  1  0.172181  0.827819  0.000235  1
  Hg  Hg23  1  0.173623  0.826377  0.499820  1
