# generated using pymatgen
data_Pr16MgCo(AgIr)3
_symmetry_space_group_name_H-M   'P 1'
_cell_length_a   9.86835255
_cell_length_b   9.93653634
_cell_length_c   9.93653564
_cell_angle_alpha   60.61385145
_cell_angle_beta   60.42038258
_cell_angle_gamma   60.42037936
_symmetry_Int_Tables_number   1
_chemical_formula_structural   Pr16MgCo(AgIr)3
_chemical_formula_sum   'Pr16 Mg1 Co1 Ag3 Ir3'
_cell_volume   696.51426283
_cell_formula_units_Z   1
loop_
 _symmetry_equiv_pos_site_id
 _symmetry_equiv_pos_as_xyz
  1  'x, y, z'
loop_
 _atom_site_type_symbol
 _atom_site_label
 _atom_site_symmetry_multiplicity
 _atom_site_fract_x
 _atom_site_fract_y
 _atom_site_fract_z
 _atom_site_occupancy
  Pr  Pr0  1  0.348617  0.348164  0.348164  1
  Pr  Pr1  1  0.343371  0.344425  0.959303  1
  Pr  Pr2  1  0.343371  0.959303  0.344425  1
  Pr  Pr3  1  0.946326  0.348696  0.348696  1
  Pr  Pr4  1  0.812891  0.191198  0.191198  1
  Pr  Pr5  1  0.187781  0.811546  0.811546  1
  Pr  Pr6  1  0.187955  0.815392  0.188496  1
  Pr  Pr7  1  0.805146  0.193735  0.807749  1
  Pr  Pr8  1  0.187955  0.188496  0.815392  1
  Pr  Pr9  1  0.805146  0.807749  0.193735  1
  Pr  Pr10  1  0.937963  0.561767  0.561767  1
  Pr  Pr11  1  0.563517  0.937548  0.937548  1
  Pr  Pr12  1  0.560235  0.938917  0.561545  1
  Pr  Pr13  1  0.938827  0.564099  0.936237  1
  Pr  Pr14  1  0.560235  0.561545  0.938917  1
  Pr  Pr15  1  0.938827  0.936237  0.564099  1
  Mg  Mg16  1  0.295844  0.568853  0.568853  1
  Co  Co17  1  0.138875  0.140577  0.140577  1
  Ag  Ag18  1  0.580870  0.583856  0.583856  1
  Ag  Ag19  1  0.580407  0.585235  0.251965  1
  Ag  Ag20  1  0.580407  0.251965  0.585235  1
  Ir  Ir21  1  0.140127  0.143712  0.574916  1
  Ir  Ir22  1  0.140127  0.574916  0.143712  1
  Ir  Ir23  1  0.575181  0.142073  0.142073  1
