# generated using pymatgen
data_Ti2GaMoC2
_symmetry_space_group_name_H-M   'P 1'
_cell_length_a   3.07384300
_cell_length_b   3.07384451
_cell_length_c   18.26433000
_cell_angle_alpha   90.00000000
_cell_angle_beta   90.00000000
_cell_angle_gamma   120.00001606
_symmetry_Int_Tables_number   1
_chemical_formula_structural   Ti2GaMoC2
_chemical_formula_sum   'Ti4 Ga2 Mo2 C4'
_cell_volume   149.45067576
_cell_formula_units_Z   2
loop_
 _symmetry_equiv_pos_site_id
 _symmetry_equiv_pos_as_xyz
  1  'x, y, z'
loop_
 _atom_site_type_symbol
 _atom_site_label
 _atom_site_symmetry_multiplicity
 _atom_site_fract_x
 _atom_site_fract_y
 _atom_site_fract_z
 _atom_site_occupancy
  Ti  Ti0  1  0.333333  0.666667  0.630039  1
  Ti  Ti1  1  0.666667  0.333333  0.130039  1
  Ti  Ti2  1  0.000000  0.000000  0.498513  1
  Ti  Ti3  1  0.000000  0.000000  0.998513  1
  Ga  Ga4  1  0.000000  0.000000  0.750458  1
  Ga  Ga5  1  0.000000  0.000000  0.250458  1
  Mo  Mo6  1  0.666667  0.333333  0.369057  1
  Mo  Mo7  1  0.333333  0.666667  0.869057  1
  C  C8  1  0.333333  0.666667  0.430849  1
  C  C9  1  0.666667  0.333333  0.930849  1
  C  C10  1  0.333333  0.666667  0.071084  1
  C  C11  1  0.666667  0.333333  0.571084  1
