# generated using pymatgen
data_Dy2Er13Tm(Ga3Co)2
_symmetry_space_group_name_H-M   'P 1'
_cell_length_a   9.92607301
_cell_length_b   9.92607438
_cell_length_c   6.87471801
_cell_angle_alpha   90.00413205
_cell_angle_beta   89.99586663
_cell_angle_gamma   120.00053761
_symmetry_Int_Tables_number   1
_chemical_formula_structural   Dy2Er13Tm(Ga3Co)2
_chemical_formula_sum   'Dy2 Er13 Tm1 Ga6 Co2'
_cell_volume   586.59472902
_cell_formula_units_Z   1
loop_
 _symmetry_equiv_pos_site_id
 _symmetry_equiv_pos_as_xyz
  1  'x, y, z'
loop_
 _atom_site_type_symbol
 _atom_site_label
 _atom_site_symmetry_multiplicity
 _atom_site_fract_x
 _atom_site_fract_y
 _atom_site_fract_z
 _atom_site_occupancy
  Dy  Dy0  1  0.000049  0.999951  0.270101  1
  Dy  Dy1  1  0.000017  0.999983  0.770382  1
  Er  Er2  1  0.826522  0.173478  0.490668  1
  Er  Er3  1  0.173414  0.346871  0.990572  1
  Er  Er4  1  0.653129  0.826586  0.990572  1
  Er  Er5  1  0.346977  0.173494  0.490592  1
  Er  Er6  1  0.826506  0.653023  0.490592  1
  Er  Er7  1  0.333291  0.666709  0.672331  1
  Er  Er8  1  0.666669  0.333331  0.172335  1
  Er  Er9  1  0.463800  0.536200  0.293388  1
  Er  Er10  1  0.536254  0.463746  0.793283  1
  Er  Er11  1  0.463715  0.927608  0.293243  1
  Er  Er12  1  0.072392  0.536285  0.293243  1
  Er  Er13  1  0.927555  0.463843  0.793349  1
  Er  Er14  1  0.536157  0.072445  0.793349  1
  Tm  Tm15  1  0.173551  0.826449  0.990637  1
  Ga  Ga16  1  0.163770  0.836230  0.540624  1
  Ga  Ga17  1  0.836220  0.163780  0.040426  1
  Ga  Ga18  1  0.163779  0.327560  0.540448  1
  Ga  Ga19  1  0.672440  0.836221  0.540448  1
  Ga  Ga20  1  0.327434  0.163554  0.040394  1
  Ga  Ga21  1  0.836446  0.672566  0.040394  1
  Co  Co22  1  0.333241  0.666759  0.057357  1
  Co  Co23  1  0.666669  0.333331  0.557386  1
