# generated using pymatgen
data_Tm10IrRh3
_symmetry_space_group_name_H-M   'P 1'
_cell_length_a   6.38107273
_cell_length_b   7.09405935
_cell_length_c   8.46430569
_cell_angle_alpha   96.56466233
_cell_angle_beta   112.02155797
_cell_angle_gamma   90.08351060
_symmetry_Int_Tables_number   1
_chemical_formula_structural   Tm10IrRh3
_chemical_formula_sum   'Tm10 Ir1 Rh3'
_cell_volume   352.46764134
_cell_formula_units_Z   1
loop_
 _symmetry_equiv_pos_site_id
 _symmetry_equiv_pos_as_xyz
  1  'x, y, z'
loop_
 _atom_site_type_symbol
 _atom_site_label
 _atom_site_symmetry_multiplicity
 _atom_site_fract_x
 _atom_site_fract_y
 _atom_site_fract_z
 _atom_site_occupancy
  Tm  Tm0  1  0.974681  0.918638  0.185940  1
  Tm  Tm1  1  0.789044  0.582507  0.813617  1
  Tm  Tm2  1  0.027487  0.081653  0.816264  1
  Tm  Tm3  1  0.211077  0.418617  0.186275  1
  Tm  Tm4  1  0.654614  0.815318  0.439929  1
  Tm  Tm5  1  0.213815  0.685091  0.559843  1
  Tm  Tm6  1  0.347427  0.184784  0.558219  1
  Tm  Tm7  1  0.784312  0.313807  0.439517  1
  Tm  Tm8  1  0.425477  0.750398  0.999990  1
  Tm  Tm9  1  0.573441  0.249060  0.000275  1
  Ir  Ir10  1  0.396244  0.071836  0.220718  1
  Rh  Rh11  1  0.822401  0.571261  0.219175  1
  Rh  Rh12  1  0.603833  0.928467  0.780976  1
  Rh  Rh13  1  0.176148  0.428563  0.779263  1
