# generated using pymatgen
data_Lu6Co17P12Os
_symmetry_space_group_name_H-M   'P 1'
_cell_length_a   3.66689800
_cell_length_b   10.45134200
_cell_length_c   12.12766500
_cell_angle_alpha   90.00000000
_cell_angle_beta   90.00000000
_cell_angle_gamma   90.00000000
_symmetry_Int_Tables_number   1
_chemical_formula_structural   Lu6Co17P12Os
_chemical_formula_sum   'Lu6 Co17 P12 Os1'
_cell_volume   464.78069503
_cell_formula_units_Z   1
loop_
 _symmetry_equiv_pos_site_id
 _symmetry_equiv_pos_as_xyz
  1  'x, y, z'
loop_
 _atom_site_type_symbol
 _atom_site_label
 _atom_site_symmetry_multiplicity
 _atom_site_fract_x
 _atom_site_fract_y
 _atom_site_fract_z
 _atom_site_occupancy
  Lu  Lu0  1  0.000000  0.500000  0.525668  1
  Lu  Lu1  1  0.500000  0.000000  0.477549  1
  Lu  Lu2  1  0.500000  0.819088  0.207627  1
  Lu  Lu3  1  0.500000  0.180912  0.207627  1
  Lu  Lu4  1  0.000000  0.681451  0.793558  1
  Lu  Lu5  1  0.000000  0.318549  0.793558  1
  Co  Co6  1  0.000000  0.000000  0.839146  1
  Co  Co7  1  0.500000  0.500000  0.703312  1
  Co  Co8  1  0.000000  0.000000  0.295433  1
  Co  Co9  1  0.000000  0.500000  0.988849  1
  Co  Co10  1  0.500000  0.000000  0.013878  1
  Co  Co11  1  0.500000  0.332559  0.990549  1
  Co  Co12  1  0.500000  0.667441  0.990549  1
  Co  Co13  1  0.000000  0.166963  0.005989  1
  Co  Co14  1  0.000000  0.833037  0.005989  1
  Co  Co15  1  0.500000  0.297599  0.430818  1
  Co  Co16  1  0.500000  0.702401  0.430818  1
  Co  Co17  1  0.000000  0.202401  0.568247  1
  Co  Co18  1  0.000000  0.797599  0.568247  1
  Co  Co19  1  0.500000  0.877736  0.708661  1
  Co  Co20  1  0.500000  0.122264  0.708661  1
  Co  Co21  1  0.000000  0.621706  0.291735  1
  Co  Co22  1  0.000000  0.378294  0.291735  1
  P  P23  1  0.500000  0.500000  0.880144  1
  P  P24  1  0.000000  0.000000  0.117656  1
  P  P25  1  0.500000  0.500000  0.353334  1
  P  P26  1  0.000000  0.000000  0.653452  1
  P  P27  1  0.500000  0.313034  0.616940  1
  P  P28  1  0.500000  0.686966  0.616940  1
  P  P29  1  0.000000  0.186177  0.383456  1
  P  P30  1  0.000000  0.813823  0.383456  1
  P  P31  1  0.500000  0.848044  0.890451  1
  P  P32  1  0.500000  0.151956  0.890451  1
  P  P33  1  0.000000  0.656960  0.107795  1
  P  P34  1  0.000000  0.343040  0.107795  1
  Os  Os35  1  0.500000  0.500000  0.159926  1
