# generated using pymatgen
data_YbCoAsH
_symmetry_space_group_name_H-M   'P 1'
_cell_length_a   3.88167200
_cell_length_b   3.88167200
_cell_length_c   7.82787400
_cell_angle_alpha   90.00000000
_cell_angle_beta   90.00000000
_cell_angle_gamma   90.00000000
_symmetry_Int_Tables_number   1
_chemical_formula_structural   YbCoAsH
_chemical_formula_sum   'Yb2 Co2 As2 H2'
_cell_volume   117.94553270
_cell_formula_units_Z   2
loop_
 _symmetry_equiv_pos_site_id
 _symmetry_equiv_pos_as_xyz
  1  'x, y, z'
loop_
 _atom_site_type_symbol
 _atom_site_label
 _atom_site_symmetry_multiplicity
 _atom_site_fract_x
 _atom_site_fract_y
 _atom_site_fract_z
 _atom_site_occupancy
  Yb  Yb0  1  0.500000  0.000000  0.346154  1
  Yb  Yb1  1  0.000000  0.500000  0.653846  1
  Co  Co2  1  0.500000  0.500000  0.000000  1
  Co  Co3  1  0.000000  0.000000  0.000000  1
  As  As4  1  0.500000  0.000000  0.834589  1
  As  As5  1  0.000000  0.500000  0.165411  1
  H  H6  1  0.000000  0.000000  0.500000  1
  H  H7  1  0.500000  0.500000  0.500000  1
