# generated using pymatgen
data_Hf12Zn5Pt7N4
_symmetry_space_group_name_H-M   'P 1'
_cell_length_a   8.54553344
_cell_length_b   8.54479477
_cell_length_c   8.54553200
_cell_angle_alpha   59.99713040
_cell_angle_beta   59.99995912
_cell_angle_gamma   59.99711513
_symmetry_Int_Tables_number   1
_chemical_formula_structural   Hf12Zn5Pt7N4
_chemical_formula_sum   'Hf12 Zn5 Pt7 N4'
_cell_volume   441.21056005
_cell_formula_units_Z   1
loop_
 _symmetry_equiv_pos_site_id
 _symmetry_equiv_pos_as_xyz
  1  'x, y, z'
loop_
 _atom_site_type_symbol
 _atom_site_label
 _atom_site_symmetry_multiplicity
 _atom_site_fract_x
 _atom_site_fract_y
 _atom_site_fract_z
 _atom_site_occupancy
  Hf  Hf0  1  0.810572  0.189868  0.188986  1
  Hf  Hf1  1  0.189799  0.809953  0.189799  1
  Hf  Hf2  1  0.810449  0.809953  0.189799  1
  Hf  Hf3  1  0.189799  0.809954  0.810449  1
  Hf  Hf4  1  0.810573  0.189868  0.810573  1
  Hf  Hf5  1  0.188986  0.189867  0.810573  1
  Hf  Hf6  1  0.441039  0.057271  0.060652  1
  Hf  Hf7  1  0.063883  0.435062  0.063883  1
  Hf  Hf8  1  0.437171  0.435062  0.063883  1
  Hf  Hf9  1  0.063883  0.435061  0.437171  1
  Hf  Hf10  1  0.441038  0.057271  0.441039  1
  Hf  Hf11  1  0.060652  0.057271  0.441039  1
  Zn  Zn12  1  0.830243  0.509271  0.830243  1
  Zn  Zn13  1  0.625354  0.622588  0.126704  1
  Zn  Zn14  1  0.625354  0.622589  0.625354  1
  Zn  Zn15  1  0.126704  0.622588  0.625354  1
  Zn  Zn16  1  0.625388  0.123837  0.625388  1
  Pt  Pt17  1  0.409502  0.410761  0.770234  1
  Pt  Pt18  1  0.409503  0.410761  0.409503  1
  Pt  Pt19  1  0.770234  0.410760  0.409503  1
  Pt  Pt20  1  0.410303  0.769089  0.410303  1
  Pt  Pt21  1  0.839609  0.839759  0.481022  1
  Pt  Pt22  1  0.839610  0.839760  0.839610  1
  Pt  Pt23  1  0.481022  0.839759  0.839609  1
  N  N24  1  0.125404  0.124991  0.624201  1
  N  N25  1  0.125404  0.124991  0.125403  1
  N  N26  1  0.624200  0.124991  0.125404  1
  N  N27  1  0.124318  0.627045  0.124318  1
