# generated using pymatgen
data_LiHf(ZrPd5)3
_symmetry_space_group_name_H-M   'P 1'
_cell_length_a   4.04735800
_cell_length_b   4.04735800
_cell_length_c   20.26909200
_cell_angle_alpha   90.00000000
_cell_angle_beta   90.00000000
_cell_angle_gamma   90.00000000
_symmetry_Int_Tables_number   1
_chemical_formula_structural   LiHf(ZrPd5)3
_chemical_formula_sum   'Li1 Hf1 Zr3 Pd15'
_cell_volume   332.03016039
_cell_formula_units_Z   1
loop_
 _symmetry_equiv_pos_site_id
 _symmetry_equiv_pos_as_xyz
  1  'x, y, z'
loop_
 _atom_site_type_symbol
 _atom_site_label
 _atom_site_symmetry_multiplicity
 _atom_site_fract_x
 _atom_site_fract_y
 _atom_site_fract_z
 _atom_site_occupancy
  Li  Li0  1  0.000000  0.000000  0.801007  1
  Hf  Hf1  1  0.000000  0.000000  0.992917  1
  Zr  Zr2  1  0.000000  0.000000  0.197661  1
  Zr  Zr3  1  0.000000  0.000000  0.401457  1
  Zr  Zr4  1  0.000000  0.000000  0.607409  1
  Pd  Pd5  1  0.500000  0.500000  0.000587  1
  Pd  Pd6  1  0.500000  0.500000  0.199627  1
  Pd  Pd7  1  0.500000  0.500000  0.399388  1
  Pd  Pd8  1  0.500000  0.500000  0.599217  1
  Pd  Pd9  1  0.500000  0.500000  0.800742  1
  Pd  Pd10  1  0.500000  0.000000  0.099039  1
  Pd  Pd11  1  0.500000  0.000000  0.299513  1
  Pd  Pd12  1  0.500000  0.000000  0.499693  1
  Pd  Pd13  1  0.500000  0.000000  0.700849  1
  Pd  Pd14  1  0.500000  0.000000  0.900900  1
  Pd  Pd15  1  0.000000  0.500000  0.099039  1
  Pd  Pd16  1  0.000000  0.500000  0.299513  1
  Pd  Pd17  1  0.000000  0.500000  0.499693  1
  Pd  Pd18  1  0.000000  0.500000  0.700849  1
  Pd  Pd19  1  0.000000  0.500000  0.900900  1
