# generated using pymatgen
data_Hf2Nb2AlC3
_symmetry_space_group_name_H-M   'P 1'
_cell_length_a   3.21716400
_cell_length_b   3.21716421
_cell_length_c   24.49901900
_cell_angle_alpha   90.00000000
_cell_angle_beta   90.00000000
_cell_angle_gamma   119.99999779
_symmetry_Int_Tables_number   1
_chemical_formula_structural   Hf2Nb2AlC3
_chemical_formula_sum   'Hf4 Nb4 Al2 C6'
_cell_volume   219.59667776
_cell_formula_units_Z   2
loop_
 _symmetry_equiv_pos_site_id
 _symmetry_equiv_pos_as_xyz
  1  'x, y, z'
loop_
 _atom_site_type_symbol
 _atom_site_label
 _atom_site_symmetry_multiplicity
 _atom_site_fract_x
 _atom_site_fract_y
 _atom_site_fract_z
 _atom_site_occupancy
  Hf  Hf0  1  0.333333  0.666667  0.445626  1
  Hf  Hf1  1  0.666667  0.333333  0.945626  1
  Hf  Hf2  1  0.666667  0.333333  0.554374  1
  Hf  Hf3  1  0.333333  0.666667  0.054374  1
  Nb  Nb4  1  0.000000  0.000000  0.339848  1
  Nb  Nb5  1  0.000000  0.000000  0.839848  1
  Nb  Nb6  1  0.000000  0.000000  0.660152  1
  Nb  Nb7  1  0.000000  0.000000  0.160152  1
  Al  Al8  1  0.666667  0.333333  0.750000  1
  Al  Al9  1  0.333333  0.666667  0.250000  1
  C  C10  1  0.666667  0.333333  0.388122  1
  C  C11  1  0.333333  0.666667  0.888122  1
  C  C12  1  0.333333  0.666667  0.611878  1
  C  C13  1  0.000000  0.000000  0.000000  1
  C  C14  1  0.666667  0.333333  0.111878  1
  C  C15  1  0.000000  0.000000  0.500000  1
