# generated using pymatgen
data_Lu13Th3(InTc)4
_symmetry_space_group_name_H-M   'P 1'
_cell_length_a   9.56961385
_cell_length_b   9.60308673
_cell_length_c   9.60265301
_cell_angle_alpha   59.74313837
_cell_angle_beta   59.87551509
_cell_angle_gamma   59.88086337
_symmetry_Int_Tables_number   1
_chemical_formula_structural   Lu13Th3(InTc)4
_chemical_formula_sum   'Lu13 Th3 In4 Tc4'
_cell_volume   621.63058364
_cell_formula_units_Z   1
loop_
 _symmetry_equiv_pos_site_id
 _symmetry_equiv_pos_as_xyz
  1  'x, y, z'
loop_
 _atom_site_type_symbol
 _atom_site_label
 _atom_site_symmetry_multiplicity
 _atom_site_fract_x
 _atom_site_fract_y
 _atom_site_fract_z
 _atom_site_occupancy
  Lu  Lu0  1  0.195531  0.601862  0.601863  1
  Lu  Lu1  1  0.057402  0.443981  0.443864  1
  Lu  Lu2  1  0.439117  0.058731  0.058785  1
  Lu  Lu3  1  0.440374  0.058956  0.441705  1
  Lu  Lu4  1  0.059971  0.440234  0.054782  1
  Lu  Lu5  1  0.440330  0.441774  0.058938  1
  Lu  Lu6  1  0.059981  0.054779  0.440180  1
  Lu  Lu7  1  0.191844  0.806958  0.806986  1
  Lu  Lu8  1  0.808994  0.191160  0.191158  1
  Lu  Lu9  1  0.808748  0.189652  0.808242  1
  Lu  Lu10  1  0.194399  0.806378  0.194147  1
  Lu  Lu11  1  0.808834  0.808271  0.189572  1
  Lu  Lu12  1  0.194409  0.194172  0.806375  1
  Th  Th13  1  0.593525  0.599047  0.598983  1
  Th  Th14  1  0.597713  0.596892  0.208388  1
  Th  Th15  1  0.597703  0.208339  0.596972  1
  In  In16  1  0.836770  0.832771  0.832734  1
  In  In17  1  0.835680  0.832778  0.498087  1
  In  In18  1  0.835674  0.498055  0.832724  1
  In  In19  1  0.496142  0.834021  0.834020  1
  Tc  Tc20  1  0.389791  0.388901  0.388950  1
  Tc  Tc21  1  0.391825  0.389887  0.832338  1
  Tc  Tc22  1  0.391701  0.832336  0.389980  1
  Tc  Tc23  1  0.833541  0.390066  0.390223  1
