# generated using pymatgen
data_Yb6Si24Ir5Ru3
_symmetry_space_group_name_H-M   'P 1'
_cell_length_a   10.11395093
_cell_length_b   10.11395054
_cell_length_c   8.16946743
_cell_angle_alpha   89.95758415
_cell_angle_beta   89.95759239
_cell_angle_gamma   132.39309675
_symmetry_Int_Tables_number   1
_chemical_formula_structural   Yb6Si24Ir5Ru3
_chemical_formula_sum   'Yb6 Si24 Ir5 Ru3'
_cell_volume   617.17267944
_cell_formula_units_Z   1
loop_
 _symmetry_equiv_pos_site_id
 _symmetry_equiv_pos_as_xyz
  1  'x, y, z'
loop_
 _atom_site_type_symbol
 _atom_site_label
 _atom_site_symmetry_multiplicity
 _atom_site_fract_x
 _atom_site_fract_y
 _atom_site_fract_z
 _atom_site_occupancy
  Yb  Yb0  1  0.999177  0.999177  0.999968  1
  Yb  Yb1  1  0.500052  0.500052  0.500832  1
  Yb  Yb2  1  0.001855  0.501055  0.249095  1
  Yb  Yb3  1  0.997986  0.498524  0.751435  1
  Yb  Yb4  1  0.498524  0.997986  0.751435  1
  Yb  Yb5  1  0.501055  0.001855  0.249095  1
  Si  Si6  1  0.704593  0.295516  0.000129  1
  Si  Si7  1  0.295516  0.704593  0.000129  1
  Si  Si8  1  0.795406  0.204095  0.500359  1
  Si  Si9  1  0.204095  0.795406  0.500359  1
  Si  Si10  1  0.334722  0.334722  0.165126  1
  Si  Si11  1  0.668462  0.668462  0.831335  1
  Si  Si12  1  0.167841  0.167841  0.670110  1
  Si  Si13  1  0.829839  0.829839  0.332296  1
  Si  Si14  1  0.842026  0.609877  0.000530  1
  Si  Si15  1  0.158163  0.389975  0.998173  1
  Si  Si16  1  0.657247  0.889341  0.504221  1
  Si  Si17  1  0.110191  0.343467  0.499530  1
  Si  Si18  1  0.343467  0.110191  0.499530  1
  Si  Si19  1  0.889341  0.657247  0.504221  1
  Si  Si20  1  0.389975  0.158163  0.998173  1
  Si  Si21  1  0.609877  0.842026  0.000530  1
  Si  Si22  1  0.885282  0.119125  0.273221  1
  Si  Si23  1  0.110848  0.878281  0.726898  1
  Si  Si24  1  0.614844  0.381804  0.773953  1
  Si  Si25  1  0.619081  0.386302  0.225501  1
  Si  Si26  1  0.386302  0.619081  0.225501  1
  Si  Si27  1  0.381804  0.614844  0.773953  1
  Si  Si28  1  0.878281  0.110848  0.726898  1
  Si  Si29  1  0.119125  0.885282  0.273221  1
  Ir  Ir30  1  0.831993  0.168648  0.000295  1
  Ir  Ir31  1  0.168648  0.831993  0.000295  1
  Ir  Ir32  1  0.668639  0.331013  0.499342  1
  Ir  Ir33  1  0.331013  0.668639  0.499342  1
  Ir  Ir34  1  0.127981  0.127981  0.371862  1
  Ru  Ru35  1  0.875146  0.875146  0.624736  1
  Ru  Ru36  1  0.375198  0.375198  0.873496  1
  Ru  Ru37  1  0.626403  0.626403  0.124873  1
