# generated using pymatgen
data_Li4La3Zn2In3
_symmetry_space_group_name_H-M   'P 1'
_cell_length_a   5.03376600
_cell_length_b   7.15129700
_cell_length_c   15.05304804
_cell_angle_alpha   90.00000000
_cell_angle_beta   90.00275667
_cell_angle_gamma   90.00000000
_symmetry_Int_Tables_number   1
_chemical_formula_structural   Li4La3Zn2In3
_chemical_formula_sum   'Li8 La6 Zn4 In6'
_cell_volume   541.87895601
_cell_formula_units_Z   2
loop_
 _symmetry_equiv_pos_site_id
 _symmetry_equiv_pos_as_xyz
  1  'x, y, z'
loop_
 _atom_site_type_symbol
 _atom_site_label
 _atom_site_symmetry_multiplicity
 _atom_site_fract_x
 _atom_site_fract_y
 _atom_site_fract_z
 _atom_site_occupancy
  Li  Li0  1  0.500428  0.256336  0.332714  1
  Li  Li1  1  0.500428  0.743664  0.332714  1
  Li  Li2  1  0.000033  0.242746  0.498183  1
  Li  Li3  1  0.000033  0.757254  0.498183  1
  Li  Li4  1  0.499466  0.257257  0.668292  1
  Li  Li5  1  0.499466  0.742743  0.668292  1
  Li  Li6  1  0.999751  0.243557  0.834122  1
  Li  Li7  1  0.999751  0.756442  0.834122  1
  La  La8  1  0.000088  0.000000  0.008158  1
  La  La9  1  0.500273  0.500000  0.158617  1
  La  La10  1  0.000292  0.000000  0.327126  1
  La  La11  1  0.499936  0.500000  0.500757  1
  La  La12  1  0.999660  0.000000  0.665873  1
  La  La13  1  0.499847  0.500000  0.839460  1
  Zn  Zn14  1  0.499982  0.237635  0.994791  1
  Zn  Zn15  1  0.499982  0.762367  0.994791  1
  Zn  Zn16  1  0.000418  0.262241  0.171823  1
  Zn  Zn17  1  0.000418  0.737758  0.171823  1
  In  In18  1  0.000025  0.500000  0.999510  1
  In  In19  1  0.500090  0.000000  0.167520  1
  In  In20  1  0.000441  0.500000  0.336045  1
  In  In21  1  0.499958  0.000000  0.499448  1
  In  In22  1  0.999593  0.500000  0.667375  1
  In  In23  1  0.499631  0.000000  0.830257  1
