# generated using pymatgen
data_Dy5Ho3Tc3B24Os
_symmetry_space_group_name_H-M   'P 1'
_cell_length_a   3.67509100
_cell_length_b   9.15389201
_cell_length_c   11.54178404
_cell_angle_alpha   89.95800099
_cell_angle_beta   90.00000000
_cell_angle_gamma   90.00000000
_symmetry_Int_Tables_number   1
_chemical_formula_structural   Dy5Ho3Tc3B24Os
_chemical_formula_sum   'Dy5 Ho3 Tc3 B24 Os1'
_cell_volume   388.28150915
_cell_formula_units_Z   1
loop_
 _symmetry_equiv_pos_site_id
 _symmetry_equiv_pos_as_xyz
  1  'x, y, z'
loop_
 _atom_site_type_symbol
 _atom_site_label
 _atom_site_symmetry_multiplicity
 _atom_site_fract_x
 _atom_site_fract_y
 _atom_site_fract_z
 _atom_site_occupancy
  Dy  Dy0  1  0.000000  0.323804  0.413839  1
  Dy  Dy1  1  0.000000  0.675329  0.584386  1
  Dy  Dy2  1  0.000000  0.822892  0.087195  1
  Dy  Dy3  1  0.000000  0.177895  0.914519  1
  Dy  Dy4  1  0.000000  0.942448  0.370137  1
  Ho  Ho5  1  0.000000  0.058295  0.630192  1
  Ho  Ho6  1  0.000000  0.442933  0.130155  1
  Ho  Ho7  1  0.000000  0.557041  0.869473  1
  Tc  Tc8  1  0.000000  0.638343  0.320443  1
  Tc  Tc9  1  0.000000  0.361475  0.680165  1
  Tc  Tc10  1  0.000000  0.138364  0.178232  1
  B  B11  1  0.500000  0.553070  0.432788  1
  B  B12  1  0.500000  0.446766  0.566995  1
  B  B13  1  0.500000  0.053200  0.066966  1
  B  B14  1  0.500000  0.946213  0.932744  1
  B  B15  1  0.500000  0.748205  0.418557  1
  B  B16  1  0.500000  0.251055  0.581463  1
  B  B17  1  0.500000  0.249236  0.081386  1
  B  B18  1  0.500000  0.751285  0.918263  1
  B  B19  1  0.500000  0.791301  0.265604  1
  B  B20  1  0.500000  0.208583  0.734871  1
  B  B21  1  0.500000  0.291732  0.234455  1
  B  B22  1  0.500000  0.709164  0.765482  1
  B  B23  1  0.500000  0.630834  0.185615  1
  B  B24  1  0.500000  0.368977  0.814828  1
  B  B25  1  0.500000  0.130777  0.313900  1
  B  B26  1  0.500000  0.869036  0.685876  1
  B  B27  1  0.500000  0.982128  0.211679  1
  B  B28  1  0.500000  0.016877  0.788108  1
  B  B29  1  0.500000  0.482240  0.287856  1
  B  B30  1  0.500000  0.517560  0.711911  1
  B  B31  1  0.500000  0.601660  0.028078  1
  B  B32  1  0.500000  0.399318  0.971744  1
  B  B33  1  0.500000  0.101882  0.472078  1
  B  B34  1  0.500000  0.898465  0.528956  1
  Os  Os35  1  0.000000  0.861616  0.821062  1
