# generated using pymatgen
data_Nb(S4F3)2
_symmetry_space_group_name_H-M   'P 1'
_cell_length_a   8.41141714
_cell_length_b   8.31835024
_cell_length_c   10.80552638
_cell_angle_alpha   102.11680544
_cell_angle_beta   104.37853710
_cell_angle_gamma   91.73271359
_symmetry_Int_Tables_number   1
_chemical_formula_structural   Nb(S4F3)2
_chemical_formula_sum   'Nb2 S16 F12'
_cell_volume   713.34198993
_cell_formula_units_Z   2
loop_
 _symmetry_equiv_pos_site_id
 _symmetry_equiv_pos_as_xyz
  1  'x, y, z'
loop_
 _atom_site_type_symbol
 _atom_site_label
 _atom_site_symmetry_multiplicity
 _atom_site_fract_x
 _atom_site_fract_y
 _atom_site_fract_z
 _atom_site_occupancy
  Nb  Nb0  1  0.294797  0.786827  0.110080  1
  Nb  Nb1  1  0.705202  0.213111  0.889877  1
  S  S2  1  0.099881  0.377272  0.258462  1
  S  S3  1  0.758577  0.585856  0.261852  1
  S  S4  1  0.897884  0.038423  0.306308  1
  S  S5  1  0.557382  0.250327  0.317410  1
  S  S6  1  0.006208  0.585733  0.342108  1
  S  S7  1  0.107237  0.198450  0.362034  1
  S  S8  1  0.623054  0.500373  0.370759  1
  S  S9  1  0.730023  0.116746  0.409798  1
  S  S10  1  0.269870  0.883377  0.590238  1
  S  S11  1  0.377011  0.499819  0.629257  1
  S  S12  1  0.892686  0.801508  0.638006  1
  S  S13  1  0.993898  0.414260  0.657881  1
  S  S14  1  0.442582  0.749873  0.682643  1
  S  S15  1  0.101974  0.961622  0.693709  1
  S  S16  1  0.241533  0.414204  0.738139  1
  S  S17  1  0.900154  0.622651  0.741554  1
  F  F18  1  0.747701  0.246617  0.078805  1
  F  F19  1  0.067018  0.717934  0.094249  1
  F  F20  1  0.349114  0.560709  0.103003  1
  F  F21  1  0.240773  0.013742  0.120599  1
  F  F22  1  0.524898  0.853698  0.131262  1
  F  F23  1  0.338236  0.824763  0.301278  1
  F  F24  1  0.661674  0.175011  0.698664  1
  F  F25  1  0.475108  0.146285  0.868771  1
  F  F26  1  0.759280  0.986244  0.879558  1
  F  F27  1  0.650925  0.439238  0.896911  1
  F  F28  1  0.932978  0.281907  0.905620  1
  F  F29  1  0.252346  0.753417  0.921170  1
