# generated using pymatgen
data_Rb2MgZr3Se8
_symmetry_space_group_name_H-M   'P 1'
_cell_length_a   6.72586000
_cell_length_b   7.80653600
_cell_length_c   16.91100300
_cell_angle_alpha   90.00000000
_cell_angle_beta   90.00000000
_cell_angle_gamma   90.00000000
_symmetry_Int_Tables_number   1
_chemical_formula_structural   Rb2MgZr3Se8
_chemical_formula_sum   'Rb4 Mg2 Zr6 Se16'
_cell_volume   887.92351280
_cell_formula_units_Z   2
loop_
 _symmetry_equiv_pos_site_id
 _symmetry_equiv_pos_as_xyz
  1  'x, y, z'
loop_
 _atom_site_type_symbol
 _atom_site_label
 _atom_site_symmetry_multiplicity
 _atom_site_fract_x
 _atom_site_fract_y
 _atom_site_fract_z
 _atom_site_occupancy
  Rb  Rb0  1  0.343160  0.000000  0.000000  1
  Rb  Rb1  1  0.653242  0.500000  0.500000  1
  Rb  Rb2  1  0.022108  0.000000  0.500000  1
  Rb  Rb3  1  0.978229  0.500000  0.000000  1
  Mg  Mg4  1  0.002972  0.000000  0.248560  1
  Mg  Mg5  1  0.002972  0.000000  0.751440  1
  Zr  Zr6  1  0.997495  0.500000  0.252539  1
  Zr  Zr7  1  0.997495  0.500000  0.747461  1
  Zr  Zr8  1  0.498296  0.243566  0.249868  1
  Zr  Zr9  1  0.498296  0.756434  0.750132  1
  Zr  Zr10  1  0.498296  0.756434  0.249868  1
  Zr  Zr11  1  0.498296  0.243566  0.750132  1
  Se  Se12  1  0.831933  0.252159  0.341793  1
  Se  Se13  1  0.831933  0.747841  0.658207  1
  Se  Se14  1  0.168371  0.744545  0.158480  1
  Se  Se15  1  0.168371  0.255455  0.841520  1
  Se  Se16  1  0.168371  0.255455  0.158480  1
  Se  Se17  1  0.168371  0.744545  0.841520  1
  Se  Se18  1  0.831933  0.747841  0.341793  1
  Se  Se19  1  0.831933  0.252159  0.658207  1
  Se  Se20  1  0.662088  0.000000  0.158035  1
  Se  Se21  1  0.662088  0.000000  0.841965  1
  Se  Se22  1  0.330885  0.500000  0.341915  1
  Se  Se23  1  0.330885  0.500000  0.658085  1
  Se  Se24  1  0.344589  0.000000  0.342852  1
  Se  Se25  1  0.344589  0.000000  0.657148  1
  Se  Se26  1  0.666404  0.500000  0.159868  1
  Se  Se27  1  0.666404  0.500000  0.840132  1
