# generated using pymatgen
data_Hf6Zr3(CuP2)2
_symmetry_space_group_name_H-M   'P 1'
_cell_length_a   12.03889200
_cell_length_b   12.03889200
_cell_length_c   3.67236800
_cell_angle_alpha   90.00000000
_cell_angle_beta   90.00000000
_cell_angle_gamma   90.00000000
_symmetry_Int_Tables_number   1
_chemical_formula_structural   Hf6Zr3(CuP2)2
_chemical_formula_sum   'Hf12 Zr6 Cu4 P8'
_cell_volume   532.25436445
_cell_formula_units_Z   2
loop_
 _symmetry_equiv_pos_site_id
 _symmetry_equiv_pos_as_xyz
  1  'x, y, z'
loop_
 _atom_site_type_symbol
 _atom_site_label
 _atom_site_symmetry_multiplicity
 _atom_site_fract_x
 _atom_site_fract_y
 _atom_site_fract_z
 _atom_site_occupancy
  Hf  Hf0  1  0.101449  0.180894  0.500000  1
  Hf  Hf1  1  0.180894  0.898551  0.500000  1
  Hf  Hf2  1  0.819106  0.101449  0.500000  1
  Hf  Hf3  1  0.898551  0.819106  0.500000  1
  Hf  Hf4  1  0.398551  0.680894  0.500000  1
  Hf  Hf5  1  0.601449  0.319106  0.500000  1
  Hf  Hf6  1  0.680894  0.601449  0.500000  1
  Hf  Hf7  1  0.319106  0.398551  0.500000  1
  Hf  Hf8  1  0.095159  0.404841  0.000000  1
  Hf  Hf9  1  0.404841  0.904841  0.000000  1
  Hf  Hf10  1  0.595159  0.095159  0.000000  1
  Hf  Hf11  1  0.904841  0.595159  0.000000  1
  Zr  Zr12  1  0.000000  0.000000  0.000000  1
  Zr  Zr13  1  0.500000  0.500000  0.000000  1
  Zr  Zr14  1  0.383253  0.116747  0.500000  1
  Zr  Zr15  1  0.116747  0.616747  0.500000  1
  Zr  Zr16  1  0.883253  0.383253  0.500000  1
  Zr  Zr17  1  0.616747  0.883253  0.500000  1
  Cu  Cu18  1  0.253749  0.246251  0.000000  1
  Cu  Cu19  1  0.246251  0.746251  0.000000  1
  Cu  Cu20  1  0.753749  0.253749  0.000000  1
  Cu  Cu21  1  0.746251  0.753749  0.000000  1
  P  P22  1  0.224231  0.053389  0.000000  1
  P  P23  1  0.053389  0.775769  0.000000  1
  P  P24  1  0.946611  0.224231  0.000000  1
  P  P25  1  0.775769  0.946611  0.000000  1
  P  P26  1  0.275769  0.553389  0.000000  1
  P  P27  1  0.724231  0.446611  0.000000  1
  P  P28  1  0.553389  0.724231  0.000000  1
  P  P29  1  0.446611  0.275769  0.000000  1
