# generated using pymatgen
data_MnBi6(PtO9)2
_symmetry_space_group_name_H-M   'P 1'
_cell_length_a   9.18771800
_cell_length_b   9.18771710
_cell_length_c   5.22181900
_cell_angle_alpha   90.00000000
_cell_angle_beta   90.00000000
_cell_angle_gamma   120.00000516
_symmetry_Int_Tables_number   1
_chemical_formula_structural   MnBi6(PtO9)2
_chemical_formula_sum   'Mn1 Bi6 Pt2 O18'
_cell_volume   381.74002231
_cell_formula_units_Z   1
loop_
 _symmetry_equiv_pos_site_id
 _symmetry_equiv_pos_as_xyz
  1  'x, y, z'
loop_
 _atom_site_type_symbol
 _atom_site_label
 _atom_site_symmetry_multiplicity
 _atom_site_fract_x
 _atom_site_fract_y
 _atom_site_fract_z
 _atom_site_occupancy
  Mn  Mn0  1  0.666667  0.333333  0.000573  1
  Bi  Bi1  1  0.988444  0.372217  0.500261  1
  Bi  Bi2  1  0.295337  0.293333  0.999727  1
  Bi  Bi3  1  0.997997  0.704663  0.999727  1
  Bi  Bi4  1  0.627783  0.616227  0.500261  1
  Bi  Bi5  1  0.383773  0.011556  0.500261  1
  Bi  Bi6  1  0.706667  0.002003  0.999727  1
  Pt  Pt7  1  0.000000  0.000000  0.499499  1
  Pt  Pt8  1  0.333333  0.666667  0.003657  1
  O  O9  1  0.086517  0.204614  0.718590  1
  O  O10  1  0.221360  0.455548  0.213521  1
  O  O11  1  0.127461  0.591310  0.790686  1
  O  O12  1  0.408690  0.536152  0.790686  1
  O  O13  1  0.234187  0.778640  0.213521  1
  O  O14  1  0.118096  0.913483  0.718590  1
  O  O15  1  0.544452  0.765813  0.213521  1
  O  O16  1  0.205872  0.086921  0.279178  1
  O  O17  1  0.463848  0.872539  0.790686  1
  O  O18  1  0.795386  0.881904  0.718590  1
  O  O19  1  0.463364  0.233554  0.784882  1
  O  O20  1  0.601633  0.138572  0.211912  1
  O  O21  1  0.536940  0.398367  0.211912  1
  O  O22  1  0.766446  0.229811  0.784882  1
  O  O23  1  0.913079  0.118950  0.279178  1
  O  O24  1  0.770189  0.536636  0.784882  1
  O  O25  1  0.861428  0.463060  0.211912  1
  O  O26  1  0.881050  0.794128  0.279178  1
