# generated using pymatgen
data_Dy10Y6MgCd3Pt4
_symmetry_space_group_name_H-M   'P 1'
_cell_length_a   9.71966000
_cell_length_b   9.71965982
_cell_length_c   9.71966014
_cell_angle_alpha   60.01569194
_cell_angle_beta   60.01569344
_cell_angle_gamma   60.01568941
_symmetry_Int_Tables_number   1
_chemical_formula_structural   Dy10Y6MgCd3Pt4
_chemical_formula_sum   'Dy10 Y6 Mg1 Cd3 Pt4'
_cell_volume   649.52023419
_cell_formula_units_Z   1
loop_
 _symmetry_equiv_pos_site_id
 _symmetry_equiv_pos_as_xyz
  1  'x, y, z'
loop_
 _atom_site_type_symbol
 _atom_site_label
 _atom_site_symmetry_multiplicity
 _atom_site_fract_x
 _atom_site_fract_y
 _atom_site_fract_z
 _atom_site_occupancy
  Dy  Dy0  1  0.349694  0.349694  0.349694  1
  Dy  Dy1  1  0.353314  0.353314  0.943796  1
  Dy  Dy2  1  0.353314  0.943796  0.353314  1
  Dy  Dy3  1  0.943796  0.353314  0.353314  1
  Dy  Dy4  1  0.809624  0.191530  0.191530  1
  Dy  Dy5  1  0.187902  0.811914  0.811914  1
  Dy  Dy6  1  0.191530  0.809624  0.191530  1
  Dy  Dy7  1  0.811914  0.187902  0.811914  1
  Dy  Dy8  1  0.191530  0.191530  0.809624  1
  Dy  Dy9  1  0.811914  0.811914  0.187902  1
  Y  Y10  1  0.936277  0.565418  0.565418  1
  Y  Y11  1  0.562494  0.937081  0.937081  1
  Y  Y12  1  0.565418  0.936277  0.565418  1
  Y  Y13  1  0.937081  0.562494  0.937081  1
  Y  Y14  1  0.565418  0.565418  0.936277  1
  Y  Y15  1  0.937081  0.937081  0.562494  1
  Mg  Mg16  1  0.576228  0.576228  0.576228  1
  Cd  Cd17  1  0.581315  0.581315  0.253927  1
  Cd  Cd18  1  0.581315  0.253927  0.581315  1
  Cd  Cd19  1  0.253927  0.581315  0.581315  1
  Pt  Pt20  1  0.144129  0.144129  0.144129  1
  Pt  Pt21  1  0.141952  0.141952  0.570882  1
  Pt  Pt22  1  0.141952  0.570882  0.141952  1
  Pt  Pt23  1  0.570882  0.141952  0.141952  1
