# generated using pymatgen
data_Yb6Pa2SnPd24
_symmetry_space_group_name_H-M   'P 1'
_cell_length_a   8.36547350
_cell_length_b   8.36547350
_cell_length_c   8.36547350
_cell_angle_alpha   89.30657683
_cell_angle_beta   89.30657683
_cell_angle_gamma   89.30657683
_symmetry_Int_Tables_number   1
_chemical_formula_structural   Yb6Pa2SnPd24
_chemical_formula_sum   'Yb6 Pa2 Sn1 Pd24'
_cell_volume   585.29783758
_cell_formula_units_Z   1
loop_
 _symmetry_equiv_pos_site_id
 _symmetry_equiv_pos_as_xyz
  1  'x, y, z'
loop_
 _atom_site_type_symbol
 _atom_site_label
 _atom_site_symmetry_multiplicity
 _atom_site_fract_x
 _atom_site_fract_y
 _atom_site_fract_z
 _atom_site_occupancy
  Yb  Yb0  1  0.748639  0.748639  0.249353  1
  Yb  Yb1  1  0.748639  0.249353  0.748639  1
  Yb  Yb2  1  0.251361  0.251361  0.750647  1
  Yb  Yb3  1  0.251361  0.750647  0.251361  1
  Yb  Yb4  1  0.249353  0.748639  0.748639  1
  Yb  Yb5  1  0.750647  0.251361  0.251361  1
  Pa  Pa6  1  0.260240  0.260240  0.260240  1
  Pa  Pa7  1  0.739760  0.739760  0.739760  1
  Sn  Sn8  1  0.000000  0.000000  0.000000  1
  Pd  Pd9  1  0.264867  0.499436  0.005257  1
  Pd  Pd10  1  0.735133  0.500564  0.994743  1
  Pd  Pd11  1  0.005257  0.264867  0.499436  1
  Pd  Pd12  1  0.499436  0.264867  0.005257  1
  Pd  Pd13  1  0.994743  0.735133  0.500564  1
  Pd  Pd14  1  0.500564  0.735133  0.994743  1
  Pd  Pd15  1  0.499436  0.005257  0.264867  1
  Pd  Pd16  1  0.264867  0.005257  0.499436  1
  Pd  Pd17  1  0.500564  0.994743  0.735133  1
  Pd  Pd18  1  0.735133  0.994743  0.500564  1
  Pd  Pd19  1  0.005257  0.499436  0.264867  1
  Pd  Pd20  1  0.994743  0.500564  0.735133  1
  Pd  Pd21  1  0.254722  0.499767  0.499767  1
  Pd  Pd22  1  0.745278  0.500233  0.500233  1
  Pd  Pd23  1  0.499767  0.254722  0.499767  1
  Pd  Pd24  1  0.500233  0.745278  0.500233  1
  Pd  Pd25  1  0.499767  0.499767  0.254722  1
  Pd  Pd26  1  0.500233  0.500233  0.745278  1
  Pd  Pd27  1  0.308134  0.002337  0.002337  1
  Pd  Pd28  1  0.691866  0.997663  0.997663  1
  Pd  Pd29  1  0.002337  0.308134  0.002337  1
  Pd  Pd30  1  0.997663  0.691866  0.997663  1
  Pd  Pd31  1  0.002337  0.002337  0.308134  1
  Pd  Pd32  1  0.997663  0.997663  0.691866  1
