# generated using pymatgen
data_Dy3Al3Ga2Co
_symmetry_space_group_name_H-M   'P 1'
_cell_length_a   6.92270400
_cell_length_b   6.92270354
_cell_length_c   4.23290400
_cell_angle_alpha   90.00000000
_cell_angle_beta   90.00000000
_cell_angle_gamma   120.00000218
_symmetry_Int_Tables_number   1
_chemical_formula_structural   Dy3Al3Ga2Co
_chemical_formula_sum   'Dy3 Al3 Ga2 Co1'
_cell_volume   175.67927785
_cell_formula_units_Z   1
loop_
 _symmetry_equiv_pos_site_id
 _symmetry_equiv_pos_as_xyz
  1  'x, y, z'
loop_
 _atom_site_type_symbol
 _atom_site_label
 _atom_site_symmetry_multiplicity
 _atom_site_fract_x
 _atom_site_fract_y
 _atom_site_fract_z
 _atom_site_occupancy
  Dy  Dy0  1  0.403218  0.000000  0.000000  1
  Dy  Dy1  1  0.000000  0.403218  0.000000  1
  Dy  Dy2  1  0.596781  0.596782  0.000000  1
  Al  Al3  1  0.773088  0.000000  0.500000  1
  Al  Al4  1  0.226912  0.226913  0.500000  1
  Al  Al5  1  0.000000  0.773089  0.500000  1
  Ga  Ga6  1  0.666666  0.333333  0.500000  1
  Ga  Ga7  1  0.333333  0.666666  0.500000  1
  Co  Co8  1  0.000000  0.000000  0.000000  1
