# generated using pymatgen
data_Ca3Sm(Ga2Ag)4
_symmetry_space_group_name_H-M   'P 1'
_cell_length_a   4.36589900
_cell_length_b   7.05489085
_cell_length_c   10.57435101
_cell_angle_alpha   90.65223722
_cell_angle_beta   90.00000000
_cell_angle_gamma   90.00000000
_symmetry_Int_Tables_number   1
_chemical_formula_structural   Ca3Sm(Ga2Ag)4
_chemical_formula_sum   'Ca3 Sm1 Ga8 Ag4'
_cell_volume   325.67885749
_cell_formula_units_Z   1
loop_
 _symmetry_equiv_pos_site_id
 _symmetry_equiv_pos_as_xyz
  1  'x, y, z'
loop_
 _atom_site_type_symbol
 _atom_site_label
 _atom_site_symmetry_multiplicity
 _atom_site_fract_x
 _atom_site_fract_y
 _atom_site_fract_z
 _atom_site_occupancy
  Ca  Ca0  1  0.750000  0.224989  0.173514  1
  Ca  Ca1  1  0.750000  0.725294  0.325929  1
  Ca  Ca2  1  0.250000  0.274802  0.671978  1
  Sm  Sm3  1  0.250000  0.779940  0.828481  1
  Ga  Ga4  1  0.250000  0.701447  0.534058  1
  Ga  Ga5  1  0.750000  0.299751  0.466606  1
  Ga  Ga6  1  0.750000  0.795705  0.034991  1
  Ga  Ga7  1  0.250000  0.203293  0.965294  1
  Ga  Ga8  1  0.250000  0.923201  0.147690  1
  Ga  Ga9  1  0.750000  0.076044  0.849618  1
  Ga  Ga10  1  0.750000  0.573484  0.651384  1
  Ga  Ga11  1  0.250000  0.426507  0.349331  1
  Ag  Ag12  1  0.250000  0.539014  0.100889  1
  Ag  Ag13  1  0.750000  0.457109  0.901036  1
  Ag  Ag14  1  0.750000  0.957751  0.598875  1
  Ag  Ag15  1  0.250000  0.041669  0.400325  1
