# generated using pymatgen
data_La8Dy11YSn16
_symmetry_space_group_name_H-M   'P 1'
_cell_length_a   8.10585000
_cell_length_b   8.30487214
_cell_length_c   15.66291800
_cell_angle_alpha   90.00000000
_cell_angle_beta   90.00000000
_cell_angle_gamma   89.98960312
_symmetry_Int_Tables_number   1
_chemical_formula_structural   La8Dy11YSn16
_chemical_formula_sum   'La8 Dy11 Y1 Sn16'
_cell_volume   1054.39704540
_cell_formula_units_Z   1
loop_
 _symmetry_equiv_pos_site_id
 _symmetry_equiv_pos_as_xyz
  1  'x, y, z'
loop_
 _atom_site_type_symbol
 _atom_site_label
 _atom_site_symmetry_multiplicity
 _atom_site_fract_x
 _atom_site_fract_y
 _atom_site_fract_z
 _atom_site_occupancy
  La  La0  1  0.509814  0.322708  0.904101  1
  La  La1  1  0.009491  0.177205  0.595841  1
  La  La2  1  0.490516  0.677305  0.404126  1
  La  La3  1  0.990705  0.822682  0.095859  1
  La  La4  1  0.490516  0.677305  0.095874  1
  La  La5  1  0.990705  0.822682  0.404141  1
  La  La6  1  0.509814  0.322708  0.595899  1
  La  La7  1  0.009491  0.177205  0.904159  1
  Dy  Dy8  1  0.353158  0.835090  0.876005  1
  Dy  Dy9  1  0.852810  0.665060  0.623753  1
  Dy  Dy10  1  0.646983  0.165081  0.376111  1
  Dy  Dy11  1  0.146897  0.334990  0.123645  1
  Dy  Dy12  1  0.646983  0.165081  0.123889  1
  Dy  Dy13  1  0.146897  0.334990  0.376355  1
  Dy  Dy14  1  0.353158  0.835090  0.623995  1
  Dy  Dy15  1  0.852810  0.665060  0.876247  1
  Dy  Dy16  1  0.686526  0.998327  0.750000  1
  Dy  Dy17  1  0.813141  0.498315  0.250000  1
  Dy  Dy18  1  0.313194  0.001715  0.250000  1
  Y  Y19  1  0.186339  0.501639  0.750000  1
  Sn  Sn20  1  0.312156  0.041356  0.041906  1
  Sn  Sn21  1  0.811657  0.458651  0.458093  1
  Sn  Sn22  1  0.688111  0.958670  0.541987  1
  Sn  Sn23  1  0.188481  0.541321  0.957857  1
  Sn  Sn24  1  0.688111  0.958670  0.958013  1
  Sn  Sn25  1  0.188481  0.541321  0.542143  1
  Sn  Sn26  1  0.312156  0.041356  0.458094  1
  Sn  Sn27  1  0.811657  0.458651  0.041907  1
  Sn  Sn28  1  0.551749  0.624092  0.750000  1
  Sn  Sn29  1  0.051436  0.875878  0.750000  1
  Sn  Sn30  1  0.447930  0.375327  0.250000  1
  Sn  Sn31  1  0.948250  0.124607  0.250000  1
  Sn  Sn32  1  0.317122  0.141173  0.750000  1
  Sn  Sn33  1  0.816982  0.358784  0.750000  1
  Sn  Sn34  1  0.682956  0.858884  0.250000  1
  Sn  Sn35  1  0.182817  0.641019  0.250000  1
