# generated using pymatgen
data_Tb3Nd3Al24(NiRu3)2
_symmetry_space_group_name_H-M   'P 1'
_cell_length_a   8.85326292
_cell_length_b   8.85326327
_cell_length_c   9.56346241
_cell_angle_alpha   90.21139393
_cell_angle_beta   89.78860612
_cell_angle_gamma   120.22243535
_symmetry_Int_Tables_number   1
_chemical_formula_structural   Tb3Nd3Al24(NiRu3)2
_chemical_formula_sum   'Tb3 Nd3 Al24 Ni2 Ru6'
_cell_volume   647.69537329
_cell_formula_units_Z   1
loop_
 _symmetry_equiv_pos_site_id
 _symmetry_equiv_pos_as_xyz
  1  'x, y, z'
loop_
 _atom_site_type_symbol
 _atom_site_label
 _atom_site_symmetry_multiplicity
 _atom_site_fract_x
 _atom_site_fract_y
 _atom_site_fract_z
 _atom_site_occupancy
  Tb  Tb0  1  0.612871  0.804614  0.749881  1
  Tb  Tb1  1  0.192762  0.807238  0.750731  1
  Tb  Tb2  1  0.195386  0.387129  0.749881  1
  Nd  Nd3  1  0.383464  0.193648  0.251334  1
  Nd  Nd4  1  0.808901  0.191099  0.250719  1
  Nd  Nd5  1  0.806352  0.616536  0.251334  1
  Al  Al6  1  0.436583  0.875634  0.254023  1
  Al  Al7  1  0.124366  0.563417  0.254023  1
  Al  Al8  1  0.435792  0.564208  0.252681  1
  Al  Al9  1  0.561080  0.120474  0.744687  1
  Al  Al10  1  0.879526  0.438920  0.744687  1
  Al  Al11  1  0.562062  0.437938  0.747311  1
  Al  Al12  1  0.163442  0.836558  0.427596  1
  Al  Al13  1  0.164226  0.328700  0.428431  1
  Al  Al14  1  0.671300  0.835774  0.428431  1
  Al  Al15  1  0.838150  0.161850  0.578892  1
  Al  Al16  1  0.836289  0.674167  0.578206  1
  Al  Al17  1  0.325833  0.163711  0.578206  1
  Al  Al18  1  0.838021  0.161979  0.918696  1
  Al  Al19  1  0.838562  0.675214  0.919428  1
  Al  Al20  1  0.324786  0.161438  0.919428  1
  Al  Al21  1  0.162884  0.837116  0.074564  1
  Al  Al22  1  0.162896  0.326371  0.074192  1
  Al  Al23  1  0.673629  0.837104  0.074192  1
  Al  Al24  1  0.332212  0.667788  0.523747  1
  Al  Al25  1  0.667249  0.332751  0.485413  1
  Al  Al26  1  0.666773  0.333227  0.007942  1
  Al  Al27  1  0.333439  0.666561  0.984967  1
  Al  Al28  1  0.999174  0.000826  0.249402  1
  Al  Al29  1  0.000654  0.999346  0.749660  1
  Ni  Ni30  1  0.499325  0.997716  0.502476  1
  Ni  Ni31  1  0.002284  0.500675  0.502476  1
  Ru  Ru32  1  0.000160  0.999840  0.500359  1
  Ru  Ru33  1  0.000128  0.999872  0.998812  1
  Ru  Ru34  1  0.498865  0.501135  0.502301  1
  Ru  Ru35  1  0.499475  0.998199  0.996742  1
  Ru  Ru36  1  0.001801  0.500525  0.996742  1
  Ru  Ru37  1  0.499298  0.500702  0.997404  1
