# generated using pymatgen
data_Dy10GaBi5
_symmetry_space_group_name_H-M   'P 1'
_cell_length_a   9.09428900
_cell_length_b   9.08983519
_cell_length_c   6.41791800
_cell_angle_alpha   90.00000000
_cell_angle_beta   90.00000000
_cell_angle_gamma   119.74890926
_symmetry_Int_Tables_number   1
_chemical_formula_structural   Dy10GaBi5
_chemical_formula_sum   'Dy10 Ga1 Bi5'
_cell_volume   460.62004961
_cell_formula_units_Z   1
loop_
 _symmetry_equiv_pos_site_id
 _symmetry_equiv_pos_as_xyz
  1  'x, y, z'
loop_
 _atom_site_type_symbol
 _atom_site_label
 _atom_site_symmetry_multiplicity
 _atom_site_fract_x
 _atom_site_fract_y
 _atom_site_fract_z
 _atom_site_occupancy
  Dy  Dy0  1  0.001044  0.759242  0.250000  1
  Dy  Dy1  1  0.657078  0.335764  0.996454  1
  Dy  Dy2  1  0.335622  0.656969  0.996471  1
  Dy  Dy3  1  0.335622  0.656969  0.503529  1
  Dy  Dy4  1  0.657078  0.335764  0.503546  1
  Dy  Dy5  1  0.749463  0.749493  0.750000  1
  Dy  Dy6  1  0.244743  0.014784  0.750000  1
  Dy  Dy7  1  0.014755  0.244602  0.750000  1
  Dy  Dy8  1  0.241456  0.241459  0.250000  1
  Dy  Dy9  1  0.759140  0.000984  0.250000  1
  Ga  Ga10  1  0.393691  0.393675  0.750000  1
  Bi  Bi11  1  0.611919  0.002846  0.750000  1
  Bi  Bi12  1  0.002825  0.611901  0.750000  1
  Bi  Bi13  1  0.609542  0.609605  0.250000  1
  Bi  Bi14  1  0.390939  0.995212  0.250000  1
  Bi  Bi15  1  0.995085  0.390732  0.250000  1
