# generated using pymatgen
data_Ta4TiNb3Tc8
_symmetry_space_group_name_H-M   'P 1'
_cell_length_a   6.36625615
_cell_length_b   6.36672514
_cell_length_c   6.36393915
_cell_angle_alpha   90.01738269
_cell_angle_beta   90.01757234
_cell_angle_gamma   89.98288146
_symmetry_Int_Tables_number   1
_chemical_formula_structural   Ta4TiNb3Tc8
_chemical_formula_sum   'Ta4 Ti1 Nb3 Tc8'
_cell_volume   257.94443842
_cell_formula_units_Z   1
loop_
 _symmetry_equiv_pos_site_id
 _symmetry_equiv_pos_as_xyz
  1  'x, y, z'
loop_
 _atom_site_type_symbol
 _atom_site_label
 _atom_site_symmetry_multiplicity
 _atom_site_fract_x
 _atom_site_fract_y
 _atom_site_fract_z
 _atom_site_occupancy
  Ta  Ta0  1  0.249967  0.750006  0.000066  1
  Ta  Ta1  1  0.749974  0.249994  0.499947  1
  Ta  Ta2  1  0.250032  0.750007  0.500070  1
  Ta  Ta3  1  0.750032  0.249996  0.999928  1
  Ti  Ti4  1  0.749983  0.750002  0.999467  1
  Nb  Nb5  1  0.250016  0.249995  0.000473  1
  Nb  Nb6  1  0.750014  0.750001  0.499545  1
  Nb  Nb7  1  0.249988  0.249996  0.500491  1
  Tc  Tc8  1  0.500873  0.500863  0.249148  1
  Tc  Tc9  1  0.500914  0.999106  0.249101  1
  Tc  Tc10  1  0.999103  0.999093  0.249143  1
  Tc  Tc11  1  0.999127  0.500907  0.249116  1
  Tc  Tc12  1  0.999066  0.500899  0.750887  1
  Tc  Tc13  1  0.999106  0.999110  0.750841  1
  Tc  Tc14  1  0.500921  0.500938  0.750875  1
  Tc  Tc15  1  0.500889  0.999079  0.750903  1
