# generated using pymatgen
data_Y4Zr3VF28
_symmetry_space_group_name_H-M   'P 1'
_cell_length_a   5.69435830
_cell_length_b   9.06875902
_cell_length_c   12.13723911
_cell_angle_alpha   62.69012897
_cell_angle_beta   90.07761395
_cell_angle_gamma   89.99479057
_symmetry_Int_Tables_number   1
_chemical_formula_structural   Y4Zr3VF28
_chemical_formula_sum   'Y4 Zr3 V1 F28'
_cell_volume   556.91398798
_cell_formula_units_Z   1
loop_
 _symmetry_equiv_pos_site_id
 _symmetry_equiv_pos_as_xyz
  1  'x, y, z'
loop_
 _atom_site_type_symbol
 _atom_site_label
 _atom_site_symmetry_multiplicity
 _atom_site_fract_x
 _atom_site_fract_y
 _atom_site_fract_z
 _atom_site_occupancy
  Y  Y0  1  0.256436  0.811516  0.260055  1
  Y  Y1  1  0.742628  0.184569  0.733352  1
  Y  Y2  1  0.756568  0.181251  0.234471  1
  Y  Y3  1  0.242358  0.813021  0.773174  1
  Zr  Zr4  1  0.246060  0.274029  0.957095  1
  Zr  Zr5  1  0.255071  0.273770  0.454530  1
  Zr  Zr6  1  0.742885  0.725962  0.544839  1
  V  V7  1  0.755612  0.725534  0.045398  1
  F  F8  1  0.957890  0.708427  0.417768  1
  F  F9  1  0.039421  0.294471  0.579933  1
  F  F10  1  0.464213  0.290681  0.083077  1
  F  F11  1  0.543632  0.714288  0.927762  1
  F  F12  1  0.498135  0.734047  0.141968  1
  F  F13  1  0.527920  0.260292  0.858689  1
  F  F14  1  0.979348  0.273551  0.346839  1
  F  F15  1  0.019056  0.731422  0.650311  1
  F  F16  1  0.962783  0.742505  0.164420  1
  F  F17  1  0.035860  0.250280  0.828400  1
  F  F18  1  0.463983  0.254757  0.324030  1
  F  F19  1  0.536000  0.748559  0.675348  1
  F  F20  1  0.765044  0.498587  0.133017  1
  F  F21  1  0.237129  0.525150  0.859693  1
  F  F22  1  0.276848  0.525408  0.356132  1
  F  F23  1  0.721802  0.473950  0.643079  1
  F  F24  1  0.949628  0.283893  0.049538  1
  F  F25  1  0.024711  0.718361  0.951755  1
  F  F26  1  0.445417  0.724478  0.449856  1
  F  F27  1  0.555407  0.277488  0.547193  1
  F  F28  1  0.742633  0.977783  0.442998  1
  F  F29  1  0.257801  0.024133  0.558046  1
  F  F30  1  0.238583  0.023130  0.055596  1
  F  F31  1  0.759906  0.953080  0.954031  1
  F  F32  1  0.573702  0.971188  0.232493  1
  F  F33  1  0.423509  0.030298  0.767995  1
  F  F34  1  0.074305  0.024340  0.264365  1
  F  F35  1  0.927716  0.975796  0.732754  1
