# generated using pymatgen
data_Tb2Ho2TcOs7
_symmetry_space_group_name_H-M   'P 1'
_cell_length_a   5.30439333
_cell_length_b   5.30439348
_cell_length_c   8.83520804
_cell_angle_alpha   89.99102051
_cell_angle_beta   90.00897564
_cell_angle_gamma   118.71775282
_symmetry_Int_Tables_number   1
_chemical_formula_structural   Tb2Ho2TcOs7
_chemical_formula_sum   'Tb2 Ho2 Tc1 Os7'
_cell_volume   218.01506005
_cell_formula_units_Z   1
loop_
 _symmetry_equiv_pos_site_id
 _symmetry_equiv_pos_as_xyz
  1  'x, y, z'
loop_
 _atom_site_type_symbol
 _atom_site_label
 _atom_site_symmetry_multiplicity
 _atom_site_fract_x
 _atom_site_fract_y
 _atom_site_fract_z
 _atom_site_occupancy
  Tb  Tb0  1  0.331552  0.668448  0.436023  1
  Tb  Tb1  1  0.665922  0.334078  0.566037  1
  Ho  Ho2  1  0.665945  0.334055  0.934263  1
  Ho  Ho3  1  0.331370  0.668630  0.063779  1
  Tc  Tc4  1  0.830666  0.169334  0.248981  1
  Os  Os5  1  0.995100  0.004900  0.499850  1
  Os  Os6  1  0.995025  0.004975  0.000005  1
  Os  Os7  1  0.827149  0.652633  0.248649  1
  Os  Os8  1  0.347367  0.172851  0.248649  1
  Os  Os9  1  0.177684  0.822316  0.751220  1
  Os  Os10  1  0.170961  0.338741  0.751271  1
  Os  Os11  1  0.661259  0.829039  0.751271  1
