# generated using pymatgen
data_Zr9Ti8Si16W3
_symmetry_space_group_name_H-M   'P 1'
_cell_length_a   6.83515139
_cell_length_b   6.83315272
_cell_length_c   12.57350858
_cell_angle_alpha   90.17181146
_cell_angle_beta   89.83801784
_cell_angle_gamma   89.97747923
_symmetry_Int_Tables_number   1
_chemical_formula_structural   Zr9Ti8Si16W3
_chemical_formula_sum   'Zr9 Ti8 Si16 W3'
_cell_volume   587.24864626
_cell_formula_units_Z   1
loop_
 _symmetry_equiv_pos_site_id
 _symmetry_equiv_pos_as_xyz
  1  'x, y, z'
loop_
 _atom_site_type_symbol
 _atom_site_label
 _atom_site_symmetry_multiplicity
 _atom_site_fract_x
 _atom_site_fract_y
 _atom_site_fract_z
 _atom_site_occupancy
  Zr  Zr0  1  0.152166  0.001727  0.872815  1
  Zr  Zr1  1  0.001837  0.659331  0.031731  1
  Zr  Zr2  1  0.997095  0.342218  0.529385  1
  Zr  Zr3  1  0.658401  0.002110  0.970298  1
  Zr  Zr4  1  0.157808  0.498142  0.779793  1
  Zr  Zr5  1  0.841173  0.501596  0.280301  1
  Zr  Zr6  1  0.499547  0.159155  0.221218  1
  Zr  Zr7  1  0.500280  0.840446  0.718180  1
  Zr  Zr8  1  0.341252  0.998405  0.468485  1
  Ti  Ti9  1  0.346367  0.504473  0.376342  1
  Ti  Ti10  1  0.847727  0.995385  0.372429  1
  Ti  Ti11  1  0.006350  0.152766  0.126879  1
  Ti  Ti12  1  0.994066  0.848548  0.627195  1
  Ti  Ti13  1  0.653595  0.493167  0.877736  1
  Ti  Ti14  1  0.504625  0.348223  0.622298  1
  Ti  Ti15  1  0.496644  0.651838  0.124096  1
  Ti  Ti16  1  0.669382  0.670363  0.499694  1
  Si  Si17  1  0.044191  0.705823  0.436007  1
  Si  Si18  1  0.953234  0.301294  0.937194  1
  Si  Si19  1  0.704793  0.045303  0.563243  1
  Si  Si20  1  0.206462  0.455396  0.186620  1
  Si  Si21  1  0.793524  0.543743  0.684057  1
  Si  Si22  1  0.460659  0.208339  0.811973  1
  Si  Si23  1  0.544909  0.793599  0.315261  1
  Si  Si24  1  0.298626  0.954586  0.068708  1
  Si  Si25  1  0.856591  0.788919  0.820425  1
  Si  Si26  1  0.132909  0.206876  0.322864  1
  Si  Si27  1  0.794093  0.867488  0.178147  1
  Si  Si28  1  0.292270  0.634012  0.571033  1
  Si  Si29  1  0.706827  0.366054  0.074294  1
  Si  Si30  1  0.633380  0.293969  0.427889  1
  Si  Si31  1  0.369833  0.697888  0.929847  1
  Si  Si32  1  0.207902  0.135641  0.672458  1
  W  W33  1  0.827880  0.173567  0.749040  1
  W  W34  1  0.171266  0.829751  0.250653  1
  W  W35  1  0.332335  0.329855  0.001411  1
