# generated using pymatgen
data_CeNb6CoS12
_symmetry_space_group_name_H-M   'P 1'
_cell_length_a   5.83615600
_cell_length_b   5.83615569
_cell_length_c   12.87316000
_cell_angle_alpha   90.00000000
_cell_angle_beta   90.00000000
_cell_angle_gamma   120.00000175
_symmetry_Int_Tables_number   1
_chemical_formula_structural   CeNb6CoS12
_chemical_formula_sum   'Ce1 Nb6 Co1 S12'
_cell_volume   379.72531605
_cell_formula_units_Z   1
loop_
 _symmetry_equiv_pos_site_id
 _symmetry_equiv_pos_as_xyz
  1  'x, y, z'
loop_
 _atom_site_type_symbol
 _atom_site_label
 _atom_site_symmetry_multiplicity
 _atom_site_fract_x
 _atom_site_fract_y
 _atom_site_fract_z
 _atom_site_occupancy
  Ce  Ce0  1  0.666667  0.333333  0.750000  1
  Nb  Nb1  1  0.333333  0.666667  0.024110  1
  Nb  Nb2  1  0.666667  0.333333  0.475305  1
  Nb  Nb3  1  0.333333  0.666667  0.475890  1
  Nb  Nb4  1  0.000000  0.000000  0.025991  1
  Nb  Nb5  1  0.666667  0.333333  0.024695  1
  Nb  Nb6  1  0.000000  0.000000  0.474009  1
  Co  Co7  1  0.333333  0.666667  0.250000  1
  S  S8  1  0.998787  0.666502  0.144998  1
  S  S9  1  0.668151  0.672396  0.597759  1
  S  S10  1  0.998787  0.332285  0.355002  1
  S  S11  1  0.333498  0.332285  0.144998  1
  S  S12  1  0.327604  0.995756  0.597759  1
  S  S13  1  0.327604  0.331849  0.902241  1
  S  S14  1  0.667715  0.666502  0.355002  1
  S  S15  1  0.004244  0.672396  0.902241  1
  S  S16  1  0.668151  0.995756  0.902241  1
  S  S17  1  0.333498  0.001213  0.355002  1
  S  S18  1  0.667715  0.001213  0.144998  1
  S  S19  1  0.004244  0.331849  0.597759  1
