# generated using pymatgen
data_Y7Er3Hg3Ru
_symmetry_space_group_name_H-M   'P 1'
_cell_length_a   9.63227700
_cell_length_b   9.63493744
_cell_length_c   9.63607800
_cell_angle_alpha   89.99752363
_cell_angle_beta   90.00141544
_cell_angle_gamma   119.99351264
_symmetry_Int_Tables_number   1
_chemical_formula_structural   Y7Er3Hg3Ru
_chemical_formula_sum   'Y14 Er6 Hg6 Ru2'
_cell_volume   774.52811530
_cell_formula_units_Z   2
loop_
 _symmetry_equiv_pos_site_id
 _symmetry_equiv_pos_as_xyz
  1  'x, y, z'
loop_
 _atom_site_type_symbol
 _atom_site_label
 _atom_site_symmetry_multiplicity
 _atom_site_fract_x
 _atom_site_fract_y
 _atom_site_fract_z
 _atom_site_occupancy
  Y  Y0  1  0.000000  0.000000  0.500000  1
  Y  Y1  1  0.000000  0.000000  0.000000  1
  Y  Y2  1  0.790379  0.209650  0.939445  1
  Y  Y3  1  0.790381  0.580737  0.939440  1
  Y  Y4  1  0.419263  0.209637  0.939410  1
  Y  Y5  1  0.209621  0.790350  0.060555  1
  Y  Y6  1  0.209619  0.419263  0.060560  1
  Y  Y7  1  0.580737  0.790363  0.060590  1
  Y  Y8  1  0.541042  0.458961  0.251192  1
  Y  Y9  1  0.541049  0.082090  0.251180  1
  Y  Y10  1  0.917947  0.458973  0.251189  1
  Y  Y11  1  0.458958  0.541039  0.748808  1
  Y  Y12  1  0.458951  0.917910  0.748820  1
  Y  Y13  1  0.082053  0.541027  0.748811  1
  Er  Er14  1  0.210256  0.789748  0.439722  1
  Er  Er15  1  0.210237  0.420483  0.439690  1
  Er  Er16  1  0.579517  0.789761  0.439691  1
  Er  Er17  1  0.789744  0.210252  0.560278  1
  Er  Er18  1  0.789763  0.579517  0.560310  1
  Er  Er19  1  0.420483  0.210239  0.560309  1
  Hg  Hg20  1  0.881408  0.118643  0.250218  1
  Hg  Hg21  1  0.881383  0.762756  0.250222  1
  Hg  Hg22  1  0.237252  0.118654  0.250224  1
  Hg  Hg23  1  0.118592  0.881357  0.749782  1
  Hg  Hg24  1  0.118617  0.237244  0.749778  1
  Hg  Hg25  1  0.762748  0.881346  0.749776  1
  Ru  Ru26  1  0.333340  0.666648  0.252421  1
  Ru  Ru27  1  0.666660  0.333352  0.747579  1
