# generated using pymatgen
data_CeY2Tm5AlPd24
_symmetry_space_group_name_H-M   'P 1'
_cell_length_a   8.31150858
_cell_length_b   8.31138448
_cell_length_c   8.31138600
_cell_angle_alpha   89.96114049
_cell_angle_beta   90.06012553
_cell_angle_gamma   90.06012581
_symmetry_Int_Tables_number   1
_chemical_formula_structural   CeY2Tm5AlPd24
_chemical_formula_sum   'Ce1 Y2 Tm5 Al1 Pd24'
_cell_volume   574.15097285
_cell_formula_units_Z   1
loop_
 _symmetry_equiv_pos_site_id
 _symmetry_equiv_pos_as_xyz
  1  'x, y, z'
loop_
 _atom_site_type_symbol
 _atom_site_label
 _atom_site_symmetry_multiplicity
 _atom_site_fract_x
 _atom_site_fract_y
 _atom_site_fract_z
 _atom_site_occupancy
  Ce  Ce0  1  0.745981  0.254026  0.254026  1
  Y  Y1  1  0.251941  0.251776  0.748042  1
  Y  Y2  1  0.251941  0.748042  0.251776  1
  Tm  Tm3  1  0.251156  0.251793  0.251793  1
  Tm  Tm4  1  0.748122  0.747990  0.747990  1
  Tm  Tm5  1  0.748172  0.748819  0.251885  1
  Tm  Tm6  1  0.748172  0.251885  0.748819  1
  Tm  Tm7  1  0.252176  0.747893  0.747893  1
  Al  Al8  1  0.000373  0.999408  0.999408  1
  Pd  Pd9  1  0.259553  0.499838  0.999710  1
  Pd  Pd10  1  0.740676  0.499552  0.001137  1
  Pd  Pd11  1  0.997969  0.259311  0.498726  1
  Pd  Pd12  1  0.501303  0.259291  0.001964  1
  Pd  Pd13  1  0.999332  0.740431  0.500693  1
  Pd  Pd14  1  0.501072  0.740451  0.998819  1
  Pd  Pd15  1  0.501303  0.001964  0.259291  1
  Pd  Pd16  1  0.259553  0.999710  0.499838  1
  Pd  Pd17  1  0.501072  0.998819  0.740451  1
  Pd  Pd18  1  0.740676  0.001137  0.499552  1
  Pd  Pd19  1  0.997969  0.498726  0.259311  1
  Pd  Pd20  1  0.999332  0.500693  0.740431  1
  Pd  Pd21  1  0.252649  0.499902  0.499902  1
  Pd  Pd22  1  0.746960  0.499770  0.499770  1
  Pd  Pd23  1  0.501224  0.253060  0.498837  1
  Pd  Pd24  1  0.501140  0.747390  0.500869  1
  Pd  Pd25  1  0.501224  0.498837  0.253060  1
  Pd  Pd26  1  0.501140  0.500869  0.747390  1
  Pd  Pd27  1  0.288542  0.999763  0.999763  1
  Pd  Pd28  1  0.711760  0.999720  0.999720  1
  Pd  Pd29  1  0.999417  0.288226  0.000473  1
  Pd  Pd30  1  0.999339  0.711462  0.998970  1
  Pd  Pd31  1  0.999417  0.000473  0.288226  1
  Pd  Pd32  1  0.999339  0.998970  0.711462  1
