# generated using pymatgen
data_SrCaOsO6
_symmetry_space_group_name_H-M   'P 1'
_cell_length_a   5.62187100
_cell_length_b   5.62186979
_cell_length_c   5.14026500
_cell_angle_alpha   90.00000000
_cell_angle_beta   90.00000000
_cell_angle_gamma   120.00000121
_symmetry_Int_Tables_number   1
_chemical_formula_structural   SrCaOsO6
_chemical_formula_sum   'Sr1 Ca1 Os1 O6'
_cell_volume   140.69471836
_cell_formula_units_Z   1
loop_
 _symmetry_equiv_pos_site_id
 _symmetry_equiv_pos_as_xyz
  1  'x, y, z'
loop_
 _atom_site_type_symbol
 _atom_site_label
 _atom_site_symmetry_multiplicity
 _atom_site_fract_x
 _atom_site_fract_y
 _atom_site_fract_z
 _atom_site_occupancy
  Sr  Sr0  1  0.000000  0.000000  0.000000  1
  Ca  Ca1  1  0.333334  0.666667  0.500001  1
  Os  Os2  1  0.666666  0.333334  0.500001  1
  O  O3  1  0.662612  0.057493  0.290856  1
  O  O4  1  0.394881  0.337388  0.290856  1
  O  O5  1  0.942507  0.605118  0.290856  1
  O  O6  1  0.394880  0.057493  0.709143  1
  O  O7  1  0.942508  0.337388  0.709143  1
  O  O8  1  0.662612  0.605118  0.709143  1
