# generated using pymatgen
data_KYCr2O8
_symmetry_space_group_name_H-M   'P 1'
_cell_length_a   5.79966700
_cell_length_b   5.79966729
_cell_length_c   7.77457500
_cell_angle_alpha   90.00000000
_cell_angle_beta   90.00000000
_cell_angle_gamma   120.00000406
_symmetry_Int_Tables_number   1
_chemical_formula_structural   KYCr2O8
_chemical_formula_sum   'K1 Y1 Cr2 O8'
_cell_volume   226.47142342
_cell_formula_units_Z   1
loop_
 _symmetry_equiv_pos_site_id
 _symmetry_equiv_pos_as_xyz
  1  'x, y, z'
loop_
 _atom_site_type_symbol
 _atom_site_label
 _atom_site_symmetry_multiplicity
 _atom_site_fract_x
 _atom_site_fract_y
 _atom_site_fract_z
 _atom_site_occupancy
  K  K0  1  0.000000  0.000000  0.500000  1
  Y  Y1  1  0.000000  0.000000  0.000000  1
  Cr  Cr2  1  0.666667  0.333334  0.252496  1
  Cr  Cr3  1  0.333334  0.666668  0.747504  1
  O  O4  1  0.350588  0.175294  0.182008  1
  O  O5  1  0.824706  0.175294  0.182008  1
  O  O6  1  0.824706  0.649413  0.182008  1
  O  O7  1  0.666667  0.333334  0.461013  1
  O  O8  1  0.333334  0.666668  0.538988  1
  O  O9  1  0.175293  0.350587  0.817993  1
  O  O10  1  0.175295  0.824707  0.817993  1
  O  O11  1  0.649412  0.824707  0.817993  1
