# generated using pymatgen
data_Ho12IrPt3
_symmetry_space_group_name_H-M   'P 1'
_cell_length_a   6.43568562
_cell_length_b   7.04167813
_cell_length_c   9.50361000
_cell_angle_alpha   90.00000000
_cell_angle_beta   90.00000000
_cell_angle_gamma   90.17524563
_symmetry_Int_Tables_number   1
_chemical_formula_structural   Ho12IrPt3
_chemical_formula_sum   'Ho12 Ir1 Pt3'
_cell_volume   430.68283713
_cell_formula_units_Z   1
loop_
 _symmetry_equiv_pos_site_id
 _symmetry_equiv_pos_as_xyz
  1  'x, y, z'
loop_
 _atom_site_type_symbol
 _atom_site_label
 _atom_site_symmetry_multiplicity
 _atom_site_fract_x
 _atom_site_fract_y
 _atom_site_fract_z
 _atom_site_occupancy
  Ho  Ho0  1  0.321059  0.683941  0.062072  1
  Ho  Ho1  1  0.175191  0.179244  0.437614  1
  Ho  Ho2  1  0.675957  0.317986  0.560336  1
  Ho  Ho3  1  0.824882  0.817474  0.941788  1
  Ho  Ho4  1  0.675957  0.317986  0.939664  1
  Ho  Ho5  1  0.824882  0.817474  0.558212  1
  Ho  Ho6  1  0.321059  0.683941  0.437928  1
  Ho  Ho7  1  0.175191  0.179244  0.062386  1
  Ho  Ho8  1  0.871582  0.533799  0.250000  1
  Ho  Ho9  1  0.634292  0.027111  0.250000  1
  Ho  Ho10  1  0.131285  0.472082  0.750000  1
  Ho  Ho11  1  0.368970  0.972262  0.750000  1
  Ir  Ir12  1  0.050705  0.887898  0.250000  1
  Pt  Pt13  1  0.449141  0.388847  0.250000  1
  Pt  Pt14  1  0.946773  0.110142  0.750000  1
  Pt  Pt15  1  0.553074  0.610569  0.750000  1
