# generated using pymatgen
data_Nd2Y14Cd3Ni4Ag
_symmetry_space_group_name_H-M   'P 1'
_cell_length_a   9.57635038
_cell_length_b   9.57635060
_cell_length_c   9.56634958
_cell_angle_alpha   60.04090625
_cell_angle_beta   60.04090626
_cell_angle_gamma   60.07348204
_symmetry_Int_Tables_number   1
_chemical_formula_structural   Nd2Y14Cd3Ni4Ag
_chemical_formula_sum   'Nd2 Y14 Cd3 Ni4 Ag1'
_cell_volume   621.06987021
_cell_formula_units_Z   1
loop_
 _symmetry_equiv_pos_site_id
 _symmetry_equiv_pos_as_xyz
  1  'x, y, z'
loop_
 _atom_site_type_symbol
 _atom_site_label
 _atom_site_symmetry_multiplicity
 _atom_site_fract_x
 _atom_site_fract_y
 _atom_site_fract_z
 _atom_site_occupancy
  Nd  Nd0  1  0.598097  0.598097  0.599929  1
  Nd  Nd1  1  0.598748  0.598748  0.201617  1
  Y  Y2  1  0.601037  0.195950  0.601808  1
  Y  Y3  1  0.195950  0.601037  0.601808  1
  Y  Y4  1  0.062609  0.439463  0.438017  1
  Y  Y5  1  0.439223  0.062947  0.060134  1
  Y  Y6  1  0.439463  0.062609  0.438017  1
  Y  Y7  1  0.062947  0.439223  0.060134  1
  Y  Y8  1  0.438619  0.438619  0.061999  1
  Y  Y9  1  0.061745  0.061745  0.438432  1
  Y  Y10  1  0.184672  0.813622  0.813793  1
  Y  Y11  1  0.814017  0.186528  0.184822  1
  Y  Y12  1  0.813622  0.184672  0.813793  1
  Y  Y13  1  0.186528  0.814017  0.184822  1
  Y  Y14  1  0.813748  0.813748  0.183300  1
  Y  Y15  1  0.186352  0.186352  0.813263  1
  Cd  Cd16  1  0.832247  0.832247  0.508452  1
  Cd  Cd17  1  0.833690  0.506562  0.830547  1
  Cd  Cd18  1  0.506562  0.833690  0.830547  1
  Ni  Ni19  1  0.391374  0.391374  0.396184  1
  Ni  Ni20  1  0.391061  0.391061  0.822155  1
  Ni  Ni21  1  0.388693  0.824464  0.392991  1
  Ni  Ni22  1  0.824464  0.388693  0.392991  1
  Ag  Ag23  1  0.834536  0.834536  0.830447  1
