# generated using pymatgen
data_Nb7Co4OsN2
_symmetry_space_group_name_H-M   'P 1'
_cell_length_a   8.17657822
_cell_length_b   8.17657827
_cell_length_c   8.10641200
_cell_angle_alpha   60.28346586
_cell_angle_beta   60.28346567
_cell_angle_gamma   60.54804731
_symmetry_Int_Tables_number   1
_chemical_formula_structural   Nb7Co4OsN2
_chemical_formula_sum   'Nb14 Co8 Os2 N4'
_cell_volume   386.44383216
_cell_formula_units_Z   2
loop_
 _symmetry_equiv_pos_site_id
 _symmetry_equiv_pos_as_xyz
  1  'x, y, z'
loop_
 _atom_site_type_symbol
 _atom_site_label
 _atom_site_symmetry_multiplicity
 _atom_site_fract_x
 _atom_site_fract_y
 _atom_site_fract_z
 _atom_site_occupancy
  Nb  Nb0  1  0.815243  0.438288  0.430116  1
  Nb  Nb1  1  0.438289  0.815243  0.816353  1
  Nb  Nb2  1  0.438288  0.815243  0.430116  1
  Nb  Nb3  1  0.429000  0.429000  0.821000  1
  Nb  Nb4  1  0.815243  0.438289  0.816353  1
  Nb  Nb5  1  0.809157  0.809157  0.440844  1
  Nb  Nb6  1  0.561711  0.184758  0.569883  1
  Nb  Nb7  1  0.184758  0.561711  0.183648  1
  Nb  Nb8  1  0.184758  0.561711  0.569883  1
  Nb  Nb9  1  0.570999  0.570999  0.179001  1
  Nb  Nb10  1  0.561711  0.184758  0.183648  1
  Nb  Nb11  1  0.190844  0.190844  0.559156  1
  Nb  Nb12  1  0.000000  0.000000  0.000000  1
  Nb  Nb13  1  0.000000  0.000000  0.500001  1
  Co  Co14  1  0.203658  0.203658  0.198425  1
  Co  Co15  1  0.203658  0.203658  0.894257  1
  Co  Co16  1  0.884933  0.209391  0.202837  1
  Co  Co17  1  0.209391  0.884933  0.202837  1
  Co  Co18  1  0.796342  0.796342  0.801575  1
  Co  Co19  1  0.796342  0.796342  0.105741  1
  Co  Co20  1  0.790609  0.115065  0.797163  1
  Co  Co21  1  0.115065  0.790609  0.797163  1
  Os  Os22  1  0.500001  0.000000  0.000000  1
  Os  Os23  1  0.000000  0.500001  0.000000  1
  N  N24  1  0.500000  0.500000  0.500000  1
  N  N25  1  0.500000  0.500000  0.000001  1
  N  N26  1  0.000001  0.500000  0.500000  1
  N  N27  1  0.500000  0.000001  0.500000  1
