# generated using pymatgen
data_K2HfIrO6
_symmetry_space_group_name_H-M   'P 1'
_cell_length_a   5.69606202
_cell_length_b   5.69578249
_cell_length_c   5.69606202
_cell_angle_alpha   119.99666947
_cell_angle_beta   90.00858019
_cell_angle_gamma   119.99667528
_symmetry_Int_Tables_number   1
_chemical_formula_structural   K2HfIrO6
_chemical_formula_sum   'K2 Hf1 Ir1 O6'
_cell_volume   130.67694723
_cell_formula_units_Z   1
loop_
 _symmetry_equiv_pos_site_id
 _symmetry_equiv_pos_as_xyz
  1  'x, y, z'
loop_
 _atom_site_type_symbol
 _atom_site_label
 _atom_site_symmetry_multiplicity
 _atom_site_fract_x
 _atom_site_fract_y
 _atom_site_fract_z
 _atom_site_occupancy
  K  K0  1  0.749997  0.499998  0.249999  1
  K  K1  1  0.249999  0.499998  0.750000  1
  Hf  Hf2  1  0.000000  0.000000  0.000000  1
  Ir  Ir3  1  0.500000  0.000000  0.500000  1
  O  O4  1  0.257767  0.515534  0.257767  1
  O  O5  1  0.742294  0.000000  0.257706  1
  O  O6  1  0.257870  0.000000  0.257870  1
  O  O7  1  0.742130  0.000000  0.742130  1
  O  O8  1  0.742233  0.484466  0.742233  1
  O  O9  1  0.257706  0.000000  0.742294  1
