# generated using pymatgen
data_Tb2Y3Er3(WO6)4
_symmetry_space_group_name_H-M   'P 1'
_cell_length_a   5.40373113
_cell_length_b   7.71068305
_cell_length_c   11.45681817
_cell_angle_alpha   75.49382710
_cell_angle_beta   90.00339425
_cell_angle_gamma   89.97691751
_symmetry_Int_Tables_number   1
_chemical_formula_structural   Tb2Y3Er3(WO6)4
_chemical_formula_sum   'Tb2 Y3 Er3 W4 O24'
_cell_volume   462.14690725
_cell_formula_units_Z   1
loop_
 _symmetry_equiv_pos_site_id
 _symmetry_equiv_pos_as_xyz
  1  'x, y, z'
loop_
 _atom_site_type_symbol
 _atom_site_label
 _atom_site_symmetry_multiplicity
 _atom_site_fract_x
 _atom_site_fract_y
 _atom_site_fract_z
 _atom_site_occupancy
  Tb  Tb0  1  0.684100  0.500442  0.249678  1
  Tb  Tb1  1  0.316066  0.500102  0.750021  1
  Y  Y2  1  0.183908  0.205242  0.422311  1
  Y  Y3  1  0.741347  0.999664  0.249606  1
  Y  Y4  1  0.258681  0.999760  0.750339  1
  Er  Er5  1  0.183632  0.794335  0.078026  1
  Er  Er6  1  0.816136  0.793934  0.578166  1
  Er  Er7  1  0.816274  0.205617  0.922085  1
  W  W8  1  0.255937  0.276012  0.114446  1
  W  W9  1  0.255782  0.724416  0.385149  1
  W  W10  1  0.744324  0.724145  0.885193  1
  W  W11  1  0.744622  0.276202  0.615319  1
  O  O12  1  0.458020  0.209144  0.272385  1
  O  O13  1  0.455974  0.791444  0.226334  1
  O  O14  1  0.543902  0.791150  0.726473  1
  O  O15  1  0.543973  0.209009  0.773862  1
  O  O16  1  0.046069  0.059704  0.103423  1
  O  O17  1  0.044094  0.938382  0.396442  1
  O  O18  1  0.954053  0.940199  0.896588  1
  O  O19  1  0.953386  0.059232  0.604133  1
  O  O20  1  0.981406  0.288187  0.228185  1
  O  O21  1  0.982242  0.711854  0.270573  1
  O  O22  1  0.017815  0.712157  0.770805  1
  O  O23  1  0.018227  0.287823  0.729312  1
  O  O24  1  0.847861  0.365378  0.452056  1
  O  O25  1  0.850661  0.635887  0.048102  1
  O  O26  1  0.149448  0.635663  0.548232  1
  O  O27  1  0.149317  0.364276  0.951668  1
  O  O28  1  0.641504  0.510454  0.614258  1
  O  O29  1  0.641902  0.489903  0.885994  1
  O  O30  1  0.359754  0.490951  0.385854  1
  O  O31  1  0.357998  0.510201  0.114019  1
  O  O32  1  0.466393  0.153737  0.569972  1
  O  O33  1  0.464548  0.845135  0.931374  1
  O  O34  1  0.535155  0.845580  0.431381  1
  O  O35  1  0.535492  0.154683  0.068241  1
