# generated using pymatgen
data_Lu3Sc7(Ga2Bi)2
_symmetry_space_group_name_H-M   'P 1'
_cell_length_a   8.36403013
_cell_length_b   8.35144822
_cell_length_c   6.13251500
_cell_angle_alpha   90.00000000
_cell_angle_beta   90.00000000
_cell_angle_gamma   119.94882358
_symmetry_Int_Tables_number   1
_chemical_formula_structural   Lu3Sc7(Ga2Bi)2
_chemical_formula_sum   'Lu3 Sc7 Ga4 Bi2'
_cell_volume   371.16785883
_cell_formula_units_Z   1
loop_
 _symmetry_equiv_pos_site_id
 _symmetry_equiv_pos_as_xyz
  1  'x, y, z'
loop_
 _atom_site_type_symbol
 _atom_site_label
 _atom_site_symmetry_multiplicity
 _atom_site_fract_x
 _atom_site_fract_y
 _atom_site_fract_z
 _atom_site_occupancy
  Lu  Lu0  1  0.229090  0.998455  0.250000  1
  Lu  Lu1  1  0.229391  0.228973  0.750000  1
  Lu  Lu2  1  0.015852  0.251376  0.250000  1
  Sc  Sc3  1  0.308995  0.655049  0.999271  1
  Sc  Sc4  1  0.673599  0.337247  0.499983  1
  Sc  Sc5  1  0.673599  0.337247  0.000017  1
  Sc  Sc6  1  0.308995  0.655049  0.500729  1
  Sc  Sc7  1  0.016571  0.764742  0.750000  1
  Sc  Sc8  1  0.767843  0.749575  0.250000  1
  Sc  Sc9  1  0.767185  0.017835  0.750000  1
  Ga  Ga10  1  0.994434  0.399213  0.750000  1
  Ga  Ga11  1  0.994466  0.597282  0.250000  1
  Ga  Ga12  1  0.407437  0.402684  0.250000  1
  Ga  Ga13  1  0.402035  0.000632  0.750000  1
  Bi  Bi14  1  0.602544  0.990358  0.250000  1
  Bi  Bi15  1  0.607966  0.614283  0.750000  1
