# generated using pymatgen
data_Eu4TmIr2
_symmetry_space_group_name_H-M   'P 1'
_cell_length_a   6.70038715
_cell_length_b   7.45573381
_cell_length_c   8.85720000
_cell_angle_alpha   96.60110520
_cell_angle_beta   112.22501906
_cell_angle_gamma   89.99999955
_symmetry_Int_Tables_number   1
_chemical_formula_structural   Eu4TmIr2
_chemical_formula_sum   'Eu8 Tm2 Ir4'
_cell_volume   406.42911909
_cell_formula_units_Z   2
loop_
 _symmetry_equiv_pos_site_id
 _symmetry_equiv_pos_as_xyz
  1  'x, y, z'
loop_
 _atom_site_type_symbol
 _atom_site_label
 _atom_site_symmetry_multiplicity
 _atom_site_fract_x
 _atom_site_fract_y
 _atom_site_fract_z
 _atom_site_occupancy
  Eu  Eu0  1  0.974003  0.921785  0.175558  1
  Eu  Eu1  1  0.798444  0.578215  0.824442  1
  Eu  Eu2  1  0.025997  0.078215  0.824442  1
  Eu  Eu3  1  0.201556  0.421785  0.175558  1
  Eu  Eu4  1  0.640171  0.817123  0.432679  1
  Eu  Eu5  1  0.207492  0.682877  0.567321  1
  Eu  Eu6  1  0.359829  0.182877  0.567321  1
  Eu  Eu7  1  0.792508  0.317123  0.432679  1
  Tm  Tm8  1  0.437820  0.750000  0.000000  1
  Tm  Tm9  1  0.562180  0.250000  0.000000  1
  Ir  Ir10  1  0.799692  0.570560  0.201830  1
  Ir  Ir11  1  0.597862  0.929440  0.798170  1
  Ir  Ir12  1  0.200309  0.429440  0.798170  1
  Ir  Ir13  1  0.402138  0.070560  0.201830  1
