# generated using pymatgen
data_TmLu15(ScIr3)4
_symmetry_space_group_name_H-M   'P 1'
_cell_length_a   10.59294801
_cell_length_b   10.59707706
_cell_length_c   6.18473603
_cell_angle_alpha   89.98865484
_cell_angle_beta   90.00061425
_cell_angle_gamma   90.00463452
_symmetry_Int_Tables_number   1
_chemical_formula_structural   TmLu15(ScIr3)4
_chemical_formula_sum   'Tm1 Lu15 Sc4 Ir12'
_cell_volume   694.26311342
_cell_formula_units_Z   1
loop_
 _symmetry_equiv_pos_site_id
 _symmetry_equiv_pos_as_xyz
  1  'x, y, z'
loop_
 _atom_site_type_symbol
 _atom_site_label
 _atom_site_symmetry_multiplicity
 _atom_site_fract_x
 _atom_site_fract_y
 _atom_site_fract_z
 _atom_site_occupancy
  Tm  Tm0  1  0.086166  0.288546  0.124271  1
  Lu  Lu1  1  0.289208  0.085645  0.376479  1
  Lu  Lu2  1  0.288984  0.914063  0.876419  1
  Lu  Lu3  1  0.710995  0.085933  0.876191  1
  Lu  Lu4  1  0.711003  0.914041  0.376332  1
  Lu  Lu5  1  0.585943  0.788996  0.876333  1
  Lu  Lu6  1  0.585951  0.211000  0.376318  1
  Lu  Lu7  1  0.414049  0.788954  0.376313  1
  Lu  Lu8  1  0.414111  0.211000  0.876257  1
  Lu  Lu9  1  0.211118  0.414252  0.623700  1
  Lu  Lu10  1  0.211087  0.586213  0.123693  1
  Lu  Lu11  1  0.788759  0.414203  0.123667  1
  Lu  Lu12  1  0.788876  0.585970  0.623706  1
  Lu  Lu13  1  0.914021  0.711054  0.123712  1
  Lu  Lu14  1  0.913847  0.289078  0.623710  1
  Lu  Lu15  1  0.085999  0.711088  0.623706  1
  Sc  Sc16  1  0.999954  0.999953  0.500047  1
  Sc  Sc17  1  0.999874  0.999674  0.999877  1
  Sc  Sc18  1  0.499998  0.500053  0.999858  1
  Sc  Sc19  1  0.500036  0.500034  0.499943  1
  Ir  Ir20  1  0.849674  0.149623  0.250231  1
  Ir  Ir21  1  0.850135  0.850042  0.749984  1
  Ir  Ir22  1  0.150087  0.149526  0.748931  1
  Ir  Ir23  1  0.149887  0.850109  0.250022  1
  Ir  Ir24  1  0.649864  0.350098  0.749970  1
  Ir  Ir25  1  0.649888  0.649898  0.250028  1
  Ir  Ir26  1  0.350637  0.350235  0.250297  1
  Ir  Ir27  1  0.350147  0.649898  0.749998  1
  Ir  Ir28  1  0.500074  0.999978  0.122674  1
  Ir  Ir29  1  0.500009  0.999970  0.622677  1
  Ir  Ir30  1  0.999829  0.500438  0.876923  1
  Ir  Ir31  1  0.999789  0.500437  0.377729  1
