# generated using pymatgen
data_Dy12InCo2Si2Ag
_symmetry_space_group_name_H-M   'P 1'
_cell_length_a   8.47317302
_cell_length_b   8.47317435
_cell_length_c   8.47317381
_cell_angle_alpha   113.51413518
_cell_angle_beta   110.31324425
_cell_angle_gamma   104.70676903
_symmetry_Int_Tables_number   1
_chemical_formula_structural   Dy12InCo2Si2Ag
_chemical_formula_sum   'Dy12 In1 Co2 Si2 Ag1'
_cell_volume   465.49175051
_cell_formula_units_Z   1
loop_
 _symmetry_equiv_pos_site_id
 _symmetry_equiv_pos_as_xyz
  1  'x, y, z'
loop_
 _atom_site_type_symbol
 _atom_site_label
 _atom_site_symmetry_multiplicity
 _atom_site_fract_x
 _atom_site_fract_y
 _atom_site_fract_z
 _atom_site_occupancy
  Dy  Dy0  1  0.432103  0.235024  0.197080  1
  Dy  Dy1  1  0.567897  0.764976  0.802920  1
  Dy  Dy2  1  0.037944  0.235024  0.802920  1
  Dy  Dy3  1  0.962056  0.764976  0.197080  1
  Dy  Dy4  1  0.185694  0.287230  0.472924  1
  Dy  Dy5  1  0.814306  0.712770  0.527076  1
  Dy  Dy6  1  0.185694  0.712770  0.898464  1
  Dy  Dy7  1  0.814306  0.287230  0.101536  1
  Dy  Dy8  1  0.304819  0.616206  0.311387  1
  Dy  Dy9  1  0.695181  0.383794  0.688613  1
  Dy  Dy10  1  0.304819  0.993432  0.688613  1
  Dy  Dy11  1  0.695181  0.006568  0.311387  1
  In  In12  1  0.500000  0.500000  0.000000  1
  Co  Co13  1  0.107447  0.607447  0.500000  1
  Co  Co14  1  0.892553  0.392553  0.500000  1
  Si  Si15  1  0.364870  0.000000  0.364870  1
  Si  Si16  1  0.635130  0.000000  0.635130  1
  Ag  Ag17  1  0.000000  0.000000  0.000000  1
