# generated using pymatgen
data_Rb2HfMg(ZnP2)2
_symmetry_space_group_name_H-M   'P 1'
_cell_length_a   7.84456780
_cell_length_b   7.84456949
_cell_length_c   5.92934800
_cell_angle_alpha   90.00000000
_cell_angle_beta   90.00000000
_cell_angle_gamma   135.56667114
_symmetry_Int_Tables_number   1
_chemical_formula_structural   Rb2HfMg(ZnP2)2
_chemical_formula_sum   'Rb2 Hf1 Mg1 Zn2 P4'
_cell_volume   255.44183201
_cell_formula_units_Z   1
loop_
 _symmetry_equiv_pos_site_id
 _symmetry_equiv_pos_as_xyz
  1  'x, y, z'
loop_
 _atom_site_type_symbol
 _atom_site_label
 _atom_site_symmetry_multiplicity
 _atom_site_fract_x
 _atom_site_fract_y
 _atom_site_fract_z
 _atom_site_occupancy
  Rb  Rb0  1  0.500000  0.000000  0.254900  1
  Rb  Rb1  1  0.000000  0.500000  0.745100  1
  Hf  Hf2  1  0.000000  0.000000  0.000000  1
  Mg  Mg3  1  0.500000  0.500000  0.500000  1
  Zn  Zn4  1  0.500000  0.500000  0.000000  1
  Zn  Zn5  1  0.000000  0.000000  0.500000  1
  P  P6  1  0.657400  0.853335  0.755711  1
  P  P7  1  0.146665  0.342600  0.244289  1
  P  P8  1  0.853335  0.657400  0.244289  1
  P  P9  1  0.342600  0.146665  0.755711  1
