# generated using pymatgen
data_LaHo15Cd4Ni3Os
_symmetry_space_group_name_H-M   'P 1'
_cell_length_a   9.58871570
_cell_length_b   9.58871556
_cell_length_c   9.58871654
_cell_angle_alpha   59.47479186
_cell_angle_beta   59.47479179
_cell_angle_gamma   59.47479276
_symmetry_Int_Tables_number   1
_chemical_formula_structural   LaHo15Cd4Ni3Os
_chemical_formula_sum   'La1 Ho15 Cd4 Ni3 Os1'
_cell_volume   615.95195574
_cell_formula_units_Z   1
loop_
 _symmetry_equiv_pos_site_id
 _symmetry_equiv_pos_as_xyz
  1  'x, y, z'
loop_
 _atom_site_type_symbol
 _atom_site_label
 _atom_site_symmetry_multiplicity
 _atom_site_fract_x
 _atom_site_fract_y
 _atom_site_fract_z
 _atom_site_occupancy
  La  La0  1  0.346576  0.346576  0.346576  1
  Ho  Ho1  1  0.351728  0.351728  0.949149  1
  Ho  Ho2  1  0.351728  0.949149  0.351728  1
  Ho  Ho3  1  0.949149  0.351728  0.351728  1
  Ho  Ho4  1  0.813414  0.186666  0.186666  1
  Ho  Ho5  1  0.187290  0.812235  0.812235  1
  Ho  Ho6  1  0.186666  0.813414  0.186666  1
  Ho  Ho7  1  0.812235  0.187290  0.812235  1
  Ho  Ho8  1  0.186666  0.186666  0.813414  1
  Ho  Ho9  1  0.812235  0.812235  0.187290  1
  Ho  Ho10  1  0.934759  0.567068  0.567068  1
  Ho  Ho11  1  0.557353  0.939145  0.939145  1
  Ho  Ho12  1  0.567068  0.934759  0.567068  1
  Ho  Ho13  1  0.939145  0.557353  0.939145  1
  Ho  Ho14  1  0.567068  0.567068  0.934759  1
  Ho  Ho15  1  0.939145  0.939145  0.557353  1
  Cd  Cd16  1  0.580266  0.580266  0.580266  1
  Cd  Cd17  1  0.581869  0.581869  0.254411  1
  Cd  Cd18  1  0.581869  0.254411  0.581869  1
  Cd  Cd19  1  0.254411  0.581869  0.581869  1
  Ni  Ni20  1  0.139919  0.139919  0.575802  1
  Ni  Ni21  1  0.139919  0.575802  0.139919  1
  Ni  Ni22  1  0.575802  0.139919  0.139919  1
  Os  Os23  1  0.143717  0.143717  0.143717  1
