# generated using pymatgen
data_Li2B4Ir4PdPt
_symmetry_space_group_name_H-M   'P 1'
_cell_length_a   6.87286791
_cell_length_b   6.02850353
_cell_length_c   5.50483271
_cell_angle_alpha   72.13130535
_cell_angle_beta   57.66006363
_cell_angle_gamma   51.88069462
_symmetry_Int_Tables_number   1
_chemical_formula_structural   Li2B4Ir4PdPt
_chemical_formula_sum   'Li2 B4 Ir4 Pd1 Pt1'
_cell_volume   151.51184487
_cell_formula_units_Z   1
loop_
 _symmetry_equiv_pos_site_id
 _symmetry_equiv_pos_as_xyz
  1  'x, y, z'
loop_
 _atom_site_type_symbol
 _atom_site_label
 _atom_site_symmetry_multiplicity
 _atom_site_fract_x
 _atom_site_fract_y
 _atom_site_fract_z
 _atom_site_occupancy
  Li  Li0  1  0.944873  0.750287  0.407796  1
  Li  Li1  1  0.503676  0.305744  0.354059  1
  B  B2  1  0.046141  0.988937  0.574732  1
  B  B3  1  0.677134  0.816685  0.171698  1
  B  B4  1  0.426050  0.574135  0.922495  1
  B  B5  1  0.264206  0.203422  0.856509  1
  Ir  Ir6  1  0.101523  0.637258  0.869640  1
  Ir  Ir7  1  0.357418  0.864379  0.140987  1
  Ir  Ir8  1  0.613584  0.147720  0.852833  1
  Ir  Ir9  1  0.384881  0.892427  0.612105  1
  Pd  Pd10  1  0.870093  0.386247  0.838396  1
  Pt  Pt11  1  0.865623  0.377556  0.343550  1
