# generated using pymatgen
data_Li12AgGe4
_symmetry_space_group_name_H-M   'P 1'
_cell_length_a   4.46124200
_cell_length_b   8.04493800
_cell_length_c   15.23674900
_cell_angle_alpha   90.00000000
_cell_angle_beta   90.00000000
_cell_angle_gamma   90.00000000
_symmetry_Int_Tables_number   1
_chemical_formula_structural   Li12AgGe4
_chemical_formula_sum   'Li24 Ag2 Ge8'
_cell_volume   546.85324933
_cell_formula_units_Z   2
loop_
 _symmetry_equiv_pos_site_id
 _symmetry_equiv_pos_as_xyz
  1  'x, y, z'
loop_
 _atom_site_type_symbol
 _atom_site_label
 _atom_site_symmetry_multiplicity
 _atom_site_fract_x
 _atom_site_fract_y
 _atom_site_fract_z
 _atom_site_occupancy
  Li  Li0  1  0.000000  0.767552  0.150506  1
  Li  Li1  1  0.000000  0.347656  0.523086  1
  Li  Li2  1  0.000000  0.152344  0.023086  1
  Li  Li3  1  0.500000  0.764888  0.410373  1
  Li  Li4  1  0.000000  0.232448  0.849494  1
  Li  Li5  1  0.000000  0.405044  0.691811  1
  Li  Li6  1  0.000000  0.905044  0.808189  1
  Li  Li7  1  0.500000  0.592428  0.746288  1
  Li  Li8  1  0.500000  0.901235  0.601149  1
  Li  Li9  1  0.000000  0.732448  0.650506  1
  Li  Li10  1  0.500000  0.235112  0.589627  1
  Li  Li11  1  0.500000  0.264888  0.089627  1
  Li  Li12  1  0.500000  0.098765  0.398851  1
  Li  Li13  1  0.500000  0.735112  0.910373  1
  Li  Li14  1  0.500000  0.092428  0.753712  1
  Li  Li15  1  0.000000  0.267552  0.349494  1
  Li  Li16  1  0.500000  0.407572  0.253712  1
  Li  Li17  1  0.000000  0.094956  0.191811  1
  Li  Li18  1  0.500000  0.401235  0.898851  1
  Li  Li19  1  0.000000  0.652344  0.476914  1
  Li  Li20  1  0.000000  0.847656  0.976914  1
  Li  Li21  1  0.500000  0.907572  0.246288  1
  Li  Li22  1  0.500000  0.598765  0.101149  1
  Li  Li23  1  0.000000  0.594956  0.308189  1
  Ag  Ag24  1  0.000000  0.000000  0.500000  1
  Ag  Ag25  1  0.000000  0.500000  0.000000  1
  Ge  Ge26  1  0.500000  0.929998  0.074551  1
  Ge  Ge27  1  0.000000  0.582489  0.836785  1
  Ge  Ge28  1  0.000000  0.417511  0.163215  1
  Ge  Ge29  1  0.500000  0.570002  0.574551  1
  Ge  Ge30  1  0.000000  0.082489  0.663215  1
  Ge  Ge31  1  0.500000  0.429998  0.425449  1
  Ge  Ge32  1  0.500000  0.070002  0.925449  1
  Ge  Ge33  1  0.000000  0.917511  0.336785  1
