# generated using pymatgen
data_Tb5Ho2ErIn8
_symmetry_space_group_name_H-M   'P 1'
_cell_length_a   6.55050744
_cell_length_b   6.55050698
_cell_length_c   9.99328500
_cell_angle_alpha   90.00000000
_cell_angle_beta   90.00000000
_cell_angle_gamma   98.02412397
_symmetry_Int_Tables_number   1
_chemical_formula_structural   Tb5Ho2ErIn8
_chemical_formula_sum   'Tb5 Ho2 Er1 In8'
_cell_volume   424.60506278
_cell_formula_units_Z   1
loop_
 _symmetry_equiv_pos_site_id
 _symmetry_equiv_pos_as_xyz
  1  'x, y, z'
loop_
 _atom_site_type_symbol
 _atom_site_label
 _atom_site_symmetry_multiplicity
 _atom_site_fract_x
 _atom_site_fract_y
 _atom_site_fract_z
 _atom_site_occupancy
  Tb  Tb0  1  0.477030  0.477030  0.750000  1
  Tb  Tb1  1  0.249288  0.750910  0.499665  1
  Tb  Tb2  1  0.249288  0.750910  0.000335  1
  Tb  Tb3  1  0.750910  0.249288  0.499665  1
  Tb  Tb4  1  0.750910  0.249288  0.000335  1
  Ho  Ho5  1  0.979372  0.979372  0.250000  1
  Ho  Ho6  1  0.019987  0.019987  0.750000  1
  Er  Er7  1  0.522811  0.522811  0.250000  1
  In  In8  1  0.250564  0.250564  0.016557  1
  In  In9  1  0.749536  0.749536  0.984218  1
  In  In10  1  0.250564  0.250564  0.483443  1
  In  In11  1  0.749536  0.749536  0.515782  1
  In  In12  1  0.483766  0.017807  0.250000  1
  In  In13  1  0.982329  0.516303  0.750000  1
  In  In14  1  0.516303  0.982329  0.750000  1
  In  In15  1  0.017807  0.483766  0.250000  1
