# generated using pymatgen
data_ErTm2Sc2(In2Pt)2
_symmetry_space_group_name_H-M   'P 1'
_cell_length_a   3.57041600
_cell_length_b   7.91232900
_cell_length_c   17.80561700
_cell_angle_alpha   90.00000000
_cell_angle_beta   90.00000000
_cell_angle_gamma   90.00000000
_symmetry_Int_Tables_number   1
_chemical_formula_structural   ErTm2Sc2(In2Pt)2
_chemical_formula_sum   'Er2 Tm4 Sc4 In8 Pt4'
_cell_volume   503.01412982
_cell_formula_units_Z   2
loop_
 _symmetry_equiv_pos_site_id
 _symmetry_equiv_pos_as_xyz
  1  'x, y, z'
loop_
 _atom_site_type_symbol
 _atom_site_label
 _atom_site_symmetry_multiplicity
 _atom_site_fract_x
 _atom_site_fract_y
 _atom_site_fract_z
 _atom_site_occupancy
  Er  Er0  1  0.000000  0.000000  0.000000  1
  Er  Er1  1  0.000000  0.500000  0.500000  1
  Tm  Tm2  1  0.000000  0.243472  0.218968  1
  Tm  Tm3  1  0.000000  0.756528  0.781032  1
  Tm  Tm4  1  0.000000  0.256528  0.718968  1
  Tm  Tm5  1  0.000000  0.743472  0.281032  1
  Sc  Sc6  1  0.000000  0.116971  0.414598  1
  Sc  Sc7  1  0.000000  0.883029  0.585402  1
  Sc  Sc8  1  0.000000  0.383029  0.914598  1
  Sc  Sc9  1  0.000000  0.616971  0.085402  1
  In  In10  1  0.500000  0.416410  0.351870  1
  In  In11  1  0.500000  0.583590  0.648130  1
  In  In12  1  0.500000  0.083590  0.851870  1
  In  In13  1  0.500000  0.916410  0.148130  1
  In  In14  1  0.500000  0.302607  0.061880  1
  In  In15  1  0.500000  0.697393  0.938120  1
  In  In16  1  0.500000  0.197393  0.561880  1
  In  In17  1  0.500000  0.802607  0.438120  1
  Pt  Pt18  1  0.500000  0.030408  0.307130  1
  Pt  Pt19  1  0.500000  0.969592  0.692870  1
  Pt  Pt20  1  0.500000  0.469592  0.807130  1
  Pt  Pt21  1  0.500000  0.530408  0.192870  1
