# generated using pymatgen
data_SiS27
_symmetry_space_group_name_H-M   'P 1'
_cell_length_a   15.10348724
_cell_length_b   15.05787978
_cell_length_c   15.01702030
_cell_angle_alpha   118.40803574
_cell_angle_beta   118.74189675
_cell_angle_gamma   119.08864804
_symmetry_Int_Tables_number   1
_chemical_formula_structural   SiS27
_chemical_formula_sum   'Si1 S27'
_cell_volume   987.71935721
_cell_formula_units_Z   1
loop_
 _symmetry_equiv_pos_site_id
 _symmetry_equiv_pos_as_xyz
  1  'x, y, z'
loop_
 _atom_site_type_symbol
 _atom_site_label
 _atom_site_symmetry_multiplicity
 _atom_site_fract_x
 _atom_site_fract_y
 _atom_site_fract_z
 _atom_site_occupancy
  Si  Si0  1  0.929032  0.930529  0.932980  1
  S  S1  1  0.802890  0.521066  0.521305  1
  S  S2  1  0.524988  0.525395  0.806475  1
  S  S3  1  0.522606  0.804480  0.523273  1
  S  S4  1  0.246140  0.375781  0.634314  1
  S  S5  1  0.353890  0.953227  0.353120  1
  S  S6  1  0.353794  0.353450  0.953377  1
  S  S7  1  0.952934  0.353483  0.353062  1
  S  S8  1  0.126690  0.739532  0.256128  1
  S  S9  1  0.254874  0.125728  0.738843  1
  S  S10  1  0.739152  0.256018  0.126003  1
  S  S11  1  0.739458  0.126596  0.256490  1
  S  S12  1  0.255258  0.738787  0.125617  1
  S  S13  1  0.126194  0.255246  0.739233  1
  S  S14  1  0.347612  0.879290  0.530943  1
  S  S15  1  0.530413  0.347132  0.879257  1
  S  S16  1  0.880130  0.531079  0.347274  1
  S  S17  1  0.879785  0.347580  0.531203  1
  S  S18  1  0.530763  0.879932  0.347111  1
  S  S19  1  0.347342  0.530507  0.878976  1
  S  S20  1  0.244589  0.633377  0.374735  1
  S  S21  1  0.376158  0.246905  0.634994  1
  S  S22  1  0.634208  0.374731  0.244795  1
  S  S23  1  0.633551  0.244187  0.374504  1
  S  S24  1  0.375434  0.634783  0.246029  1
  S  S25  1  0.845031  0.983803  0.980790  1
  S  S26  1  0.985783  0.983643  0.852954  1
  S  S27  1  0.986599  0.849027  0.981511  1
