# generated using pymatgen
data_TbThB2Ir5
_symmetry_space_group_name_H-M   'P 1'
_cell_length_a   11.10308117
_cell_length_b   11.10308190
_cell_length_c   11.10308262
_cell_angle_alpha   28.82601670
_cell_angle_beta   28.82600889
_cell_angle_gamma   28.82601627
_symmetry_Int_Tables_number   1
_chemical_formula_structural   TbThB2Ir5
_chemical_formula_sum   'Tb2 Th2 B4 Ir10'
_cell_volume   281.37309540
_cell_formula_units_Z   2
loop_
 _symmetry_equiv_pos_site_id
 _symmetry_equiv_pos_as_xyz
  1  'x, y, z'
loop_
 _atom_site_type_symbol
 _atom_site_label
 _atom_site_symmetry_multiplicity
 _atom_site_fract_x
 _atom_site_fract_y
 _atom_site_fract_z
 _atom_site_occupancy
  Tb  Tb0  1  0.846378  0.846378  0.846378  1
  Tb  Tb1  1  0.050572  0.050572  0.050572  1
  Th  Th2  1  0.151878  0.151878  0.151878  1
  Th  Th3  1  0.949296  0.949296  0.949296  1
  B  B4  1  0.618016  0.618016  0.618016  1
  B  B5  1  0.717031  0.717031  0.717031  1
  B  B6  1  0.382881  0.382881  0.382881  1
  B  B7  1  0.283474  0.283474  0.283474  1
  Ir  Ir8  1  0.407422  0.898498  0.407422  1
  Ir  Ir9  1  0.898498  0.407422  0.407422  1
  Ir  Ir10  1  0.500327  0.500327  0.000654  1
  Ir  Ir11  1  0.500327  0.000654  0.500327  1
  Ir  Ir12  1  0.000654  0.500327  0.500327  1
  Ir  Ir13  1  0.500136  0.500136  0.500136  1
  Ir  Ir14  1  0.593018  0.099650  0.593018  1
  Ir  Ir15  1  0.593018  0.593018  0.099650  1
  Ir  Ir16  1  0.099650  0.593018  0.593018  1
  Ir  Ir17  1  0.407422  0.407422  0.898498  1
