# generated using pymatgen
data_La5Pr4Nd(Al2Ru3)2
_symmetry_space_group_name_H-M   'P 1'
_cell_length_a   8.60189375
_cell_length_b   8.60189261
_cell_length_c   8.66455654
_cell_angle_alpha   109.55127483
_cell_angle_beta   109.33817867
_cell_angle_gamma   109.22971116
_symmetry_Int_Tables_number   1
_chemical_formula_structural   La5Pr4Nd(Al2Ru3)2
_chemical_formula_sum   'La5 Pr4 Nd1 Al4 Ru6'
_cell_volume   495.31141573
_cell_formula_units_Z   1
loop_
 _symmetry_equiv_pos_site_id
 _symmetry_equiv_pos_as_xyz
  1  'x, y, z'
loop_
 _atom_site_type_symbol
 _atom_site_label
 _atom_site_symmetry_multiplicity
 _atom_site_fract_x
 _atom_site_fract_y
 _atom_site_fract_z
 _atom_site_occupancy
  La  La0  1  0.252911  0.691558  0.440789  1
  La  La1  1  0.750769  0.812122  0.059211  1
  La  La2  1  0.440240  0.249946  0.688288  1
  La  La3  1  0.689691  0.439691  0.250000  1
  La  La4  1  0.061658  0.751952  0.811712  1
  Pr  Pr5  1  0.214414  0.217156  0.216098  1
  Pr  Pr6  1  0.501057  0.998316  0.283902  1
  Pr  Pr7  1  0.283711  0.498258  0.997178  1
  Pr  Pr8  1  0.001080  0.286533  0.502822  1
  Nd  Nd9  1  0.814883  0.064883  0.750000  1
  Al  Al10  1  0.589159  0.589337  0.587426  1
  Al  Al11  1  0.501911  0.001733  0.912574  1
  Al  Al12  1  0.914135  0.498464  0.000820  1
  Al  Al13  1  0.997644  0.913315  0.499180  1
  Ru  Ru14  1  0.245147  0.111541  0.862267  1
  Ru  Ru15  1  0.749274  0.382880  0.637733  1
  Ru  Ru16  1  0.862008  0.253896  0.122666  1
  Ru  Ru17  1  0.113337  0.863336  0.250000  1
  Ru  Ru18  1  0.631230  0.739342  0.377334  1
  Ru  Ru19  1  0.385740  0.635740  0.750000  1
