# generated using pymatgen
data_Dy2P3Rh4
_symmetry_space_group_name_H-M   'P 1'
_cell_length_a   13.12495200
_cell_length_b   13.12495213
_cell_length_c   3.94730300
_cell_angle_alpha   90.00000000
_cell_angle_beta   90.00000000
_cell_angle_gamma   119.99999968
_symmetry_Int_Tables_number   1
_chemical_formula_structural   Dy2P3Rh4
_chemical_formula_sum   'Dy8 P12 Rh16'
_cell_volume   588.87965391
_cell_formula_units_Z   4
loop_
 _symmetry_equiv_pos_site_id
 _symmetry_equiv_pos_as_xyz
  1  'x, y, z'
loop_
 _atom_site_type_symbol
 _atom_site_label
 _atom_site_symmetry_multiplicity
 _atom_site_fract_x
 _atom_site_fract_y
 _atom_site_fract_z
 _atom_site_occupancy
  Dy  Dy0  1  0.186465  0.186465  0.500000  1
  Dy  Dy1  1  0.813535  0.000000  0.500000  1
  Dy  Dy2  1  0.000000  0.813535  0.500000  1
  Dy  Dy3  1  0.333333  0.666667  0.000000  1
  Dy  Dy4  1  0.666667  0.333333  0.000000  1
  Dy  Dy5  1  0.556441  0.556441  0.000000  1
  Dy  Dy6  1  0.443559  0.000000  0.000000  1
  Dy  Dy7  1  0.000000  0.443559  0.000000  1
  P  P8  1  0.824262  0.824262  0.000000  1
  P  P9  1  0.175738  0.000000  0.000000  1
  P  P10  1  0.000000  0.175738  0.000000  1
  P  P11  1  0.174221  0.482127  0.500000  1
  P  P12  1  0.517873  0.692094  0.500000  1
  P  P13  1  0.307906  0.825779  0.500000  1
  P  P14  1  0.692094  0.517873  0.500000  1
  P  P15  1  0.825779  0.307906  0.500000  1
  P  P16  1  0.482127  0.174221  0.500000  1
  P  P17  1  0.348430  0.348430  0.000000  1
  P  P18  1  0.651570  0.000000  0.000000  1
  P  P19  1  0.000000  0.651570  0.000000  1
  Rh  Rh20  1  0.727015  0.727015  0.500000  1
  Rh  Rh21  1  0.272985  0.000000  0.500000  1
  Rh  Rh22  1  0.000000  0.272985  0.500000  1
  Rh  Rh23  1  0.178670  0.370672  0.000000  1
  Rh  Rh24  1  0.629328  0.807998  0.000000  1
  Rh  Rh25  1  0.192002  0.821330  0.000000  1
  Rh  Rh26  1  0.807998  0.629328  0.000000  1
  Rh  Rh27  1  0.821330  0.192002  0.000000  1
  Rh  Rh28  1  0.370672  0.178670  0.000000  1
  Rh  Rh29  1  0.356089  0.486460  0.500000  1
  Rh  Rh30  1  0.513540  0.869630  0.500000  1
  Rh  Rh31  1  0.130370  0.643911  0.500000  1
  Rh  Rh32  1  0.869630  0.513540  0.500000  1
  Rh  Rh33  1  0.643911  0.130370  0.500000  1
  Rh  Rh34  1  0.486460  0.356089  0.500000  1
  Rh  Rh35  1  0.000000  0.000000  0.000000  1
