# generated using pymatgen
data_YbDyEr2MnRu7
_symmetry_space_group_name_H-M   'P 1'
_cell_length_a   5.31715594
_cell_length_b   5.30791966
_cell_length_c   8.64234408
_cell_angle_alpha   90.00000216
_cell_angle_beta   89.98074884
_cell_angle_gamma   60.05743736
_symmetry_Int_Tables_number   1
_chemical_formula_structural   YbDyEr2MnRu7
_chemical_formula_sum   'Yb1 Dy1 Er2 Mn1 Ru7'
_cell_volume   211.35715751
_cell_formula_units_Z   1
loop_
 _symmetry_equiv_pos_site_id
 _symmetry_equiv_pos_as_xyz
  1  'x, y, z'
loop_
 _atom_site_type_symbol
 _atom_site_label
 _atom_site_symmetry_multiplicity
 _atom_site_fract_x
 _atom_site_fract_y
 _atom_site_fract_z
 _atom_site_occupancy
  Yb  Yb0  1  0.333066  0.333467  0.562963  1
  Dy  Dy1  1  0.666930  0.666535  0.439347  1
  Er  Er2  1  0.666739  0.666631  0.068551  1
  Er  Er3  1  0.333268  0.333365  0.926395  1
  Mn  Mn4  1  0.000054  0.999973  0.002554  1
  Ru  Ru5  1  0.999950  0.000025  0.499537  1
  Ru  Ru6  1  0.829226  0.341367  0.755168  1
  Ru  Ru7  1  0.341469  0.829266  0.755167  1
  Ru  Ru8  1  0.829226  0.829408  0.755168  1
  Ru  Ru9  1  0.171879  0.656421  0.245052  1
  Ru  Ru10  1  0.656314  0.171843  0.245043  1
  Ru  Ru11  1  0.171879  0.171700  0.245052  1
