# generated using pymatgen
data_Nd6Ni19P13Pt
_symmetry_space_group_name_H-M   'P 1'
_cell_length_a   12.84073300
_cell_length_b   12.84073363
_cell_length_c   3.84489000
_cell_angle_alpha   90.00000000
_cell_angle_beta   90.00000000
_cell_angle_gamma   119.99999579
_symmetry_Int_Tables_number   1
_chemical_formula_structural   Nd6Ni19P13Pt
_chemical_formula_sum   'Nd6 Ni19 P13 Pt1'
_cell_volume   549.02765688
_cell_formula_units_Z   1
loop_
 _symmetry_equiv_pos_site_id
 _symmetry_equiv_pos_as_xyz
  1  'x, y, z'
loop_
 _atom_site_type_symbol
 _atom_site_label
 _atom_site_symmetry_multiplicity
 _atom_site_fract_x
 _atom_site_fract_y
 _atom_site_fract_z
 _atom_site_occupancy
  Nd  Nd0  1  0.796922  0.948182  0.000000  1
  Nd  Nd1  1  0.051818  0.848741  0.000000  1
  Nd  Nd2  1  0.151259  0.203078  0.000000  1
  Nd  Nd3  1  0.518782  0.133930  0.500000  1
  Nd  Nd4  1  0.866070  0.384852  0.500000  1
  Nd  Nd5  1  0.615148  0.481218  0.500000  1
  Ni  Ni6  1  0.525277  0.770662  0.000000  1
  Ni  Ni7  1  0.229338  0.754615  0.000000  1
  Ni  Ni8  1  0.245385  0.474723  0.000000  1
  Ni  Ni9  1  0.402707  0.812631  0.500000  1
  Ni  Ni10  1  0.187369  0.590076  0.500000  1
  Ni  Ni11  1  0.409924  0.597293  0.500000  1
  Ni  Ni12  1  0.666667  0.333333  0.000000  1
  Ni  Ni13  1  0.769868  0.687678  0.000000  1
  Ni  Ni14  1  0.312322  0.082191  0.000000  1
  Ni  Ni15  1  0.917809  0.230132  0.000000  1
  Ni  Ni16  1  0.642830  0.735139  0.500000  1
  Ni  Ni17  1  0.264861  0.907691  0.500000  1
  Ni  Ni18  1  0.092309  0.357170  0.500000  1
  Ni  Ni19  1  0.360116  0.259409  0.500000  1
  Ni  Ni20  1  0.740591  0.100707  0.500000  1
  Ni  Ni21  1  0.899293  0.639884  0.500000  1
  Ni  Ni22  1  0.572541  0.984088  0.000000  1
  Ni  Ni23  1  0.015912  0.588453  0.000000  1
  Ni  Ni24  1  0.411547  0.427459  0.000000  1
  P  P25  1  0.846026  0.789834  0.500000  1
  P  P26  1  0.210166  0.056192  0.500000  1
  P  P27  1  0.943808  0.153974  0.500000  1
  P  P28  1  0.604704  0.897764  0.500000  1
  P  P29  1  0.102236  0.706939  0.500000  1
  P  P30  1  0.293061  0.395296  0.500000  1
  P  P31  1  0.468686  0.281939  0.000000  1
  P  P32  1  0.718061  0.186747  0.000000  1
  P  P33  1  0.813253  0.531314  0.000000  1
  P  P34  1  0.377275  0.944811  0.000000  1
  P  P35  1  0.055189  0.432464  0.000000  1
  P  P36  1  0.567536  0.622725  0.000000  1
  P  P37  1  0.333333  0.666667  0.000000  1
  Pt  Pt38  1  0.000000  0.000000  0.500000  1
