# generated using pymatgen
data_Pa2Cr4P7Rh8
_symmetry_space_group_name_H-M   'P 1'
_cell_length_a   3.83995607
_cell_length_b   9.52599396
_cell_length_c   9.61298525
_cell_angle_alpha   120.27374080
_cell_angle_beta   90.09005130
_cell_angle_gamma   89.93321285
_symmetry_Int_Tables_number   1
_chemical_formula_structural   Pa2Cr4P7Rh8
_chemical_formula_sum   'Pa2 Cr4 P7 Rh8'
_cell_volume   303.68288221
_cell_formula_units_Z   1
loop_
 _symmetry_equiv_pos_site_id
 _symmetry_equiv_pos_as_xyz
  1  'x, y, z'
loop_
 _atom_site_type_symbol
 _atom_site_label
 _atom_site_symmetry_multiplicity
 _atom_site_fract_x
 _atom_site_fract_y
 _atom_site_fract_z
 _atom_site_occupancy
  Pa  Pa0  1  0.261968  0.669723  0.333870  1
  Pa  Pa1  1  0.761752  0.332400  0.666062  1
  Cr  Cr2  1  0.761888  0.111349  0.865081  1
  Cr  Cr3  1  0.762237  0.120692  0.221918  1
  Cr  Cr4  1  0.761625  0.774462  0.904194  1
  Cr  Cr5  1  0.261977  0.875930  0.157666  1
  P  P6  1  0.262029  0.991897  0.009529  1
  P  P7  1  0.761686  0.892163  0.603394  1
  P  P8  1  0.762024  0.392534  0.284991  1
  P  P9  1  0.762048  0.722510  0.121418  1
  P  P10  1  0.261722  0.107072  0.395512  1
  P  P11  1  0.261759  0.593494  0.705983  1
  P  P12  1  0.261967  0.291178  0.884938  1
  Rh  Rh13  1  0.261846  0.848018  0.733509  1
  Rh  Rh14  1  0.262186  0.267533  0.114372  1
  Rh  Rh15  1  0.761823  0.614172  0.553955  1
  Rh  Rh16  1  0.761818  0.450396  0.066061  1
  Rh  Rh17  1  0.762062  0.945105  0.385720  1
  Rh  Rh18  1  0.262187  0.368467  0.438571  1
  Rh  Rh19  1  0.261420  0.558715  0.926606  1
  Rh  Rh20  1  0.261978  0.072188  0.626652  1
