# generated using pymatgen
data_Rb2CaNpO6
_symmetry_space_group_name_H-M   'P 1'
_cell_length_a   6.19658585
_cell_length_b   6.19654910
_cell_length_c   6.19684100
_cell_angle_alpha   120.00115328
_cell_angle_beta   120.00174311
_cell_angle_gamma   60.00043741
_symmetry_Int_Tables_number   1
_chemical_formula_structural   Rb2CaNpO6
_chemical_formula_sum   'Rb2 Ca1 Np1 O6'
_cell_volume   168.24789928
_cell_formula_units_Z   1
loop_
 _symmetry_equiv_pos_site_id
 _symmetry_equiv_pos_as_xyz
  1  'x, y, z'
loop_
 _atom_site_type_symbol
 _atom_site_label
 _atom_site_symmetry_multiplicity
 _atom_site_fract_x
 _atom_site_fract_y
 _atom_site_fract_z
 _atom_site_occupancy
  Rb  Rb0  1  0.750002  0.750001  0.249999  1
  Rb  Rb1  1  0.250001  0.250000  0.749999  1
  Ca  Ca2  1  0.500010  0.499990  0.500006  1
  Np  Np3  1  0.000003  0.999997  0.000002  1
  O  O4  1  0.770297  0.229703  0.229705  1
  O  O5  1  0.229696  0.229696  0.229696  1
  O  O6  1  0.229689  0.770311  0.229691  1
  O  O7  1  0.770305  0.770305  0.770304  1
  O  O8  1  0.770299  0.229700  0.770297  1
  O  O9  1  0.229700  0.770299  0.770296  1
