# generated using pymatgen
data_DyTm5Bi2Os
_symmetry_space_group_name_H-M   'P 1'
_cell_length_a   8.23175900
_cell_length_b   8.21387034
_cell_length_c   4.23323700
_cell_angle_alpha   90.00000000
_cell_angle_beta   90.00000000
_cell_angle_gamma   120.07208129
_symmetry_Int_Tables_number   1
_chemical_formula_structural   DyTm5Bi2Os
_chemical_formula_sum   'Dy1 Tm5 Bi2 Os1'
_cell_volume   247.70102404
_cell_formula_units_Z   1
loop_
 _symmetry_equiv_pos_site_id
 _symmetry_equiv_pos_as_xyz
  1  'x, y, z'
loop_
 _atom_site_type_symbol
 _atom_site_label
 _atom_site_symmetry_multiplicity
 _atom_site_fract_x
 _atom_site_fract_y
 _atom_site_fract_z
 _atom_site_occupancy
  Dy  Dy0  1  0.614716  0.000000  0.000000  1
  Tm  Tm1  1  0.233398  0.000000  0.500000  1
  Tm  Tm2  1  0.000288  0.231870  0.500000  1
  Tm  Tm3  1  0.768418  0.768130  0.500000  1
  Tm  Tm4  1  0.999526  0.617531  0.000000  1
  Tm  Tm5  1  0.381995  0.382469  0.000000  1
  Bi  Bi6  1  0.331914  0.665220  0.500000  1
  Bi  Bi7  1  0.666695  0.334780  0.500000  1
  Os  Os8  1  0.003050  0.000000  0.000000  1
