# generated using pymatgen
data_BaNaCe2F11
_symmetry_space_group_name_H-M   'P 1'
_cell_length_a   8.47151222
_cell_length_b   8.47151200
_cell_length_c   8.47151200
_cell_angle_alpha   117.94039148
_cell_angle_beta   117.94039069
_cell_angle_gamma   93.60597733
_symmetry_Int_Tables_number   1
_chemical_formula_structural   BaNaCe2F11
_chemical_formula_sum   'Ba2 Na2 Ce4 F22'
_cell_volume   442.33591662
_cell_formula_units_Z   2
loop_
 _symmetry_equiv_pos_site_id
 _symmetry_equiv_pos_as_xyz
  1  'x, y, z'
loop_
 _atom_site_type_symbol
 _atom_site_label
 _atom_site_symmetry_multiplicity
 _atom_site_fract_x
 _atom_site_fract_y
 _atom_site_fract_z
 _atom_site_occupancy
  Ba  Ba0  1  0.195578  0.195578  0.000000  1
  Ba  Ba1  1  0.804422  0.804422  0.000000  1
  Na  Na2  1  0.750000  0.250000  0.500000  1
  Na  Na3  1  0.250000  0.750000  0.500000  1
  Ce  Ce4  1  0.653516  0.216771  0.870286  1
  Ce  Ce5  1  0.783229  0.653516  0.436746  1
  Ce  Ce6  1  0.346484  0.783229  0.129714  1
  Ce  Ce7  1  0.216771  0.346484  0.563254  1
  F  F8  1  0.819050  0.547727  0.147009  1
  F  F9  1  0.807383  0.901848  0.709231  1
  F  F10  1  0.055961  0.868899  0.591742  1
  F  F11  1  0.131101  0.722843  0.187061  1
  F  F12  1  0.547727  0.400719  0.728676  1
  F  F13  1  0.672041  0.819050  0.271324  1
  F  F14  1  0.464219  0.055961  0.187061  1
  F  F15  1  0.599281  0.327959  0.147009  1
  F  F16  1  0.535781  0.944039  0.812939  1
  F  F17  1  0.098152  0.807383  0.905535  1
  F  F18  1  0.500000  0.000000  0.500000  1
  F  F19  1  0.901848  0.192617  0.094465  1
  F  F20  1  0.944039  0.131101  0.408258  1
  F  F21  1  0.452273  0.599281  0.271324  1
  F  F22  1  0.400719  0.672041  0.852991  1
  F  F23  1  0.180950  0.452273  0.852991  1
  F  F24  1  0.327959  0.180950  0.728676  1
  F  F25  1  0.868899  0.277157  0.812939  1
  F  F26  1  0.000000  0.500000  0.500000  1
  F  F27  1  0.722843  0.535781  0.591742  1
  F  F28  1  0.192617  0.098152  0.290769  1
  F  F29  1  0.277157  0.464219  0.408258  1
