# generated using pymatgen
data_YbTh(Ga4Ni)2
_symmetry_space_group_name_H-M   'P 1'
_cell_length_a   7.95631221
_cell_length_b   7.95631109
_cell_length_c   6.64697800
_cell_angle_alpha   90.00000000
_cell_angle_beta   90.00000000
_cell_angle_gamma   149.67026307
_symmetry_Int_Tables_number   1
_chemical_formula_structural   YbTh(Ga4Ni)2
_chemical_formula_sum   'Yb1 Th1 Ga8 Ni2'
_cell_volume   212.48010058
_cell_formula_units_Z   1
loop_
 _symmetry_equiv_pos_site_id
 _symmetry_equiv_pos_as_xyz
  1  'x, y, z'
loop_
 _atom_site_type_symbol
 _atom_site_label
 _atom_site_symmetry_multiplicity
 _atom_site_fract_x
 _atom_site_fract_y
 _atom_site_fract_z
 _atom_site_occupancy
  Yb  Yb0  1  0.378926  0.621074  0.250000  1
  Th  Th1  1  0.619957  0.380043  0.750000  1
  Ga  Ga2  1  0.188649  0.811351  0.442897  1
  Ga  Ga3  1  0.817351  0.182649  0.548081  1
  Ga  Ga4  1  0.998238  0.001762  0.006066  1
  Ga  Ga5  1  0.998238  0.001762  0.493934  1
  Ga  Ga6  1  0.569486  0.430514  0.250000  1
  Ga  Ga7  1  0.425577  0.574423  0.750000  1
  Ga  Ga8  1  0.188649  0.811351  0.057103  1
  Ga  Ga9  1  0.817351  0.182649  0.951919  1
  Ni  Ni10  1  0.724143  0.275857  0.250000  1
  Ni  Ni11  1  0.273435  0.726565  0.750000  1
