# generated using pymatgen
data_S24ICl3
_symmetry_space_group_name_H-M   'P 1'
_cell_length_a   15.17324909
_cell_length_b   15.17324904
_cell_length_c   15.17324883
_cell_angle_alpha   118.80520119
_cell_angle_beta   118.80519983
_cell_angle_gamma   118.80518922
_symmetry_Int_Tables_number   1
_chemical_formula_structural   S24ICl3
_chemical_formula_sum   'S24 I1 Cl3'
_cell_volume   986.71068880
_cell_formula_units_Z   1
loop_
 _symmetry_equiv_pos_site_id
 _symmetry_equiv_pos_as_xyz
  1  'x, y, z'
loop_
 _atom_site_type_symbol
 _atom_site_label
 _atom_site_symmetry_multiplicity
 _atom_site_fract_x
 _atom_site_fract_y
 _atom_site_fract_z
 _atom_site_occupancy
  S  S0  1  0.014280  0.610118  0.610118  1
  S  S1  1  0.610118  0.610118  0.014280  1
  S  S2  1  0.610118  0.014280  0.610118  1
  S  S3  1  0.235256  0.845945  0.717526  1
  S  S4  1  0.845945  0.717526  0.235256  1
  S  S5  1  0.717526  0.235256  0.845945  1
  S  S6  1  0.845945  0.235256  0.717526  1
  S  S7  1  0.235256  0.717526  0.845945  1
  S  S8  1  0.717526  0.845945  0.235256  1
  S  S9  1  0.099336  0.627986  0.446401  1
  S  S10  1  0.627986  0.446401  0.099336  1
  S  S11  1  0.446401  0.099336  0.627986  1
  S  S12  1  0.627986  0.099336  0.446401  1
  S  S13  1  0.099336  0.446401  0.627986  1
  S  S14  1  0.446401  0.627986  0.099336  1
  S  S15  1  0.357483  0.745849  0.616953  1
  S  S16  1  0.745849  0.616953  0.357483  1
  S  S17  1  0.616953  0.357483  0.745849  1
  S  S18  1  0.745849  0.357483  0.616953  1
  S  S19  1  0.357483  0.616953  0.745849  1
  S  S20  1  0.616953  0.745849  0.357483  1
  S  S21  1  0.188263  0.468398  0.468398  1
  S  S22  1  0.468398  0.468398  0.188263  1
  S  S23  1  0.468398  0.188263  0.468398  1
  I  I24  1  0.079128  0.079128  0.079128  1
  Cl  Cl25  1  0.182981  0.019973  0.019973  1
  Cl  Cl26  1  0.019973  0.019973  0.182981  1
  Cl  Cl27  1  0.019973  0.182981  0.019973  1
