# generated using pymatgen
data_Ga6ReIr
_symmetry_space_group_name_H-M   'P 1'
_cell_length_a   6.59217063
_cell_length_b   6.59217063
_cell_length_c   6.86180800
_cell_angle_alpha   90.00000000
_cell_angle_beta   90.00000000
_cell_angle_gamma   89.45839653
_symmetry_Int_Tables_number   1
_chemical_formula_structural   Ga6ReIr
_chemical_formula_sum   'Ga12 Re2 Ir2'
_cell_volume   298.17830283
_cell_formula_units_Z   2
loop_
 _symmetry_equiv_pos_site_id
 _symmetry_equiv_pos_as_xyz
  1  'x, y, z'
loop_
 _atom_site_type_symbol
 _atom_site_label
 _atom_site_symmetry_multiplicity
 _atom_site_fract_x
 _atom_site_fract_y
 _atom_site_fract_z
 _atom_site_occupancy
  Ga  Ga0  1  0.000000  0.500000  0.500000  1
  Ga  Ga1  1  0.500000  0.000000  0.000000  1
  Ga  Ga2  1  0.500000  0.000000  0.500000  1
  Ga  Ga3  1  0.000000  0.500000  0.000000  1
  Ga  Ga4  1  0.346682  0.653318  0.238584  1
  Ga  Ga5  1  0.653318  0.346682  0.238584  1
  Ga  Ga6  1  0.157443  0.157443  0.730868  1
  Ga  Ga7  1  0.842557  0.842557  0.730868  1
  Ga  Ga8  1  0.653318  0.346682  0.761416  1
  Ga  Ga9  1  0.346682  0.653318  0.761416  1
  Ga  Ga10  1  0.842557  0.842557  0.269132  1
  Ga  Ga11  1  0.157443  0.157443  0.269132  1
  Re  Re12  1  0.161361  0.838639  0.500000  1
  Re  Re13  1  0.838639  0.161361  0.500000  1
  Ir  Ir14  1  0.341039  0.341039  0.000000  1
  Ir  Ir15  1  0.658961  0.658961  0.000000  1
