# generated using pymatgen
data_LuZr(NiH3)2
_symmetry_space_group_name_H-M   'P 1'
_cell_length_a   5.63877890
_cell_length_b   5.63877918
_cell_length_c   4.43261500
_cell_angle_alpha   90.00000000
_cell_angle_beta   90.00000000
_cell_angle_gamma   143.80055933
_symmetry_Int_Tables_number   1
_chemical_formula_structural   LuZr(NiH3)2
_chemical_formula_sum   'Lu1 Zr1 Ni2 H6'
_cell_volume   83.23806636
_cell_formula_units_Z   1
loop_
 _symmetry_equiv_pos_site_id
 _symmetry_equiv_pos_as_xyz
  1  'x, y, z'
loop_
 _atom_site_type_symbol
 _atom_site_label
 _atom_site_symmetry_multiplicity
 _atom_site_fract_x
 _atom_site_fract_y
 _atom_site_fract_z
 _atom_site_occupancy
  Lu  Lu0  1  0.861976  0.138024  0.750000  1
  Zr  Zr1  1  0.139177  0.860823  0.250000  1
  Ni  Ni2  1  0.574353  0.425647  0.750000  1
  Ni  Ni3  1  0.428419  0.571581  0.250000  1
  H  H4  1  0.074830  0.925170  0.750000  1
  H  H5  1  0.937140  0.062860  0.250000  1
  H  H6  1  0.682653  0.317347  0.487154  1
  H  H7  1  0.309400  0.690600  0.487869  1
  H  H8  1  0.682653  0.317347  0.012846  1
  H  H9  1  0.309400  0.690600  0.012131  1
