# generated using pymatgen
data_Nb5AlSn2
_symmetry_space_group_name_H-M   'P 1'
_cell_length_a   8.03764405
_cell_length_b   8.03764389
_cell_length_c   8.03764315
_cell_angle_alpha   96.00619597
_cell_angle_beta   96.00619092
_cell_angle_gamma   142.25361203
_symmetry_Int_Tables_number   1
_chemical_formula_structural   Nb5AlSn2
_chemical_formula_sum   'Nb10 Al2 Sn4'
_cell_volume   300.78507450
_cell_formula_units_Z   2
loop_
 _symmetry_equiv_pos_site_id
 _symmetry_equiv_pos_as_xyz
  1  'x, y, z'
loop_
 _atom_site_type_symbol
 _atom_site_label
 _atom_site_symmetry_multiplicity
 _atom_site_fract_x
 _atom_site_fract_y
 _atom_site_fract_z
 _atom_site_occupancy
  Nb  Nb0  1  0.250000  0.750000  0.500000  1
  Nb  Nb1  1  0.750000  0.250000  0.500000  1
  Nb  Nb2  1  0.782923  0.929850  0.712775  1
  Nb  Nb3  1  0.929850  0.217077  0.146927  1
  Nb  Nb4  1  0.070150  0.782923  0.853073  1
  Nb  Nb5  1  0.217077  0.070150  0.287225  1
  Nb  Nb6  1  0.570150  0.717077  0.287225  1
  Nb  Nb7  1  0.429850  0.282923  0.712775  1
  Nb  Nb8  1  0.282923  0.570150  0.853073  1
  Nb  Nb9  1  0.717077  0.429850  0.146927  1
  Al  Al10  1  0.750000  0.750000  0.000000  1
  Al  Al11  1  0.250000  0.250000  0.000000  1
  Sn  Sn12  1  0.331526  0.831526  0.163053  1
  Sn  Sn13  1  0.831526  0.668474  0.500000  1
  Sn  Sn14  1  0.168474  0.331526  0.500000  1
  Sn  Sn15  1  0.668474  0.168474  0.836947  1
