# generated using pymatgen
data_TbGd2(ZnNi)3
_symmetry_space_group_name_H-M   'P 1'
_cell_length_a   7.05245800
_cell_length_b   7.06621996
_cell_length_c   3.82274400
_cell_angle_alpha   90.00000000
_cell_angle_beta   90.00000000
_cell_angle_gamma   119.93560513
_symmetry_Int_Tables_number   1
_chemical_formula_structural   TbGd2(ZnNi)3
_chemical_formula_sum   'Tb1 Gd2 Zn3 Ni3'
_cell_volume   165.08778839
_cell_formula_units_Z   1
loop_
 _symmetry_equiv_pos_site_id
 _symmetry_equiv_pos_as_xyz
  1  'x, y, z'
loop_
 _atom_site_type_symbol
 _atom_site_label
 _atom_site_symmetry_multiplicity
 _atom_site_fract_x
 _atom_site_fract_y
 _atom_site_fract_z
 _atom_site_occupancy
  Tb  Tb0  1  0.590244  0.000000  0.000000  1
  Gd  Gd1  1  0.000007  0.589914  0.000000  1
  Gd  Gd2  1  0.410093  0.410086  0.000000  1
  Zn  Zn3  1  0.242291  0.000000  0.500000  1
  Zn  Zn4  1  0.758159  0.758651  0.500000  1
  Zn  Zn5  1  0.999509  0.241349  0.500000  1
  Ni  Ni6  1  0.999950  0.000000  0.000000  1
  Ni  Ni7  1  0.666556  0.333363  0.500000  1
  Ni  Ni8  1  0.333192  0.666637  0.500000  1
