# generated using pymatgen
data_Sm7Th(SiBr6)2
_symmetry_space_group_name_H-M   'P 1'
_cell_length_a   4.15350000
_cell_length_b   13.59136159
_cell_length_c   14.37808309
_cell_angle_alpha   90.39103615
_cell_angle_beta   90.00000000
_cell_angle_gamma   90.00000000
_symmetry_Int_Tables_number   1
_chemical_formula_structural   Sm7Th(SiBr6)2
_chemical_formula_sum   'Sm7 Th1 Si2 Br12'
_cell_volume   811.64862307
_cell_formula_units_Z   1
loop_
 _symmetry_equiv_pos_site_id
 _symmetry_equiv_pos_as_xyz
  1  'x, y, z'
loop_
 _atom_site_type_symbol
 _atom_site_label
 _atom_site_symmetry_multiplicity
 _atom_site_fract_x
 _atom_site_fract_y
 _atom_site_fract_z
 _atom_site_occupancy
  Sm  Sm0  1  0.500000  0.116638  0.343337  1
  Sm  Sm1  1  0.500000  0.880910  0.660024  1
  Sm  Sm2  1  0.500000  0.618284  0.157416  1
  Sm  Sm3  1  0.500000  0.383012  0.841680  1
  Sm  Sm4  1  0.000000  0.118615  0.579365  1
  Sm  Sm5  1  0.000000  0.880982  0.420974  1
  Sm  Sm6  1  0.000000  0.617999  0.921604  1
  Th  Th7  1  0.000000  0.383892  0.076821  1
  Si  Si8  1  0.500000  0.999098  0.501075  1
  Si  Si9  1  0.500000  0.501994  0.998693  1
  Br  Br10  1  0.500000  0.242374  0.164342  1
  Br  Br11  1  0.500000  0.756574  0.834687  1
  Br  Br12  1  0.500000  0.744989  0.336851  1
  Br  Br13  1  0.500000  0.254179  0.663492  1
  Br  Br14  1  0.000000  0.253513  0.411929  1
  Br  Br15  1  0.000000  0.746431  0.587586  1
  Br  Br16  1  0.000000  0.754288  0.088693  1
  Br  Br17  1  0.000000  0.244641  0.910466  1
  Br  Br18  1  0.000000  0.002126  0.244788  1
  Br  Br19  1  0.000000  0.998842  0.755331  1
  Br  Br20  1  0.000000  0.502869  0.256721  1
  Br  Br21  1  0.000000  0.497748  0.744126  1
