# generated using pymatgen
data_Dy(As2Rh3)2
_symmetry_space_group_name_H-M   'P 1'
_cell_length_a   7.26715200
_cell_length_b   7.26662662
_cell_length_c   3.84301300
_cell_angle_alpha   90.00000000
_cell_angle_beta   90.00000000
_cell_angle_gamma   120.00240083
_symmetry_Int_Tables_number   1
_chemical_formula_structural   Dy(As2Rh3)2
_chemical_formula_sum   'Dy1 As4 Rh6'
_cell_volume   175.74746420
_cell_formula_units_Z   1
loop_
 _symmetry_equiv_pos_site_id
 _symmetry_equiv_pos_as_xyz
  1  'x, y, z'
loop_
 _atom_site_type_symbol
 _atom_site_label
 _atom_site_symmetry_multiplicity
 _atom_site_fract_x
 _atom_site_fract_y
 _atom_site_fract_z
 _atom_site_occupancy
  Dy  Dy0  1  0.999983  0.999964  0.000000  1
  As  As1  1  0.333320  0.666640  0.000000  1
  As  As2  1  0.379347  0.189682  0.500000  1
  As  As3  1  0.810334  0.189682  0.500000  1
  As  As4  1  0.810318  0.620636  0.500000  1
  Rh  Rh5  1  0.533205  0.066412  0.000000  1
  Rh  Rh6  1  0.533268  0.466810  0.000000  1
  Rh  Rh7  1  0.933542  0.466810  0.000000  1
  Rh  Rh8  1  0.196804  0.393607  0.500000  1
  Rh  Rh9  1  0.196795  0.803179  0.500000  1
  Rh  Rh10  1  0.606384  0.803179  0.500000  1
