# generated using pymatgen
data_Ti6Al5MoRu12
_symmetry_space_group_name_H-M   'P 1'
_cell_length_a   4.32833600
_cell_length_b   6.13176300
_cell_length_c   12.92623100
_cell_angle_alpha   90.00000000
_cell_angle_beta   89.99959754
_cell_angle_gamma   90.00000000
_symmetry_Int_Tables_number   1
_chemical_formula_structural   Ti6Al5MoRu12
_chemical_formula_sum   'Ti6 Al5 Mo1 Ru12'
_cell_volume   343.06644333
_cell_formula_units_Z   1
loop_
 _symmetry_equiv_pos_site_id
 _symmetry_equiv_pos_as_xyz
  1  'x, y, z'
loop_
 _atom_site_type_symbol
 _atom_site_label
 _atom_site_symmetry_multiplicity
 _atom_site_fract_x
 _atom_site_fract_y
 _atom_site_fract_z
 _atom_site_occupancy
  Ti  Ti0  1  0.000000  0.499999  0.000000  1
  Ti  Ti1  1  0.499869  0.000000  0.175199  1
  Ti  Ti2  1  0.999844  0.499999  0.336353  1
  Ti  Ti3  1  0.500000  0.000000  0.500000  1
  Ti  Ti4  1  0.000157  0.499999  0.663647  1
  Ti  Ti5  1  0.500132  0.000000  0.824801  1
  Al  Al6  1  0.499853  0.499999  0.168038  1
  Al  Al7  1  0.999830  0.000000  0.334720  1
  Al  Al8  1  0.500000  0.499999  0.500000  1
  Al  Al9  1  0.000171  0.000000  0.665280  1
  Al  Al10  1  0.500147  0.499999  0.831962  1
  Mo  Mo11  1  0.000000  0.000000  0.000000  1
  Ru  Ru12  1  0.500000  0.248949  0.000000  1
  Ru  Ru13  1  0.500000  0.751050  0.000000  1
  Ru  Ru14  1  0.999868  0.248439  0.163267  1
  Ru  Ru15  1  0.999868  0.751561  0.163267  1
  Ru  Ru16  1  0.499831  0.251537  0.332457  1
  Ru  Ru17  1  0.499831  0.748464  0.332457  1
  Ru  Ru18  1  0.000000  0.249769  0.500000  1
  Ru  Ru19  1  0.000000  0.750231  0.500000  1
  Ru  Ru20  1  0.500167  0.251537  0.667543  1
  Ru  Ru21  1  0.500167  0.748464  0.667543  1
  Ru  Ru22  1  0.000133  0.248439  0.836733  1
  Ru  Ru23  1  0.000133  0.751561  0.836733  1
