# generated using pymatgen
data_TbDy3Bi3Sb3Rh7
_symmetry_space_group_name_H-M   'P 1'
_cell_length_a   7.74617108
_cell_length_b   7.70993433
_cell_length_c   7.70993221
_cell_angle_alpha   109.39035388
_cell_angle_beta   109.57283468
_cell_angle_gamma   109.57284097
_symmetry_Int_Tables_number   1
_chemical_formula_structural   TbDy3Bi3Sb3Rh7
_chemical_formula_sum   'Tb1 Dy3 Bi3 Sb3 Rh7'
_cell_volume   353.92214003
_cell_formula_units_Z   1
loop_
 _symmetry_equiv_pos_site_id
 _symmetry_equiv_pos_as_xyz
  1  'x, y, z'
loop_
 _atom_site_type_symbol
 _atom_site_label
 _atom_site_symmetry_multiplicity
 _atom_site_fract_x
 _atom_site_fract_y
 _atom_site_fract_z
 _atom_site_occupancy
  Tb  Tb0  1  0.490383  0.485911  0.485911  1
  Dy  Dy1  1  0.465044  0.999989  0.999989  1
  Dy  Dy2  1  0.004584  0.514221  0.999996  1
  Dy  Dy3  1  0.004584  0.999996  0.514221  1
  Bi  Bi4  1  0.988004  0.297585  0.297585  1
  Bi  Bi5  1  0.690611  0.000194  0.702413  1
  Bi  Bi6  1  0.690611  0.702413  0.000194  1
  Sb  Sb7  1  0.989230  0.665294  0.665294  1
  Sb  Sb8  1  0.323736  0.999773  0.334691  1
  Sb  Sb9  1  0.323736  0.334691  0.999773  1
  Rh  Rh10  1  0.064759  0.999964  0.999964  1
  Rh  Rh11  1  0.496138  0.752814  0.253183  1
  Rh  Rh12  1  0.743535  0.500562  0.247231  1
  Rh  Rh13  1  0.242685  0.746783  0.499396  1
  Rh  Rh14  1  0.242685  0.499396  0.746783  1
  Rh  Rh15  1  0.496138  0.253183  0.752814  1
  Rh  Rh16  1  0.743535  0.247231  0.500562  1
