# generated using pymatgen
data_Mn3Si7Ni16Pd3
_symmetry_space_group_name_H-M   'P 1'
_cell_length_a   7.87108726
_cell_length_b   7.86491383
_cell_length_c   7.86418443
_cell_angle_alpha   60.05501486
_cell_angle_beta   59.97709414
_cell_angle_gamma   59.96789103
_symmetry_Int_Tables_number   1
_chemical_formula_structural   Mn3Si7Ni16Pd3
_chemical_formula_sum   'Mn3 Si7 Ni16 Pd3'
_cell_volume   344.24431826
_cell_formula_units_Z   1
loop_
 _symmetry_equiv_pos_site_id
 _symmetry_equiv_pos_as_xyz
  1  'x, y, z'
loop_
 _atom_site_type_symbol
 _atom_site_label
 _atom_site_symmetry_multiplicity
 _atom_site_fract_x
 _atom_site_fract_y
 _atom_site_fract_z
 _atom_site_occupancy
  Mn  Mn0  1  0.689122  0.693542  0.306458  1
  Mn  Mn1  1  0.306458  0.310878  0.689122  1
  Mn  Mn2  1  0.697012  0.302988  0.697012  1
  Si  Si3  1  0.999311  0.000689  0.999311  1
  Si  Si4  1  0.001257  0.498743  0.001257  1
  Si  Si5  1  0.496854  0.996759  0.003241  1
  Si  Si6  1  0.003241  0.503146  0.496854  1
  Si  Si7  1  0.501257  0.998743  0.501257  1
  Si  Si8  1  0.004630  0.995370  0.498072  1
  Si  Si9  1  0.498072  0.501928  0.004630  1
  Ni  Ni10  1  0.330609  0.328851  0.333866  1
  Ni  Ni11  1  0.993328  0.666134  0.671149  1
  Ni  Ni12  1  0.666195  0.000174  0.669808  1
  Ni  Ni13  1  0.671149  0.669391  0.993328  1
  Ni  Ni14  1  0.333866  0.006672  0.330609  1
  Ni  Ni15  1  0.336176  0.330192  0.999826  1
  Ni  Ni16  1  0.999826  0.333805  0.336176  1
  Ni  Ni17  1  0.669808  0.663824  0.666195  1
  Ni  Ni18  1  0.116735  0.120177  0.114873  1
  Ni  Ni19  1  0.351785  0.885127  0.879823  1
  Ni  Ni20  1  0.882803  0.351659  0.881237  1
  Ni  Ni21  1  0.879823  0.883265  0.351785  1
  Ni  Ni22  1  0.114873  0.648215  0.116735  1
  Ni  Ni23  1  0.115698  0.118763  0.648341  1
  Ni  Ni24  1  0.648341  0.117197  0.115698  1
  Ni  Ni25  1  0.881237  0.884302  0.882803  1
  Pd  Pd26  1  0.308308  0.691692  0.308308  1
  Pd  Pd27  1  0.311655  0.688345  0.690571  1
  Pd  Pd28  1  0.690571  0.309429  0.311655  1
