# generated using pymatgen
data_Tm5Th(CdHg2)6
_symmetry_space_group_name_H-M   'P 1'
_cell_length_a   5.08811201
_cell_length_b   7.04310704
_cell_length_c   15.47056200
_cell_angle_alpha   89.99995119
_cell_angle_beta   89.99742130
_cell_angle_gamma   90.00634531
_symmetry_Int_Tables_number   1
_chemical_formula_structural   Tm5Th(CdHg2)6
_chemical_formula_sum   'Tm5 Th1 Cd6 Hg12'
_cell_volume   554.40487366
_cell_formula_units_Z   1
loop_
 _symmetry_equiv_pos_site_id
 _symmetry_equiv_pos_as_xyz
  1  'x, y, z'
loop_
 _atom_site_type_symbol
 _atom_site_label
 _atom_site_symmetry_multiplicity
 _atom_site_fract_x
 _atom_site_fract_y
 _atom_site_fract_z
 _atom_site_occupancy
  Tm  Tm0  1  0.999992  0.000000  0.000335  1
  Tm  Tm1  1  0.499916  0.500001  0.167334  1
  Tm  Tm2  1  0.999914  0.000000  0.333326  1
  Tm  Tm3  1  0.500010  0.500001  0.499319  1
  Tm  Tm4  1  0.000080  0.000000  0.666333  1
  Th  Th5  1  0.500099  0.500000  0.833368  1
  Cd  Cd6  1  0.000003  0.500001  0.001333  1
  Cd  Cd7  1  0.499905  0.000000  0.168244  1
  Cd  Cd8  1  0.999925  0.500004  0.333246  1
  Cd  Cd9  1  0.500005  0.000001  0.498419  1
  Cd  Cd10  1  0.000087  0.500000  0.665416  1
  Cd  Cd11  1  0.500083  0.000001  0.833320  1
  Hg  Hg12  1  0.500048  0.245467  0.004452  1
  Hg  Hg13  1  0.499948  0.754535  0.004452  1
  Hg  Hg14  1  0.999906  0.248193  0.166874  1
  Hg  Hg15  1  0.999897  0.751807  0.166874  1
  Hg  Hg16  1  0.499921  0.251434  0.333297  1
  Hg  Hg17  1  0.499926  0.748571  0.333294  1
  Hg  Hg18  1  0.000013  0.248270  0.499739  1
  Hg  Hg19  1  0.000006  0.751733  0.499739  1
  Hg  Hg20  1  0.500123  0.245535  0.662265  1
  Hg  Hg21  1  0.500028  0.754458  0.662264  1
  Hg  Hg22  1  0.999987  0.236672  0.833378  1
  Hg  Hg23  1  0.000180  0.763322  0.833380  1
