# generated using pymatgen
data_LuZn2CdIr2
_symmetry_space_group_name_H-M   'P 1'
_cell_length_a   5.22244733
_cell_length_b   5.22244723
_cell_length_c   5.11499400
_cell_angle_alpha   60.67830931
_cell_angle_beta   60.67830995
_cell_angle_gamma   65.52314302
_symmetry_Int_Tables_number   1
_chemical_formula_structural   LuZn2CdIr2
_chemical_formula_sum   'Lu1 Zn2 Cd1 Ir2'
_cell_volume   103.21787101
_cell_formula_units_Z   1
loop_
 _symmetry_equiv_pos_site_id
 _symmetry_equiv_pos_as_xyz
  1  'x, y, z'
loop_
 _atom_site_type_symbol
 _atom_site_label
 _atom_site_symmetry_multiplicity
 _atom_site_fract_x
 _atom_site_fract_y
 _atom_site_fract_z
 _atom_site_occupancy
  Lu  Lu0  1  0.237627  0.237627  0.262373  1
  Zn  Zn1  1  0.627276  0.627276  0.619856  1
  Zn  Zn2  1  0.627276  0.627276  0.125594  1
  Cd  Cd3  1  0.001951  0.001951  0.998049  1
  Ir  Ir4  1  0.631104  0.124768  0.622064  1
  Ir  Ir5  1  0.124768  0.631104  0.622064  1
