# generated using pymatgen
data_Nd4Co12Ni7P12Ru
_symmetry_space_group_name_H-M   'P 1'
_cell_length_a   3.72484000
_cell_length_b   10.45072582
_cell_length_c   11.92326633
_cell_angle_alpha   90.19674383
_cell_angle_beta   90.00000000
_cell_angle_gamma   90.00000000
_symmetry_Int_Tables_number   1
_chemical_formula_structural   Nd4Co12Ni7P12Ru
_chemical_formula_sum   'Nd4 Co12 Ni7 P12 Ru1'
_cell_volume   464.13760918
_cell_formula_units_Z   1
loop_
 _symmetry_equiv_pos_site_id
 _symmetry_equiv_pos_as_xyz
  1  'x, y, z'
loop_
 _atom_site_type_symbol
 _atom_site_label
 _atom_site_symmetry_multiplicity
 _atom_site_fract_x
 _atom_site_fract_y
 _atom_site_fract_z
 _atom_site_occupancy
  Nd  Nd0  1  0.250000  0.583636  0.703239  1
  Nd  Nd1  1  0.250000  0.917899  0.201867  1
  Nd  Nd2  1  0.750000  0.416851  0.297529  1
  Nd  Nd3  1  0.750000  0.084582  0.795715  1
  Co  Co4  1  0.250000  0.219148  0.176080  1
  Co  Co5  1  0.250000  0.278977  0.674448  1
  Co  Co6  1  0.750000  0.780361  0.825205  1
  Co  Co7  1  0.750000  0.721683  0.324031  1
  Co  Co8  1  0.250000  0.881973  0.696373  1
  Co  Co9  1  0.250000  0.614678  0.199673  1
  Co  Co10  1  0.750000  0.118314  0.304810  1
  Co  Co11  1  0.750000  0.381383  0.802475  1
  Co  Co12  1  0.250000  0.465091  0.932938  1
  Co  Co13  1  0.250000  0.031451  0.433190  1
  Co  Co14  1  0.750000  0.531500  0.067961  1
  Co  Co15  1  0.750000  0.967996  0.566592  1
  Ni  Ni16  1  0.250000  0.791048  0.487986  1
  Ni  Ni17  1  0.750000  0.287065  0.009792  1
  Ni  Ni18  1  0.750000  0.209669  0.512064  1
  Ni  Ni19  1  0.250000  0.407550  0.487866  1
  Ni  Ni20  1  0.250000  0.093302  0.986099  1
  Ni  Ni21  1  0.750000  0.592637  0.511558  1
  Ni  Ni22  1  0.750000  0.910861  0.011105  1
  P  P23  1  0.250000  0.416253  0.110011  1
  P  P24  1  0.250000  0.080864  0.609807  1
  P  P25  1  0.750000  0.580065  0.890227  1
  P  P26  1  0.750000  0.919310  0.389518  1
  P  P27  1  0.250000  0.276246  0.865240  1
  P  P28  1  0.250000  0.222635  0.365668  1
  P  P29  1  0.750000  0.722941  0.134275  1
  P  P30  1  0.750000  0.777208  0.634536  1
  P  P31  1  0.250000  0.609305  0.390680  1
  P  P32  1  0.250000  0.896179  0.887204  1
  P  P33  1  0.750000  0.390754  0.610855  1
  P  P34  1  0.750000  0.110278  0.111937  1
  Ru  Ru35  1  0.250000  0.710302  0.991445  1
