# generated using pymatgen
data_ThTaFe4P3
_symmetry_space_group_name_H-M   'P 1'
_cell_length_a   3.73892700
_cell_length_b   10.64282400
_cell_length_c   12.45805600
_cell_angle_alpha   90.00000000
_cell_angle_beta   90.00000000
_cell_angle_gamma   90.00000000
_symmetry_Int_Tables_number   1
_chemical_formula_structural   ThTaFe4P3
_chemical_formula_sum   'Th4 Ta4 Fe16 P12'
_cell_volume   495.74020835
_cell_formula_units_Z   4
loop_
 _symmetry_equiv_pos_site_id
 _symmetry_equiv_pos_as_xyz
  1  'x, y, z'
loop_
 _atom_site_type_symbol
 _atom_site_label
 _atom_site_symmetry_multiplicity
 _atom_site_fract_x
 _atom_site_fract_y
 _atom_site_fract_z
 _atom_site_occupancy
  Th  Th0  1  0.250000  0.582909  0.711141  1
  Th  Th1  1  0.250000  0.917091  0.211141  1
  Th  Th2  1  0.750000  0.417091  0.288859  1
  Th  Th3  1  0.750000  0.082909  0.788859  1
  Ta  Ta4  1  0.250000  0.700196  0.995487  1
  Ta  Ta5  1  0.250000  0.799804  0.495487  1
  Ta  Ta6  1  0.750000  0.299804  0.004513  1
  Ta  Ta7  1  0.750000  0.200196  0.504513  1
  Fe  Fe8  1  0.250000  0.414418  0.489543  1
  Fe  Fe9  1  0.250000  0.085582  0.989543  1
  Fe  Fe10  1  0.750000  0.585582  0.510457  1
  Fe  Fe11  1  0.750000  0.914418  0.010457  1
  Fe  Fe12  1  0.250000  0.219155  0.169080  1
  Fe  Fe13  1  0.250000  0.280845  0.669080  1
  Fe  Fe14  1  0.750000  0.780845  0.830920  1
  Fe  Fe15  1  0.750000  0.719155  0.330920  1
  Fe  Fe16  1  0.250000  0.884126  0.699047  1
  Fe  Fe17  1  0.250000  0.615874  0.199047  1
  Fe  Fe18  1  0.750000  0.115874  0.300953  1
  Fe  Fe19  1  0.750000  0.384126  0.800953  1
  Fe  Fe20  1  0.250000  0.465711  0.934294  1
  Fe  Fe21  1  0.250000  0.034289  0.434294  1
  Fe  Fe22  1  0.750000  0.534289  0.065706  1
  Fe  Fe23  1  0.750000  0.965711  0.565706  1
  P  P24  1  0.250000  0.423485  0.109143  1
  P  P25  1  0.250000  0.076515  0.609143  1
  P  P26  1  0.750000  0.576515  0.890857  1
  P  P27  1  0.750000  0.923485  0.390857  1
  P  P28  1  0.250000  0.283100  0.851642  1
  P  P29  1  0.250000  0.216900  0.351642  1
  P  P30  1  0.750000  0.716900  0.148358  1
  P  P31  1  0.750000  0.783100  0.648358  1
  P  P32  1  0.250000  0.604290  0.380226  1
  P  P33  1  0.250000  0.895710  0.880226  1
  P  P34  1  0.750000  0.395710  0.619774  1
  P  P35  1  0.750000  0.104290  0.119774  1
