# generated using pymatgen
data_Dy3Ag2Hg3Rh
_symmetry_space_group_name_H-M   'P 1'
_cell_length_a   7.99927000
_cell_length_b   7.99926897
_cell_length_c   3.68087800
_cell_angle_alpha   90.00000000
_cell_angle_beta   90.00000000
_cell_angle_gamma   119.99998771
_symmetry_Int_Tables_number   1
_chemical_formula_structural   Dy3Ag2Hg3Rh
_chemical_formula_sum   'Dy3 Ag2 Hg3 Rh1'
_cell_volume   203.97773483
_cell_formula_units_Z   1
loop_
 _symmetry_equiv_pos_site_id
 _symmetry_equiv_pos_as_xyz
  1  'x, y, z'
loop_
 _atom_site_type_symbol
 _atom_site_label
 _atom_site_symmetry_multiplicity
 _atom_site_fract_x
 _atom_site_fract_y
 _atom_site_fract_z
 _atom_site_occupancy
  Dy  Dy0  1  0.031750  0.616084  0.500000  1
  Dy  Dy1  1  0.584334  0.968250  0.500000  1
  Dy  Dy2  1  0.383916  0.415666  0.500000  1
  Ag  Ag3  1  0.000000  0.000000  0.500000  1
  Ag  Ag4  1  0.666667  0.333333  0.000000  1
  Hg  Hg5  1  0.992642  0.275387  0.000000  1
  Hg  Hg6  1  0.282745  0.007358  0.000000  1
  Hg  Hg7  1  0.724613  0.717255  0.000000  1
  Rh  Rh8  1  0.333333  0.666667  0.000000  1
