# generated using pymatgen
data_Li4Pr4RuPt3
_symmetry_space_group_name_H-M   'P 1'
_cell_length_a   4.11621000
_cell_length_b   7.24171766
_cell_length_c   8.59910575
_cell_angle_alpha   89.34138739
_cell_angle_beta   90.00000000
_cell_angle_gamma   90.00000000
_symmetry_Int_Tables_number   1
_chemical_formula_structural   Li4Pr4RuPt3
_chemical_formula_sum   'Li4 Pr4 Ru1 Pt3'
_cell_volume   256.30891284
_cell_formula_units_Z   1
loop_
 _symmetry_equiv_pos_site_id
 _symmetry_equiv_pos_as_xyz
  1  'x, y, z'
loop_
 _atom_site_type_symbol
 _atom_site_label
 _atom_site_symmetry_multiplicity
 _atom_site_fract_x
 _atom_site_fract_y
 _atom_site_fract_z
 _atom_site_occupancy
  Li  Li0  1  0.250000  0.123121  0.053722  1
  Li  Li1  1  0.250000  0.628136  0.446262  1
  Li  Li2  1  0.750000  0.874214  0.941644  1
  Li  Li3  1  0.750000  0.376209  0.554580  1
  Pr  Pr4  1  0.250000  0.051074  0.672648  1
  Pr  Pr5  1  0.250000  0.545137  0.820728  1
  Pr  Pr6  1  0.750000  0.964983  0.319369  1
  Pr  Pr7  1  0.750000  0.449286  0.190903  1
  Ru  Ru8  1  0.250000  0.241180  0.374114  1
  Pt  Pt9  1  0.250000  0.749360  0.120655  1
  Pt  Pt10  1  0.750000  0.748099  0.626425  1
  Pt  Pt11  1  0.750000  0.249201  0.878951  1
