# generated using pymatgen
data_CaZrNb3Ni9As7
_symmetry_space_group_name_H-M   'P 1'
_cell_length_a   3.82282500
_cell_length_b   9.61385405
_cell_length_c   9.61385500
_cell_angle_alpha   119.99999204
_cell_angle_beta   90.00000000
_cell_angle_gamma   90.00000000
_symmetry_Int_Tables_number   1
_chemical_formula_structural   CaZrNb3Ni9As7
_chemical_formula_sum   'Ca1 Zr1 Nb3 Ni9 As7'
_cell_volume   305.99207326
_cell_formula_units_Z   1
loop_
 _symmetry_equiv_pos_site_id
 _symmetry_equiv_pos_as_xyz
  1  'x, y, z'
loop_
 _atom_site_type_symbol
 _atom_site_label
 _atom_site_symmetry_multiplicity
 _atom_site_fract_x
 _atom_site_fract_y
 _atom_site_fract_z
 _atom_site_occupancy
  Ca  Ca0  1  0.000000  0.666667  0.333333  1
  Zr  Zr1  1  0.500000  0.333333  0.666667  1
  Nb  Nb2  1  0.500000  0.774540  0.892850  1
  Nb  Nb3  1  0.500000  0.118309  0.225460  1
  Nb  Nb4  1  0.500000  0.107150  0.881691  1
  Ni  Ni5  1  0.000000  0.570203  0.931957  1
  Ni  Ni6  1  0.000000  0.361752  0.429797  1
  Ni  Ni7  1  0.000000  0.068043  0.638248  1
  Ni  Ni8  1  0.000000  0.872402  0.156187  1
  Ni  Ni9  1  0.000000  0.283785  0.127598  1
  Ni  Ni10  1  0.000000  0.843813  0.716215  1
  Ni  Ni11  1  0.500000  0.948011  0.385626  1
  Ni  Ni12  1  0.500000  0.437615  0.051989  1
  Ni  Ni13  1  0.500000  0.614374  0.562385  1
  As  As14  1  0.500000  0.708019  0.120563  1
  As  As15  1  0.500000  0.412546  0.291981  1
  As  As16  1  0.500000  0.879437  0.587454  1
  As  As17  1  0.000000  0.000000  0.000000  1
  As  As18  1  0.000000  0.577346  0.691721  1
  As  As19  1  0.000000  0.114375  0.422654  1
  As  As20  1  0.000000  0.308279  0.885625  1
