# generated using pymatgen
data_Th2Zn15Ag2
_symmetry_space_group_name_H-M   'P 1'
_cell_length_a   6.90426341
_cell_length_b   6.90426296
_cell_length_c   6.93145062
_cell_angle_alpha   82.66291056
_cell_angle_beta   97.33707448
_cell_angle_gamma   97.03862516
_symmetry_Int_Tables_number   1
_chemical_formula_structural   Th2Zn15Ag2
_chemical_formula_sum   'Th2 Zn15 Ag2'
_cell_volume   323.12478774
_cell_formula_units_Z   1
loop_
 _symmetry_equiv_pos_site_id
 _symmetry_equiv_pos_as_xyz
  1  'x, y, z'
loop_
 _atom_site_type_symbol
 _atom_site_label
 _atom_site_symmetry_multiplicity
 _atom_site_fract_x
 _atom_site_fract_y
 _atom_site_fract_z
 _atom_site_occupancy
  Th  Th0  1  0.662371  0.337629  0.341183  1
  Th  Th1  1  0.338175  0.661825  0.661732  1
  Zn  Zn2  1  0.500597  0.002342  0.999633  1
  Zn  Zn3  1  0.293351  0.293140  0.999648  1
  Zn  Zn4  1  0.706859  0.706649  0.999648  1
  Zn  Zn5  1  0.997658  0.499404  0.999634  1
  Zn  Zn6  1  0.998297  0.705958  0.294466  1
  Zn  Zn7  1  0.294042  0.001703  0.294466  1
  Zn  Zn8  1  0.155276  0.348769  0.354653  1
  Zn  Zn9  1  0.651231  0.844724  0.354653  1
  Zn  Zn10  1  0.000666  0.999334  0.501510  1
  Zn  Zn11  1  0.840482  0.647353  0.647683  1
  Zn  Zn12  1  0.352647  0.159516  0.647684  1
  Zn  Zn13  1  0.999748  0.293863  0.706095  1
  Zn  Zn14  1  0.706137  0.000252  0.706096  1
  Zn  Zn15  1  0.647635  0.352364  0.840578  1
  Zn  Zn16  1  0.102145  0.897855  0.893929  1
  Ag  Ag17  1  0.901139  0.098861  0.099276  1
  Ag  Ag18  1  0.351548  0.648452  0.157439  1
