# generated using pymatgen
data_Zr9BeRe4
_symmetry_space_group_name_H-M   'P 1'
_cell_length_a   8.55012905
_cell_length_b   8.55012999
_cell_length_c   8.79115700
_cell_angle_alpha   90.00000000
_cell_angle_beta   90.00000000
_cell_angle_gamma   119.99735648
_symmetry_Int_Tables_number   1
_chemical_formula_structural   Zr9BeRe4
_chemical_formula_sum   'Zr18 Be2 Re8'
_cell_volume   556.58772354
_cell_formula_units_Z   2
loop_
 _symmetry_equiv_pos_site_id
 _symmetry_equiv_pos_as_xyz
  1  'x, y, z'
loop_
 _atom_site_type_symbol
 _atom_site_label
 _atom_site_symmetry_multiplicity
 _atom_site_fract_x
 _atom_site_fract_y
 _atom_site_fract_z
 _atom_site_occupancy
  Zr  Zr0  1  0.540398  0.080800  0.250000  1
  Zr  Zr1  1  0.459603  0.919201  0.749999  1
  Zr  Zr2  1  0.919201  0.459603  0.250000  1
  Zr  Zr3  1  0.540405  0.459594  0.250000  1
  Zr  Zr4  1  0.459595  0.540404  0.749999  1
  Zr  Zr5  1  0.080800  0.540398  0.749999  1
  Zr  Zr6  1  0.198797  0.397606  0.052494  1
  Zr  Zr7  1  0.801202  0.602394  0.552496  1
  Zr  Zr8  1  0.602392  0.801201  0.052494  1
  Zr  Zr9  1  0.198800  0.801200  0.052483  1
  Zr  Zr10  1  0.801200  0.198800  0.552483  1
  Zr  Zr11  1  0.397606  0.198798  0.552496  1
  Zr  Zr12  1  0.801202  0.602394  0.947505  1
  Zr  Zr13  1  0.801200  0.198800  0.947517  1
  Zr  Zr14  1  0.397606  0.198798  0.947505  1
  Zr  Zr15  1  0.602392  0.801201  0.447506  1
  Zr  Zr16  1  0.198800  0.801200  0.447517  1
  Zr  Zr17  1  0.198797  0.397606  0.447506  1
  Be  Be18  1  0.333334  0.666666  0.250000  1
  Be  Be19  1  0.666665  0.333334  0.749999  1
  Re  Re20  1  0.000000  0.000000  0.000000  1
  Re  Re21  1  0.000000  0.000000  0.500000  1
  Re  Re22  1  0.892144  0.784286  0.250000  1
  Re  Re23  1  0.107858  0.215714  0.749999  1
  Re  Re24  1  0.215714  0.107857  0.250000  1
  Re  Re25  1  0.892160  0.107840  0.250000  1
  Re  Re26  1  0.107840  0.892160  0.749999  1
  Re  Re27  1  0.784286  0.892143  0.749999  1
