# generated using pymatgen
data_BaVBiO5
_symmetry_space_group_name_H-M   'P 1'
_cell_length_a   6.26715310
_cell_length_b   7.45597498
_cell_length_c   7.37935027
_cell_angle_alpha   105.77581156
_cell_angle_beta   110.03566742
_cell_angle_gamma   101.98751360
_symmetry_Int_Tables_number   1
_chemical_formula_structural   BaVBiO5
_chemical_formula_sum   'Ba2 V2 Bi2 O10'
_cell_volume   293.98341334
_cell_formula_units_Z   2
loop_
 _symmetry_equiv_pos_site_id
 _symmetry_equiv_pos_as_xyz
  1  'x, y, z'
loop_
 _atom_site_type_symbol
 _atom_site_label
 _atom_site_symmetry_multiplicity
 _atom_site_fract_x
 _atom_site_fract_y
 _atom_site_fract_z
 _atom_site_occupancy
  Ba  Ba0  1  0.310695  0.379895  0.166786  1
  Ba  Ba1  1  0.689305  0.620105  0.833214  1
  V  V2  1  0.674476  0.154416  0.862686  1
  V  V3  1  0.325524  0.845584  0.137314  1
  Bi  Bi4  1  0.110494  0.747441  0.543164  1
  Bi  Bi5  1  0.889506  0.252559  0.456836  1
  O  O6  1  0.123660  0.710079  0.208592  1
  O  O7  1  0.876340  0.289921  0.791408  1
  O  O8  1  0.463459  0.095488  0.300986  1
  O  O9  1  0.536541  0.904512  0.699014  1
  O  O10  1  0.536181  0.731541  0.138029  1
  O  O11  1  0.463819  0.268459  0.861971  1
  O  O12  1  0.770832  0.500413  0.468915  1
  O  O13  1  0.229168  0.499587  0.531085  1
  O  O14  1  0.851841  0.174197  0.115704  1
  O  O15  1  0.148159  0.825803  0.884296  1
