# generated using pymatgen
data_LiHfB4Ru5
_symmetry_space_group_name_H-M   'P 1'
_cell_length_a   2.99433100
_cell_length_b   8.31875017
_cell_length_c   10.08485427
_cell_angle_alpha   88.27193891
_cell_angle_beta   90.00000000
_cell_angle_gamma   90.00000000
_symmetry_Int_Tables_number   1
_chemical_formula_structural   LiHfB4Ru5
_chemical_formula_sum   'Li2 Hf2 B8 Ru10'
_cell_volume   251.09031259
_cell_formula_units_Z   2
loop_
 _symmetry_equiv_pos_site_id
 _symmetry_equiv_pos_as_xyz
  1  'x, y, z'
loop_
 _atom_site_type_symbol
 _atom_site_label
 _atom_site_symmetry_multiplicity
 _atom_site_fract_x
 _atom_site_fract_y
 _atom_site_fract_z
 _atom_site_occupancy
  Li  Li0  1  0.500000  0.848134  0.171571  1
  Li  Li1  1  0.500000  0.151866  0.828429  1
  Hf  Hf2  1  0.500000  0.655404  0.688322  1
  Hf  Hf3  1  0.500000  0.344596  0.311678  1
  B  B4  1  0.500000  0.967911  0.591732  1
  B  B5  1  0.500000  0.032089  0.408268  1
  B  B6  1  0.500000  0.860125  0.901543  1
  B  B7  1  0.500000  0.139875  0.098457  1
  B  B8  1  0.500000  0.654945  0.394251  1
  B  B9  1  0.500000  0.345055  0.605749  1
  B  B10  1  0.500000  0.457881  0.911027  1
  B  B11  1  0.500000  0.542119  0.088973  1
  Ru  Ru12  1  0.000000  0.656481  0.947265  1
  Ru  Ru13  1  0.000000  0.343519  0.052735  1
  Ru  Ru14  1  0.000000  0.839821  0.459863  1
  Ru  Ru15  1  0.000000  0.160179  0.540137  1
  Ru  Ru16  1  0.000000  0.000000  0.000000  1
  Ru  Ru17  1  0.000000  0.390784  0.762492  1
  Ru  Ru18  1  0.000000  0.609216  0.237508  1
  Ru  Ru19  1  0.000000  0.500000  0.500000  1
  Ru  Ru20  1  0.000000  0.909131  0.740560  1
  Ru  Ru21  1  0.000000  0.090869  0.259440  1
