# generated using pymatgen
data_Tb8GaPd23Pt
_symmetry_space_group_name_H-M   'P 1'
_cell_length_a   8.37438200
_cell_length_b   8.37391700
_cell_length_c   8.37656400
_cell_angle_alpha   90.00000000
_cell_angle_beta   90.00000000
_cell_angle_gamma   90.00000000
_symmetry_Int_Tables_number   1
_chemical_formula_structural   Tb8GaPd23Pt
_chemical_formula_sum   'Tb8 Ga1 Pd23 Pt1'
_cell_volume   587.41810844
_cell_formula_units_Z   1
loop_
 _symmetry_equiv_pos_site_id
 _symmetry_equiv_pos_as_xyz
  1  'x, y, z'
loop_
 _atom_site_type_symbol
 _atom_site_label
 _atom_site_symmetry_multiplicity
 _atom_site_fract_x
 _atom_site_fract_y
 _atom_site_fract_z
 _atom_site_occupancy
  Tb  Tb0  1  0.251390  0.252002  0.748224  1
  Tb  Tb1  1  0.251762  0.748276  0.251757  1
  Tb  Tb2  1  0.748238  0.251724  0.251757  1
  Tb  Tb3  1  0.748610  0.747998  0.748224  1
  Tb  Tb4  1  0.748238  0.748276  0.251757  1
  Tb  Tb5  1  0.748610  0.252002  0.748224  1
  Tb  Tb6  1  0.251390  0.747998  0.748224  1
  Tb  Tb7  1  0.251762  0.251724  0.251757  1
  Ga  Ga8  1  0.000000  0.000000  0.999996  1
  Pd  Pd9  1  0.500000  0.500000  0.747070  1
  Pd  Pd10  1  0.500000  0.252957  0.499869  1
  Pd  Pd11  1  0.252936  0.500000  0.500045  1
  Pd  Pd12  1  0.500000  0.500000  0.252935  1
  Pd  Pd13  1  0.500000  0.747043  0.499869  1
  Pd  Pd14  1  0.747064  0.500000  0.500045  1
  Pd  Pd15  1  0.000000  0.000000  0.708006  1
  Pd  Pd16  1  0.000000  0.291781  0.000122  1
  Pd  Pd17  1  0.291990  0.000000  0.000020  1
  Pd  Pd18  1  0.000000  0.000000  0.291928  1
  Pd  Pd19  1  0.000000  0.708219  0.000122  1
  Pd  Pd20  1  0.708010  0.000000  0.000020  1
  Pd  Pd21  1  0.500000  0.260286  0.000103  1
  Pd  Pd22  1  0.260321  0.000000  0.499933  1
  Pd  Pd23  1  0.000000  0.260173  0.499902  1
  Pd  Pd24  1  0.500000  0.000000  0.739677  1
  Pd  Pd25  1  0.260369  0.500000  0.999998  1
  Pd  Pd26  1  0.000000  0.500000  0.260305  1
  Pd  Pd27  1  0.500000  0.739714  0.000103  1
  Pd  Pd28  1  0.000000  0.739827  0.499902  1
  Pd  Pd29  1  0.500000  0.000000  0.260335  1
  Pd  Pd30  1  0.739679  0.000000  0.499933  1
  Pd  Pd31  1  0.739631  0.500000  0.999998  1
  Pt  Pt32  1  0.000000  0.500000  0.739837  1
