# generated using pymatgen
data_HfPaCo3
_symmetry_space_group_name_H-M   'P 1'
_cell_length_a   5.23443500
_cell_length_b   7.24509900
_cell_length_c   8.28518500
_cell_angle_alpha   90.00000000
_cell_angle_beta   90.00000000
_cell_angle_gamma   90.00000000
_symmetry_Int_Tables_number   1
_chemical_formula_structural   HfPaCo3
_chemical_formula_sum   'Hf4 Pa4 Co12'
_cell_volume   314.20735415
_cell_formula_units_Z   4
loop_
 _symmetry_equiv_pos_site_id
 _symmetry_equiv_pos_as_xyz
  1  'x, y, z'
loop_
 _atom_site_type_symbol
 _atom_site_label
 _atom_site_symmetry_multiplicity
 _atom_site_fract_x
 _atom_site_fract_y
 _atom_site_fract_z
 _atom_site_occupancy
  Hf  Hf0  1  0.750000  0.939049  0.403256  1
  Hf  Hf1  1  0.750000  0.439049  0.096744  1
  Hf  Hf2  1  0.250000  0.060951  0.596744  1
  Hf  Hf3  1  0.250000  0.560951  0.903256  1
  Pa  Pa4  1  0.750000  0.892125  0.855001  1
  Pa  Pa5  1  0.750000  0.392125  0.644999  1
  Pa  Pa6  1  0.250000  0.107875  0.144999  1
  Pa  Pa7  1  0.250000  0.607875  0.355001  1
  Co  Co8  1  0.750000  0.583391  0.381761  1
  Co  Co9  1  0.750000  0.083391  0.118239  1
  Co  Co10  1  0.250000  0.416609  0.618239  1
  Co  Co11  1  0.250000  0.916609  0.881761  1
  Co  Co12  1  0.994078  0.263091  0.370153  1
  Co  Co13  1  0.505922  0.763091  0.129847  1
  Co  Co14  1  0.494078  0.736909  0.629847  1
  Co  Co15  1  0.005922  0.236909  0.870153  1
  Co  Co16  1  0.005922  0.736909  0.629847  1
  Co  Co17  1  0.494078  0.236909  0.870153  1
  Co  Co18  1  0.505922  0.263091  0.370153  1
  Co  Co19  1  0.994078  0.763091  0.129847  1
