# generated using pymatgen
data_CaPr6NiBr12
_symmetry_space_group_name_H-M   'P 1'
_cell_length_a   9.55247041
_cell_length_b   9.55247095
_cell_length_c   9.55247000
_cell_angle_alpha   106.91741998
_cell_angle_beta   106.91741469
_cell_angle_gamma   106.91741117
_symmetry_Int_Tables_number   1
_chemical_formula_structural   CaPr6NiBr12
_chemical_formula_sum   'Ca1 Pr6 Ni1 Br12'
_cell_volume   727.55596395
_cell_formula_units_Z   1
loop_
 _symmetry_equiv_pos_site_id
 _symmetry_equiv_pos_as_xyz
  1  'x, y, z'
loop_
 _atom_site_type_symbol
 _atom_site_label
 _atom_site_symmetry_multiplicity
 _atom_site_fract_x
 _atom_site_fract_y
 _atom_site_fract_z
 _atom_site_occupancy
  Ca  Ca0  1  0.500000  0.500000  0.500000  1
  Pr  Pr1  1  0.973649  0.894873  0.685377  1
  Pr  Pr2  1  0.026351  0.105127  0.314623  1
  Pr  Pr3  1  0.105127  0.314623  0.026351  1
  Pr  Pr4  1  0.314623  0.026351  0.105127  1
  Pr  Pr5  1  0.894873  0.685377  0.973649  1
  Pr  Pr6  1  0.685377  0.973649  0.894873  1
  Ni  Ni7  1  0.000000  0.000000  0.000000  1
  Br  Br8  1  0.541943  0.619655  0.833452  1
  Br  Br9  1  0.458057  0.380345  0.166548  1
  Br  Br10  1  0.316337  0.927964  0.777875  1
  Br  Br11  1  0.380345  0.166548  0.458057  1
  Br  Br12  1  0.927964  0.777875  0.316337  1
  Br  Br13  1  0.683663  0.072036  0.222125  1
  Br  Br14  1  0.072036  0.222125  0.683663  1
  Br  Br15  1  0.777875  0.316337  0.927964  1
  Br  Br16  1  0.222125  0.683663  0.072036  1
  Br  Br17  1  0.833452  0.541943  0.619655  1
  Br  Br18  1  0.166548  0.458057  0.380345  1
  Br  Br19  1  0.619655  0.833452  0.541943  1
