# generated using pymatgen
data_Ce2Hf2Ni10As7
_symmetry_space_group_name_H-M   'P 1'
_cell_length_a   9.74924210
_cell_length_b   9.50704211
_cell_length_c   3.90067400
_cell_angle_alpha   90.00000000
_cell_angle_beta   90.00000000
_cell_angle_gamma   120.47714850
_symmetry_Int_Tables_number   1
_chemical_formula_structural   Ce2Hf2Ni10As7
_chemical_formula_sum   'Ce2 Hf2 Ni10 As7'
_cell_volume   311.58626092
_cell_formula_units_Z   1
loop_
 _symmetry_equiv_pos_site_id
 _symmetry_equiv_pos_as_xyz
  1  'x, y, z'
loop_
 _atom_site_type_symbol
 _atom_site_label
 _atom_site_symmetry_multiplicity
 _atom_site_fract_x
 _atom_site_fract_y
 _atom_site_fract_z
 _atom_site_occupancy
  Ce  Ce0  1  0.345147  0.667125  0.000000  1
  Ce  Ce1  1  0.666860  0.341666  0.500000  1
  Hf  Hf2  1  0.216647  0.100633  0.500000  1
  Hf  Hf3  1  0.887226  0.106336  0.500000  1
  Ni  Ni4  1  0.423428  0.064025  0.000000  1
  Ni  Ni5  1  0.149392  0.280486  0.000000  1
  Ni  Ni6  1  0.940367  0.369351  0.000000  1
  Ni  Ni7  1  0.640177  0.576041  0.000000  1
  Ni  Ni8  1  0.133760  0.840278  0.000000  1
  Ni  Ni9  1  0.712321  0.874554  0.000000  1
  Ni  Ni10  1  0.379301  0.437347  0.500000  1
  Ni  Ni11  1  0.044665  0.619608  0.500000  1
  Ni  Ni12  1  0.882369  0.775503  0.500000  1
  Ni  Ni13  1  0.567623  0.941117  0.500000  1
  As  As14  1  0.991156  0.981769  0.000000  1
  As  As15  1  0.686960  0.112584  0.000000  1
  As  As16  1  0.415526  0.313295  0.000000  1
  As  As17  1  0.891450  0.594534  0.000000  1
  As  As18  1  0.119052  0.417691  0.500000  1
  As  As19  1  0.605829  0.707888  0.500000  1
  As  As20  1  0.300744  0.878171  0.500000  1
