# generated using pymatgen
data_Li2AcHoSi4
_symmetry_space_group_name_H-M   'P 1'
_cell_length_a   3.90568400
_cell_length_b   7.82920530
_cell_length_c   10.58174312
_cell_angle_alpha   89.48728355
_cell_angle_beta   90.00000000
_cell_angle_gamma   90.00000000
_symmetry_Int_Tables_number   1
_chemical_formula_structural   Li2AcHoSi4
_chemical_formula_sum   'Li4 Ac2 Ho2 Si8'
_cell_volume   323.55983838
_cell_formula_units_Z   2
loop_
 _symmetry_equiv_pos_site_id
 _symmetry_equiv_pos_as_xyz
  1  'x, y, z'
loop_
 _atom_site_type_symbol
 _atom_site_label
 _atom_site_symmetry_multiplicity
 _atom_site_fract_x
 _atom_site_fract_y
 _atom_site_fract_z
 _atom_site_occupancy
  Li  Li0  1  0.250000  0.997289  0.386809  1
  Li  Li1  1  0.750000  0.002711  0.613191  1
  Li  Li2  1  0.250000  0.490666  0.104217  1
  Li  Li3  1  0.750000  0.509334  0.895783  1
  Ac  Ac4  1  0.250000  0.642946  0.637311  1
  Ac  Ac5  1  0.750000  0.357054  0.362689  1
  Ho  Ho6  1  0.250000  0.129433  0.867233  1
  Ho  Ho7  1  0.750000  0.870567  0.132767  1
  Si  Si8  1  0.750000  0.259660  0.059882  1
  Si  Si9  1  0.250000  0.740340  0.940118  1
  Si  Si10  1  0.750000  0.787378  0.415852  1
  Si  Si11  1  0.250000  0.212622  0.584148  1
  Si  Si12  1  0.750000  0.847180  0.832284  1
  Si  Si13  1  0.250000  0.152820  0.167716  1
  Si  Si14  1  0.750000  0.323620  0.689337  1
  Si  Si15  1  0.250000  0.676380  0.310663  1
