# generated using pymatgen
data_SrHgIr2O7
_symmetry_space_group_name_H-M   'P 1'
_cell_length_a   7.38347966
_cell_length_b   7.50770709
_cell_length_c   7.38348013
_cell_angle_alpha   59.44184493
_cell_angle_beta   59.04315161
_cell_angle_gamma   59.44184859
_symmetry_Int_Tables_number   1
_chemical_formula_structural   SrHgIr2O7
_chemical_formula_sum   'Sr2 Hg2 Ir4 O14'
_cell_volume   284.84756827
_cell_formula_units_Z   2
loop_
 _symmetry_equiv_pos_site_id
 _symmetry_equiv_pos_as_xyz
  1  'x, y, z'
loop_
 _atom_site_type_symbol
 _atom_site_label
 _atom_site_symmetry_multiplicity
 _atom_site_fract_x
 _atom_site_fract_y
 _atom_site_fract_z
 _atom_site_occupancy
  Sr  Sr0  1  0.625000  0.125000  0.625000  1
  Sr  Sr1  1  0.625000  0.625000  0.625000  1
  Hg  Hg2  1  0.625000  0.625000  0.125000  1
  Hg  Hg3  1  0.125000  0.625000  0.625000  1
  Ir  Ir4  1  0.625000  0.125000  0.125000  1
  Ir  Ir5  1  0.125000  0.625000  0.125000  1
  Ir  Ir6  1  0.125000  0.125000  0.625000  1
  Ir  Ir7  1  0.125000  0.125000  0.125000  1
  O  O8  1  0.193963  0.193384  0.805448  1
  O  O9  1  0.189962  0.810038  0.189962  1
  O  O10  1  0.444552  0.056616  0.056037  1
  O  O11  1  0.193963  0.807205  0.805448  1
  O  O12  1  0.056037  0.442795  0.444552  1
  O  O13  1  0.805448  0.807205  0.193963  1
  O  O14  1  0.444552  0.442795  0.056037  1
  O  O15  1  0.476055  0.523945  0.476055  1
  O  O16  1  0.056037  0.056616  0.444552  1
  O  O17  1  0.450777  0.049223  0.450777  1
  O  O18  1  0.060038  0.439962  0.060038  1
  O  O19  1  0.773945  0.726055  0.773945  1
  O  O20  1  0.799223  0.200777  0.799223  1
  O  O21  1  0.805448  0.193384  0.193963  1
