# generated using pymatgen
data_Sc12Pt2AuI16
_symmetry_space_group_name_H-M   'P 1'
_cell_length_a   9.28241933
_cell_length_b   12.01938733
_cell_length_c   12.64530600
_cell_angle_alpha   117.23258581
_cell_angle_beta   101.30369947
_cell_angle_gamma   100.79739648
_symmetry_Int_Tables_number   1
_chemical_formula_structural   Sc12Pt2AuI16
_chemical_formula_sum   'Sc12 Pt2 Au1 I16'
_cell_volume   1166.36667783
_cell_formula_units_Z   1
loop_
 _symmetry_equiv_pos_site_id
 _symmetry_equiv_pos_as_xyz
  1  'x, y, z'
loop_
 _atom_site_type_symbol
 _atom_site_label
 _atom_site_symmetry_multiplicity
 _atom_site_fract_x
 _atom_site_fract_y
 _atom_site_fract_z
 _atom_site_occupancy
  Sc  Sc0  1  0.092567  0.271121  0.359156  1
  Sc  Sc1  1  0.907433  0.728879  0.640844  1
  Sc  Sc2  1  0.776155  0.535001  0.330039  1
  Sc  Sc3  1  0.223845  0.464999  0.669961  1
  Sc  Sc4  1  0.279615  0.729355  0.640494  1
  Sc  Sc5  1  0.720385  0.270645  0.359506  1
  Sc  Sc6  1  0.148262  0.535012  0.330184  1
  Sc  Sc7  1  0.851738  0.464988  0.669816  1
  Sc  Sc8  1  0.407238  0.361024  0.277445  1
  Sc  Sc9  1  0.592762  0.638976  0.722555  1
  Sc  Sc10  1  0.459338  0.311320  0.520963  1
  Sc  Sc11  1  0.540662  0.688680  0.479037  1
  Pt  Pt12  1  0.346064  0.500140  0.499254  1
  Pt  Pt13  1  0.653937  0.499860  0.500746  1
  Au  Au14  1  0.000000  0.500000  0.500000  1
  I  I15  1  0.395517  0.739992  0.883150  1
  I  I16  1  0.604483  0.260008  0.116850  1
  I  I17  1  0.186490  0.959242  0.780498  1
  I  I18  1  0.813510  0.040758  0.219502  1
  I  I19  1  0.338090  0.096867  0.252109  1
  I  I20  1  0.661910  0.903133  0.747891  1
  I  I21  1  0.557776  0.438587  0.799189  1
  I  I22  1  0.442224  0.561413  0.200811  1
  I  I23  1  0.306581  0.824945  0.461870  1
  I  I24  1  0.693419  0.175055  0.538130  1
  I  I25  1  0.166650  0.173776  0.534790  1
  I  I26  1  0.833350  0.826224  0.465210  1
  I  I27  1  0.925889  0.572716  0.161875  1
  I  I28  1  0.074111  0.427284  0.838125  1
  I  I29  1  0.923586  0.738370  0.883517  1
  I  I30  1  0.076414  0.261630  0.116483  1
