# generated using pymatgen
data_Yb7HgN4
_symmetry_space_group_name_H-M   'P 1'
_cell_length_a   3.57619400
_cell_length_b   11.81933600
_cell_length_c   11.30050300
_cell_angle_alpha   90.00000000
_cell_angle_beta   90.00000000
_cell_angle_gamma   90.00000000
_symmetry_Int_Tables_number   1
_chemical_formula_structural   Yb7HgN4
_chemical_formula_sum   'Yb14 Hg2 N8'
_cell_volume   477.65235583
_cell_formula_units_Z   2
loop_
 _symmetry_equiv_pos_site_id
 _symmetry_equiv_pos_as_xyz
  1  'x, y, z'
loop_
 _atom_site_type_symbol
 _atom_site_label
 _atom_site_symmetry_multiplicity
 _atom_site_fract_x
 _atom_site_fract_y
 _atom_site_fract_z
 _atom_site_occupancy
  Yb  Yb0  1  0.499612  0.663999  0.243221  1
  Yb  Yb1  1  0.499612  0.336001  0.756779  1
  Yb  Yb2  1  0.500388  0.163999  0.256779  1
  Yb  Yb3  1  0.500388  0.836001  0.743221  1
  Yb  Yb4  1  0.499275  0.500000  0.000000  1
  Yb  Yb5  1  0.500725  0.000000  0.500000  1
  Yb  Yb6  1  0.000010  0.926840  0.262977  1
  Yb  Yb7  1  0.000010  0.073160  0.737023  1
  Yb  Yb8  1  0.999990  0.426840  0.237023  1
  Yb  Yb9  1  0.999990  0.573160  0.762977  1
  Yb  Yb10  1  0.001387  0.764031  0.480996  1
  Yb  Yb11  1  0.001387  0.235969  0.519004  1
  Yb  Yb12  1  0.998613  0.264031  0.019004  1
  Yb  Yb13  1  0.998613  0.735969  0.980996  1
  Hg  Hg14  1  0.541451  0.500000  0.500000  1
  Hg  Hg15  1  0.458549  0.000000  0.000000  1
  N  N16  1  0.999564  0.600969  0.130522  1
  N  N17  1  0.999564  0.399031  0.869478  1
  N  N18  1  0.000436  0.100969  0.369478  1
  N  N19  1  0.000436  0.899031  0.630522  1
  N  N20  1  0.500605  0.833320  0.358933  1
  N  N21  1  0.500605  0.166680  0.641067  1
  N  N22  1  0.499395  0.333320  0.141067  1
  N  N23  1  0.499395  0.666680  0.858933  1
