# generated using pymatgen
data_Ac6IrRuI6
_symmetry_space_group_name_H-M   'P 1'
_cell_length_a   4.50865100
_cell_length_b   10.06649403
_cell_length_c   12.94890211
_cell_angle_alpha   86.43152698
_cell_angle_beta   90.00000000
_cell_angle_gamma   90.00000000
_symmetry_Int_Tables_number   1
_chemical_formula_structural   Ac6IrRuI6
_chemical_formula_sum   'Ac6 Ir1 Ru1 I6'
_cell_volume   586.56338370
_cell_formula_units_Z   1
loop_
 _symmetry_equiv_pos_site_id
 _symmetry_equiv_pos_as_xyz
  1  'x, y, z'
loop_
 _atom_site_type_symbol
 _atom_site_label
 _atom_site_symmetry_multiplicity
 _atom_site_fract_x
 _atom_site_fract_y
 _atom_site_fract_z
 _atom_site_occupancy
  Ac  Ac0  1  0.250000  0.311154  0.881086  1
  Ac  Ac1  1  0.750000  0.684660  0.120462  1
  Ac  Ac2  1  0.750000  0.117248  0.660888  1
  Ac  Ac3  1  0.250000  0.881328  0.335979  1
  Ac  Ac4  1  0.750000  0.091308  0.105819  1
  Ac  Ac5  1  0.250000  0.907688  0.895511  1
  Ir  Ir6  1  0.750000  0.114876  0.878305  1
  Ru  Ru7  1  0.250000  0.886867  0.122729  1
  I  I8  1  0.750000  0.134276  0.380860  1
  I  I9  1  0.250000  0.866459  0.618172  1
  I  I10  1  0.250000  0.367917  0.615804  1
  I  I11  1  0.750000  0.632655  0.382698  1
  I  I12  1  0.750000  0.608010  0.864993  1
  I  I13  1  0.250000  0.395553  0.136694  1
