# generated using pymatgen
data_AgTe7
_symmetry_space_group_name_H-M   'P 1'
_cell_length_a   7.83400114
_cell_length_b   7.83400120
_cell_length_c   7.83400045
_cell_angle_alpha   133.54392844
_cell_angle_beta   133.54393155
_cell_angle_gamma   67.80121589
_symmetry_Int_Tables_number   1
_chemical_formula_structural   AgTe7
_chemical_formula_sum   'Ag1 Te7'
_cell_volume   248.28334070
_cell_formula_units_Z   1
loop_
 _symmetry_equiv_pos_site_id
 _symmetry_equiv_pos_as_xyz
  1  'x, y, z'
loop_
 _atom_site_type_symbol
 _atom_site_label
 _atom_site_symmetry_multiplicity
 _atom_site_fract_x
 _atom_site_fract_y
 _atom_site_fract_z
 _atom_site_occupancy
  Ag  Ag0  1  0.000000  0.000000  0.000000  1
  Te  Te1  1  0.223203  0.223203  0.000000  1
  Te  Te2  1  0.776796  0.776796  0.000000  1
  Te  Te3  1  0.500000  0.000000  0.500000  1
  Te  Te4  1  0.000000  0.500000  0.500000  1
  Te  Te5  1  0.500000  0.500000  0.000000  1
  Te  Te6  1  0.750000  0.250000  0.500000  1
  Te  Te7  1  0.250000  0.750000  0.500000  1
