# generated using pymatgen
data_Ta12Cr3Os9C3N
_symmetry_space_group_name_H-M   'P 1'
_cell_length_a   8.35614327
_cell_length_b   8.35614475
_cell_length_c   8.35614426
_cell_angle_alpha   59.20415797
_cell_angle_beta   59.20414957
_cell_angle_gamma   59.20415769
_symmetry_Int_Tables_number   1
_chemical_formula_structural   Ta12Cr3Os9C3N
_chemical_formula_sum   'Ta12 Cr3 Os9 C3 N1'
_cell_volume   405.09413727
_cell_formula_units_Z   1
loop_
 _symmetry_equiv_pos_site_id
 _symmetry_equiv_pos_as_xyz
  1  'x, y, z'
loop_
 _atom_site_type_symbol
 _atom_site_label
 _atom_site_symmetry_multiplicity
 _atom_site_fract_x
 _atom_site_fract_y
 _atom_site_fract_z
 _atom_site_occupancy
  Ta  Ta0  1  0.807416  0.807416  0.193415  1
  Ta  Ta1  1  0.191504  0.191504  0.807648  1
  Ta  Ta2  1  0.807416  0.193415  0.807416  1
  Ta  Ta3  1  0.191504  0.807648  0.191504  1
  Ta  Ta4  1  0.193415  0.807416  0.807416  1
  Ta  Ta5  1  0.807648  0.191504  0.191504  1
  Ta  Ta6  1  0.442584  0.442584  0.056585  1
  Ta  Ta7  1  0.058496  0.058496  0.442352  1
  Ta  Ta8  1  0.442584  0.056585  0.442584  1
  Ta  Ta9  1  0.058496  0.442352  0.058496  1
  Ta  Ta10  1  0.056585  0.442584  0.442584  1
  Ta  Ta11  1  0.442352  0.058496  0.058496  1
  Cr  Cr12  1  0.125000  0.625000  0.625000  1
  Cr  Cr13  1  0.625000  0.125000  0.625000  1
  Cr  Cr14  1  0.625000  0.625000  0.125000  1
  Os  Os15  1  0.625000  0.625000  0.625000  1
  Os  Os16  1  0.745780  0.413760  0.413760  1
  Os  Os17  1  0.413760  0.745780  0.413760  1
  Os  Os18  1  0.413760  0.413760  0.745780  1
  Os  Os19  1  0.416927  0.416927  0.416927  1
  Os  Os20  1  0.504220  0.836240  0.836240  1
  Os  Os21  1  0.836240  0.504220  0.836240  1
  Os  Os22  1  0.836240  0.836240  0.504220  1
  Os  Os23  1  0.833073  0.833073  0.833073  1
  C  C24  1  0.625000  0.125000  0.125000  1
  C  C25  1  0.125000  0.625000  0.125000  1
  C  C26  1  0.125000  0.125000  0.625000  1
  N  N27  1  0.125000  0.125000  0.125000  1
