# generated using pymatgen
data_Tm2Lu2Tc3Os5
_symmetry_space_group_name_H-M   'P 1'
_cell_length_a   5.28109716
_cell_length_b   5.28007628
_cell_length_c   8.87413800
_cell_angle_alpha   90.00197231
_cell_angle_beta   89.99761829
_cell_angle_gamma   119.99798688
_symmetry_Int_Tables_number   1
_chemical_formula_structural   Tm2Lu2Tc3Os5
_chemical_formula_sum   'Tm2 Lu2 Tc3 Os5'
_cell_volume   214.30385035
_cell_formula_units_Z   1
loop_
 _symmetry_equiv_pos_site_id
 _symmetry_equiv_pos_as_xyz
  1  'x, y, z'
loop_
 _atom_site_type_symbol
 _atom_site_label
 _atom_site_symmetry_multiplicity
 _atom_site_fract_x
 _atom_site_fract_y
 _atom_site_fract_z
 _atom_site_occupancy
  Tm  Tm0  1  0.335572  0.667792  0.435099  1
  Tm  Tm1  1  0.668558  0.334278  0.563769  1
  Lu  Lu2  1  0.668502  0.334246  0.936363  1
  Lu  Lu3  1  0.335534  0.667771  0.064729  1
  Tc  Tc4  1  0.168414  0.340467  0.750571  1
  Tc  Tc5  1  0.168370  0.827932  0.750566  1
  Tc  Tc6  1  0.335783  0.167901  0.249452  1
  Os  Os7  1  0.822663  0.651217  0.249410  1
  Os  Os8  1  0.649741  0.824876  0.750606  1
  Os  Os9  1  0.012123  0.006065  0.000334  1
  Os  Os10  1  0.822692  0.171442  0.249433  1
  Os  Os11  1  0.012049  0.006015  0.499667  1
