# generated using pymatgen
data_Na2SbPd3
_symmetry_space_group_name_H-M   'P 1'
_cell_length_a   5.69429527
_cell_length_b   5.69429574
_cell_length_c   5.34838269
_cell_angle_alpha   57.83642665
_cell_angle_beta   57.83643264
_cell_angle_gamma   60.00000422
_symmetry_Int_Tables_number   1
_chemical_formula_structural   Na2SbPd3
_chemical_formula_sum   'Na2 Sb1 Pd3'
_cell_volume   118.46289703
_cell_formula_units_Z   1
loop_
 _symmetry_equiv_pos_site_id
 _symmetry_equiv_pos_as_xyz
  1  'x, y, z'
loop_
 _atom_site_type_symbol
 _atom_site_label
 _atom_site_symmetry_multiplicity
 _atom_site_fract_x
 _atom_site_fract_y
 _atom_site_fract_z
 _atom_site_occupancy
  Na  Na0  1  0.501468  0.501468  0.495596  1
  Na  Na1  1  0.748532  0.748532  0.754404  1
  Sb  Sb2  1  0.125000  0.125000  0.625000  1
  Pd  Pd3  1  0.125000  0.125000  0.125000  1
  Pd  Pd4  1  0.625000  0.125000  0.125000  1
  Pd  Pd5  1  0.125000  0.625000  0.125000  1
