# generated using pymatgen
data_Sc8Ir3Ru4Rh
_symmetry_space_group_name_H-M   'P 1'
_cell_length_a   6.40437000
_cell_length_b   4.56324700
_cell_length_c   9.15285800
_cell_angle_alpha   90.00040121
_cell_angle_beta   90.00053131
_cell_angle_gamma   89.99997850
_symmetry_Int_Tables_number   1
_chemical_formula_structural   Sc8Ir3Ru4Rh
_chemical_formula_sum   'Sc8 Ir3 Ru4 Rh1'
_cell_volume   267.48973228
_cell_formula_units_Z   1
loop_
 _symmetry_equiv_pos_site_id
 _symmetry_equiv_pos_as_xyz
  1  'x, y, z'
loop_
 _atom_site_type_symbol
 _atom_site_label
 _atom_site_symmetry_multiplicity
 _atom_site_fract_x
 _atom_site_fract_y
 _atom_site_fract_z
 _atom_site_occupancy
  Sc  Sc0  1  0.000630  0.750000  0.124995  1
  Sc  Sc1  1  0.499055  0.750000  0.125015  1
  Sc  Sc2  1  0.000448  0.250001  0.375261  1
  Sc  Sc3  1  0.499242  0.250001  0.375282  1
  Sc  Sc4  1  0.499762  0.750001  0.624994  1
  Sc  Sc5  1  0.000547  0.750001  0.625014  1
  Sc  Sc6  1  0.499555  0.249999  0.874713  1
  Sc  Sc7  1  0.000762  0.250000  0.874727  1
  Ir  Ir8  1  0.249888  0.749999  0.374779  1
  Ir  Ir9  1  0.750114  0.249999  0.624999  1
  Ir  Ir10  1  0.250115  0.750001  0.875227  1
  Ru  Ru11  1  0.249905  0.250001  0.125011  1
  Ru  Ru12  1  0.749901  0.749998  0.374900  1
  Ru  Ru13  1  0.250100  0.249997  0.625011  1
  Ru  Ru14  1  0.750103  0.750000  0.875078  1
  Rh  Rh15  1  0.749877  0.250002  0.124990  1
