# generated using pymatgen
data_Lu6InTcNi
_symmetry_space_group_name_H-M   'P 1'
_cell_length_a   8.28958102
_cell_length_b   8.28958140
_cell_length_c   8.28958149
_cell_angle_alpha   113.73165043
_cell_angle_beta   111.09497471
_cell_angle_gamma   103.74678481
_symmetry_Int_Tables_number   1
_chemical_formula_structural   Lu6InTcNi
_chemical_formula_sum   'Lu12 In2 Tc2 Ni2'
_cell_volume   435.01072365
_cell_formula_units_Z   2
loop_
 _symmetry_equiv_pos_site_id
 _symmetry_equiv_pos_as_xyz
  1  'x, y, z'
loop_
 _atom_site_type_symbol
 _atom_site_label
 _atom_site_symmetry_multiplicity
 _atom_site_fract_x
 _atom_site_fract_y
 _atom_site_fract_z
 _atom_site_occupancy
  Lu  Lu0  1  0.666721  0.849868  0.183147  1
  Lu  Lu1  1  0.333279  0.516427  0.183147  1
  Lu  Lu2  1  0.816429  0.787919  0.604348  1
  Lu  Lu3  1  0.183571  0.787919  0.971490  1
  Lu  Lu4  1  0.816429  0.212081  0.028510  1
  Lu  Lu5  1  0.183571  0.212081  0.395652  1
  Lu  Lu6  1  0.666721  0.483573  0.816853  1
  Lu  Lu7  1  0.333279  0.150132  0.816853  1
  Lu  Lu8  1  0.555601  0.256644  0.298956  1
  Lu  Lu9  1  0.444399  0.743356  0.701044  1
  Lu  Lu10  1  0.042312  0.743356  0.298956  1
  Lu  Lu11  1  0.957688  0.256644  0.701044  1
  In  In12  1  0.000000  0.500000  0.500000  1
  In  In13  1  0.500000  0.000000  0.500000  1
  Tc  Tc14  1  0.322877  0.500000  0.822877  1
  Tc  Tc15  1  0.677123  0.500000  0.177123  1
  Ni  Ni16  1  0.879962  0.879962  0.000000  1
  Ni  Ni17  1  0.120038  0.120038  0.000000  1
