# generated using pymatgen
data_LiCa10CdSb9
_symmetry_space_group_name_H-M   'P 1'
_cell_length_a   11.94792700
_cell_length_b   11.94792700
_cell_length_c   17.20552900
_cell_angle_alpha   90.00000000
_cell_angle_beta   90.00000000
_cell_angle_gamma   90.00000000
_symmetry_Int_Tables_number   1
_chemical_formula_structural   LiCa10CdSb9
_chemical_formula_sum   'Li4 Ca40 Cd4 Sb36'
_cell_volume   2456.14018619
_cell_formula_units_Z   4
loop_
 _symmetry_equiv_pos_site_id
 _symmetry_equiv_pos_as_xyz
  1  'x, y, z'
loop_
 _atom_site_type_symbol
 _atom_site_label
 _atom_site_symmetry_multiplicity
 _atom_site_fract_x
 _atom_site_fract_y
 _atom_site_fract_z
 _atom_site_occupancy
  Li  Li0  1  0.776777  0.223223  0.500000  1
  Li  Li1  1  0.223223  0.776777  0.500000  1
  Li  Li2  1  0.723223  0.723223  0.000000  1
  Li  Li3  1  0.276777  0.276777  0.000000  1
  Ca  Ca4  1  0.484916  0.837433  0.103486  1
  Ca  Ca5  1  0.515084  0.162567  0.896514  1
  Ca  Ca6  1  0.248423  0.511853  0.689833  1
  Ca  Ca7  1  0.000000  0.000000  0.643846  1
  Ca  Ca8  1  0.751577  0.488147  0.310167  1
  Ca  Ca9  1  0.488147  0.751577  0.689833  1
  Ca  Ca10  1  0.015084  0.337433  0.396514  1
  Ca  Ca11  1  0.162567  0.515084  0.896514  1
  Ca  Ca12  1  0.011853  0.251577  0.189833  1
  Ca  Ca13  1  0.337433  0.015084  0.603486  1
  Ca  Ca14  1  0.511853  0.248423  0.689833  1
  Ca  Ca15  1  0.748423  0.988147  0.810167  1
  Ca  Ca16  1  0.837433  0.484916  0.103486  1
  Ca  Ca17  1  0.988147  0.748423  0.810167  1
  Ca  Ca18  1  0.662567  0.984916  0.396514  1
  Ca  Ca19  1  0.337433  0.015084  0.396514  1
  Ca  Ca20  1  0.500000  0.500000  0.856154  1
  Ca  Ca21  1  0.751577  0.488147  0.689833  1
  Ca  Ca22  1  0.984916  0.662567  0.396514  1
  Ca  Ca23  1  0.015084  0.337433  0.603486  1
  Ca  Ca24  1  0.248423  0.511853  0.310167  1
  Ca  Ca25  1  0.819200  0.180800  0.000000  1
  Ca  Ca26  1  0.511853  0.248423  0.310167  1
  Ca  Ca27  1  0.837433  0.484916  0.896514  1
  Ca  Ca28  1  0.500000  0.500000  0.143846  1
  Ca  Ca29  1  0.984916  0.662567  0.603486  1
  Ca  Ca30  1  0.748423  0.988147  0.189833  1
  Ca  Ca31  1  0.488147  0.751577  0.310167  1
  Ca  Ca32  1  0.988147  0.748423  0.189833  1
  Ca  Ca33  1  0.680800  0.680800  0.500000  1
  Ca  Ca34  1  0.251577  0.011853  0.189833  1
  Ca  Ca35  1  0.662567  0.984916  0.603486  1
  Ca  Ca36  1  0.011853  0.251577  0.810167  1
  Ca  Ca37  1  0.319200  0.319200  0.500000  1
  Ca  Ca38  1  0.515084  0.162567  0.103486  1
  Ca  Ca39  1  0.000000  0.000000  0.356154  1
  Ca  Ca40  1  0.251577  0.011853  0.810167  1
  Ca  Ca41  1  0.484916  0.837433  0.896514  1
  Ca  Ca42  1  0.162567  0.515084  0.103486  1
  Ca  Ca43  1  0.180800  0.819200  0.000000  1
  Cd  Cd44  1  0.103555  0.103555  0.000000  1
  Cd  Cd45  1  0.396445  0.603555  0.500000  1
  Cd  Cd46  1  0.603555  0.396445  0.500000  1
  Cd  Cd47  1  0.896445  0.896445  0.000000  1
  Sb  Sb48  1  0.223926  0.223926  0.319133  1
  Sb  Sb49  1  0.371616  0.628384  0.000000  1
  Sb  Sb50  1  0.185992  0.814008  0.671125  1
  Sb  Sb51  1  0.628384  0.371616  0.000000  1
  Sb  Sb52  1  0.314008  0.314008  0.828875  1
  Sb  Sb53  1  0.336755  0.030785  0.000000  1
  Sb  Sb54  1  0.500000  0.000000  0.750000  1
  Sb  Sb55  1  0.836755  0.469215  0.500000  1
  Sb  Sb56  1  0.314008  0.314008  0.171125  1
  Sb  Sb57  1  0.685992  0.685992  0.171125  1
  Sb  Sb58  1  0.500000  0.000000  0.250000  1
  Sb  Sb59  1  0.723926  0.276074  0.819133  1
  Sb  Sb60  1  0.814008  0.185992  0.328875  1
  Sb  Sb61  1  0.185992  0.814008  0.328875  1
  Sb  Sb62  1  0.871616  0.871616  0.500000  1
  Sb  Sb63  1  0.163245  0.530785  0.500000  1
  Sb  Sb64  1  0.776074  0.776074  0.680867  1
  Sb  Sb65  1  0.814008  0.185992  0.671125  1
  Sb  Sb66  1  0.000000  0.000000  0.861280  1
  Sb  Sb67  1  0.776074  0.776074  0.319133  1
  Sb  Sb68  1  0.500000  0.500000  0.361280  1
  Sb  Sb69  1  0.969215  0.663245  0.000000  1
  Sb  Sb70  1  0.685992  0.685992  0.828875  1
  Sb  Sb71  1  0.500000  0.500000  0.638720  1
  Sb  Sb72  1  0.276074  0.723926  0.180867  1
  Sb  Sb73  1  0.030785  0.336755  0.000000  1
  Sb  Sb74  1  0.530785  0.163245  0.500000  1
  Sb  Sb75  1  0.276074  0.723926  0.819133  1
  Sb  Sb76  1  0.663245  0.969215  0.000000  1
  Sb  Sb77  1  0.469215  0.836755  0.500000  1
  Sb  Sb78  1  0.223926  0.223926  0.680867  1
  Sb  Sb79  1  0.128384  0.128384  0.500000  1
  Sb  Sb80  1  0.723926  0.276074  0.180867  1
  Sb  Sb81  1  0.000000  0.000000  0.138720  1
  Sb  Sb82  1  0.000000  0.500000  0.750000  1
  Sb  Sb83  1  0.000000  0.500000  0.250000  1
