# generated using pymatgen
data_Cs12YbHgSe8
_symmetry_space_group_name_H-M   'P 1'
_cell_length_a   11.42721900
_cell_length_b   11.42721929
_cell_length_c   8.80436400
_cell_angle_alpha   90.00000000
_cell_angle_beta   90.00000000
_cell_angle_gamma   120.00000204
_symmetry_Int_Tables_number   1
_chemical_formula_structural   Cs12YbHgSe8
_chemical_formula_sum   'Cs12 Yb1 Hg1 Se8'
_cell_volume   995.65693836
_cell_formula_units_Z   1
loop_
 _symmetry_equiv_pos_site_id
 _symmetry_equiv_pos_as_xyz
  1  'x, y, z'
loop_
 _atom_site_type_symbol
 _atom_site_label
 _atom_site_symmetry_multiplicity
 _atom_site_fract_x
 _atom_site_fract_y
 _atom_site_fract_z
 _atom_site_occupancy
  Cs  Cs0  1  0.146925  0.293848  0.203568  1
  Cs  Cs1  1  0.146925  0.853075  0.203568  1
  Cs  Cs2  1  0.706152  0.853075  0.203568  1
  Cs  Cs3  1  0.852420  0.704839  0.705350  1
  Cs  Cs4  1  0.852420  0.147580  0.705350  1
  Cs  Cs5  1  0.295161  0.147580  0.705350  1
  Cs  Cs6  1  0.532590  0.065179  0.377937  1
  Cs  Cs7  1  0.532590  0.467410  0.377937  1
  Cs  Cs8  1  0.934821  0.467410  0.377937  1
  Cs  Cs9  1  0.474008  0.948017  0.884160  1
  Cs  Cs10  1  0.474008  0.525992  0.884160  1
  Cs  Cs11  1  0.051983  0.525992  0.884160  1
  Yb  Yb12  1  0.333333  0.666667  0.498844  1
  Hg  Hg13  1  0.666667  0.333333  0.997521  1
  Se  Se14  1  0.333333  0.666667  0.171900  1
  Se  Se15  1  0.666667  0.333333  0.677183  1
  Se  Se16  1  0.802197  0.604393  0.097042  1
  Se  Se17  1  0.802197  0.197803  0.097042  1
  Se  Se18  1  0.395607  0.197803  0.097042  1
  Se  Se19  1  0.195023  0.390046  0.596739  1
  Se  Se20  1  0.195023  0.804977  0.596739  1
  Se  Se21  1  0.609954  0.804977  0.596739  1
