# generated using pymatgen
data_PuTh3N4
_symmetry_space_group_name_H-M   'P 1'
_cell_length_a   11.89281499
_cell_length_b   11.89281468
_cell_length_c   11.89281440
_cell_angle_alpha   17.60920959
_cell_angle_beta   17.60921404
_cell_angle_gamma   17.60921154
_symmetry_Int_Tables_number   1
_chemical_formula_structural   PuTh3N4
_chemical_formula_sum   'Pu1 Th3 N4'
_cell_volume   134.37124661
_cell_formula_units_Z   1
loop_
 _symmetry_equiv_pos_site_id
 _symmetry_equiv_pos_as_xyz
  1  'x, y, z'
loop_
 _atom_site_type_symbol
 _atom_site_label
 _atom_site_symmetry_multiplicity
 _atom_site_fract_x
 _atom_site_fract_y
 _atom_site_fract_z
 _atom_site_occupancy
  Pu  Pu0  1  0.000000  0.000000  0.000000  1
  Th  Th1  1  0.251862  0.251862  0.251862  1
  Th  Th2  1  0.500000  0.500000  0.500000  1
  Th  Th3  1  0.748138  0.748138  0.748138  1
  N  N4  1  0.372890  0.372890  0.372890  1
  N  N5  1  0.124106  0.124106  0.124106  1
  N  N6  1  0.627110  0.627110  0.627110  1
  N  N7  1  0.875894  0.875894  0.875894  1
