# generated using pymatgen
data_HoLu15(AlIr)4
_symmetry_space_group_name_H-M   'P 1'
_cell_length_a   9.35971484
_cell_length_b   9.34704482
_cell_length_c   9.35971543
_cell_angle_alpha   60.04477474
_cell_angle_beta   59.98237577
_cell_angle_gamma   60.04476798
_symmetry_Int_Tables_number   1
_chemical_formula_structural   HoLu15(AlIr)4
_chemical_formula_sum   'Ho1 Lu15 Al4 Ir4'
_cell_volume   579.32223296
_cell_formula_units_Z   1
loop_
 _symmetry_equiv_pos_site_id
 _symmetry_equiv_pos_as_xyz
  1  'x, y, z'
loop_
 _atom_site_type_symbol
 _atom_site_label
 _atom_site_symmetry_multiplicity
 _atom_site_fract_x
 _atom_site_fract_y
 _atom_site_fract_z
 _atom_site_occupancy
  Ho  Ho0  1  0.437305  0.062695  0.437305  1
  Lu  Lu1  1  0.438945  0.439884  0.060051  1
  Lu  Lu2  1  0.647715  0.646772  0.058741  1
  Lu  Lu3  1  0.195501  0.804499  0.195501  1
  Lu  Lu4  1  0.061787  0.438213  0.061787  1
  Lu  Lu5  1  0.194934  0.804020  0.805763  1
  Lu  Lu6  1  0.060051  0.439884  0.438945  1
  Lu  Lu7  1  0.805763  0.195283  0.194934  1
  Lu  Lu8  1  0.646869  0.647833  0.646869  1
  Lu  Lu9  1  0.804711  0.195289  0.804711  1
  Lu  Lu10  1  0.194934  0.195283  0.805763  1
  Lu  Lu11  1  0.058741  0.646772  0.647715  1
  Lu  Lu12  1  0.438945  0.061119  0.060051  1
  Lu  Lu13  1  0.060051  0.061119  0.438945  1
  Lu  Lu14  1  0.646869  0.058429  0.646869  1
  Lu  Lu15  1  0.805763  0.804020  0.194934  1
  Al  Al16  1  0.421236  0.421948  0.421236  1
  Al  Al17  1  0.421062  0.420965  0.737009  1
  Al  Al18  1  0.421236  0.735581  0.421236  1
  Al  Al19  1  0.737009  0.420965  0.421062  1
  Ir  Ir20  1  0.424697  0.857805  0.859692  1
  Ir  Ir21  1  0.858092  0.858620  0.858092  1
  Ir  Ir22  1  0.858092  0.425196  0.858092  1
  Ir  Ir23  1  0.859692  0.857805  0.424697  1
