# generated using pymatgen
data_Al2GeBr8
_symmetry_space_group_name_H-M   'P 1'
_cell_length_a   7.57115000
_cell_length_b   7.71544886
_cell_length_c   14.15701295
_cell_angle_alpha   87.05485425
_cell_angle_beta   90.00000000
_cell_angle_gamma   90.00000000
_symmetry_Int_Tables_number   1
_chemical_formula_structural   Al2GeBr8
_chemical_formula_sum   'Al4 Ge2 Br16'
_cell_volume   825.88708386
_cell_formula_units_Z   2
loop_
 _symmetry_equiv_pos_site_id
 _symmetry_equiv_pos_as_xyz
  1  'x, y, z'
loop_
 _atom_site_type_symbol
 _atom_site_label
 _atom_site_symmetry_multiplicity
 _atom_site_fract_x
 _atom_site_fract_y
 _atom_site_fract_z
 _atom_site_occupancy
  Al  Al0  1  0.937324  0.218634  0.578770  1
  Al  Al1  1  0.062676  0.218634  0.078770  1
  Al  Al2  1  0.568283  0.641362  0.778554  1
  Al  Al3  1  0.431717  0.641362  0.278554  1
  Ge  Ge4  1  0.755910  0.068001  0.805926  1
  Ge  Ge5  1  0.244090  0.068001  0.305926  1
  Br  Br6  1  0.425606  0.616976  0.639152  1
  Br  Br7  1  0.574394  0.616976  0.139152  1
  Br  Br8  1  0.866171  0.739978  0.760360  1
  Br  Br9  1  0.133829  0.739978  0.260360  1
  Br  Br10  1  0.934048  0.479010  0.498041  1
  Br  Br11  1  0.065952  0.479010  0.998041  1
  Br  Br12  1  0.924002  0.997575  0.000138  1
  Br  Br13  1  0.075998  0.997575  0.500138  1
  Br  Br14  1  0.645180  0.125677  0.622000  1
  Br  Br15  1  0.354820  0.125677  0.122000  1
  Br  Br16  1  0.568188  0.384264  0.873423  1
  Br  Br17  1  0.431812  0.384264  0.373423  1
  Br  Br18  1  0.449270  0.869045  0.864334  1
  Br  Br19  1  0.550730  0.869045  0.364334  1
  Br  Br20  1  0.935159  0.226877  0.231503  1
  Br  Br21  1  0.064841  0.226877  0.731503  1
