# generated using pymatgen
data_HoErWO6
_symmetry_space_group_name_H-M   'P 1'
_cell_length_a   5.37578600
_cell_length_b   7.68018552
_cell_length_c   11.42499014
_cell_angle_alpha   75.39322083
_cell_angle_beta   90.00000000
_cell_angle_gamma   90.00000000
_symmetry_Int_Tables_number   1
_chemical_formula_structural   HoErWO6
_chemical_formula_sum   'Ho4 Er4 W4 O24'
_cell_volume   456.45817039
_cell_formula_units_Z   4
loop_
 _symmetry_equiv_pos_site_id
 _symmetry_equiv_pos_as_xyz
  1  'x, y, z'
loop_
 _atom_site_type_symbol
 _atom_site_label
 _atom_site_symmetry_multiplicity
 _atom_site_fract_x
 _atom_site_fract_y
 _atom_site_fract_z
 _atom_site_occupancy
  Ho  Ho0  1  0.684317  0.500000  0.250000  1
  Ho  Ho1  1  0.315683  0.500000  0.750000  1
  Ho  Ho2  1  0.740389  0.000000  0.250000  1
  Ho  Ho3  1  0.259611  0.000000  0.750000  1
  Er  Er4  1  0.183418  0.205838  0.421727  1
  Er  Er5  1  0.183418  0.794162  0.078273  1
  Er  Er6  1  0.816582  0.794162  0.578273  1
  Er  Er7  1  0.816582  0.205838  0.921727  1
  W  W8  1  0.256048  0.276589  0.114764  1
  W  W9  1  0.256048  0.723411  0.385236  1
  W  W10  1  0.743952  0.723411  0.885236  1
  W  W11  1  0.743952  0.276589  0.614764  1
  O  O12  1  0.457861  0.208658  0.273758  1
  O  O13  1  0.457861  0.791342  0.226242  1
  O  O14  1  0.542139  0.791342  0.726242  1
  O  O15  1  0.542139  0.208658  0.773758  1
  O  O16  1  0.044516  0.059764  0.104181  1
  O  O17  1  0.044516  0.940236  0.395819  1
  O  O18  1  0.955484  0.940236  0.895819  1
  O  O19  1  0.955484  0.059764  0.604181  1
  O  O20  1  0.980220  0.289508  0.228824  1
  O  O21  1  0.980220  0.710492  0.271176  1
  O  O22  1  0.019780  0.710492  0.771176  1
  O  O23  1  0.019780  0.289508  0.728824  1
  O  O24  1  0.849103  0.365806  0.451137  1
  O  O25  1  0.849103  0.634194  0.048863  1
  O  O26  1  0.150897  0.634194  0.548863  1
  O  O27  1  0.150897  0.365806  0.951137  1
  O  O28  1  0.638835  0.511052  0.614568  1
  O  O29  1  0.638835  0.488948  0.885432  1
  O  O30  1  0.361165  0.488948  0.385432  1
  O  O31  1  0.361165  0.511052  0.114568  1
  O  O32  1  0.464195  0.153292  0.569073  1
  O  O33  1  0.464195  0.846708  0.930927  1
  O  O34  1  0.535805  0.846708  0.430927  1
  O  O35  1  0.535805  0.153292  0.069073  1
