# generated using pymatgen
data_LiPr2Co2P6Rh7
_symmetry_space_group_name_H-M   'P 1'
_cell_length_a   3.89992000
_cell_length_b   10.83807000
_cell_length_c   12.56203700
_cell_angle_alpha   90.00000000
_cell_angle_beta   90.00000000
_cell_angle_gamma   90.00000000
_symmetry_Int_Tables_number   1
_chemical_formula_structural   LiPr2Co2P6Rh7
_chemical_formula_sum   'Li2 Pr4 Co4 P12 Rh14'
_cell_volume   530.96722990
_cell_formula_units_Z   2
loop_
 _symmetry_equiv_pos_site_id
 _symmetry_equiv_pos_as_xyz
  1  'x, y, z'
loop_
 _atom_site_type_symbol
 _atom_site_label
 _atom_site_symmetry_multiplicity
 _atom_site_fract_x
 _atom_site_fract_y
 _atom_site_fract_z
 _atom_site_occupancy
  Li  Li0  1  0.250000  0.703698  0.987181  1
  Li  Li1  1  0.250000  0.796302  0.487181  1
  Pr  Pr2  1  0.250000  0.583862  0.707262  1
  Pr  Pr3  1  0.250000  0.916138  0.207262  1
  Pr  Pr4  1  0.750000  0.419228  0.295037  1
  Pr  Pr5  1  0.750000  0.080772  0.795037  1
  Co  Co6  1  0.250000  0.464346  0.935242  1
  Co  Co7  1  0.250000  0.035654  0.435242  1
  Co  Co8  1  0.750000  0.533753  0.061945  1
  Co  Co9  1  0.750000  0.966247  0.561945  1
  P  P10  1  0.250000  0.426052  0.104761  1
  P  P11  1  0.250000  0.073948  0.604761  1
  P  P12  1  0.750000  0.574911  0.892167  1
  P  P13  1  0.750000  0.925089  0.392167  1
  P  P14  1  0.250000  0.274731  0.871014  1
  P  P15  1  0.250000  0.225269  0.371014  1
  P  P16  1  0.750000  0.725206  0.132992  1
  P  P17  1  0.750000  0.774794  0.632992  1
  P  P18  1  0.250000  0.604873  0.390168  1
  P  P19  1  0.250000  0.895127  0.890168  1
  P  P20  1  0.750000  0.397466  0.609775  1
  P  P21  1  0.750000  0.102534  0.109775  1
  Rh  Rh22  1  0.750000  0.289447  0.014538  1
  Rh  Rh23  1  0.750000  0.210553  0.514538  1
  Rh  Rh24  1  0.250000  0.404418  0.482737  1
  Rh  Rh25  1  0.250000  0.095582  0.982737  1
  Rh  Rh26  1  0.750000  0.591959  0.519100  1
  Rh  Rh27  1  0.750000  0.908041  0.019100  1
  Rh  Rh28  1  0.250000  0.227849  0.176297  1
  Rh  Rh29  1  0.250000  0.272151  0.676297  1
  Rh  Rh30  1  0.750000  0.777239  0.825338  1
  Rh  Rh31  1  0.750000  0.722761  0.325338  1
  Rh  Rh32  1  0.250000  0.881848  0.691329  1
  Rh  Rh33  1  0.250000  0.618152  0.191329  1
  Rh  Rh34  1  0.750000  0.117128  0.303118  1
  Rh  Rh35  1  0.750000  0.382872  0.803118  1
