# generated using pymatgen
data_Y4Tm(SnSb)2
_symmetry_space_group_name_H-M   'P 1'
_cell_length_a   8.08641900
_cell_length_b   8.14151100
_cell_length_c   15.43173700
_cell_angle_alpha   90.00000000
_cell_angle_beta   90.00000000
_cell_angle_gamma   90.00000000
_symmetry_Int_Tables_number   1
_chemical_formula_structural   Y4Tm(SnSb)2
_chemical_formula_sum   'Y16 Tm4 Sn8 Sb8'
_cell_volume   1015.95873292
_cell_formula_units_Z   4
loop_
 _symmetry_equiv_pos_site_id
 _symmetry_equiv_pos_as_xyz
  1  'x, y, z'
loop_
 _atom_site_type_symbol
 _atom_site_label
 _atom_site_symmetry_multiplicity
 _atom_site_fract_x
 _atom_site_fract_y
 _atom_site_fract_z
 _atom_site_occupancy
  Y  Y0  1  0.391022  0.838573  0.880894  1
  Y  Y1  1  0.891022  0.661427  0.619106  1
  Y  Y2  1  0.608978  0.161427  0.380894  1
  Y  Y3  1  0.108978  0.338573  0.119106  1
  Y  Y4  1  0.608978  0.161427  0.119106  1
  Y  Y5  1  0.108978  0.338573  0.380894  1
  Y  Y6  1  0.391022  0.838573  0.619106  1
  Y  Y7  1  0.891022  0.661427  0.880894  1
  Y  Y8  1  0.557028  0.329652  0.891927  1
  Y  Y9  1  0.057028  0.170348  0.608073  1
  Y  Y10  1  0.442972  0.670348  0.391927  1
  Y  Y11  1  0.942972  0.829652  0.108073  1
  Y  Y12  1  0.442972  0.670348  0.108073  1
  Y  Y13  1  0.942972  0.829652  0.391927  1
  Y  Y14  1  0.557028  0.329652  0.608073  1
  Y  Y15  1  0.057028  0.170348  0.891927  1
  Tm  Tm16  1  0.222505  0.499136  0.750000  1
  Tm  Tm17  1  0.722505  0.000864  0.750000  1
  Tm  Tm18  1  0.777495  0.500864  0.250000  1
  Tm  Tm19  1  0.277495  0.999136  0.250000  1
  Sn  Sn20  1  0.587461  0.627936  0.750000  1
  Sn  Sn21  1  0.087461  0.872064  0.750000  1
  Sn  Sn22  1  0.412539  0.372064  0.250000  1
  Sn  Sn23  1  0.912539  0.127936  0.250000  1
  Sn  Sn24  1  0.360342  0.142936  0.750000  1
  Sn  Sn25  1  0.860342  0.357064  0.750000  1
  Sn  Sn26  1  0.639658  0.857064  0.250000  1
  Sn  Sn27  1  0.139658  0.642936  0.250000  1
  Sb  Sb28  1  0.267088  0.017314  0.047325  1
  Sb  Sb29  1  0.767088  0.482686  0.452675  1
  Sb  Sb30  1  0.732912  0.982686  0.547325  1
  Sb  Sb31  1  0.232912  0.517314  0.952675  1
  Sb  Sb32  1  0.732912  0.982686  0.952675  1
  Sb  Sb33  1  0.232912  0.517314  0.547325  1
  Sb  Sb34  1  0.267088  0.017314  0.452675  1
  Sb  Sb35  1  0.767088  0.482686  0.047325  1
