# generated using pymatgen
data_Sr2AlCrF10
_symmetry_space_group_name_H-M   'P 1'
_cell_length_a   5.75433512
_cell_length_b   5.72364433
_cell_length_c   7.74082775
_cell_angle_alpha   70.28918830
_cell_angle_beta   70.20961673
_cell_angle_gamma   72.09147524
_symmetry_Int_Tables_number   1
_chemical_formula_structural   Sr2AlCrF10
_chemical_formula_sum   'Sr2 Al1 Cr1 F10'
_cell_volume   220.39315693
_cell_formula_units_Z   1
loop_
 _symmetry_equiv_pos_site_id
 _symmetry_equiv_pos_as_xyz
  1  'x, y, z'
loop_
 _atom_site_type_symbol
 _atom_site_label
 _atom_site_symmetry_multiplicity
 _atom_site_fract_x
 _atom_site_fract_y
 _atom_site_fract_z
 _atom_site_occupancy
  Sr  Sr0  1  0.551294  0.463639  0.243230  1
  Sr  Sr1  1  0.448706  0.536361  0.756770  1
  Al  Al2  1  0.000000  0.000000  0.000000  1
  Cr  Cr3  1  0.000000  0.000000  0.500000  1
  F  F4  1  0.756779  0.792362  0.616753  1
  F  F5  1  0.193388  0.225948  0.894104  1
  F  F6  1  0.243221  0.207638  0.383247  1
  F  F7  1  0.806612  0.774052  0.105896  1
  F  F8  1  0.056668  0.943110  0.755838  1
  F  F9  1  0.943332  0.056890  0.244162  1
  F  F10  1  0.279254  0.741087  0.028498  1
  F  F11  1  0.273843  0.702822  0.475176  1
  F  F12  1  0.720746  0.258913  0.971502  1
  F  F13  1  0.726157  0.297178  0.524824  1
