# generated using pymatgen
data_Zr18FeCu(Re3Mo)2
_symmetry_space_group_name_H-M   'P 1'
_cell_length_a   8.53430200
_cell_length_b   8.73725159
_cell_length_c   8.73725101
_cell_angle_alpha   120.00511274
_cell_angle_beta   90.00000000
_cell_angle_gamma   90.00000000
_symmetry_Int_Tables_number   1
_chemical_formula_structural   Zr18FeCu(Re3Mo)2
_chemical_formula_sum   'Zr18 Fe1 Cu1 Re6 Mo2'
_cell_volume   564.19069073
_cell_formula_units_Z   1
loop_
 _symmetry_equiv_pos_site_id
 _symmetry_equiv_pos_as_xyz
  1  'x, y, z'
loop_
 _atom_site_type_symbol
 _atom_site_label
 _atom_site_symmetry_multiplicity
 _atom_site_fract_x
 _atom_site_fract_y
 _atom_site_fract_z
 _atom_site_occupancy
  Zr  Zr0  1  0.554510  0.804341  0.608718  1
  Zr  Zr1  1  0.554519  0.804354  0.195646  1
  Zr  Zr2  1  0.554510  0.391282  0.195659  1
  Zr  Zr3  1  0.441669  0.201507  0.403007  1
  Zr  Zr4  1  0.441595  0.201528  0.798472  1
  Zr  Zr5  1  0.441669  0.596993  0.798493  1
  Zr  Zr6  1  0.058331  0.201507  0.403007  1
  Zr  Zr7  1  0.058405  0.201528  0.798472  1
  Zr  Zr8  1  0.058331  0.596993  0.798493  1
  Zr  Zr9  1  0.945490  0.804341  0.608718  1
  Zr  Zr10  1  0.945481  0.804354  0.195646  1
  Zr  Zr11  1  0.945490  0.391282  0.195659  1
  Zr  Zr12  1  0.750000  0.458235  0.916468  1
  Zr  Zr13  1  0.750000  0.458239  0.541761  1
  Zr  Zr14  1  0.750000  0.083532  0.541764  1
  Zr  Zr15  1  0.250000  0.540982  0.081929  1
  Zr  Zr16  1  0.250000  0.540951  0.459049  1
  Zr  Zr17  1  0.250000  0.918071  0.459017  1
  Fe  Fe18  1  0.250000  0.333352  0.666648  1
  Cu  Cu19  1  0.750000  0.666659  0.333341  1
  Re  Re20  1  0.750000  0.109269  0.218564  1
  Re  Re21  1  0.750000  0.109270  0.890730  1
  Re  Re22  1  0.750000  0.781436  0.890731  1
  Re  Re23  1  0.250000  0.891124  0.782245  1
  Re  Re24  1  0.250000  0.891122  0.108878  1
  Re  Re25  1  0.250000  0.217755  0.108876  1
  Mo  Mo26  1  0.499794  0.999996  0.000004  1
  Mo  Mo27  1  0.000206  0.999996  0.000004  1
