# generated using pymatgen
data_Tb5Er11In4RuRh3
_symmetry_space_group_name_H-M   'P 1'
_cell_length_a   9.62854029
_cell_length_b   9.61225959
_cell_length_c   9.64058922
_cell_angle_alpha   59.89266038
_cell_angle_beta   59.84306037
_cell_angle_gamma   59.96606012
_symmetry_Int_Tables_number   1
_chemical_formula_structural   Tb5Er11In4RuRh3
_chemical_formula_sum   'Tb5 Er11 In4 Ru1 Rh3'
_cell_volume   629.49600951
_cell_formula_units_Z   1
loop_
 _symmetry_equiv_pos_site_id
 _symmetry_equiv_pos_as_xyz
  1  'x, y, z'
loop_
 _atom_site_type_symbol
 _atom_site_label
 _atom_site_symmetry_multiplicity
 _atom_site_fract_x
 _atom_site_fract_y
 _atom_site_fract_z
 _atom_site_occupancy
  Tb  Tb0  1  0.187157  0.192062  0.811404  1
  Tb  Tb1  1  0.438990  0.060424  0.061849  1
  Tb  Tb2  1  0.435609  0.063985  0.435442  1
  Tb  Tb3  1  0.060481  0.438959  0.061597  1
  Tb  Tb4  1  0.649632  0.048210  0.649454  1
  Er  Er5  1  0.192274  0.808217  0.809294  1
  Er  Er6  1  0.060086  0.059820  0.439550  1
  Er  Er7  1  0.810008  0.192667  0.189057  1
  Er  Er8  1  0.810406  0.808768  0.191829  1
  Er  Er9  1  0.652174  0.649198  0.046884  1
  Er  Er10  1  0.652048  0.651827  0.650037  1
  Er  Er11  1  0.059026  0.438200  0.442180  1
  Er  Er12  1  0.045759  0.649590  0.651649  1
  Er  Er13  1  0.809339  0.193946  0.809151  1
  Er  Er14  1  0.444349  0.439802  0.057676  1
  Er  Er15  1  0.191449  0.807095  0.192620  1
  In  In16  1  0.417628  0.746332  0.418515  1
  In  In17  1  0.417170  0.417724  0.748613  1
  In  In18  1  0.749606  0.416808  0.417195  1
  In  In19  1  0.416407  0.418532  0.415981  1
  Ru  Ru20  1  0.854906  0.425712  0.857412  1
  Rh  Rh21  1  0.861050  0.858144  0.422974  1
  Rh  Rh22  1  0.423845  0.854147  0.861122  1
  Rh  Rh23  1  0.860605  0.859826  0.858518  1
