# generated using pymatgen
data_TaTcMoI6
_symmetry_space_group_name_H-M   'P 1'
_cell_length_a   10.87487014
_cell_length_b   10.87487064
_cell_length_c   12.75321500
_cell_angle_alpha   90.00000000
_cell_angle_beta   90.00000000
_cell_angle_gamma   105.82201351
_symmetry_Int_Tables_number   1
_chemical_formula_structural   TaTcMoI6
_chemical_formula_sum   'Ta4 Tc4 Mo4 I24'
_cell_volume   1451.08911178
_cell_formula_units_Z   4
loop_
 _symmetry_equiv_pos_site_id
 _symmetry_equiv_pos_as_xyz
  1  'x, y, z'
loop_
 _atom_site_type_symbol
 _atom_site_label
 _atom_site_symmetry_multiplicity
 _atom_site_fract_x
 _atom_site_fract_y
 _atom_site_fract_z
 _atom_site_occupancy
  Ta  Ta0  1  0.566811  0.566811  0.630608  1
  Ta  Ta1  1  0.433189  0.433189  0.369392  1
  Ta  Ta2  1  0.933189  0.933189  0.130608  1
  Ta  Ta3  1  0.066811  0.066811  0.869392  1
  Tc  Tc4  1  0.632881  0.632881  0.428636  1
  Tc  Tc5  1  0.367119  0.367119  0.571364  1
  Tc  Tc6  1  0.867119  0.867119  0.928636  1
  Tc  Tc7  1  0.132881  0.132881  0.071364  1
  Mo  Mo8  1  0.611378  0.388622  0.500000  1
  Mo  Mo9  1  0.888622  0.111378  0.000000  1
  Mo  Mo10  1  0.388622  0.611378  0.500000  1
  Mo  Mo11  1  0.111378  0.888622  0.000000  1
  I  I12  1  0.819577  0.591323  0.559371  1
  I  I13  1  0.408677  0.180423  0.440629  1
  I  I14  1  0.680423  0.908677  0.059371  1
  I  I15  1  0.091323  0.319577  0.940629  1
  I  I16  1  0.180423  0.408677  0.440629  1
  I  I17  1  0.591323  0.819577  0.559371  1
  I  I18  1  0.319577  0.091323  0.940629  1
  I  I19  1  0.908677  0.680423  0.059371  1
  I  I20  1  0.683692  0.457386  0.291997  1
  I  I21  1  0.542614  0.316308  0.708003  1
  I  I22  1  0.816308  0.042614  0.791997  1
  I  I23  1  0.957386  0.183692  0.208003  1
  I  I24  1  0.316308  0.542614  0.708003  1
  I  I25  1  0.457386  0.683692  0.291997  1
  I  I26  1  0.183692  0.957386  0.208003  1
  I  I27  1  0.042614  0.816308  0.791997  1
  I  I28  1  0.660961  0.660961  0.841354  1
  I  I29  1  0.339039  0.339039  0.158646  1
  I  I30  1  0.839039  0.839039  0.341354  1
  I  I31  1  0.160961  0.160961  0.658646  1
  I  I32  1  0.774537  0.225463  0.500000  1
  I  I33  1  0.725463  0.274537  0.000000  1
  I  I34  1  0.225463  0.774537  0.500000  1
  I  I35  1  0.274537  0.725463  0.000000  1
