# generated using pymatgen
data_Al(SiNi3)2
_symmetry_space_group_name_H-M   'P 1'
_cell_length_a   3.74228800
_cell_length_b   4.95752681
_cell_length_c   21.56837779
_cell_angle_alpha   90.63543678
_cell_angle_beta   90.00000000
_cell_angle_gamma   90.00000000
_symmetry_Int_Tables_number   1
_chemical_formula_structural   Al(SiNi3)2
_chemical_formula_sum   'Al4 Si8 Ni24'
_cell_volume   400.12257139
_cell_formula_units_Z   4
loop_
 _symmetry_equiv_pos_site_id
 _symmetry_equiv_pos_as_xyz
  1  'x, y, z'
loop_
 _atom_site_type_symbol
 _atom_site_label
 _atom_site_symmetry_multiplicity
 _atom_site_fract_x
 _atom_site_fract_y
 _atom_site_fract_z
 _atom_site_occupancy
  Al  Al0  1  0.750000  0.309863  0.296605  1
  Al  Al1  1  0.750000  0.299586  0.630171  1
  Al  Al2  1  0.750000  0.299204  0.962607  1
  Al  Al3  1  0.750000  0.809290  0.203541  1
  Si  Si4  1  0.750000  0.795914  0.539590  1
  Si  Si5  1  0.750000  0.795968  0.871514  1
  Si  Si6  1  0.250000  0.684469  0.033836  1
  Si  Si7  1  0.250000  0.686344  0.369077  1
  Si  Si8  1  0.250000  0.685858  0.702075  1
  Si  Si9  1  0.250000  0.184931  0.131696  1
  Si  Si10  1  0.250000  0.209723  0.463726  1
  Si  Si11  1  0.250000  0.208393  0.796058  1
  Ni  Ni12  1  0.750000  0.451946  0.070940  1
  Ni  Ni13  1  0.750000  0.456408  0.406095  1
  Ni  Ni14  1  0.750000  0.455801  0.738397  1
  Ni  Ni15  1  0.750000  0.953086  0.093284  1
  Ni  Ni16  1  0.750000  0.955839  0.433645  1
  Ni  Ni17  1  0.750000  0.955224  0.764693  1
  Ni  Ni18  1  0.250000  0.569197  0.259579  1
  Ni  Ni19  1  0.250000  0.558963  0.593769  1
  Ni  Ni20  1  0.250000  0.557456  0.925595  1
  Ni  Ni21  1  0.250000  0.068074  0.240401  1
  Ni  Ni22  1  0.250000  0.052804  0.569044  1
  Ni  Ni23  1  0.250000  0.052596  0.900986  1
  Ni  Ni24  1  0.750000  0.328426  0.184525  1
  Ni  Ni25  1  0.750000  0.335981  0.519643  1
  Ni  Ni26  1  0.750000  0.335444  0.851569  1
  Ni  Ni27  1  0.750000  0.829445  0.316803  1
  Ni  Ni28  1  0.750000  0.821869  0.647932  1
  Ni  Ni29  1  0.750000  0.821382  0.979229  1
  Ni  Ni30  1  0.250000  0.657869  0.141460  1
  Ni  Ni31  1  0.250000  0.675077  0.479170  1
  Ni  Ni32  1  0.250000  0.675783  0.811226  1
  Ni  Ni33  1  0.250000  0.154054  0.023061  1
  Ni  Ni34  1  0.250000  0.155059  0.358291  1
  Ni  Ni35  1  0.250000  0.152674  0.690166  1
