# generated using pymatgen
data_Pr16Y3HoPb16
_symmetry_space_group_name_H-M   'P 1'
_cell_length_a   8.42745911
_cell_length_b   16.29467700
_cell_length_c   8.53896905
_cell_angle_alpha   90.00000000
_cell_angle_beta   90.00258080
_cell_angle_gamma   90.00000000
_symmetry_Int_Tables_number   1
_chemical_formula_structural   Pr16Y3HoPb16
_chemical_formula_sum   'Pr16 Y3 Ho1 Pb16'
_cell_volume   1172.59448997
_cell_formula_units_Z   1
loop_
 _symmetry_equiv_pos_site_id
 _symmetry_equiv_pos_as_xyz
  1  'x, y, z'
loop_
 _atom_site_type_symbol
 _atom_site_label
 _atom_site_symmetry_multiplicity
 _atom_site_fract_x
 _atom_site_fract_y
 _atom_site_fract_z
 _atom_site_occupancy
  Pr  Pr0  1  0.622478  0.619541  0.158393  1
  Pr  Pr1  1  0.122474  0.880368  0.341488  1
  Pr  Pr2  1  0.377735  0.119758  0.841746  1
  Pr  Pr3  1  0.877436  0.380253  0.658662  1
  Pr  Pr4  1  0.377735  0.380242  0.841746  1
  Pr  Pr5  1  0.877436  0.119747  0.658662  1
  Pr  Pr6  1  0.622478  0.880459  0.158393  1
  Pr  Pr7  1  0.122474  0.619632  0.341488  1
  Pr  Pr8  1  0.466342  0.600348  0.676959  1
  Pr  Pr9  1  0.966242  0.899678  0.823007  1
  Pr  Pr10  1  0.533833  0.100441  0.322836  1
  Pr  Pr11  1  0.033551  0.399547  0.176891  1
  Pr  Pr12  1  0.533833  0.399559  0.322836  1
  Pr  Pr13  1  0.033551  0.100453  0.176891  1
  Pr  Pr14  1  0.466342  0.899652  0.676959  1
  Pr  Pr15  1  0.966242  0.600322  0.823007  1
  Y  Y16  1  0.790504  0.750000  0.497075  1
  Y  Y17  1  0.290520  0.750000  0.002899  1
  Y  Y18  1  0.209512  0.250000  0.502896  1
  Ho  Ho19  1  0.709525  0.250000  0.996937  1
  Pb  Pb20  1  0.718381  0.454869  0.968192  1
  Pb  Pb21  1  0.218364  0.044825  0.532066  1
  Pb  Pb22  1  0.281569  0.955271  0.031958  1
  Pb  Pb23  1  0.781676  0.544724  0.467990  1
  Pb  Pb24  1  0.281569  0.544729  0.031958  1
  Pb  Pb25  1  0.781676  0.955276  0.467990  1
  Pb  Pb26  1  0.718381  0.045131  0.968192  1
  Pb  Pb27  1  0.218364  0.455175  0.532066  1
  Pb  Pb28  1  0.428017  0.750000  0.375330  1
  Pb  Pb29  1  0.927913  0.750000  0.124581  1
  Pb  Pb30  1  0.572253  0.250000  0.624928  1
  Pb  Pb31  1  0.071568  0.250000  0.875702  1
  Pb  Pb32  1  0.655262  0.750000  0.846984  1
  Pb  Pb33  1  0.155172  0.750000  0.653031  1
  Pb  Pb34  1  0.345196  0.250000  0.152927  1
  Pb  Pb35  1  0.844390  0.250000  0.346338  1
