# generated using pymatgen
data_Ca3Tb(FeO3)4
_symmetry_space_group_name_H-M   'P 1'
_cell_length_a   5.36403797
_cell_length_b   5.52554780
_cell_length_c   7.63667500
_cell_angle_alpha   90.00000000
_cell_angle_beta   90.00000000
_cell_angle_gamma   89.88203972
_symmetry_Int_Tables_number   1
_chemical_formula_structural   Ca3Tb(FeO3)4
_chemical_formula_sum   'Ca3 Tb1 Fe4 O12'
_cell_volume   226.34482603
_cell_formula_units_Z   1
loop_
 _symmetry_equiv_pos_site_id
 _symmetry_equiv_pos_as_xyz
  1  'x, y, z'
loop_
 _atom_site_type_symbol
 _atom_site_label
 _atom_site_symmetry_multiplicity
 _atom_site_fract_x
 _atom_site_fract_y
 _atom_site_fract_z
 _atom_site_occupancy
  Ca  Ca0  1  0.489218  0.452678  0.250000  1
  Ca  Ca1  1  0.989341  0.050687  0.750000  1
  Ca  Ca2  1  0.012239  0.949255  0.250000  1
  Tb  Tb3  1  0.514968  0.560397  0.750000  1
  Fe  Fe4  1  0.499192  0.003914  0.498074  1
  Fe  Fe5  1  0.499192  0.003914  0.001926  1
  Fe  Fe6  1  0.001491  0.498140  0.001537  1
  Fe  Fe7  1  0.001491  0.498140  0.498463  1
  O  O8  1  0.205007  0.204668  0.041941  1
  O  O9  1  0.205007  0.204668  0.458059  1
  O  O10  1  0.705923  0.299510  0.951707  1
  O  O11  1  0.784233  0.785456  0.550000  1
  O  O12  1  0.293342  0.701572  0.464469  1
  O  O13  1  0.784233  0.785456  0.950000  1
  O  O14  1  0.419795  0.977025  0.750000  1
  O  O15  1  0.920714  0.523963  0.250000  1
  O  O16  1  0.093405  0.478002  0.750000  1
  O  O17  1  0.705923  0.299510  0.548293  1
  O  O18  1  0.293342  0.701572  0.035531  1
  O  O19  1  0.581943  0.021475  0.250000  1
