# generated using pymatgen
data_DyTmSb5
_symmetry_space_group_name_H-M   'P 1'
_cell_length_a   4.20272600
_cell_length_b   13.19463272
_cell_length_c   14.59938299
_cell_angle_alpha   78.45054541
_cell_angle_beta   90.00000000
_cell_angle_gamma   90.00000000
_symmetry_Int_Tables_number   1
_chemical_formula_structural   DyTmSb5
_chemical_formula_sum   'Dy4 Tm4 Sb20'
_cell_volume   793.19351831
_cell_formula_units_Z   4
loop_
 _symmetry_equiv_pos_site_id
 _symmetry_equiv_pos_as_xyz
  1  'x, y, z'
loop_
 _atom_site_type_symbol
 _atom_site_label
 _atom_site_symmetry_multiplicity
 _atom_site_fract_x
 _atom_site_fract_y
 _atom_site_fract_z
 _atom_site_occupancy
  Dy  Dy0  1  0.250000  0.668749  0.576367  1
  Dy  Dy1  1  0.750000  0.331251  0.423633  1
  Dy  Dy2  1  0.250000  0.952991  0.359082  1
  Dy  Dy3  1  0.750000  0.047009  0.640918  1
  Tm  Tm4  1  0.250000  0.394982  0.771189  1
  Tm  Tm5  1  0.750000  0.605018  0.228811  1
  Tm  Tm6  1  0.250000  0.661514  0.856365  1
  Tm  Tm7  1  0.750000  0.338486  0.143635  1
  Sb  Sb8  1  0.250000  0.144909  0.778529  1
  Sb  Sb9  1  0.750000  0.855091  0.221471  1
  Sb  Sb10  1  0.250000  0.143556  0.482521  1
  Sb  Sb11  1  0.750000  0.856444  0.517479  1
  Sb  Sb12  1  0.250000  0.153937  0.170789  1
  Sb  Sb13  1  0.750000  0.846063  0.829211  1
  Sb  Sb14  1  0.250000  0.420794  0.975232  1
  Sb  Sb15  1  0.750000  0.579206  0.024768  1
  Sb  Sb16  1  0.750000  0.028419  0.909281  1
  Sb  Sb17  1  0.250000  0.971581  0.090719  1
  Sb  Sb18  1  0.750000  0.139871  0.321604  1
  Sb  Sb19  1  0.250000  0.860129  0.678396  1
  Sb  Sb20  1  0.750000  0.279490  0.937078  1
  Sb  Sb21  1  0.250000  0.720510  0.062922  1
  Sb  Sb22  1  0.750000  0.285853  0.653554  1
  Sb  Sb23  1  0.250000  0.714147  0.346446  1
  Sb  Sb24  1  0.750000  0.574976  0.736595  1
  Sb  Sb25  1  0.250000  0.425024  0.263405  1
  Sb  Sb26  1  0.750000  0.571902  0.446422  1
  Sb  Sb27  1  0.250000  0.428098  0.553578  1
