# generated using pymatgen
data_Er2Si3Tc8Ge
_symmetry_space_group_name_H-M   'P 1'
_cell_length_a   4.16290400
_cell_length_b   7.13101707
_cell_length_c   7.59527424
_cell_angle_alpha   89.58550160
_cell_angle_beta   89.99965936
_cell_angle_gamma   90.00032331
_symmetry_Int_Tables_number   1
_chemical_formula_structural   Er2Si3Tc8Ge
_chemical_formula_sum   'Er2 Si3 Tc8 Ge1'
_cell_volume   225.46543242
_cell_formula_units_Z   1
loop_
 _symmetry_equiv_pos_site_id
 _symmetry_equiv_pos_as_xyz
  1  'x, y, z'
loop_
 _atom_site_type_symbol
 _atom_site_label
 _atom_site_symmetry_multiplicity
 _atom_site_fract_x
 _atom_site_fract_y
 _atom_site_fract_z
 _atom_site_occupancy
  Er  Er0  1  0.500004  0.001246  0.998846  1
  Er  Er1  1  0.999991  0.501344  0.499155  1
  Si  Si2  1  0.500000  0.721356  0.695618  1
  Si  Si3  1  0.500000  0.277918  0.305854  1
  Si  Si4  1  0.000005  0.222077  0.803389  1
  Tc  Tc5  1  0.999999  0.916495  0.660182  1
  Tc  Tc6  1  0.999985  0.345173  0.105032  1
  Tc  Tc7  1  0.499998  0.577435  0.154737  1
  Tc  Tc8  1  0.000002  0.088252  0.345969  1
  Tc  Tc9  1  0.500009  0.152542  0.606946  1
  Tc  Tc10  1  0.500001  0.415454  0.840600  1
  Tc  Tc11  1  0.000003  0.648277  0.890466  1
  Tc  Tc12  1  0.500005  0.851351  0.397936  1
  Ge  Ge13  1  0.999996  0.781080  0.195269  1
