# generated using pymatgen
data_Ta4Si2PdRu9
_symmetry_space_group_name_H-M   'P 1'
_cell_length_a   4.09317200
_cell_length_b   5.41924243
_cell_length_c   10.60569585
_cell_angle_alpha   88.78493577
_cell_angle_beta   90.00000000
_cell_angle_gamma   90.00000000
_symmetry_Int_Tables_number   1
_chemical_formula_structural   Ta4Si2PdRu9
_chemical_formula_sum   'Ta4 Si2 Pd1 Ru9'
_cell_volume   235.20149469
_cell_formula_units_Z   1
loop_
 _symmetry_equiv_pos_site_id
 _symmetry_equiv_pos_as_xyz
  1  'x, y, z'
loop_
 _atom_site_type_symbol
 _atom_site_label
 _atom_site_symmetry_multiplicity
 _atom_site_fract_x
 _atom_site_fract_y
 _atom_site_fract_z
 _atom_site_occupancy
  Ta  Ta0  1  0.500000  0.852237  0.363789  1
  Ta  Ta1  1  0.500000  0.170164  0.642315  1
  Ta  Ta2  1  0.500000  0.319322  0.135077  1
  Ta  Ta3  1  0.500000  0.661384  0.857782  1
  Si  Si4  1  0.000000  0.508989  0.502357  1
  Si  Si5  1  0.000000  0.993814  0.999244  1
  Pd  Pd6  1  0.000000  0.583164  0.252652  1
  Ru  Ru7  1  0.000000  0.494315  0.997904  1
  Ru  Ru8  1  0.000000  0.014185  0.503080  1
  Ru  Ru9  1  0.000000  0.409614  0.744744  1
  Ru  Ru10  1  0.000000  0.085042  0.244468  1
  Ru  Ru11  1  0.000000  0.907759  0.756632  1
  Ru  Ru12  1  0.500000  0.816313  0.106758  1
  Ru  Ru13  1  0.500000  0.170191  0.894970  1
  Ru  Ru14  1  0.500000  0.333053  0.393333  1
  Ru  Ru15  1  0.500000  0.680455  0.604896  1
