# generated using pymatgen
data_Tm4B12MoRh
_symmetry_space_group_name_H-M   'P 1'
_cell_length_a   3.62957200
_cell_length_b   9.12002968
_cell_length_c   11.51812080
_cell_angle_alpha   90.40608247
_cell_angle_beta   90.00000000
_cell_angle_gamma   90.00000000
_symmetry_Int_Tables_number   1
_chemical_formula_structural   Tm4B12MoRh
_chemical_formula_sum   'Tm8 B24 Mo2 Rh2'
_cell_volume   381.26100538
_cell_formula_units_Z   2
loop_
 _symmetry_equiv_pos_site_id
 _symmetry_equiv_pos_as_xyz
  1  'x, y, z'
loop_
 _atom_site_type_symbol
 _atom_site_label
 _atom_site_symmetry_multiplicity
 _atom_site_fract_x
 _atom_site_fract_y
 _atom_site_fract_z
 _atom_site_occupancy
  Tm  Tm0  1  0.500000  0.318995  0.411644  1
  Tm  Tm1  1  0.500000  0.681005  0.588356  1
  Tm  Tm2  1  0.500000  0.174734  0.916833  1
  Tm  Tm3  1  0.500000  0.825266  0.083167  1
  Tm  Tm4  1  0.500000  0.443510  0.126691  1
  Tm  Tm5  1  0.500000  0.556490  0.873309  1
  Tm  Tm6  1  0.500000  0.054809  0.627866  1
  Tm  Tm7  1  0.500000  0.945191  0.372134  1
  B  B8  1  0.000000  0.106916  0.471876  1
  B  B9  1  0.000000  0.893084  0.528124  1
  B  B10  1  0.000000  0.394966  0.970171  1
  B  B11  1  0.000000  0.605034  0.029829  1
  B  B12  1  0.000000  0.132758  0.317869  1
  B  B13  1  0.000000  0.867242  0.682131  1
  B  B14  1  0.000000  0.368096  0.816027  1
  B  B15  1  0.000000  0.631904  0.183973  1
  B  B16  1  0.000000  0.051883  0.065849  1
  B  B17  1  0.000000  0.948117  0.934151  1
  B  B18  1  0.000000  0.446205  0.565145  1
  B  B19  1  0.000000  0.553795  0.434855  1
  B  B20  1  0.000000  0.483160  0.288366  1
  B  B21  1  0.000000  0.516840  0.711634  1
  B  B22  1  0.000000  0.020585  0.786148  1
  B  B23  1  0.000000  0.979415  0.213852  1
  B  B24  1  0.000000  0.250687  0.079060  1
  B  B25  1  0.000000  0.749313  0.920940  1
  B  B26  1  0.000000  0.250455  0.578761  1
  B  B27  1  0.000000  0.749545  0.421239  1
  B  B28  1  0.000000  0.296423  0.236782  1
  B  B29  1  0.000000  0.703577  0.763218  1
  B  B30  1  0.000000  0.208360  0.734259  1
  B  B31  1  0.000000  0.791640  0.265741  1
  Mo  Mo32  1  0.500000  0.139588  0.181183  1
  Mo  Mo33  1  0.500000  0.860412  0.818817  1
  Rh  Rh34  1  0.500000  0.361703  0.678069  1
  Rh  Rh35  1  0.500000  0.638297  0.321931  1
