# generated using pymatgen
data_Ca5Si2Sb
_symmetry_space_group_name_H-M   'P 1'
_cell_length_a   9.23497602
_cell_length_b   9.23497489
_cell_length_c   9.23497565
_cell_angle_alpha   130.14606593
_cell_angle_beta   130.14607271
_cell_angle_gamma   73.17336235
_symmetry_Int_Tables_number   1
_chemical_formula_structural   Ca5Si2Sb
_chemical_formula_sum   'Ca10 Si4 Sb2'
_cell_volume   449.34219692
_cell_formula_units_Z   2
loop_
 _symmetry_equiv_pos_site_id
 _symmetry_equiv_pos_as_xyz
  1  'x, y, z'
loop_
 _atom_site_type_symbol
 _atom_site_label
 _atom_site_symmetry_multiplicity
 _atom_site_fract_x
 _atom_site_fract_y
 _atom_site_fract_z
 _atom_site_occupancy
  Ca  Ca0  1  0.810936  0.310936  0.843851  1
  Ca  Ca1  1  0.189064  0.689064  0.156149  1
  Ca  Ca2  1  0.467085  0.967085  0.156149  1
  Ca  Ca3  1  0.310936  0.467085  0.500000  1
  Ca  Ca4  1  0.032915  0.189064  0.500000  1
  Ca  Ca5  1  0.532915  0.032915  0.843851  1
  Ca  Ca6  1  0.689064  0.532915  0.500000  1
  Ca  Ca7  1  0.967085  0.810936  0.500000  1
  Ca  Ca8  1  0.000000  0.000000  0.000000  1
  Ca  Ca9  1  0.500000  0.500000  0.000000  1
  Si  Si10  1  0.113886  0.613886  0.727772  1
  Si  Si11  1  0.886114  0.386114  0.272228  1
  Si  Si12  1  0.613886  0.886114  0.500000  1
  Si  Si13  1  0.386114  0.113886  0.500000  1
  Sb  Sb14  1  0.250000  0.250000  0.000000  1
  Sb  Sb15  1  0.750000  0.750000  0.000000  1
