# generated using pymatgen
data_Ti12CdTe16
_symmetry_space_group_name_H-M   'P 1'
_cell_length_a   7.69133364
_cell_length_b   10.65034677
_cell_length_c   11.31129700
_cell_angle_alpha   118.11136914
_cell_angle_beta   109.88022136
_cell_angle_gamma   89.99784180
_symmetry_Int_Tables_number   1
_chemical_formula_structural   Ti12CdTe16
_chemical_formula_sum   'Ti12 Cd1 Te16'
_cell_volume   754.09153791
_cell_formula_units_Z   1
loop_
 _symmetry_equiv_pos_site_id
 _symmetry_equiv_pos_as_xyz
  1  'x, y, z'
loop_
 _atom_site_type_symbol
 _atom_site_label
 _atom_site_symmetry_multiplicity
 _atom_site_fract_x
 _atom_site_fract_y
 _atom_site_fract_z
 _atom_site_occupancy
  Ti  Ti0  1  0.122857  0.129692  0.491846  1
  Ti  Ti1  1  0.619812  0.129104  0.493360  1
  Ti  Ti2  1  0.309436  0.363248  0.870797  1
  Ti  Ti3  1  0.811376  0.364285  0.870980  1
  Ti  Ti4  1  0.191310  0.506982  0.635089  1
  Ti  Ti5  1  0.695290  0.508192  0.637351  1
  Ti  Ti6  1  0.380188  0.870896  0.506640  1
  Ti  Ti7  1  0.877143  0.870308  0.508154  1
  Ti  Ti8  1  0.188624  0.635715  0.129020  1
  Ti  Ti9  1  0.690564  0.636752  0.129203  1
  Ti  Ti10  1  0.304710  0.491808  0.362649  1
  Ti  Ti11  1  0.808690  0.493018  0.364911  1
  Cd  Cd12  1  0.500000  0.000000  0.000000  1
  Te  Te13  1  0.727221  0.052414  0.705671  1
  Te  Te14  1  0.226898  0.051623  0.704016  1
  Te  Te15  1  0.849642  0.653702  0.948532  1
  Te  Te16  1  0.348697  0.652970  0.948344  1
  Te  Te17  1  0.548326  0.295868  0.347149  1
  Te  Te18  1  0.047634  0.294418  0.345733  1
  Te  Te19  1  0.773102  0.948377  0.295984  1
  Te  Te20  1  0.272779  0.947586  0.294329  1
  Te  Te21  1  0.651303  0.347030  0.051656  1
  Te  Te22  1  0.150358  0.346298  0.051468  1
  Te  Te23  1  0.952366  0.705582  0.654267  1
  Te  Te24  1  0.451674  0.704132  0.652851  1
  Te  Te25  1  0.958077  0.332090  0.665666  1
  Te  Te26  1  0.458683  0.334486  0.667451  1
  Te  Te27  1  0.541317  0.665514  0.332549  1
  Te  Te28  1  0.041923  0.667910  0.334334  1
