# generated using pymatgen
data_TbYb3Tc2(B8Os)2
_symmetry_space_group_name_H-M   'P 1'
_cell_length_a   5.97136078
_cell_length_b   11.54776740
_cell_length_c   3.56172800
_cell_angle_alpha   90.00000000
_cell_angle_beta   90.00000000
_cell_angle_gamma   90.01381668
_symmetry_Int_Tables_number   1
_chemical_formula_structural   TbYb3Tc2(B8Os)2
_chemical_formula_sum   'Tb1 Yb3 Tc2 B16 Os2'
_cell_volume   245.60210054
_cell_formula_units_Z   1
loop_
 _symmetry_equiv_pos_site_id
 _symmetry_equiv_pos_as_xyz
  1  'x, y, z'
loop_
 _atom_site_type_symbol
 _atom_site_label
 _atom_site_symmetry_multiplicity
 _atom_site_fract_x
 _atom_site_fract_y
 _atom_site_fract_z
 _atom_site_occupancy
  Tb  Tb0  1  0.872227  0.848153  0.000000  1
  Yb  Yb1  1  0.630056  0.350918  0.000000  1
  Yb  Yb2  1  0.370423  0.647974  0.000000  1
  Yb  Yb3  1  0.128293  0.152362  0.000000  1
  Tc  Tc4  1  0.630529  0.083712  0.000000  1
  Tc  Tc5  1  0.370768  0.915587  0.000000  1
  B  B6  1  0.785260  0.185605  0.500000  1
  B  B7  1  0.214707  0.814758  0.500000  1
  B  B8  1  0.285568  0.315259  0.500000  1
  B  B9  1  0.713264  0.684105  0.500000  1
  B  B10  1  0.864901  0.032851  0.500000  1
  B  B11  1  0.135130  0.968352  0.500000  1
  B  B12  1  0.363858  0.469745  0.500000  1
  B  B13  1  0.636226  0.530034  0.500000  1
  B  B14  1  0.886921  0.452878  0.500000  1
  B  B15  1  0.113818  0.546975  0.500000  1
  B  B16  1  0.385050  0.048103  0.500000  1
  B  B17  1  0.611986  0.952943  0.500000  1
  B  B18  1  0.974435  0.308795  0.500000  1
  B  B19  1  0.025952  0.690659  0.500000  1
  B  B20  1  0.478166  0.193034  0.500000  1
  B  B21  1  0.521676  0.806841  0.500000  1
  Os  Os22  1  0.138749  0.411428  0.000000  1
  Os  Os23  1  0.862039  0.588928  0.000000  1
