# generated using pymatgen
data_Cs2Ga(BSe)9
_symmetry_space_group_name_H-M   'P 1'
_cell_length_a   10.11274480
_cell_length_b   10.95044070
_cell_length_c   11.27099300
_cell_angle_alpha   100.09265560
_cell_angle_beta   90.47927283
_cell_angle_gamma   116.07080494
_symmetry_Int_Tables_number   1
_chemical_formula_structural   Cs2Ga(BSe)9
_chemical_formula_sum   'Cs4 Ga2 B18 Se18'
_cell_volume   1098.63736802
_cell_formula_units_Z   2
loop_
 _symmetry_equiv_pos_site_id
 _symmetry_equiv_pos_as_xyz
  1  'x, y, z'
loop_
 _atom_site_type_symbol
 _atom_site_label
 _atom_site_symmetry_multiplicity
 _atom_site_fract_x
 _atom_site_fract_y
 _atom_site_fract_z
 _atom_site_occupancy
  Cs  Cs0  1  0.183605  0.822377  0.990296  1
  Cs  Cs1  1  0.816395  0.177623  0.009704  1
  Cs  Cs2  1  0.819322  0.648900  0.483583  1
  Cs  Cs3  1  0.180678  0.351100  0.516417  1
  Ga  Ga4  1  0.594422  0.596928  0.954953  1
  Ga  Ga5  1  0.405578  0.403072  0.045047  1
  B  B6  1  0.489237  0.842115  0.451274  1
  B  B7  1  0.510763  0.157885  0.548726  1
  B  B8  1  0.339703  0.878400  0.416028  1
  B  B9  1  0.660297  0.121600  0.583972  1
  B  B10  1  0.510362  0.956382  0.351815  1
  B  B11  1  0.489638  0.043618  0.648185  1
  B  B12  1  0.660151  0.993721  0.458853  1
  B  B13  1  0.339849  0.006279  0.541147  1
  B  B14  1  0.580986  0.941725  0.594731  1
  B  B15  1  0.419014  0.058275  0.405269  1
  B  B16  1  0.384391  0.873176  0.566153  1
  B  B17  1  0.615609  0.126824  0.433847  1
  B  B18  1  0.280470  0.596964  0.279148  1
  B  B19  1  0.719530  0.403036  0.720852  1
  B  B20  1  0.437071  0.729964  0.738545  1
  B  B21  1  0.562929  0.270036  0.261455  1
  B  B22  1  0.719723  0.888856  0.211531  1
  B  B23  1  0.280277  0.111144  0.788469  1
  Se  Se24  1  0.462287  0.650405  0.380399  1
  Se  Se25  1  0.537713  0.349595  0.619601  1
  Se  Se26  1  0.173699  0.713278  0.306503  1
  Se  Se27  1  0.826301  0.286722  0.693497  1
  Se  Se28  1  0.535740  0.899114  0.177729  1
  Se  Se29  1  0.464260  0.100886  0.822271  1
  Se  Se30  1  0.826732  0.967846  0.376482  1
  Se  Se31  1  0.173268  0.032154  0.623518  1
  Se  Se32  1  0.641688  0.852783  0.712883  1
  Se  Se33  1  0.358312  0.147217  0.287117  1
  Se  Se34  1  0.263264  0.724223  0.653841  1
  Se  Se35  1  0.736736  0.275777  0.346159  1
  Se  Se36  1  0.198426  0.424742  0.159396  1
  Se  Se37  1  0.801574  0.575258  0.840604  1
  Se  Se38  1  0.803322  0.812230  0.081144  1
  Se  Se39  1  0.196678  0.187770  0.918856  1
  Se  Se40  1  0.385812  0.603997  0.848174  1
  Se  Se41  1  0.614188  0.396003  0.151826  1
