# generated using pymatgen
data_LiHo8Sc11Si15P
_symmetry_space_group_name_H-M   'P 1'
_cell_length_a   7.02825469
_cell_length_b   7.35429917
_cell_length_c   13.93899800
_cell_angle_alpha   90.00000000
_cell_angle_beta   90.00000000
_cell_angle_gamma   89.90352164
_symmetry_Int_Tables_number   1
_chemical_formula_structural   LiHo8Sc11Si15P
_chemical_formula_sum   'Li1 Ho8 Sc11 Si15 P1'
_cell_volume   720.47634141
_cell_formula_units_Z   1
loop_
 _symmetry_equiv_pos_site_id
 _symmetry_equiv_pos_as_xyz
  1  'x, y, z'
loop_
 _atom_site_type_symbol
 _atom_site_label
 _atom_site_symmetry_multiplicity
 _atom_site_fract_x
 _atom_site_fract_y
 _atom_site_fract_z
 _atom_site_occupancy
  Li  Li0  1  0.160857  0.509583  0.750000  1
  Ho  Ho1  1  0.009264  0.174941  0.096399  1
  Ho  Ho2  1  0.992276  0.819437  0.898729  1
  Ho  Ho3  1  0.484709  0.675043  0.902175  1
  Ho  Ho4  1  0.992276  0.819437  0.601271  1
  Ho  Ho5  1  0.511284  0.323717  0.095825  1
  Ho  Ho6  1  0.009264  0.174941  0.403601  1
  Ho  Ho7  1  0.511284  0.323717  0.404175  1
  Ho  Ho8  1  0.484709  0.675043  0.597825  1
  Sc  Sc9  1  0.837870  0.497504  0.250000  1
  Sc  Sc10  1  0.337641  0.003731  0.250000  1
  Sc  Sc11  1  0.662344  0.997672  0.750000  1
  Sc  Sc12  1  0.324141  0.179810  0.627678  1
  Sc  Sc13  1  0.669274  0.824204  0.376003  1
  Sc  Sc14  1  0.168446  0.679504  0.374891  1
  Sc  Sc15  1  0.669274  0.824204  0.123997  1
  Sc  Sc16  1  0.839770  0.323392  0.628646  1
  Sc  Sc17  1  0.324141  0.179810  0.872322  1
  Sc  Sc18  1  0.839770  0.323392  0.871354  1
  Sc  Sc19  1  0.168446  0.679504  0.125109  1
  Si  Si20  1  0.964991  0.884708  0.250000  1
  Si  Si21  1  0.466558  0.615017  0.250000  1
  Si  Si22  1  0.534512  0.385440  0.750000  1
  Si  Si23  1  0.295204  0.875343  0.750000  1
  Si  Si24  1  0.712404  0.127853  0.250000  1
  Si  Si25  1  0.213416  0.372805  0.250000  1
  Si  Si26  1  0.779284  0.625853  0.750000  1
  Si  Si27  1  0.159021  0.461334  0.535123  1
  Si  Si28  1  0.842161  0.536408  0.463478  1
  Si  Si29  1  0.340728  0.966036  0.462344  1
  Si  Si30  1  0.842161  0.536408  0.036522  1
  Si  Si31  1  0.660740  0.035763  0.541632  1
  Si  Si32  1  0.159021  0.461334  0.964877  1
  Si  Si33  1  0.660740  0.035763  0.958368  1
  Si  Si34  1  0.340728  0.966036  0.037656  1
  P  P35  1  0.031291  0.105311  0.750000  1
