# generated using pymatgen
data_RhIBr2
_symmetry_space_group_name_H-M   'P 1'
_cell_length_a   6.69868548
_cell_length_b   6.69868530
_cell_length_c   7.15982057
_cell_angle_alpha   81.79537736
_cell_angle_beta   81.79537586
_cell_angle_gamma   121.86461426
_symmetry_Int_Tables_number   1
_chemical_formula_structural   RhIBr2
_chemical_formula_sum   'Rh2 I2 Br4'
_cell_volume   260.82421158
_cell_formula_units_Z   2
loop_
 _symmetry_equiv_pos_site_id
 _symmetry_equiv_pos_as_xyz
  1  'x, y, z'
loop_
 _atom_site_type_symbol
 _atom_site_label
 _atom_site_symmetry_multiplicity
 _atom_site_fract_x
 _atom_site_fract_y
 _atom_site_fract_z
 _atom_site_occupancy
  Rh  Rh0  1  0.831128  0.168872  0.000000  1
  Rh  Rh1  1  0.168872  0.831128  0.000000  1
  I  I2  1  0.781479  0.781479  0.218704  1
  I  I3  1  0.218521  0.218521  0.781296  1
  Br  Br4  1  0.434068  0.072043  0.207223  1
  Br  Br5  1  0.565932  0.927957  0.792777  1
  Br  Br6  1  0.927957  0.565932  0.792777  1
  Br  Br7  1  0.072043  0.434068  0.207223  1
