# generated using pymatgen
data_SrFeNi(Sb6Os)2
_symmetry_space_group_name_H-M   'P 1'
_cell_length_a   8.11725232
_cell_length_b   8.06851190
_cell_length_c   8.12053813
_cell_angle_alpha   109.49249324
_cell_angle_beta   109.66228951
_cell_angle_gamma   109.57130538
_symmetry_Int_Tables_number   1
_chemical_formula_structural   SrFeNi(Sb6Os)2
_chemical_formula_sum   'Sr1 Fe1 Ni1 Sb12 Os2'
_cell_volume   407.82964314
_cell_formula_units_Z   1
loop_
 _symmetry_equiv_pos_site_id
 _symmetry_equiv_pos_as_xyz
  1  'x, y, z'
loop_
 _atom_site_type_symbol
 _atom_site_label
 _atom_site_symmetry_multiplicity
 _atom_site_fract_x
 _atom_site_fract_y
 _atom_site_fract_z
 _atom_site_occupancy
  Sr  Sr0  1  0.000000  0.000000  0.000000  1
  Fe  Fe1  1  0.500000  0.000000  0.000000  1
  Ni  Ni2  1  0.000000  0.000000  0.500000  1
  Sb  Sb3  1  0.342027  0.177164  0.844350  1
  Sb  Sb4  1  0.657973  0.822836  0.155650  1
  Sb  Sb5  1  0.658147  0.500622  0.842043  1
  Sb  Sb6  1  0.341853  0.499378  0.157957  1
  Sb  Sb7  1  0.184376  0.845126  0.344357  1
  Sb  Sb8  1  0.815624  0.154874  0.655643  1
  Sb  Sb9  1  0.502045  0.845397  0.669186  1
  Sb  Sb10  1  0.497955  0.154603  0.330814  1
  Sb  Sb11  1  0.833962  0.331667  0.176198  1
  Sb  Sb12  1  0.166038  0.668333  0.823802  1
  Sb  Sb13  1  0.844488  0.660624  0.500980  1
  Sb  Sb14  1  0.155512  0.339376  0.499020  1
  Os  Os15  1  0.000000  0.500000  0.000000  1
  Os  Os16  1  0.500000  0.500000  0.500000  1
