# generated using pymatgen
data_Li3Nd8Si12Pd
_symmetry_space_group_name_H-M   'P 1'
_cell_length_a   8.28382500
_cell_length_b   8.28382571
_cell_length_c   8.43931600
_cell_angle_alpha   90.00000000
_cell_angle_beta   90.00000000
_cell_angle_gamma   119.99999317
_symmetry_Int_Tables_number   1
_chemical_formula_structural   Li3Nd8Si12Pd
_chemical_formula_sum   'Li3 Nd8 Si12 Pd1'
_cell_volume   501.53330582
_cell_formula_units_Z   1
loop_
 _symmetry_equiv_pos_site_id
 _symmetry_equiv_pos_as_xyz
  1  'x, y, z'
loop_
 _atom_site_type_symbol
 _atom_site_label
 _atom_site_symmetry_multiplicity
 _atom_site_fract_x
 _atom_site_fract_y
 _atom_site_fract_z
 _atom_site_occupancy
  Li  Li0  1  0.666667  0.333333  0.999501  1
  Li  Li1  1  0.333333  0.666667  0.001622  1
  Li  Li2  1  0.333333  0.666667  0.499353  1
  Nd  Nd3  1  0.499919  0.500081  0.750173  1
  Nd  Nd4  1  0.500647  0.499353  0.249725  1
  Nd  Nd5  1  0.000163  0.500081  0.750173  1
  Nd  Nd6  1  0.998706  0.499353  0.249725  1
  Nd  Nd7  1  0.499919  0.999837  0.750173  1
  Nd  Nd8  1  0.500647  0.001294  0.249725  1
  Nd  Nd9  1  0.000000  0.000000  0.750500  1
  Nd  Nd10  1  0.000000  0.000000  0.249488  1
  Si  Si11  1  0.833922  0.166078  0.000094  1
  Si  Si12  1  0.165984  0.834016  0.999754  1
  Si  Si13  1  0.332157  0.166078  0.000094  1
  Si  Si14  1  0.165517  0.834483  0.500059  1
  Si  Si15  1  0.668031  0.834016  0.999754  1
  Si  Si16  1  0.833681  0.166319  0.500144  1
  Si  Si17  1  0.833922  0.667843  0.000094  1
  Si  Si18  1  0.668965  0.834483  0.500059  1
  Si  Si19  1  0.165984  0.331969  0.999754  1
  Si  Si20  1  0.332638  0.166319  0.500144  1
  Si  Si21  1  0.165517  0.331035  0.500059  1
  Si  Si22  1  0.833681  0.667362  0.500144  1
  Pd  Pd23  1  0.666667  0.333333  0.499688  1
