# generated using pymatgen
data_Sr4TmPb3
_symmetry_space_group_name_H-M   'P 1'
_cell_length_a   9.75750665
_cell_length_b   9.75750673
_cell_length_c   9.75750700
_cell_angle_alpha   96.77587018
_cell_angle_beta   96.77623095
_cell_angle_gamma   139.82007292
_symmetry_Int_Tables_number   1
_chemical_formula_structural   Sr4TmPb3
_chemical_formula_sum   'Sr8 Tm2 Pb6'
_cell_volume   562.91301637
_cell_formula_units_Z   2
loop_
 _symmetry_equiv_pos_site_id
 _symmetry_equiv_pos_as_xyz
  1  'x, y, z'
loop_
 _atom_site_type_symbol
 _atom_site_label
 _atom_site_symmetry_multiplicity
 _atom_site_fract_x
 _atom_site_fract_y
 _atom_site_fract_z
 _atom_site_occupancy
  Sr  Sr0  1  0.086147  0.213427  0.299579  1
  Sr  Sr1  1  0.913853  0.786573  0.700421  1
  Sr  Sr2  1  0.786569  0.086147  0.872719  1
  Sr  Sr3  1  0.413849  0.713427  0.127280  1
  Sr  Sr4  1  0.213431  0.913853  0.127281  1
  Sr  Sr5  1  0.586151  0.286573  0.872720  1
  Sr  Sr6  1  0.713428  0.586147  0.299579  1
  Sr  Sr7  1  0.286572  0.413853  0.700421  1
  Tm  Tm8  1  0.250000  0.750000  0.500000  1
  Tm  Tm9  1  0.750000  0.250000  0.500000  1
  Pb  Pb10  1  0.145002  0.645002  0.790002  1
  Pb  Pb11  1  0.854998  0.354998  0.209998  1
  Pb  Pb12  1  0.354998  0.145002  0.500000  1
  Pb  Pb13  1  0.645002  0.854998  0.500000  1
  Pb  Pb14  1  0.250000  0.250000  0.000000  1
  Pb  Pb15  1  0.750000  0.750000  0.000000  1
