# generated using pymatgen
data_Tm8Zr11Si16Au
_symmetry_space_group_name_H-M   'P 1'
_cell_length_a   7.05014947
_cell_length_b   7.25823940
_cell_length_c   13.88180900
_cell_angle_alpha   90.00000000
_cell_angle_beta   90.00000000
_cell_angle_gamma   89.57859915
_symmetry_Int_Tables_number   1
_chemical_formula_structural   Tm8Zr11Si16Au
_chemical_formula_sum   'Tm8 Zr11 Si16 Au1'
_cell_volume   710.33617374
_cell_formula_units_Z   1
loop_
 _symmetry_equiv_pos_site_id
 _symmetry_equiv_pos_as_xyz
  1  'x, y, z'
loop_
 _atom_site_type_symbol
 _atom_site_label
 _atom_site_symmetry_multiplicity
 _atom_site_fract_x
 _atom_site_fract_y
 _atom_site_fract_z
 _atom_site_occupancy
  Tm  Tm0  1  0.011529  0.175941  0.098724  1
  Tm  Tm1  1  0.987471  0.818106  0.902710  1
  Tm  Tm2  1  0.484461  0.673530  0.902393  1
  Tm  Tm3  1  0.987471  0.818106  0.597290  1
  Tm  Tm4  1  0.512077  0.323599  0.096179  1
  Tm  Tm5  1  0.011529  0.175941  0.401276  1
  Tm  Tm6  1  0.512077  0.323599  0.403821  1
  Tm  Tm7  1  0.484461  0.673530  0.597607  1
  Zr  Zr8  1  0.842277  0.503321  0.250000  1
  Zr  Zr9  1  0.341342  0.999827  0.250000  1
  Zr  Zr10  1  0.655657  0.998142  0.750000  1
  Zr  Zr11  1  0.321588  0.182464  0.627293  1
  Zr  Zr12  1  0.669664  0.822381  0.376355  1
  Zr  Zr13  1  0.171112  0.681580  0.375568  1
  Zr  Zr14  1  0.669664  0.822381  0.123645  1
  Zr  Zr15  1  0.842769  0.322610  0.626885  1
  Zr  Zr16  1  0.321588  0.182464  0.872707  1
  Zr  Zr17  1  0.842769  0.322610  0.873115  1
  Zr  Zr18  1  0.171112  0.681580  0.124432  1
  Si  Si19  1  0.028007  0.089464  0.750000  1
  Si  Si20  1  0.964661  0.886420  0.250000  1
  Si  Si21  1  0.466783  0.614949  0.250000  1
  Si  Si22  1  0.537973  0.382682  0.750000  1
  Si  Si23  1  0.286856  0.873210  0.750000  1
  Si  Si24  1  0.715464  0.130118  0.250000  1
  Si  Si25  1  0.217282  0.371565  0.250000  1
  Si  Si26  1  0.776399  0.627708  0.750000  1
  Si  Si27  1  0.163727  0.461775  0.530069  1
  Si  Si28  1  0.841054  0.531776  0.461551  1
  Si  Si29  1  0.342174  0.970757  0.461639  1
  Si  Si30  1  0.841054  0.531776  0.038449  1
  Si  Si31  1  0.655650  0.033057  0.542534  1
  Si  Si32  1  0.163727  0.461775  0.969931  1
  Si  Si33  1  0.655650  0.033057  0.957466  1
  Si  Si34  1  0.342174  0.970757  0.038361  1
  Au  Au35  1  0.160744  0.527440  0.750000  1
