# generated using pymatgen
data_Na3(GePt)2
_symmetry_space_group_name_H-M   'P 1'
_cell_length_a   5.99636300
_cell_length_b   7.74395900
_cell_length_c   13.29199600
_cell_angle_alpha   90.00000000
_cell_angle_beta   90.00000000
_cell_angle_gamma   90.00000000
_symmetry_Int_Tables_number   1
_chemical_formula_structural   Na3(GePt)2
_chemical_formula_sum   'Na12 Ge8 Pt8'
_cell_volume   617.22166618
_cell_formula_units_Z   4
loop_
 _symmetry_equiv_pos_site_id
 _symmetry_equiv_pos_as_xyz
  1  'x, y, z'
loop_
 _atom_site_type_symbol
 _atom_site_label
 _atom_site_symmetry_multiplicity
 _atom_site_fract_x
 _atom_site_fract_y
 _atom_site_fract_z
 _atom_site_occupancy
  Na  Na0  1  0.642174  0.224671  0.250000  1
  Na  Na1  1  0.357826  0.775329  0.750000  1
  Na  Na2  1  0.357826  0.724671  0.250000  1
  Na  Na3  1  0.642174  0.275329  0.750000  1
  Na  Na4  1  0.127291  0.391876  0.099750  1
  Na  Na5  1  0.872709  0.608124  0.900250  1
  Na  Na6  1  0.872709  0.608124  0.599750  1
  Na  Na7  1  0.872709  0.891876  0.400250  1
  Na  Na8  1  0.127291  0.391876  0.400250  1
  Na  Na9  1  0.127291  0.108124  0.599750  1
  Na  Na10  1  0.127291  0.108124  0.900250  1
  Na  Na11  1  0.872709  0.891876  0.099750  1
  Ge  Ge12  1  0.171900  0.081026  0.250000  1
  Ge  Ge13  1  0.828100  0.918974  0.750000  1
  Ge  Ge14  1  0.828100  0.581026  0.250000  1
  Ge  Ge15  1  0.171900  0.418974  0.750000  1
  Ge  Ge16  1  0.578527  0.250000  0.000000  1
  Ge  Ge17  1  0.421473  0.750000  0.000000  1
  Ge  Ge18  1  0.421473  0.750000  0.500000  1
  Ge  Ge19  1  0.578527  0.250000  0.500000  1
  Pt  Pt20  1  0.361876  0.023368  0.092790  1
  Pt  Pt21  1  0.638124  0.976632  0.907210  1
  Pt  Pt22  1  0.638124  0.976632  0.592790  1
  Pt  Pt23  1  0.638124  0.523368  0.407210  1
  Pt  Pt24  1  0.361876  0.023368  0.407210  1
  Pt  Pt25  1  0.361876  0.476632  0.592790  1
  Pt  Pt26  1  0.361876  0.476632  0.907210  1
  Pt  Pt27  1  0.638124  0.523368  0.092790  1
