# generated using pymatgen
data_MnMo2Ir5
_symmetry_space_group_name_H-M   'P 1'
_cell_length_a   5.48005100
_cell_length_b   5.50946525
_cell_length_c   4.37541800
_cell_angle_alpha   90.00000000
_cell_angle_beta   90.00000000
_cell_angle_gamma   119.82356660
_symmetry_Int_Tables_number   1
_chemical_formula_structural   MnMo2Ir5
_chemical_formula_sum   'Mn1 Mo2 Ir5'
_cell_volume   114.60764846
_cell_formula_units_Z   1
loop_
 _symmetry_equiv_pos_site_id
 _symmetry_equiv_pos_as_xyz
  1  'x, y, z'
loop_
 _atom_site_type_symbol
 _atom_site_label
 _atom_site_symmetry_multiplicity
 _atom_site_fract_x
 _atom_site_fract_y
 _atom_site_fract_z
 _atom_site_occupancy
  Mn  Mn0  1  0.167267  0.334533  0.250000  1
  Mo  Mo1  1  0.328687  0.657374  0.750000  1
  Mo  Mo2  1  0.667065  0.334127  0.250000  1
  Ir  Ir3  1  0.666769  0.832283  0.250000  1
  Ir  Ir4  1  0.165515  0.832283  0.250000  1
  Ir  Ir5  1  0.834587  0.669176  0.750000  1
  Ir  Ir6  1  0.330430  0.170112  0.750000  1
  Ir  Ir7  1  0.839682  0.170112  0.750000  1
