# generated using pymatgen
data_Tm3Be2Co5(NiB)4
_symmetry_space_group_name_H-M   'P 1'
_cell_length_a   4.96215200
_cell_length_b   4.98651345
_cell_length_c   9.42543500
_cell_angle_alpha   90.00000000
_cell_angle_beta   90.00000000
_cell_angle_gamma   119.83852120
_symmetry_Int_Tables_number   1
_chemical_formula_structural   Tm3Be2Co5(NiB)4
_chemical_formula_sum   'Tm3 Be2 Co5 Ni4 B4'
_cell_volume   202.30353201
_cell_formula_units_Z   1
loop_
 _symmetry_equiv_pos_site_id
 _symmetry_equiv_pos_as_xyz
  1  'x, y, z'
loop_
 _atom_site_type_symbol
 _atom_site_label
 _atom_site_symmetry_multiplicity
 _atom_site_fract_x
 _atom_site_fract_y
 _atom_site_fract_z
 _atom_site_occupancy
  Tm  Tm0  1  0.000000  0.000000  0.000000  1
  Tm  Tm1  1  0.000000  0.000000  0.661341  1
  Tm  Tm2  1  0.000000  0.000000  0.338659  1
  Be  Be3  1  0.659947  0.319893  0.000000  1
  Be  Be4  1  0.340053  0.680107  0.000000  1
  Co  Co5  1  0.500000  0.500000  0.500000  1
  Co  Co6  1  0.500000  0.000000  0.500000  1
  Co  Co7  1  0.000000  0.500000  0.500000  1
  Co  Co8  1  0.500000  0.000000  0.808731  1
  Co  Co9  1  0.500000  0.000000  0.191269  1
  Ni  Ni10  1  0.500000  0.500000  0.812732  1
  Ni  Ni11  1  0.000000  0.500000  0.812732  1
  Ni  Ni12  1  0.500000  0.500000  0.187268  1
  Ni  Ni13  1  0.000000  0.500000  0.187268  1
  B  B14  1  0.664160  0.328320  0.656548  1
  B  B15  1  0.335840  0.671680  0.656548  1
  B  B16  1  0.335840  0.671680  0.343452  1
  B  B17  1  0.664160  0.328320  0.343452  1
