# generated using pymatgen
data_Tb4Dy8TlCo4Rh
_symmetry_space_group_name_H-M   'P 1'
_cell_length_a   8.31536535
_cell_length_b   8.31536078
_cell_length_c   8.31536594
_cell_angle_alpha   110.76745368
_cell_angle_beta   110.52259151
_cell_angle_gamma   107.14841101
_symmetry_Int_Tables_number   1
_chemical_formula_structural   Tb4Dy8TlCo4Rh
_chemical_formula_sum   'Tb4 Dy8 Tl1 Co4 Rh1'
_cell_volume   442.06564232
_cell_formula_units_Z   1
loop_
 _symmetry_equiv_pos_site_id
 _symmetry_equiv_pos_as_xyz
  1  'x, y, z'
loop_
 _atom_site_type_symbol
 _atom_site_label
 _atom_site_symmetry_multiplicity
 _atom_site_fract_x
 _atom_site_fract_y
 _atom_site_fract_z
 _atom_site_occupancy
  Tb  Tb0  1  0.813543  0.707595  0.521138  1
  Tb  Tb1  1  0.186457  0.292405  0.478862  1
  Tb  Tb2  1  0.186457  0.707595  0.894051  1
  Tb  Tb3  1  0.813543  0.292405  0.105949  1
  Dy  Dy4  1  0.685671  0.379633  0.693961  1
  Dy  Dy5  1  0.314329  0.620367  0.306039  1
  Dy  Dy6  1  0.685672  0.991711  0.306040  1
  Dy  Dy7  1  0.314328  0.008289  0.693960  1
  Dy  Dy8  1  0.594900  0.789123  0.805776  1
  Dy  Dy9  1  0.405100  0.210877  0.194224  1
  Dy  Dy10  1  0.983348  0.789123  0.194223  1
  Dy  Dy11  1  0.016652  0.210877  0.805777  1
  Tl  Tl12  1  0.500000  0.500000  0.000000  1
  Co  Co13  1  0.619520  0.000000  0.619520  1
  Co  Co14  1  0.380480  0.000000  0.380480  1
  Co  Co15  1  0.111987  0.611986  0.500000  1
  Co  Co16  1  0.888013  0.388014  0.500000  1
  Rh  Rh17  1  0.000000  0.000000  0.000000  1
