# generated using pymatgen
data_Tm3Lu(PaTc3)2
_symmetry_space_group_name_H-M   'P 1'
_cell_length_a   5.75327500
_cell_length_b   5.75327399
_cell_length_c   8.28316800
_cell_angle_alpha   90.00000000
_cell_angle_beta   90.00000000
_cell_angle_gamma   119.99998858
_symmetry_Int_Tables_number   1
_chemical_formula_structural   Tm3Lu(PaTc3)2
_chemical_formula_sum   'Tm3 Lu1 Pa2 Tc6'
_cell_volume   237.44189057
_cell_formula_units_Z   1
loop_
 _symmetry_equiv_pos_site_id
 _symmetry_equiv_pos_as_xyz
  1  'x, y, z'
loop_
 _atom_site_type_symbol
 _atom_site_label
 _atom_site_symmetry_multiplicity
 _atom_site_fract_x
 _atom_site_fract_y
 _atom_site_fract_z
 _atom_site_occupancy
  Tm  Tm0  1  0.333333  0.666667  0.438126  1
  Tm  Tm1  1  0.666667  0.333333  0.561852  1
  Tm  Tm2  1  0.666667  0.333333  0.938242  1
  Lu  Lu3  1  0.333333  0.666667  0.061578  1
  Pa  Pa4  1  0.000000  0.000000  0.499971  1
  Pa  Pa5  1  0.000000  0.000000  0.999930  1
  Tc  Tc6  1  0.829855  0.170145  0.249914  1
  Tc  Tc7  1  0.829855  0.659709  0.249914  1
  Tc  Tc8  1  0.340291  0.170145  0.249914  1
  Tc  Tc9  1  0.170250  0.829750  0.750187  1
  Tc  Tc10  1  0.170250  0.340499  0.750187  1
  Tc  Tc11  1  0.659501  0.829750  0.750187  1
