# generated using pymatgen
data_Sc8V8ReSi16Mo3
_symmetry_space_group_name_H-M   'P 1'
_cell_length_a   6.65713956
_cell_length_b   6.65713956
_cell_length_c   12.34304153
_cell_angle_alpha   89.94815945
_cell_angle_beta   90.05184055
_cell_angle_gamma   89.94109049
_symmetry_Int_Tables_number   1
_chemical_formula_structural   Sc8V8ReSi16Mo3
_chemical_formula_sum   'Sc8 V8 Re1 Si16 Mo3'
_cell_volume   547.01209366
_cell_formula_units_Z   1
loop_
 _symmetry_equiv_pos_site_id
 _symmetry_equiv_pos_as_xyz
  1  'x, y, z'
loop_
 _atom_site_type_symbol
 _atom_site_label
 _atom_site_symmetry_multiplicity
 _atom_site_fract_x
 _atom_site_fract_y
 _atom_site_fract_z
 _atom_site_occupancy
  Sc  Sc0  1  0.002666  0.664317  0.029570  1
  Sc  Sc1  1  0.835273  0.503022  0.279868  1
  Sc  Sc2  1  0.164849  0.497734  0.779021  1
  Sc  Sc3  1  0.503022  0.835273  0.720132  1
  Sc  Sc4  1  0.497734  0.164849  0.220979  1
  Sc  Sc5  1  0.997670  0.335619  0.529330  1
  Sc  Sc6  1  0.664317  0.002666  0.970430  1
  Sc  Sc7  1  0.335619  0.997670  0.470670  1
  V  V8  1  0.004401  0.157970  0.126487  1
  V  V9  1  0.338808  0.504400  0.376600  1
  V  V10  1  0.657574  0.495933  0.875898  1
  V  V11  1  0.504400  0.338808  0.623400  1
  V  V12  1  0.495933  0.657574  0.124102  1
  V  V13  1  0.997985  0.842150  0.627015  1
  V  V14  1  0.157970  0.004401  0.873513  1
  V  V15  1  0.842150  0.997985  0.372985  1
  Re  Re16  1  0.666160  0.666160  0.500000  1
  Si  Si17  1  0.294992  0.960764  0.064503  1
  Si  Si18  1  0.539989  0.794507  0.315342  1
  Si  Si19  1  0.461050  0.204672  0.814183  1
  Si  Si20  1  0.794507  0.539989  0.684658  1
  Si  Si21  1  0.204672  0.461050  0.185817  1
  Si  Si22  1  0.706237  0.036427  0.562935  1
  Si  Si23  1  0.960764  0.294992  0.935497  1
  Si  Si24  1  0.036427  0.706237  0.437065  1
  Si  Si25  1  0.707126  0.372690  0.071253  1
  Si  Si26  1  0.127222  0.207382  0.321088  1
  Si  Si27  1  0.872583  0.793409  0.821184  1
  Si  Si28  1  0.207382  0.127222  0.678912  1
  Si  Si29  1  0.793409  0.872583  0.178816  1
  Si  Si30  1  0.295523  0.626174  0.570973  1
  Si  Si31  1  0.372690  0.707126  0.928747  1
  Si  Si32  1  0.626174  0.295523  0.429027  1
  Mo  Mo33  1  0.333868  0.333868  0.000000  1
  Mo  Mo34  1  0.166076  0.832776  0.251138  1
  Mo  Mo35  1  0.832776  0.166076  0.748862  1
