# generated using pymatgen
data_PrThMgZn4Sn
_symmetry_space_group_name_H-M   'P 1'
_cell_length_a   8.82759402
_cell_length_b   8.82759374
_cell_length_c   9.23349900
_cell_angle_alpha   90.00000000
_cell_angle_beta   90.00000000
_cell_angle_gamma   150.43596873
_symmetry_Int_Tables_number   1
_chemical_formula_structural   PrThMgZn4Sn
_chemical_formula_sum   'Pr2 Th2 Mg2 Zn8 Sn2'
_cell_volume   355.01487792
_cell_formula_units_Z   2
loop_
 _symmetry_equiv_pos_site_id
 _symmetry_equiv_pos_as_xyz
  1  'x, y, z'
loop_
 _atom_site_type_symbol
 _atom_site_label
 _atom_site_symmetry_multiplicity
 _atom_site_fract_x
 _atom_site_fract_y
 _atom_site_fract_z
 _atom_site_occupancy
  Pr  Pr0  1  0.000000  0.000000  0.500000  1
  Pr  Pr1  1  0.000000  0.000000  0.000000  1
  Th  Th2  1  0.204633  0.795367  0.250000  1
  Th  Th3  1  0.795367  0.204633  0.750000  1
  Mg  Mg4  1  0.397326  0.602674  0.250000  1
  Mg  Mg5  1  0.602674  0.397326  0.750000  1
  Zn  Zn6  1  0.813929  0.186071  0.392025  1
  Zn  Zn7  1  0.186071  0.813929  0.607975  1
  Zn  Zn8  1  0.813929  0.186071  0.107975  1
  Zn  Zn9  1  0.186071  0.813929  0.892025  1
  Zn  Zn10  1  0.662321  0.337679  0.478304  1
  Zn  Zn11  1  0.337679  0.662321  0.521696  1
  Zn  Zn12  1  0.662321  0.337679  0.021696  1
  Zn  Zn13  1  0.337679  0.662321  0.978304  1
  Sn  Sn14  1  0.560712  0.439288  0.250000  1
  Sn  Sn15  1  0.439288  0.560712  0.750000  1
