# generated using pymatgen
data_HoPu8Sc(SiB4)4
_symmetry_space_group_name_H-M   'P 1'
_cell_length_a   7.19406600
_cell_length_b   7.19406600
_cell_length_c   8.04204300
_cell_angle_alpha   90.00000000
_cell_angle_beta   90.00000000
_cell_angle_gamma   90.00000000
_symmetry_Int_Tables_number   1
_chemical_formula_structural   HoPu8Sc(SiB4)4
_chemical_formula_sum   'Ho1 Pu8 Sc1 Si4 B16'
_cell_volume   416.21260294
_cell_formula_units_Z   1
loop_
 _symmetry_equiv_pos_site_id
 _symmetry_equiv_pos_as_xyz
  1  'x, y, z'
loop_
 _atom_site_type_symbol
 _atom_site_label
 _atom_site_symmetry_multiplicity
 _atom_site_fract_x
 _atom_site_fract_y
 _atom_site_fract_z
 _atom_site_occupancy
  Ho  Ho0  1  0.500000  0.500000  0.500000  1
  Pu  Pu1  1  0.682809  0.181718  0.229734  1
  Pu  Pu2  1  0.317191  0.818282  0.770266  1
  Pu  Pu3  1  0.317191  0.818282  0.229734  1
  Pu  Pu4  1  0.818282  0.682809  0.229734  1
  Pu  Pu5  1  0.818282  0.682809  0.770266  1
  Pu  Pu6  1  0.682809  0.181718  0.770266  1
  Pu  Pu7  1  0.181718  0.317191  0.770266  1
  Pu  Pu8  1  0.181718  0.317191  0.229734  1
  Sc  Sc9  1  0.000000  0.000000  0.500000  1
  Si  Si10  1  0.110089  0.622392  0.500000  1
  Si  Si11  1  0.889911  0.377608  0.500000  1
  Si  Si12  1  0.377608  0.110089  0.500000  1
  Si  Si13  1  0.622392  0.889911  0.500000  1
  B  B14  1  0.173231  0.040419  0.000000  1
  B  B15  1  0.826769  0.959581  0.000000  1
  B  B16  1  0.959581  0.173231  0.000000  1
  B  B17  1  0.326512  0.540467  0.000000  1
  B  B18  1  0.040419  0.826769  0.000000  1
  B  B19  1  0.673488  0.459533  0.000000  1
  B  B20  1  0.540467  0.673488  0.000000  1
  B  B21  1  0.459533  0.326512  0.000000  1
  B  B22  1  0.089999  0.590004  0.000000  1
  B  B23  1  0.910001  0.409996  0.000000  1
  B  B24  1  0.409996  0.089999  0.000000  1
  B  B25  1  0.590004  0.910001  0.000000  1
  B  B26  1  0.000000  0.000000  0.163913  1
  B  B27  1  0.000000  0.000000  0.836087  1
  B  B28  1  0.500000  0.500000  0.838305  1
  B  B29  1  0.500000  0.500000  0.161695  1
