# generated using pymatgen
data_Dy5Nb2Si7P5Ir17
_symmetry_space_group_name_H-M   'P 1'
_cell_length_a   12.80937111
_cell_length_b   12.89188169
_cell_length_c   3.95316000
_cell_angle_alpha   90.00000000
_cell_angle_beta   90.00000000
_cell_angle_gamma   119.69664059
_symmetry_Int_Tables_number   1
_chemical_formula_structural   Dy5Nb2Si7P5Ir17
_chemical_formula_sum   'Dy5 Nb2 Si7 P5 Ir17'
_cell_volume   567.07253959
_cell_formula_units_Z   1
loop_
 _symmetry_equiv_pos_site_id
 _symmetry_equiv_pos_as_xyz
  1  'x, y, z'
loop_
 _atom_site_type_symbol
 _atom_site_label
 _atom_site_symmetry_multiplicity
 _atom_site_fract_x
 _atom_site_fract_y
 _atom_site_fract_z
 _atom_site_occupancy
  Dy  Dy0  1  0.331254  0.662399  0.500000  1
  Dy  Dy1  1  0.668731  0.337031  0.500000  1
  Dy  Dy2  1  0.000390  0.813935  0.000000  1
  Dy  Dy3  1  0.186069  0.187115  0.000000  1
  Dy  Dy4  1  0.813274  0.998910  0.000000  1
  Nb  Nb5  1  0.995468  0.438155  0.500000  1
  Nb  Nb6  1  0.560991  0.559965  0.500000  1
  Si  Si7  1  0.004872  0.641567  0.500000  1
  Si  Si8  1  0.362740  0.361640  0.500000  1
  Si  Si9  1  0.632498  0.998595  0.500000  1
  Si  Si10  1  0.516415  0.687324  0.000000  1
  Si  Si11  1  0.312187  0.830218  0.000000  1
  Si  Si12  1  0.166486  0.478758  0.000000  1
  Si  Si13  1  0.481739  0.168319  0.000000  1
  P  P14  1  0.686510  0.520219  0.000000  1
  P  P15  1  0.829426  0.313362  0.000000  1
  P  P16  1  0.999167  0.176027  0.500000  1
  P  P17  1  0.823840  0.824239  0.500000  1
  P  P18  1  0.181417  0.000974  0.500000  1
  Ir  Ir19  1  0.513833  0.875981  0.000000  1
  Ir  Ir20  1  0.124045  0.639751  0.000000  1
  Ir  Ir21  1  0.358081  0.484584  0.000000  1
  Ir  Ir22  1  0.490742  0.360046  0.000000  1
  Ir  Ir23  1  0.864929  0.509032  0.000000  1
  Ir  Ir24  1  0.642326  0.129817  0.000000  1
  Ir  Ir25  1  0.449762  0.003731  0.500000  1
  Ir  Ir26  1  0.994049  0.274293  0.000000  1
  Ir  Ir27  1  0.723708  0.723408  0.000000  1
  Ir  Ir28  1  0.281484  0.000947  0.000000  1
  Ir  Ir29  1  0.626790  0.806636  0.500000  1
  Ir  Ir30  1  0.198543  0.824225  0.500000  1
  Ir  Ir31  1  0.175511  0.368693  0.500000  1
  Ir  Ir32  1  0.373273  0.178620  0.500000  1
  Ir  Ir33  1  0.809708  0.630368  0.500000  1
  Ir  Ir34  1  0.817280  0.190776  0.500000  1
  Ir  Ir35  1  0.002461  0.000340  0.500000  1
