# generated using pymatgen
data_Y5Ho9(ErBi2)6
_symmetry_space_group_name_H-M   'P 1'
_cell_length_a   8.23074711
_cell_length_b   9.47995811
_cell_length_c   12.01573708
_cell_angle_alpha   90.00742368
_cell_angle_beta   89.98893884
_cell_angle_gamma   90.01551459
_symmetry_Int_Tables_number   1
_chemical_formula_structural   Y5Ho9(ErBi2)6
_chemical_formula_sum   'Y5 Ho9 Er6 Bi12'
_cell_volume   937.55351366
_cell_formula_units_Z   1
loop_
 _symmetry_equiv_pos_site_id
 _symmetry_equiv_pos_as_xyz
  1  'x, y, z'
loop_
 _atom_site_type_symbol
 _atom_site_label
 _atom_site_symmetry_multiplicity
 _atom_site_fract_x
 _atom_site_fract_y
 _atom_site_fract_z
 _atom_site_occupancy
  Y  Y0  1  0.353300  0.749883  0.216182  1
  Y  Y1  1  0.853653  0.749764  0.284073  1
  Y  Y2  1  0.646661  0.249945  0.783903  1
  Y  Y3  1  0.146644  0.250043  0.716111  1
  Y  Y4  1  0.691863  0.936138  0.058740  1
  Ho  Ho5  1  0.191924  0.564398  0.441276  1
  Ho  Ho6  1  0.476623  0.249951  0.488547  1
  Ho  Ho7  1  0.976731  0.250142  0.011428  1
  Ho  Ho8  1  0.523563  0.750061  0.511500  1
  Ho  Ho9  1  0.023923  0.749664  0.988461  1
  Ho  Ho10  1  0.314241  0.250020  0.217929  1
  Ho  Ho11  1  0.814217  0.250035  0.282094  1
  Ho  Ho12  1  0.685772  0.749831  0.781902  1
  Ho  Ho13  1  0.185820  0.750059  0.717963  1
  Er  Er14  1  0.691822  0.564343  0.058807  1
  Er  Er15  1  0.191829  0.935376  0.441200  1
  Er  Er16  1  0.307979  0.064820  0.941176  1
  Er  Er17  1  0.808162  0.435288  0.558742  1
  Er  Er18  1  0.308017  0.435304  0.941193  1
  Er  Er19  1  0.808078  0.064732  0.558787  1
  Bi  Bi20  1  0.405538  0.749725  0.957095  1
  Bi  Bi21  1  0.905631  0.750161  0.542848  1
  Bi  Bi22  1  0.593918  0.250817  0.042659  1
  Bi  Bi23  1  0.094077  0.249581  0.457309  1
  Bi  Bi24  1  0.565977  0.996482  0.325941  1
  Bi  Bi25  1  0.066066  0.503506  0.174171  1
  Bi  Bi26  1  0.433860  0.496449  0.674240  1
  Bi  Bi27  1  0.933917  0.003522  0.825686  1
  Bi  Bi28  1  0.433853  0.003558  0.674161  1
  Bi  Bi29  1  0.933884  0.496463  0.825819  1
  Bi  Bi30  1  0.566156  0.503510  0.325789  1
  Bi  Bi31  1  0.066300  0.996428  0.174269  1
