# generated using pymatgen
data_La3Yb7Sn8
_symmetry_space_group_name_H-M   'P 1'
_cell_length_a   8.02208700
_cell_length_b   8.51477934
_cell_length_c   16.29278393
_cell_angle_alpha   89.86426577
_cell_angle_beta   90.00000000
_cell_angle_gamma   90.00000000
_symmetry_Int_Tables_number   1
_chemical_formula_structural   La3Yb7Sn8
_chemical_formula_sum   'La6 Yb14 Sn16'
_cell_volume   1112.89667448
_cell_formula_units_Z   2
loop_
 _symmetry_equiv_pos_site_id
 _symmetry_equiv_pos_as_xyz
  1  'x, y, z'
loop_
 _atom_site_type_symbol
 _atom_site_label
 _atom_site_symmetry_multiplicity
 _atom_site_fract_x
 _atom_site_fract_y
 _atom_site_fract_z
 _atom_site_occupancy
  La  La0  1  0.501939  0.681813  0.403420  1
  La  La1  1  0.001939  0.818187  0.096580  1
  La  La2  1  0.500552  0.680579  0.095633  1
  La  La3  1  0.000552  0.819421  0.404367  1
  La  La4  1  0.498878  0.315760  0.597215  1
  La  La5  1  0.998878  0.184240  0.902785  1
  Yb  Yb6  1  0.341502  0.826882  0.874402  1
  Yb  Yb7  1  0.841502  0.673118  0.625598  1
  Yb  Yb8  1  0.660344  0.173071  0.375665  1
  Yb  Yb9  1  0.160344  0.326929  0.124335  1
  Yb  Yb10  1  0.658877  0.174570  0.122772  1
  Yb  Yb11  1  0.158877  0.325430  0.377228  1
  Yb  Yb12  1  0.338199  0.828322  0.626842  1
  Yb  Yb13  1  0.838199  0.671678  0.873158  1
  Yb  Yb14  1  0.502094  0.314765  0.901514  1
  Yb  Yb15  1  0.002094  0.185235  0.598486  1
  Yb  Yb16  1  0.169868  0.499174  0.750668  1
  Yb  Yb17  1  0.669868  0.000826  0.749332  1
  Yb  Yb18  1  0.831613  0.496372  0.250201  1
  Yb  Yb19  1  0.331613  0.003628  0.249799  1
  Sn  Sn20  1  0.327725  0.031637  0.036751  1
  Sn  Sn21  1  0.827725  0.468363  0.463249  1
  Sn  Sn22  1  0.669470  0.966084  0.536933  1
  Sn  Sn23  1  0.169470  0.533916  0.963067  1
  Sn  Sn24  1  0.670659  0.964366  0.963490  1
  Sn  Sn25  1  0.170659  0.535634  0.536510  1
  Sn  Sn26  1  0.329194  0.031954  0.464022  1
  Sn  Sn27  1  0.829194  0.468046  0.035978  1
  Sn  Sn28  1  0.541994  0.606743  0.748767  1
  Sn  Sn29  1  0.041994  0.893257  0.751233  1
  Sn  Sn30  1  0.457337  0.393318  0.250113  1
  Sn  Sn31  1  0.957337  0.106682  0.249887  1
  Sn  Sn32  1  0.294985  0.138176  0.751665  1
  Sn  Sn33  1  0.794985  0.361824  0.748335  1
  Sn  Sn34  1  0.704775  0.861099  0.249153  1
  Sn  Sn35  1  0.204775  0.638901  0.250847  1
