# generated using pymatgen
data_Er16AlCd3Pd4
_symmetry_space_group_name_H-M   'P 1'
_cell_length_a   9.59010910
_cell_length_b   9.59010884
_cell_length_c   9.59010838
_cell_angle_alpha   59.90091654
_cell_angle_beta   59.90091959
_cell_angle_gamma   59.90091636
_symmetry_Int_Tables_number   1
_chemical_formula_structural   Er16AlCd3Pd4
_chemical_formula_sum   'Er16 Al1 Cd3 Pd4'
_cell_volume   622.26915770
_cell_formula_units_Z   1
loop_
 _symmetry_equiv_pos_site_id
 _symmetry_equiv_pos_as_xyz
  1  'x, y, z'
loop_
 _atom_site_type_symbol
 _atom_site_label
 _atom_site_symmetry_multiplicity
 _atom_site_fract_x
 _atom_site_fract_y
 _atom_site_fract_z
 _atom_site_occupancy
  Er  Er0  1  0.352410  0.352410  0.352410  1
  Er  Er1  1  0.357629  0.357629  0.933933  1
  Er  Er2  1  0.357629  0.933933  0.357629  1
  Er  Er3  1  0.933933  0.357629  0.357629  1
  Er  Er4  1  0.810213  0.189670  0.189670  1
  Er  Er5  1  0.192338  0.808505  0.808505  1
  Er  Er6  1  0.189670  0.810213  0.189670  1
  Er  Er7  1  0.808505  0.192338  0.808505  1
  Er  Er8  1  0.189670  0.189670  0.810213  1
  Er  Er9  1  0.808505  0.808505  0.192338  1
  Er  Er10  1  0.931551  0.567027  0.567027  1
  Er  Er11  1  0.564509  0.934971  0.934971  1
  Er  Er12  1  0.567027  0.931551  0.567027  1
  Er  Er13  1  0.934971  0.564509  0.934971  1
  Er  Er14  1  0.567027  0.567027  0.931551  1
  Er  Er15  1  0.934971  0.934971  0.564509  1
  Al  Al16  1  0.581883  0.581883  0.581883  1
  Cd  Cd17  1  0.581908  0.581908  0.254284  1
  Cd  Cd18  1  0.581908  0.254284  0.581908  1
  Cd  Cd19  1  0.254284  0.581908  0.581908  1
  Pd  Pd20  1  0.145412  0.145412  0.145412  1
  Pd  Pd21  1  0.143571  0.143571  0.566903  1
  Pd  Pd22  1  0.143571  0.566903  0.143571  1
  Pd  Pd23  1  0.566903  0.143571  0.143571  1
