# generated using pymatgen
data_HoCo3P3Pd2
_symmetry_space_group_name_H-M   'P 1'
_cell_length_a   3.75471500
_cell_length_b   10.47096400
_cell_length_c   12.40702100
_cell_angle_alpha   90.00000000
_cell_angle_beta   90.00000000
_cell_angle_gamma   90.00000000
_symmetry_Int_Tables_number   1
_chemical_formula_structural   HoCo3P3Pd2
_chemical_formula_sum   'Ho4 Co12 P12 Pd8'
_cell_volume   487.78805541
_cell_formula_units_Z   4
loop_
 _symmetry_equiv_pos_site_id
 _symmetry_equiv_pos_as_xyz
  1  'x, y, z'
loop_
 _atom_site_type_symbol
 _atom_site_label
 _atom_site_symmetry_multiplicity
 _atom_site_fract_x
 _atom_site_fract_y
 _atom_site_fract_z
 _atom_site_occupancy
  Ho  Ho0  1  0.250000  0.582788  0.713125  1
  Ho  Ho1  1  0.250000  0.917212  0.213125  1
  Ho  Ho2  1  0.750000  0.417212  0.286875  1
  Ho  Ho3  1  0.750000  0.082788  0.786875  1
  Co  Co4  1  0.250000  0.221841  0.178112  1
  Co  Co5  1  0.250000  0.278159  0.678112  1
  Co  Co6  1  0.750000  0.778159  0.821888  1
  Co  Co7  1  0.750000  0.721841  0.321888  1
  Co  Co8  1  0.250000  0.881162  0.695376  1
  Co  Co9  1  0.250000  0.618838  0.195376  1
  Co  Co10  1  0.750000  0.118838  0.304624  1
  Co  Co11  1  0.750000  0.381162  0.804624  1
  Co  Co12  1  0.250000  0.462642  0.933225  1
  Co  Co13  1  0.250000  0.037358  0.433225  1
  Co  Co14  1  0.750000  0.537358  0.066775  1
  Co  Co15  1  0.750000  0.962642  0.566775  1
  P  P16  1  0.250000  0.424699  0.112331  1
  P  P17  1  0.250000  0.075301  0.612331  1
  P  P18  1  0.750000  0.575301  0.887669  1
  P  P19  1  0.750000  0.924699  0.387669  1
  P  P20  1  0.250000  0.276904  0.854798  1
  P  P21  1  0.250000  0.223096  0.354798  1
  P  P22  1  0.750000  0.723096  0.145202  1
  P  P23  1  0.750000  0.776904  0.645202  1
  P  P24  1  0.250000  0.606585  0.371892  1
  P  P25  1  0.250000  0.893415  0.871892  1
  P  P26  1  0.750000  0.393415  0.628108  1
  P  P27  1  0.750000  0.106585  0.128108  1
  Pd  Pd28  1  0.250000  0.710146  0.984704  1
  Pd  Pd29  1  0.250000  0.789854  0.484704  1
  Pd  Pd30  1  0.750000  0.289854  0.015296  1
  Pd  Pd31  1  0.750000  0.210146  0.515296  1
  Pd  Pd32  1  0.250000  0.406452  0.474018  1
  Pd  Pd33  1  0.250000  0.093548  0.974018  1
  Pd  Pd34  1  0.750000  0.593548  0.525982  1
  Pd  Pd35  1  0.750000  0.906452  0.025982  1
