# generated using pymatgen
data_Pr2BiI2
_symmetry_space_group_name_H-M   'P 1'
_cell_length_a   11.85304574
_cell_length_b   11.85304590
_cell_length_c   11.85304539
_cell_angle_alpha   22.26344446
_cell_angle_beta   22.26344354
_cell_angle_gamma   22.26344423
_symmetry_Int_Tables_number   1
_chemical_formula_structural   Pr2BiI2
_chemical_formula_sum   'Pr2 Bi1 I2'
_cell_volume   209.61350514
_cell_formula_units_Z   1
loop_
 _symmetry_equiv_pos_site_id
 _symmetry_equiv_pos_as_xyz
  1  'x, y, z'
loop_
 _atom_site_type_symbol
 _atom_site_label
 _atom_site_symmetry_multiplicity
 _atom_site_fract_x
 _atom_site_fract_y
 _atom_site_fract_z
 _atom_site_occupancy
  Pr  Pr0  1  0.385795  0.385795  0.385795  1
  Pr  Pr1  1  0.614205  0.614205  0.614205  1
  Bi  Bi2  1  0.000000  0.000000  0.000000  1
  I  I3  1  0.223960  0.223960  0.223960  1
  I  I4  1  0.776041  0.776041  0.776041  1
