# generated using pymatgen
data_Dy16Cd4NiRuPt2
_symmetry_space_group_name_H-M   'P 1'
_cell_length_a   9.59791688
_cell_length_b   9.66730402
_cell_length_c   9.63026600
_cell_angle_alpha   60.12665657
_cell_angle_beta   59.88844426
_cell_angle_gamma   60.01748606
_symmetry_Int_Tables_number   1
_chemical_formula_structural   Dy16Cd4NiRuPt2
_chemical_formula_sum   'Dy16 Cd4 Ni1 Ru1 Pt2'
_cell_volume   631.98798489
_cell_formula_units_Z   1
loop_
 _symmetry_equiv_pos_site_id
 _symmetry_equiv_pos_as_xyz
  1  'x, y, z'
loop_
 _atom_site_type_symbol
 _atom_site_label
 _atom_site_symmetry_multiplicity
 _atom_site_fract_x
 _atom_site_fract_y
 _atom_site_fract_z
 _atom_site_occupancy
  Dy  Dy0  1  0.602749  0.600101  0.592896  1
  Dy  Dy1  1  0.602749  0.600101  0.204254  1
  Dy  Dy2  1  0.610229  0.193587  0.598092  1
  Dy  Dy3  1  0.197645  0.605434  0.598460  1
  Dy  Dy4  1  0.055054  0.439690  0.440574  1
  Dy  Dy5  1  0.437549  0.056473  0.064716  1
  Dy  Dy6  1  0.437549  0.056473  0.441262  1
  Dy  Dy7  1  0.055054  0.439690  0.064683  1
  Dy  Dy8  1  0.439144  0.443144  0.058856  1
  Dy  Dy9  1  0.061612  0.061342  0.438523  1
  Dy  Dy10  1  0.187682  0.815020  0.810621  1
  Dy  Dy11  1  0.813001  0.186562  0.184517  1
  Dy  Dy12  1  0.813001  0.186562  0.815918  1
  Dy  Dy13  1  0.187682  0.815020  0.186677  1
  Dy  Dy14  1  0.811599  0.818101  0.185150  1
  Dy  Dy15  1  0.187812  0.186903  0.812642  1
  Cd  Cd16  1  0.830008  0.831516  0.832284  1
  Cd  Cd17  1  0.830008  0.831516  0.506191  1
  Cd  Cd18  1  0.829496  0.506991  0.831756  1
  Cd  Cd19  1  0.505286  0.830761  0.831976  1
  Ni  Ni20  1  0.824171  0.390751  0.392538  1
  Ru  Ru21  1  0.392005  0.824000  0.391997  1
  Pt  Pt22  1  0.394456  0.390129  0.394693  1
  Pt  Pt23  1  0.394456  0.390129  0.820721  1
