# generated using pymatgen
data_B3O2F5
_symmetry_space_group_name_H-M   'P 1'
_cell_length_a   4.79031600
_cell_length_b   5.49010308
_cell_length_c   6.28747104
_cell_angle_alpha   87.47611276
_cell_angle_beta   93.13572767
_cell_angle_gamma   65.96084040
_symmetry_Int_Tables_number   1
_chemical_formula_structural   B3O2F5
_chemical_formula_sum   'B3 O2 F5'
_cell_volume   150.38906084
_cell_formula_units_Z   1
loop_
 _symmetry_equiv_pos_site_id
 _symmetry_equiv_pos_as_xyz
  1  'x, y, z'
loop_
 _atom_site_type_symbol
 _atom_site_label
 _atom_site_symmetry_multiplicity
 _atom_site_fract_x
 _atom_site_fract_y
 _atom_site_fract_z
 _atom_site_occupancy
  B  B0  1  0.575550  0.038357  0.739079  1
  B  B1  1  0.702557  0.684444  0.470318  1
  B  B2  1  0.282704  0.759931  0.188641  1
  O  O3  1  0.543723  0.854577  0.615277  1
  O  O4  1  0.568846  0.635656  0.289714  1
  F  F5  1  0.469720  0.066748  0.932769  1
  F  F6  1  0.008969  0.549893  0.505778  1
  F  F7  1  0.702638  0.201276  0.671590  1
  F  F8  1  0.210768  0.654175  0.018005  1
  F  F9  1  0.066449  0.983166  0.252068  1
