# generated using pymatgen
data_Na10TaGaAsP5
_symmetry_space_group_name_H-M   'P 1'
_cell_length_a   7.40513800
_cell_length_b   8.19419682
_cell_length_c   15.56709208
_cell_angle_alpha   59.17367406
_cell_angle_beta   90.00000000
_cell_angle_gamma   90.00000000
_symmetry_Int_Tables_number   1
_chemical_formula_structural   Na10TaGaAsP5
_chemical_formula_sum   'Na20 Ta2 Ga2 As2 P10'
_cell_volume   811.14951678
_cell_formula_units_Z   2
loop_
 _symmetry_equiv_pos_site_id
 _symmetry_equiv_pos_as_xyz
  1  'x, y, z'
loop_
 _atom_site_type_symbol
 _atom_site_label
 _atom_site_symmetry_multiplicity
 _atom_site_fract_x
 _atom_site_fract_y
 _atom_site_fract_z
 _atom_site_occupancy
  Na  Na0  1  0.738146  0.941354  0.246330  1
  Na  Na1  1  0.261854  0.941354  0.746330  1
  Na  Na2  1  0.770294  0.052901  0.760693  1
  Na  Na3  1  0.229706  0.052901  0.260693  1
  Na  Na4  1  0.268041  0.244026  0.420329  1
  Na  Na5  1  0.731959  0.244026  0.920329  1
  Na  Na6  1  0.217611  0.752971  0.579223  1
  Na  Na7  1  0.782389  0.752971  0.079223  1
  Na  Na8  1  0.089218  0.345275  0.580483  1
  Na  Na9  1  0.910782  0.345275  0.080483  1
  Na  Na10  1  0.405811  0.656122  0.418749  1
  Na  Na11  1  0.594189  0.656122  0.918749  1
  Na  Na12  1  0.591821  0.335262  0.243087  1
  Na  Na13  1  0.408179  0.335262  0.743087  1
  Na  Na14  1  0.906412  0.669126  0.759986  1
  Na  Na15  1  0.093588  0.669126  0.259986  1
  Na  Na16  1  0.770070  0.423336  0.408597  1
  Na  Na17  1  0.229930  0.423336  0.908597  1
  Na  Na18  1  0.739889  0.579978  0.588359  1
  Na  Na19  1  0.260111  0.579978  0.088359  1
  Ta  Ta20  1  0.615637  0.989547  0.578258  1
  Ta  Ta21  1  0.384363  0.989547  0.078258  1
  Ga  Ga22  1  0.888264  0.005425  0.418681  1
  Ga  Ga23  1  0.111736  0.005425  0.918681  1
  As  As24  1  0.982420  0.320289  0.270733  1
  As  As25  1  0.017580  0.320289  0.770733  1
  P  P26  1  0.520715  0.697774  0.723137  1
  P  P27  1  0.479285  0.697774  0.223137  1
  P  P28  1  0.941270  0.018758  0.573074  1
  P  P29  1  0.058730  0.018758  0.073074  1
  P  P30  1  0.544883  0.978933  0.429871  1
  P  P31  1  0.455117  0.978933  0.929871  1
  P  P32  1  0.003092  0.726390  0.422054  1
  P  P33  1  0.996908  0.726390  0.922054  1
  P  P34  1  0.491893  0.262531  0.578354  1
  P  P35  1  0.508107  0.262531  0.078354  1
