# generated using pymatgen
data_Y10Tm6CdIn3Ni4
_symmetry_space_group_name_H-M   'P 1'
_cell_length_a   9.59135684
_cell_length_b   9.56175037
_cell_length_c   9.56165464
_cell_angle_alpha   59.82139641
_cell_angle_beta   60.04313761
_cell_angle_gamma   60.02211293
_symmetry_Int_Tables_number   1
_chemical_formula_structural   Y10Tm6CdIn3Ni4
_chemical_formula_sum   'Y10 Tm6 Cd1 In3 Ni4'
_cell_volume   619.52558893
_cell_formula_units_Z   1
loop_
 _symmetry_equiv_pos_site_id
 _symmetry_equiv_pos_as_xyz
  1  'x, y, z'
loop_
 _atom_site_type_symbol
 _atom_site_label
 _atom_site_symmetry_multiplicity
 _atom_site_fract_x
 _atom_site_fract_y
 _atom_site_fract_z
 _atom_site_occupancy
  Y  Y0  1  0.438746  0.063039  0.437264  1
  Y  Y1  1  0.062211  0.440154  0.060710  1
  Y  Y2  1  0.438697  0.437325  0.063085  1
  Y  Y3  1  0.062098  0.060767  0.440158  1
  Y  Y4  1  0.189489  0.813192  0.813114  1
  Y  Y5  1  0.813758  0.188209  0.188189  1
  Y  Y6  1  0.813404  0.187286  0.812368  1
  Y  Y7  1  0.190750  0.811133  0.188041  1
  Y  Y8  1  0.813517  0.812344  0.187175  1
  Y  Y9  1  0.190729  0.188164  0.811003  1
  Tm  Tm10  1  0.594514  0.595181  0.595210  1
  Tm  Tm11  1  0.598121  0.596905  0.207630  1
  Tm  Tm12  1  0.598139  0.207606  0.596931  1
  Tm  Tm13  1  0.205088  0.598079  0.598084  1
  Tm  Tm14  1  0.059713  0.440012  0.440098  1
  Tm  Tm15  1  0.439855  0.061584  0.061443  1
  Cd  Cd16  1  0.505315  0.830890  0.830758  1
  In  In17  1  0.831660  0.832848  0.832868  1
  In  In18  1  0.829281  0.831947  0.504610  1
  In  In19  1  0.829108  0.504783  0.832028  1
  Ni  Ni20  1  0.389383  0.396109  0.396236  1
  Ni  Ni21  1  0.392813  0.388761  0.820305  1
  Ni  Ni22  1  0.392265  0.820477  0.389607  1
  Ni  Ni23  1  0.821345  0.393206  0.393089  1
