# generated using pymatgen
data_Nd8Ta11Si16Tc
_symmetry_space_group_name_H-M   'P 1'
_cell_length_a   6.96978264
_cell_length_b   7.18931650
_cell_length_c   13.52836900
_cell_angle_alpha   90.02024271
_cell_angle_beta   89.97544507
_cell_angle_gamma   89.99298748
_symmetry_Int_Tables_number   1
_chemical_formula_structural   Nd8Ta11Si16Tc
_chemical_formula_sum   'Nd8 Ta11 Si16 Tc1'
_cell_volume   677.87904373
_cell_formula_units_Z   1
loop_
 _symmetry_equiv_pos_site_id
 _symmetry_equiv_pos_as_xyz
  1  'x, y, z'
loop_
 _atom_site_type_symbol
 _atom_site_label
 _atom_site_symmetry_multiplicity
 _atom_site_fract_x
 _atom_site_fract_y
 _atom_site_fract_z
 _atom_site_occupancy
  Nd  Nd0  1  0.504659  0.331588  0.095753  1
  Nd  Nd1  1  0.003546  0.170167  0.403927  1
  Nd  Nd2  1  0.495473  0.669086  0.595697  1
  Nd  Nd3  1  0.997024  0.832551  0.904058  1
  Nd  Nd4  1  0.495368  0.668303  0.902773  1
  Nd  Nd5  1  0.996281  0.831651  0.595792  1
  Nd  Nd6  1  0.504145  0.331250  0.405673  1
  Nd  Nd7  1  0.004970  0.169978  0.096117  1
  Ta  Ta8  1  0.838777  0.326685  0.626155  1
  Ta  Ta9  1  0.337420  0.174837  0.871654  1
  Ta  Ta10  1  0.163280  0.675235  0.126958  1
  Ta  Ta11  1  0.660995  0.826953  0.374031  1
  Ta  Ta12  1  0.165345  0.674377  0.375519  1
  Ta  Ta13  1  0.662743  0.825478  0.126806  1
  Ta  Ta14  1  0.837229  0.324473  0.872355  1
  Ta  Ta15  1  0.663530  0.014665  0.749034  1
  Ta  Ta16  1  0.159046  0.485082  0.749596  1
  Ta  Ta17  1  0.339216  0.987998  0.250340  1
  Ta  Ta18  1  0.838918  0.512878  0.250946  1
  Si  Si19  1  0.653525  0.042302  0.545817  1
  Si  Si20  1  0.158422  0.459838  0.956375  1
  Si  Si21  1  0.340868  0.959896  0.043168  1
  Si  Si22  1  0.841699  0.541448  0.456879  1
  Si  Si23  1  0.339488  0.960354  0.457983  1
  Si  Si24  1  0.841050  0.540222  0.043072  1
  Si  Si25  1  0.657656  0.039183  0.956665  1
  Si  Si26  1  0.160401  0.453801  0.545772  1
  Si  Si27  1  0.536391  0.369153  0.746535  1
  Si  Si28  1  0.044017  0.128349  0.748175  1
  Si  Si29  1  0.459827  0.626654  0.250561  1
  Si  Si30  1  0.959913  0.872140  0.250796  1
  Si  Si31  1  0.797531  0.617206  0.749856  1
  Si  Si32  1  0.300401  0.886339  0.749151  1
  Si  Si33  1  0.203114  0.381924  0.250504  1
  Si  Si34  1  0.701607  0.118997  0.249967  1
  Tc  Tc35  1  0.336127  0.168960  0.625539  1
