# generated using pymatgen
data_Sr4Pr3(US4)5
_symmetry_space_group_name_H-M   'P 1'
_cell_length_a   7.54535776
_cell_length_b   8.17615191
_cell_length_c   11.83501200
_cell_angle_alpha   89.85710644
_cell_angle_beta   89.86888268
_cell_angle_gamma   90.21451410
_symmetry_Int_Tables_number   1
_chemical_formula_structural   Sr4Pr3(US4)5
_chemical_formula_sum   'Sr4 Pr3 U5 S20'
_cell_volume   730.11614101
_cell_formula_units_Z   1
loop_
 _symmetry_equiv_pos_site_id
 _symmetry_equiv_pos_as_xyz
  1  'x, y, z'
loop_
 _atom_site_type_symbol
 _atom_site_label
 _atom_site_symmetry_multiplicity
 _atom_site_fract_x
 _atom_site_fract_y
 _atom_site_fract_z
 _atom_site_occupancy
  Sr  Sr0  1  0.047408  0.495876  0.326759  1
  Sr  Sr1  1  0.548358  0.505376  0.169334  1
  Sr  Sr2  1  0.951570  0.505853  0.672396  1
  Sr  Sr3  1  0.448843  0.495279  0.829639  1
  Pr  Pr4  1  0.038777  0.001756  0.323695  1
  Pr  Pr5  1  0.541181  0.999754  0.176644  1
  Pr  Pr6  1  0.960343  0.998553  0.674140  1
  U  U7  1  0.464960  0.000528  0.824566  1
  U  U8  1  0.062580  0.751960  0.004816  1
  U  U9  1  0.564359  0.250028  0.494855  1
  U  U10  1  0.938404  0.246772  0.991866  1
  U  U11  1  0.432317  0.750392  0.508657  1
  S  S12  1  0.667117  0.959518  0.416104  1
  S  S13  1  0.166063  0.040473  0.087196  1
  S  S14  1  0.337282  0.040083  0.594890  1
  S  S15  1  0.826981  0.956205  0.910394  1
  S  S16  1  0.445874  0.776030  0.995705  1
  S  S17  1  0.942536  0.238125  0.497553  1
  S  S18  1  0.551127  0.225729  0.990168  1
  S  S19  1  0.057045  0.764297  0.503338  1
  S  S20  1  0.848064  0.760372  0.187398  1
  S  S21  1  0.350971  0.239321  0.312878  1
  S  S22  1  0.159861  0.228813  0.812919  1
  S  S23  1  0.642588  0.766951  0.694484  1
  S  S24  1  0.326119  0.757746  0.289257  1
  S  S25  1  0.822587  0.243973  0.207757  1
  S  S26  1  0.672741  0.235374  0.713367  1
  S  S27  1  0.181314  0.764843  0.789314  1
  S  S28  1  0.176859  0.462307  0.073443  1
  S  S29  1  0.670354  0.541224  0.424763  1
  S  S30  1  0.826788  0.537161  0.920472  1
  S  S31  1  0.328630  0.459326  0.581233  1
