# generated using pymatgen
data_Zr6Fe9Co6Si7Os
_symmetry_space_group_name_H-M   'P 1'
_cell_length_a   8.12159224
_cell_length_b   8.12159117
_cell_length_c   8.15104783
_cell_angle_alpha   60.08392892
_cell_angle_beta   60.08393429
_cell_angle_gamma   60.03024186
_symmetry_Int_Tables_number   1
_chemical_formula_structural   Zr6Fe9Co6Si7Os
_chemical_formula_sum   'Zr6 Fe9 Co6 Si7 Os1'
_cell_volume   380.74126999
_cell_formula_units_Z   1
loop_
 _symmetry_equiv_pos_site_id
 _symmetry_equiv_pos_as_xyz
  1  'x, y, z'
loop_
 _atom_site_type_symbol
 _atom_site_label
 _atom_site_symmetry_multiplicity
 _atom_site_fract_x
 _atom_site_fract_y
 _atom_site_fract_z
 _atom_site_occupancy
  Zr  Zr0  1  0.704445  0.704445  0.293379  1
  Zr  Zr1  1  0.297795  0.704435  0.293076  1
  Zr  Zr2  1  0.704435  0.297795  0.293076  1
  Zr  Zr3  1  0.292444  0.292444  0.709348  1
  Zr  Zr4  1  0.704948  0.293654  0.707759  1
  Zr  Zr5  1  0.293654  0.704948  0.707759  1
  Fe  Fe6  1  0.122472  0.122472  0.119392  1
  Fe  Fe7  1  0.676121  0.676121  0.971339  1
  Fe  Fe8  1  0.673974  0.971241  0.680929  1
  Fe  Fe9  1  0.971241  0.673974  0.680929  1
  Fe  Fe10  1  0.673781  0.673781  0.680965  1
  Fe  Fe11  1  0.323509  0.323509  0.030250  1
  Fe  Fe12  1  0.324304  0.029329  0.323245  1
  Fe  Fe13  1  0.029329  0.324304  0.323245  1
  Fe  Fe14  1  0.324214  0.324214  0.323034  1
  Co  Co15  1  0.879106  0.362019  0.879125  1
  Co  Co16  1  0.362019  0.879106  0.879125  1
  Co  Co17  1  0.879465  0.879465  0.879468  1
  Co  Co18  1  0.120835  0.120835  0.637436  1
  Co  Co19  1  0.122064  0.639000  0.116607  1
  Co  Co20  1  0.639000  0.122064  0.116607  1
  Si  Si21  1  0.004511  0.004511  0.987578  1
  Si  Si22  1  0.001172  0.001172  0.500353  1
  Si  Si23  1  0.496575  0.000805  0.501703  1
  Si  Si24  1  0.000805  0.496575  0.501703  1
  Si  Si25  1  0.498969  0.498969  0.001357  1
  Si  Si26  1  0.000082  0.497642  0.001955  1
  Si  Si27  1  0.497642  0.000082  0.001955  1
  Os  Os28  1  0.881088  0.881088  0.357302  1
