# generated using pymatgen
data_Hf6Al3Ga3(FePd2)2
_symmetry_space_group_name_H-M   'P 1'
_cell_length_a   7.22867900
_cell_length_b   7.22867905
_cell_length_c   6.66694800
_cell_angle_alpha   90.00000000
_cell_angle_beta   90.00000000
_cell_angle_gamma   119.99999518
_symmetry_Int_Tables_number   1
_chemical_formula_structural   Hf6Al3Ga3(FePd2)2
_chemical_formula_sum   'Hf6 Al3 Ga3 Fe2 Pd4'
_cell_volume   301.70020354
_cell_formula_units_Z   1
loop_
 _symmetry_equiv_pos_site_id
 _symmetry_equiv_pos_as_xyz
  1  'x, y, z'
loop_
 _atom_site_type_symbol
 _atom_site_label
 _atom_site_symmetry_multiplicity
 _atom_site_fract_x
 _atom_site_fract_y
 _atom_site_fract_z
 _atom_site_occupancy
  Hf  Hf0  1  0.749141  0.056698  0.000080  1
  Hf  Hf1  1  0.307556  0.250859  0.000080  1
  Hf  Hf2  1  0.943302  0.692444  0.000080  1
  Hf  Hf3  1  0.308367  0.251207  0.499914  1
  Hf  Hf4  1  0.748793  0.057160  0.499914  1
  Hf  Hf5  1  0.942840  0.691633  0.499914  1
  Al  Al6  1  0.595270  0.662953  0.749969  1
  Al  Al7  1  0.067684  0.404730  0.749969  1
  Al  Al8  1  0.337047  0.932316  0.749969  1
  Ga  Ga9  1  0.611219  0.666419  0.250053  1
  Ga  Ga10  1  0.055200  0.388781  0.250053  1
  Ga  Ga11  1  0.333581  0.944800  0.250053  1
  Fe  Fe12  1  0.000000  0.000000  0.250685  1
  Fe  Fe13  1  0.000000  0.000000  0.749421  1
  Pd  Pd14  1  0.333333  0.666667  0.008330  1
  Pd  Pd15  1  0.333333  0.666667  0.491679  1
  Pd  Pd16  1  0.666667  0.333333  0.750902  1
  Pd  Pd17  1  0.666667  0.333333  0.248935  1
