# generated using pymatgen
data_Pr16MgAg3IrRh3
_symmetry_space_group_name_H-M   'P 1'
_cell_length_a   9.98604674
_cell_length_b   9.98360046
_cell_length_c   9.98360000
_cell_angle_alpha   59.99999490
_cell_angle_beta   60.00809810
_cell_angle_gamma   60.00809057
_symmetry_Int_Tables_number   1
_chemical_formula_structural   Pr16MgAg3IrRh3
_chemical_formula_sum   'Pr16 Mg1 Ag3 Ir1 Rh3'
_cell_volume   703.89206242
_cell_formula_units_Z   1
loop_
 _symmetry_equiv_pos_site_id
 _symmetry_equiv_pos_as_xyz
  1  'x, y, z'
loop_
 _atom_site_type_symbol
 _atom_site_label
 _atom_site_symmetry_multiplicity
 _atom_site_fract_x
 _atom_site_fract_y
 _atom_site_fract_z
 _atom_site_occupancy
  Pr  Pr0  1  0.349779  0.348798  0.348798  1
  Pr  Pr1  1  0.349779  0.348798  0.952626  1
  Pr  Pr2  1  0.349779  0.952626  0.348798  1
  Pr  Pr3  1  0.942266  0.352579  0.352579  1
  Pr  Pr4  1  0.809210  0.190160  0.190160  1
  Pr  Pr5  1  0.186157  0.812494  0.812494  1
  Pr  Pr6  1  0.186157  0.812494  0.188857  1
  Pr  Pr7  1  0.809210  0.190160  0.810470  1
  Pr  Pr8  1  0.186157  0.188857  0.812494  1
  Pr  Pr9  1  0.809210  0.810470  0.190160  1
  Pr  Pr10  1  0.935793  0.564018  0.564018  1
  Pr  Pr11  1  0.563318  0.936589  0.936589  1
  Pr  Pr12  1  0.563318  0.936589  0.563506  1
  Pr  Pr13  1  0.935793  0.564018  0.936173  1
  Pr  Pr14  1  0.563318  0.563506  0.936589  1
  Pr  Pr15  1  0.935793  0.936173  0.564018  1
  Mg  Mg16  1  0.288510  0.570496  0.570496  1
  Ag  Ag17  1  0.580377  0.583606  0.583606  1
  Ag  Ag18  1  0.580377  0.583606  0.252412  1
  Ag  Ag19  1  0.580377  0.252412  0.583606  1
  Ir  Ir20  1  0.573267  0.142244  0.142244  1
  Rh  Rh21  1  0.140685  0.142446  0.142446  1
  Rh  Rh22  1  0.140685  0.142446  0.574422  1
  Rh  Rh23  1  0.140685  0.574422  0.142446  1
