# generated using pymatgen
data_Er2AsSe
_symmetry_space_group_name_H-M   'P 1'
_cell_length_a   7.04509041
_cell_length_b   7.04509041
_cell_length_c   7.04508995
_cell_angle_alpha   131.89145324
_cell_angle_beta   131.89145342
_cell_angle_gamma   70.40052283
_symmetry_Int_Tables_number   1
_chemical_formula_structural   Er2AsSe
_chemical_formula_sum   'Er4 As2 Se2'
_cell_volume   189.88452368
_cell_formula_units_Z   2
loop_
 _symmetry_equiv_pos_site_id
 _symmetry_equiv_pos_as_xyz
  1  'x, y, z'
loop_
 _atom_site_type_symbol
 _atom_site_label
 _atom_site_symmetry_multiplicity
 _atom_site_fract_x
 _atom_site_fract_y
 _atom_site_fract_z
 _atom_site_occupancy
  Er  Er0  1  0.744118  0.744118  0.000000  1
  Er  Er1  1  0.255882  0.255882  0.000000  1
  Er  Er2  1  0.005882  0.505882  0.500000  1
  Er  Er3  1  0.494118  0.994118  0.500000  1
  As  As4  1  0.500000  0.500000  0.000000  1
  As  As5  1  0.250000  0.750000  0.500000  1
  Se  Se6  1  0.000000  0.000000  0.000000  1
  Se  Se7  1  0.750000  0.250000  0.500000  1
