# generated using pymatgen
data_TbDyTm2SiBr6
_symmetry_space_group_name_H-M   'P 1'
_cell_length_a   4.03351100
_cell_length_b   13.20168356
_cell_length_c   13.92953575
_cell_angle_alpha   90.29894837
_cell_angle_beta   90.00000000
_cell_angle_gamma   90.00000000
_symmetry_Int_Tables_number   1
_chemical_formula_structural   TbDyTm2SiBr6
_chemical_formula_sum   'Tb2 Dy2 Tm4 Si2 Br12'
_cell_volume   741.72564511
_cell_formula_units_Z   2
loop_
 _symmetry_equiv_pos_site_id
 _symmetry_equiv_pos_as_xyz
  1  'x, y, z'
loop_
 _atom_site_type_symbol
 _atom_site_label
 _atom_site_symmetry_multiplicity
 _atom_site_fract_x
 _atom_site_fract_y
 _atom_site_fract_z
 _atom_site_occupancy
  Tb  Tb0  1  0.000000  0.618900  0.920645  1
  Tb  Tb1  1  0.000000  0.381100  0.079355  1
  Dy  Dy2  1  0.000000  0.117737  0.578782  1
  Dy  Dy3  1  0.000000  0.882263  0.421218  1
  Tm  Tm4  1  0.500000  0.117016  0.342687  1
  Tm  Tm5  1  0.500000  0.882984  0.657313  1
  Tm  Tm6  1  0.500000  0.617827  0.158251  1
  Tm  Tm7  1  0.500000  0.382173  0.841749  1
  Si  Si8  1  0.500000  0.000000  0.500000  1
  Si  Si9  1  0.500000  0.500000  0.000000  1
  Br  Br10  1  0.500000  0.241413  0.166503  1
  Br  Br11  1  0.500000  0.758587  0.833497  1
  Br  Br12  1  0.500000  0.745050  0.335065  1
  Br  Br13  1  0.500000  0.254950  0.664935  1
  Br  Br14  1  0.000000  0.253583  0.410559  1
  Br  Br15  1  0.000000  0.746417  0.589441  1
  Br  Br16  1  0.000000  0.754571  0.092530  1
  Br  Br17  1  0.000000  0.245429  0.907470  1
  Br  Br18  1  0.000000  0.003660  0.243819  1
  Br  Br19  1  0.000000  0.996340  0.756181  1
  Br  Br20  1  0.000000  0.506666  0.258180  1
  Br  Br21  1  0.000000  0.493334  0.741820  1
