# generated using pymatgen
data_TiMn2(AlRh2)3
_symmetry_space_group_name_H-M   'P 1'
_cell_length_a   4.31254200
_cell_length_b   6.05675800
_cell_length_c   12.88979200
_cell_angle_alpha   90.00053602
_cell_angle_beta   90.00150421
_cell_angle_gamma   90.00106202
_symmetry_Int_Tables_number   1
_chemical_formula_structural   TiMn2(AlRh2)3
_chemical_formula_sum   'Ti2 Mn4 Al6 Rh12'
_cell_volume   336.68166675
_cell_formula_units_Z   2
loop_
 _symmetry_equiv_pos_site_id
 _symmetry_equiv_pos_as_xyz
  1  'x, y, z'
loop_
 _atom_site_type_symbol
 _atom_site_label
 _atom_site_symmetry_multiplicity
 _atom_site_fract_x
 _atom_site_fract_y
 _atom_site_fract_z
 _atom_site_occupancy
  Ti  Ti0  1  0.999896  0.499973  0.997507  1
  Ti  Ti1  1  0.499965  0.999956  0.169190  1
  Mn  Mn2  1  0.000076  0.500001  0.334960  1
  Mn  Mn3  1  0.500016  0.999985  0.499848  1
  Mn  Mn4  1  0.000165  0.500081  0.666766  1
  Mn  Mn5  1  0.499897  0.000039  0.831667  1
  Al  Al6  1  0.999889  0.999990  0.997780  1
  Al  Al7  1  0.499953  0.499949  0.168861  1
  Al  Al8  1  0.000056  0.999994  0.338232  1
  Al  Al9  1  0.500043  0.499992  0.502021  1
  Al  Al10  1  0.000088  0.000045  0.664659  1
  Al  Al11  1  0.499917  0.500006  0.828478  1
  Rh  Rh12  1  0.499912  0.249830  0.001244  1
  Rh  Rh13  1  0.499897  0.750149  0.001229  1
  Rh  Rh14  1  0.999970  0.250088  0.165453  1
  Rh  Rh15  1  0.999961  0.749805  0.165445  1
  Rh  Rh16  1  0.500044  0.248108  0.331072  1
  Rh  Rh17  1  0.500081  0.751874  0.331054  1
  Rh  Rh18  1  0.000078  0.252048  0.499888  1
  Rh  Rh19  1  0.000005  0.747997  0.499884  1
  Rh  Rh20  1  0.500096  0.248008  0.666770  1
  Rh  Rh21  1  0.500149  0.752061  0.666782  1
  Rh  Rh22  1  0.999948  0.251926  0.835590  1
  Rh  Rh23  1  0.999897  0.748098  0.835619  1
