# generated using pymatgen
data_Tb10Zn4(RuRh)3
_symmetry_space_group_name_H-M   'P 1'
_cell_length_a   8.40350500
_cell_length_b   8.37061091
_cell_length_c   8.40350500
_cell_angle_alpha   109.48110456
_cell_angle_beta   109.62978523
_cell_angle_gamma   109.46143674
_symmetry_Int_Tables_number   1
_chemical_formula_structural   Tb10Zn4(RuRh)3
_chemical_formula_sum   'Tb10 Zn4 Ru3 Rh3'
_cell_volume   454.15282396
_cell_formula_units_Z   1
loop_
 _symmetry_equiv_pos_site_id
 _symmetry_equiv_pos_as_xyz
  1  'x, y, z'
loop_
 _atom_site_type_symbol
 _atom_site_label
 _atom_site_symmetry_multiplicity
 _atom_site_fract_x
 _atom_site_fract_y
 _atom_site_fract_z
 _atom_site_occupancy
  Tb  Tb0  1  0.251939  0.684744  0.433762  1
  Tb  Tb1  1  0.749018  0.815256  0.067195  1
  Tb  Tb2  1  0.431101  0.250000  0.681101  1
  Tb  Tb3  1  0.682946  0.436060  0.250737  1
  Tb  Tb4  1  0.067924  0.750000  0.817924  1
  Tb  Tb5  1  0.814678  0.063940  0.746887  1
  Tb  Tb6  1  0.223614  0.223083  0.225804  1
  Tb  Tb7  1  0.499515  0.997059  0.275308  1
  Tb  Tb8  1  0.278249  0.502941  0.002456  1
  Tb  Tb9  1  0.002722  0.276917  0.500531  1
  Zn  Zn10  1  0.589269  0.591907  0.591576  1
  Zn  Zn11  1  0.498398  0.997724  0.907501  1
  Zn  Zn12  1  0.909777  0.502276  0.000674  1
  Zn  Zn13  1  0.999670  0.908093  0.497361  1
  Ru  Ru14  1  0.133421  0.883641  0.250499  1
  Ru  Ru15  1  0.620531  0.750000  0.370531  1
  Ru  Ru16  1  0.366856  0.616358  0.749778  1
  Rh  Rh17  1  0.250316  0.131663  0.882323  1
  Rh  Rh18  1  0.750660  0.368337  0.618653  1
  Rh  Rh19  1  0.879401  0.250000  0.129402  1
