# generated using pymatgen
data_DyHoTh2(Ni2Sn)2
_symmetry_space_group_name_H-M   'P 1'
_cell_length_a   7.42336104
_cell_length_b   7.42336039
_cell_length_c   3.78211900
_cell_angle_alpha   90.00000000
_cell_angle_beta   90.00000000
_cell_angle_gamma   93.06181925
_symmetry_Int_Tables_number   1
_chemical_formula_structural   DyHoTh2(Ni2Sn)2
_chemical_formula_sum   'Dy1 Ho1 Th2 Ni4 Sn2'
_cell_volume   208.12100435
_cell_formula_units_Z   1
loop_
 _symmetry_equiv_pos_site_id
 _symmetry_equiv_pos_as_xyz
  1  'x, y, z'
loop_
 _atom_site_type_symbol
 _atom_site_label
 _atom_site_symmetry_multiplicity
 _atom_site_fract_x
 _atom_site_fract_y
 _atom_site_fract_z
 _atom_site_occupancy
  Dy  Dy0  1  0.174290  0.325710  0.500000  1
  Ho  Ho1  1  0.825658  0.674342  0.500000  1
  Th  Th2  1  0.678055  0.177892  0.500000  1
  Th  Th3  1  0.322108  0.821945  0.500000  1
  Ni  Ni4  1  0.875944  0.376683  0.000000  1
  Ni  Ni5  1  0.123317  0.624056  0.000000  1
  Ni  Ni6  1  0.378692  0.121308  0.000000  1
  Ni  Ni7  1  0.621738  0.878262  0.000000  1
  Sn  Sn8  1  0.500404  0.500206  0.000000  1
  Sn  Sn9  1  0.999794  0.999596  0.000000  1
