# generated using pymatgen
data_Eu3Ho(Co5P3)4
_symmetry_space_group_name_H-M   'P 1'
_cell_length_a   3.66026000
_cell_length_b   10.35267850
_cell_length_c   11.81038007
_cell_angle_alpha   90.04073201
_cell_angle_beta   90.00000000
_cell_angle_gamma   90.00000000
_symmetry_Int_Tables_number   1
_chemical_formula_structural   Eu3Ho(Co5P3)4
_chemical_formula_sum   'Eu3 Ho1 Co20 P12'
_cell_volume   447.53646537
_cell_formula_units_Z   1
loop_
 _symmetry_equiv_pos_site_id
 _symmetry_equiv_pos_as_xyz
  1  'x, y, z'
loop_
 _atom_site_type_symbol
 _atom_site_label
 _atom_site_symmetry_multiplicity
 _atom_site_fract_x
 _atom_site_fract_y
 _atom_site_fract_z
 _atom_site_occupancy
  Eu  Eu0  1  0.250000  0.584131  0.703610  1
  Eu  Eu1  1  0.250000  0.916291  0.203188  1
  Eu  Eu2  1  0.750000  0.415855  0.296584  1
  Ho  Ho3  1  0.750000  0.083261  0.797194  1
  Co  Co4  1  0.250000  0.714300  0.988542  1
  Co  Co5  1  0.250000  0.785912  0.490297  1
  Co  Co6  1  0.750000  0.285356  0.009847  1
  Co  Co7  1  0.750000  0.214177  0.510754  1
  Co  Co8  1  0.250000  0.405738  0.490703  1
  Co  Co9  1  0.250000  0.094662  0.985572  1
  Co  Co10  1  0.750000  0.594048  0.509954  1
  Co  Co11  1  0.750000  0.907621  0.008775  1
  Co  Co12  1  0.250000  0.218762  0.174492  1
  Co  Co13  1  0.250000  0.277331  0.676576  1
  Co  Co14  1  0.750000  0.781384  0.823965  1
  Co  Co15  1  0.750000  0.719912  0.325101  1
  Co  Co16  1  0.250000  0.884486  0.698711  1
  Co  Co17  1  0.250000  0.619038  0.197101  1
  Co  Co18  1  0.750000  0.118671  0.303159  1
  Co  Co19  1  0.750000  0.378911  0.802646  1
  Co  Co20  1  0.250000  0.466040  0.932928  1
  Co  Co21  1  0.250000  0.033010  0.434414  1
  Co  Co22  1  0.750000  0.532951  0.066381  1
  Co  Co23  1  0.750000  0.968096  0.568902  1
  P  P24  1  0.250000  0.418598  0.111345  1
  P  P25  1  0.250000  0.081230  0.613067  1
  P  P26  1  0.750000  0.581231  0.888314  1
  P  P27  1  0.750000  0.919033  0.389453  1
  P  P28  1  0.250000  0.270700  0.869265  1
  P  P29  1  0.250000  0.227243  0.369938  1
  P  P30  1  0.750000  0.727817  0.129706  1
  P  P31  1  0.750000  0.772581  0.629780  1
  P  P32  1  0.250000  0.603510  0.392121  1
  P  P33  1  0.250000  0.898136  0.891486  1
  P  P34  1  0.750000  0.396547  0.608203  1
  P  P35  1  0.750000  0.103433  0.107922  1
