# generated using pymatgen
data_Ho2Si6AsRh12
_symmetry_space_group_name_H-M   'P 1'
_cell_length_a   9.78695200
_cell_length_b   9.78695282
_cell_length_c   3.84757700
_cell_angle_alpha   90.00000000
_cell_angle_beta   90.00000000
_cell_angle_gamma   119.99999724
_symmetry_Int_Tables_number   1
_chemical_formula_structural   Ho2Si6AsRh12
_chemical_formula_sum   'Ho2 Si6 As1 Rh12'
_cell_volume   319.16327778
_cell_formula_units_Z   1
loop_
 _symmetry_equiv_pos_site_id
 _symmetry_equiv_pos_as_xyz
  1  'x, y, z'
loop_
 _atom_site_type_symbol
 _atom_site_label
 _atom_site_symmetry_multiplicity
 _atom_site_fract_x
 _atom_site_fract_y
 _atom_site_fract_z
 _atom_site_occupancy
  Ho  Ho0  1  0.333333  0.666667  0.249415  1
  Ho  Ho1  1  0.666667  0.333333  0.750585  1
  Si  Si2  1  0.403012  0.112462  0.248818  1
  Si  Si3  1  0.709450  0.596988  0.248818  1
  Si  Si4  1  0.887538  0.290550  0.248818  1
  Si  Si5  1  0.596988  0.887538  0.751182  1
  Si  Si6  1  0.290550  0.403012  0.751182  1
  Si  Si7  1  0.112462  0.709450  0.751182  1
  As  As8  1  0.000000  0.000000  0.500000  1
  Rh  Rh9  1  0.444704  0.381212  0.249256  1
  Rh  Rh10  1  0.936508  0.555296  0.249256  1
  Rh  Rh11  1  0.618788  0.063492  0.249256  1
  Rh  Rh12  1  0.555296  0.618788  0.750744  1
  Rh  Rh13  1  0.063492  0.444704  0.750744  1
  Rh  Rh14  1  0.381212  0.936508  0.750744  1
  Rh  Rh15  1  0.146311  0.880212  0.249922  1
  Rh  Rh16  1  0.733901  0.853689  0.249922  1
  Rh  Rh17  1  0.119788  0.266099  0.249922  1
  Rh  Rh18  1  0.853689  0.119788  0.750078  1
  Rh  Rh19  1  0.266099  0.146311  0.750078  1
  Rh  Rh20  1  0.880212  0.733901  0.750078  1
