# generated using pymatgen
data_Sc2MnBe2Ir5
_symmetry_space_group_name_H-M   'P 1'
_cell_length_a   9.44762800
_cell_length_b   9.44762800
_cell_length_c   3.12141500
_cell_angle_alpha   90.00000000
_cell_angle_beta   90.00000000
_cell_angle_gamma   90.00000000
_symmetry_Int_Tables_number   1
_chemical_formula_structural   Sc2MnBe2Ir5
_chemical_formula_sum   'Sc4 Mn2 Be4 Ir10'
_cell_volume   278.61024507
_cell_formula_units_Z   2
loop_
 _symmetry_equiv_pos_site_id
 _symmetry_equiv_pos_as_xyz
  1  'x, y, z'
loop_
 _atom_site_type_symbol
 _atom_site_label
 _atom_site_symmetry_multiplicity
 _atom_site_fract_x
 _atom_site_fract_y
 _atom_site_fract_z
 _atom_site_occupancy
  Sc  Sc0  1  0.175644  0.675644  0.000000  1
  Sc  Sc1  1  0.675644  0.824356  0.000000  1
  Sc  Sc2  1  0.324356  0.175644  0.000000  1
  Sc  Sc3  1  0.824356  0.324356  0.000000  1
  Mn  Mn4  1  0.000000  0.000000  0.000000  1
  Mn  Mn5  1  0.500000  0.500000  0.000000  1
  Be  Be6  1  0.376224  0.876224  0.000000  1
  Be  Be7  1  0.876224  0.623776  0.000000  1
  Be  Be8  1  0.123776  0.376224  0.000000  1
  Be  Be9  1  0.623776  0.123776  0.000000  1
  Ir  Ir10  1  0.000000  0.500000  0.500000  1
  Ir  Ir11  1  0.500000  0.000000  0.500000  1
  Ir  Ir12  1  0.291384  0.430932  0.500000  1
  Ir  Ir13  1  0.708617  0.569068  0.500000  1
  Ir  Ir14  1  0.569068  0.291384  0.500000  1
  Ir  Ir15  1  0.430932  0.708617  0.500000  1
  Ir  Ir16  1  0.930932  0.791383  0.500000  1
  Ir  Ir17  1  0.791383  0.069068  0.500000  1
  Ir  Ir18  1  0.208616  0.930932  0.500000  1
  Ir  Ir19  1  0.069068  0.208616  0.500000  1
