# generated using pymatgen
data_Yb6Cu16N
_symmetry_space_group_name_H-M   'P 1'
_cell_length_a   7.66386585
_cell_length_b   7.66386646
_cell_length_c   7.66386700
_cell_angle_alpha   109.47121941
_cell_angle_beta   109.47122103
_cell_angle_gamma   109.47121862
_symmetry_Int_Tables_number   1
_chemical_formula_structural   Yb6Cu16N
_chemical_formula_sum   'Yb6 Cu16 N1'
_cell_volume   346.51489454
_cell_formula_units_Z   1
loop_
 _symmetry_equiv_pos_site_id
 _symmetry_equiv_pos_as_xyz
  1  'x, y, z'
loop_
 _atom_site_type_symbol
 _atom_site_label
 _atom_site_symmetry_multiplicity
 _atom_site_fract_x
 _atom_site_fract_y
 _atom_site_fract_z
 _atom_site_occupancy
  Yb  Yb0  1  0.000000  0.269828  0.269828  1
  Yb  Yb1  1  0.269828  0.000000  0.269828  1
  Yb  Yb2  1  0.730172  0.000000  0.730172  1
  Yb  Yb3  1  0.730172  0.730172  0.000000  1
  Yb  Yb4  1  0.269828  0.269828  0.000000  1
  Yb  Yb5  1  0.000000  0.730172  0.730172  1
  Cu  Cu6  1  0.500000  0.500000  0.500000  1
  Cu  Cu7  1  0.500000  0.000000  0.000000  1
  Cu  Cu8  1  0.000000  0.500000  0.000000  1
  Cu  Cu9  1  0.000000  0.000000  0.500000  1
  Cu  Cu10  1  0.677671  0.338836  0.338836  1
  Cu  Cu11  1  0.338836  0.000000  0.661164  1
  Cu  Cu12  1  0.338836  0.677671  0.338836  1
  Cu  Cu13  1  0.338836  0.338836  0.677671  1
  Cu  Cu14  1  0.338836  0.661164  0.000000  1
  Cu  Cu15  1  0.000000  0.338836  0.661164  1
  Cu  Cu16  1  0.000000  0.661164  0.338836  1
  Cu  Cu17  1  0.661164  0.661164  0.322329  1
  Cu  Cu18  1  0.661164  0.000000  0.338836  1
  Cu  Cu19  1  0.661164  0.338836  0.000000  1
  Cu  Cu20  1  0.661164  0.322329  0.661164  1
  Cu  Cu21  1  0.322329  0.661164  0.661164  1
  N  N22  1  0.000000  0.000000  0.000000  1
