# generated using pymatgen
data_Ba2CdB2Pt7
_symmetry_space_group_name_H-M   'P 1'
_cell_length_a   5.75036600
_cell_length_b   5.75036683
_cell_length_c   7.64102000
_cell_angle_alpha   90.00000000
_cell_angle_beta   90.00000000
_cell_angle_gamma   119.99999520
_symmetry_Int_Tables_number   1
_chemical_formula_structural   Ba2CdB2Pt7
_chemical_formula_sum   'Ba2 Cd1 B2 Pt7'
_cell_volume   218.81295304
_cell_formula_units_Z   1
loop_
 _symmetry_equiv_pos_site_id
 _symmetry_equiv_pos_as_xyz
  1  'x, y, z'
loop_
 _atom_site_type_symbol
 _atom_site_label
 _atom_site_symmetry_multiplicity
 _atom_site_fract_x
 _atom_site_fract_y
 _atom_site_fract_z
 _atom_site_occupancy
  Ba  Ba0  1  0.000000  0.000000  0.000000  1
  Ba  Ba1  1  0.000000  0.000000  0.500000  1
  Cd  Cd2  1  0.666667  0.333334  0.500000  1
  B  B3  1  0.666667  0.333334  0.000000  1
  B  B4  1  0.333334  0.666667  0.000000  1
  Pt  Pt5  1  0.498869  0.997737  0.194378  1
  Pt  Pt6  1  0.002263  0.501131  0.194378  1
  Pt  Pt7  1  0.498868  0.501131  0.194378  1
  Pt  Pt8  1  0.333334  0.666667  0.500000  1
  Pt  Pt9  1  0.498869  0.997737  0.805622  1
  Pt  Pt10  1  0.002263  0.501131  0.805622  1
  Pt  Pt11  1  0.498868  0.501131  0.805622  1
