# generated using pymatgen
data_Nd10Bi5PbBr2
_symmetry_space_group_name_H-M   'P 1'
_cell_length_a   9.65069400
_cell_length_b   9.63023209
_cell_length_c   6.74465600
_cell_angle_alpha   90.00000000
_cell_angle_beta   90.00000000
_cell_angle_gamma   120.07030446
_symmetry_Int_Tables_number   1
_chemical_formula_structural   Nd10Bi5PbBr2
_chemical_formula_sum   'Nd10 Bi5 Pb1 Br2'
_cell_volume   542.47237873
_cell_formula_units_Z   1
loop_
 _symmetry_equiv_pos_site_id
 _symmetry_equiv_pos_as_xyz
  1  'x, y, z'
loop_
 _atom_site_type_symbol
 _atom_site_label
 _atom_site_symmetry_multiplicity
 _atom_site_fract_x
 _atom_site_fract_y
 _atom_site_fract_z
 _atom_site_occupancy
  Nd  Nd0  1  0.273272  0.000000  0.750000  1
  Nd  Nd1  1  0.726925  0.000000  0.250000  1
  Nd  Nd2  1  0.998446  0.271772  0.750000  1
  Nd  Nd3  1  0.000222  0.727596  0.250000  1
  Nd  Nd4  1  0.726672  0.728228  0.750000  1
  Nd  Nd5  1  0.272626  0.272404  0.250000  1
  Nd  Nd6  1  0.333597  0.666795  0.499904  1
  Nd  Nd7  1  0.666803  0.333205  0.499904  1
  Nd  Nd8  1  0.666803  0.333205  0.000096  1
  Nd  Nd9  1  0.333597  0.666795  0.000096  1
  Bi  Bi10  1  0.385408  0.000000  0.250000  1
  Bi  Bi11  1  0.999640  0.615457  0.750000  1
  Bi  Bi12  1  0.999683  0.384214  0.250000  1
  Bi  Bi13  1  0.384183  0.384543  0.750000  1
  Bi  Bi14  1  0.615469  0.615786  0.250000  1
  Pb  Pb15  1  0.615463  0.000000  0.750000  1
  Br  Br16  1  0.000595  0.000000  0.499685  1
  Br  Br17  1  0.000595  0.000000  0.000315  1
