# generated using pymatgen
data_Sc4Si8Ir3Rh13
_symmetry_space_group_name_H-M   'P 1'
_cell_length_a   4.07089000
_cell_length_b   8.93998632
_cell_length_c   11.16657441
_cell_angle_alpha   89.96905366
_cell_angle_beta   90.00000000
_cell_angle_gamma   90.00000000
_symmetry_Int_Tables_number   1
_chemical_formula_structural   Sc4Si8Ir3Rh13
_chemical_formula_sum   'Sc4 Si8 Ir3 Rh13'
_cell_volume   406.39291016
_cell_formula_units_Z   1
loop_
 _symmetry_equiv_pos_site_id
 _symmetry_equiv_pos_as_xyz
  1  'x, y, z'
loop_
 _atom_site_type_symbol
 _atom_site_label
 _atom_site_symmetry_multiplicity
 _atom_site_fract_x
 _atom_site_fract_y
 _atom_site_fract_z
 _atom_site_occupancy
  Sc  Sc0  1  0.250000  0.142448  0.825533  1
  Sc  Sc1  1  0.250000  0.356259  0.325252  1
  Sc  Sc2  1  0.750000  0.857837  0.174297  1
  Sc  Sc3  1  0.750000  0.642559  0.675180  1
  Si  Si4  1  0.250000  0.413951  0.639205  1
  Si  Si5  1  0.250000  0.085942  0.138423  1
  Si  Si6  1  0.750000  0.586542  0.361392  1
  Si  Si7  1  0.750000  0.912871  0.861513  1
  Si  Si8  1  0.250000  0.618759  0.059555  1
  Si  Si9  1  0.250000  0.881707  0.559048  1
  Si  Si10  1  0.750000  0.381706  0.941215  1
  Si  Si11  1  0.750000  0.120526  0.439662  1
  Ir  Ir12  1  0.250000  0.616934  0.500769  1
  Ir  Ir13  1  0.250000  0.884225  0.999826  1
  Ir  Ir14  1  0.750000  0.384849  0.500714  1
  Rh  Rh15  1  0.750000  0.116766  0.996756  1
  Rh  Rh16  1  0.250000  0.699181  0.265749  1
  Rh  Rh17  1  0.250000  0.800317  0.765492  1
  Rh  Rh18  1  0.750000  0.300100  0.735378  1
  Rh  Rh19  1  0.750000  0.196455  0.231860  1
  Rh  Rh20  1  0.250000  0.172158  0.561777  1
  Rh  Rh21  1  0.250000  0.328241  0.061195  1
  Rh  Rh22  1  0.750000  0.828459  0.439124  1
  Rh  Rh23  1  0.750000  0.670907  0.939112  1
  Rh  Rh24  1  0.250000  0.010131  0.342993  1
  Rh  Rh25  1  0.250000  0.490042  0.842479  1
  Rh  Rh26  1  0.750000  0.990335  0.658193  1
  Rh  Rh27  1  0.750000  0.509793  0.158309  1
