# generated using pymatgen
data_Na4GdBiO6
_symmetry_space_group_name_H-M   'P 1'
_cell_length_a   5.90145893
_cell_length_b   5.90148181
_cell_length_c   5.94562444
_cell_angle_alpha   99.66697198
_cell_angle_beta   99.66540167
_cell_angle_gamma   119.97094692
_symmetry_Int_Tables_number   1
_chemical_formula_structural   Na4GdBiO6
_chemical_formula_sum   'Na4 Gd1 Bi1 O6'
_cell_volume   168.97307283
_cell_formula_units_Z   1
loop_
 _symmetry_equiv_pos_site_id
 _symmetry_equiv_pos_as_xyz
  1  'x, y, z'
loop_
 _atom_site_type_symbol
 _atom_site_label
 _atom_site_symmetry_multiplicity
 _atom_site_fract_x
 _atom_site_fract_y
 _atom_site_fract_z
 _atom_site_occupancy
  Na  Na0  1  0.499421  0.500585  0.000002  1
  Na  Na1  1  0.012386  0.987618  0.500003  1
  Na  Na2  1  0.335424  0.664568  0.499994  1
  Na  Na3  1  0.657774  0.342224  0.499998  1
  Gd  Gd4  1  0.833126  0.166865  0.000001  1
  Bi  Bi5  1  0.166728  0.833244  0.999997  1
  O  O6  1  0.945197  0.593550  0.217080  1
  O  O7  1  0.553578  0.927993  0.221777  1
  O  O8  1  0.220753  0.202876  0.222610  1
  O  O9  1  0.797145  0.779248  0.777403  1
  O  O10  1  0.072011  0.446417  0.778217  1
  O  O11  1  0.406463  0.054810  0.782927  1
