# generated using pymatgen
data_Er17Sc7(CoTc)4
_symmetry_space_group_name_H-M   'P 1'
_cell_length_a   6.17146428
_cell_length_b   8.97321200
_cell_length_c   13.80396979
_cell_angle_alpha   90.00000000
_cell_angle_beta   89.83723549
_cell_angle_gamma   90.00000000
_symmetry_Int_Tables_number   1
_chemical_formula_structural   Er17Sc7(CoTc)4
_chemical_formula_sum   'Er17 Sc7 Co4 Tc4'
_cell_volume   764.43118593
_cell_formula_units_Z   1
loop_
 _symmetry_equiv_pos_site_id
 _symmetry_equiv_pos_as_xyz
  1  'x, y, z'
loop_
 _atom_site_type_symbol
 _atom_site_label
 _atom_site_symmetry_multiplicity
 _atom_site_fract_x
 _atom_site_fract_y
 _atom_site_fract_z
 _atom_site_occupancy
  Er  Er0  1  0.534167  0.750000  0.350738  1
  Er  Er1  1  0.409872  0.935916  0.784835  1
  Er  Er2  1  0.909460  0.064483  0.715776  1
  Er  Er3  1  0.589761  0.433768  0.213657  1
  Er  Er4  1  0.087404  0.562547  0.284091  1
  Er  Er5  1  0.589761  0.066232  0.213657  1
  Er  Er6  1  0.087404  0.937453  0.284091  1
  Er  Er7  1  0.409872  0.564084  0.784835  1
  Er  Er8  1  0.909460  0.435517  0.715776  1
  Er  Er9  1  0.246396  0.939252  0.537575  1
  Er  Er10  1  0.746350  0.062542  0.963983  1
  Er  Er11  1  0.755054  0.435643  0.465373  1
  Er  Er12  1  0.252416  0.562442  0.035105  1
  Er  Er13  1  0.755054  0.064357  0.465373  1
  Er  Er14  1  0.252416  0.937558  0.035105  1
  Er  Er15  1  0.246396  0.560748  0.537575  1
  Er  Er16  1  0.746350  0.437458  0.963983  1
  Sc  Sc17  1  0.036236  0.250000  0.150316  1
  Sc  Sc18  1  0.464348  0.250000  0.651556  1
  Sc  Sc19  1  0.963362  0.750000  0.848917  1
  Sc  Sc20  1  0.774989  0.750000  0.108850  1
  Sc  Sc21  1  0.274668  0.250000  0.390107  1
  Sc  Sc22  1  0.226570  0.250000  0.890039  1
  Sc  Sc23  1  0.727096  0.750000  0.610546  1
  Co  Co24  1  0.381629  0.750000  0.179001  1
  Co  Co25  1  0.885888  0.250000  0.316978  1
  Co  Co26  1  0.613560  0.250000  0.817287  1
  Co  Co27  1  0.112834  0.750000  0.683262  1
  Tc  Tc28  1  0.929849  0.750000  0.440804  1
  Tc  Tc29  1  0.419601  0.250000  0.060712  1
  Tc  Tc30  1  0.080894  0.250000  0.561708  1
  Tc  Tc31  1  0.580884  0.750000  0.938388  1
