# generated using pymatgen
data_PrNpTc2F14
_symmetry_space_group_name_H-M   'P 1'
_cell_length_a   5.73563700
_cell_length_b   9.22727020
_cell_length_c   12.38786200
_cell_angle_alpha   62.10103163
_cell_angle_beta   90.00000000
_cell_angle_gamma   90.00000000
_symmetry_Int_Tables_number   1
_chemical_formula_structural   PrNpTc2F14
_chemical_formula_sum   'Pr2 Np2 Tc4 F28'
_cell_volume   579.41869314
_cell_formula_units_Z   2
loop_
 _symmetry_equiv_pos_site_id
 _symmetry_equiv_pos_as_xyz
  1  'x, y, z'
loop_
 _atom_site_type_symbol
 _atom_site_label
 _atom_site_symmetry_multiplicity
 _atom_site_fract_x
 _atom_site_fract_y
 _atom_site_fract_z
 _atom_site_occupancy
  Pr  Pr0  1  0.241374  0.189536  0.235543  1
  Pr  Pr1  1  0.741374  0.810464  0.264457  1
  Np  Np2  1  0.758234  0.808737  0.764152  1
  Np  Np3  1  0.258234  0.191263  0.735848  1
  Tc  Tc4  1  0.756623  0.275248  0.955392  1
  Tc  Tc5  1  0.256623  0.724752  0.544608  1
  Tc  Tc6  1  0.244426  0.728073  0.039386  1
  Tc  Tc7  1  0.744426  0.271927  0.460614  1
  F  F8  1  0.447256  0.713770  0.914408  1
  F  F9  1  0.947256  0.286230  0.585592  1
  F  F10  1  0.556794  0.292001  0.077986  1
  F  F11  1  0.056794  0.707999  0.422014  1
  F  F12  1  0.457360  0.278410  0.549839  1
  F  F13  1  0.957360  0.721590  0.950161  1
  F  F14  1  0.540439  0.715613  0.457981  1
  F  F15  1  0.040439  0.284387  0.042019  1
  F  F16  1  0.765238  0.517997  0.859115  1
  F  F17  1  0.265238  0.482003  0.640885  1
  F  F18  1  0.233709  0.487980  0.136212  1
  F  F19  1  0.733709  0.512020  0.363788  1
  F  F20  1  0.759485  0.035194  0.049285  1
  F  F21  1  0.259485  0.964806  0.450715  1
  F  F22  1  0.239456  0.971148  0.941941  1
  F  F23  1  0.739456  0.028852  0.558059  1
  F  F24  1  0.978203  0.731117  0.638714  1
  F  F25  1  0.478203  0.268883  0.861286  1
  F  F26  1  0.020842  0.268948  0.367942  1
  F  F27  1  0.520842  0.731052  0.132058  1
  F  F28  1  0.049944  0.743840  0.164900  1
  F  F29  1  0.549944  0.256160  0.335100  1
  F  F30  1  0.956130  0.258789  0.829453  1
  F  F31  1  0.456130  0.741211  0.670547  1
  F  F32  1  0.406369  0.966391  0.229917  1
  F  F33  1  0.906369  0.033609  0.270083  1
  F  F34  1  0.588118  0.030214  0.768070  1
  F  F35  1  0.088118  0.969786  0.731930  1
