# generated using pymatgen
data_Y2Lu3Bi2Sb
_symmetry_space_group_name_H-M   'P 1'
_cell_length_a   8.10939100
_cell_length_b   9.34426100
_cell_length_c   11.93730100
_cell_angle_alpha   90.00000000
_cell_angle_beta   90.00000000
_cell_angle_gamma   90.00000000
_symmetry_Int_Tables_number   1
_chemical_formula_structural   Y2Lu3Bi2Sb
_chemical_formula_sum   'Y8 Lu12 Bi8 Sb4'
_cell_volume   904.56409656
_cell_formula_units_Z   4
loop_
 _symmetry_equiv_pos_site_id
 _symmetry_equiv_pos_as_xyz
  1  'x, y, z'
loop_
 _atom_site_type_symbol
 _atom_site_label
 _atom_site_symmetry_multiplicity
 _atom_site_fract_x
 _atom_site_fract_y
 _atom_site_fract_z
 _atom_site_occupancy
  Y  Y0  1  0.183322  0.750000  0.718101  1
  Y  Y1  1  0.683322  0.750000  0.781899  1
  Y  Y2  1  0.816678  0.250000  0.281899  1
  Y  Y3  1  0.316678  0.250000  0.218101  1
  Y  Y4  1  0.352580  0.750000  0.214062  1
  Y  Y5  1  0.852580  0.750000  0.285938  1
  Y  Y6  1  0.647420  0.250000  0.785938  1
  Y  Y7  1  0.147420  0.250000  0.714062  1
  Lu  Lu8  1  0.026286  0.750000  0.989271  1
  Lu  Lu9  1  0.526286  0.750000  0.510729  1
  Lu  Lu10  1  0.973714  0.250000  0.010729  1
  Lu  Lu11  1  0.473714  0.250000  0.489271  1
  Lu  Lu12  1  0.311457  0.434810  0.942163  1
  Lu  Lu13  1  0.811457  0.065190  0.557837  1
  Lu  Lu14  1  0.688543  0.934810  0.057837  1
  Lu  Lu15  1  0.188543  0.565190  0.442163  1
  Lu  Lu16  1  0.688543  0.565190  0.057837  1
  Lu  Lu17  1  0.188543  0.934810  0.442163  1
  Lu  Lu18  1  0.311457  0.065190  0.942163  1
  Lu  Lu19  1  0.811457  0.434810  0.557837  1
  Bi  Bi20  1  0.434116  0.003813  0.671621  1
  Bi  Bi21  1  0.934116  0.496187  0.828379  1
  Bi  Bi22  1  0.565884  0.503813  0.328379  1
  Bi  Bi23  1  0.065884  0.996187  0.171621  1
  Bi  Bi24  1  0.565884  0.996187  0.328379  1
  Bi  Bi25  1  0.065884  0.503813  0.171621  1
  Bi  Bi26  1  0.434116  0.496187  0.671621  1
  Bi  Bi27  1  0.934116  0.003813  0.828379  1
  Sb  Sb28  1  0.404345  0.750000  0.958151  1
  Sb  Sb29  1  0.904345  0.750000  0.541849  1
  Sb  Sb30  1  0.595655  0.250000  0.041849  1
  Sb  Sb31  1  0.095655  0.250000  0.458151  1
