# generated using pymatgen
data_Tb2ErGa6Co8Ni
_symmetry_space_group_name_H-M   'P 1'
_cell_length_a   4.06219500
_cell_length_b   8.75739325
_cell_length_c   8.75739355
_cell_angle_alpha   59.58367218
_cell_angle_beta   90.00000000
_cell_angle_gamma   90.00000000
_symmetry_Int_Tables_number   1
_chemical_formula_structural   Tb2ErGa6Co8Ni
_chemical_formula_sum   'Tb2 Er1 Ga6 Co8 Ni1'
_cell_volume   268.66051207
_cell_formula_units_Z   1
loop_
 _symmetry_equiv_pos_site_id
 _symmetry_equiv_pos_as_xyz
  1  'x, y, z'
loop_
 _atom_site_type_symbol
 _atom_site_label
 _atom_site_symmetry_multiplicity
 _atom_site_fract_x
 _atom_site_fract_y
 _atom_site_fract_z
 _atom_site_occupancy
  Tb  Tb0  1  0.500000  0.332039  0.334571  1
  Tb  Tb1  1  0.500000  0.665429  0.667961  1
  Er  Er2  1  0.000000  0.002419  0.997581  1
  Ga  Ga3  1  0.000000  0.493542  0.506458  1
  Ga  Ga4  1  0.000000  0.502950  0.002001  1
  Ga  Ga5  1  0.000000  0.997999  0.497050  1
  Ga  Ga6  1  0.500000  0.728641  0.271359  1
  Ga  Ga7  1  0.500000  0.272090  0.998570  1
  Ga  Ga8  1  0.500000  0.001430  0.727910  1
  Co  Co9  1  0.000000  0.177346  0.180905  1
  Co  Co10  1  0.000000  0.178433  0.636389  1
  Co  Co11  1  0.000000  0.640630  0.179940  1
  Co  Co12  1  0.000000  0.819095  0.822654  1
  Co  Co13  1  0.000000  0.363611  0.821567  1
  Co  Co14  1  0.000000  0.820060  0.359370  1
  Co  Co15  1  0.500000  0.703829  0.001405  1
  Co  Co16  1  0.500000  0.998595  0.296171  1
  Ni  Ni17  1  0.500000  0.301760  0.698240  1
