# generated using pymatgen
data_Fe(IBr2)3
_symmetry_space_group_name_H-M   'P 1'
_cell_length_a   15.05013321
_cell_length_b   15.05013352
_cell_length_c   15.47663156
_cell_angle_alpha   73.18150284
_cell_angle_beta   73.18150216
_cell_angle_gamma   31.17170840
_symmetry_Int_Tables_number   1
_chemical_formula_structural   Fe(IBr2)3
_chemical_formula_sum   'Fe4 I12 Br24'
_cell_volume   1730.69519811
_cell_formula_units_Z   4
loop_
 _symmetry_equiv_pos_site_id
 _symmetry_equiv_pos_as_xyz
  1  'x, y, z'
loop_
 _atom_site_type_symbol
 _atom_site_label
 _atom_site_symmetry_multiplicity
 _atom_site_fract_x
 _atom_site_fract_y
 _atom_site_fract_z
 _atom_site_occupancy
  Fe  Fe0  1  0.430249  0.307589  0.461257  1
  Fe  Fe1  1  0.692411  0.569751  0.038743  1
  Fe  Fe2  1  0.307589  0.430249  0.961257  1
  Fe  Fe3  1  0.569751  0.692411  0.538743  1
  I  I4  1  0.218189  0.707118  0.108032  1
  I  I5  1  0.067126  0.168571  0.781408  1
  I  I6  1  0.168571  0.067126  0.281408  1
  I  I7  1  0.831429  0.932874  0.718592  1
  I  I8  1  0.781811  0.292882  0.891968  1
  I  I9  1  0.292882  0.781811  0.391968  1
  I  I10  1  0.932874  0.831429  0.218592  1
  I  I11  1  0.942860  0.654268  0.823501  1
  I  I12  1  0.345732  0.057140  0.676499  1
  I  I13  1  0.707118  0.218189  0.608032  1
  I  I14  1  0.654268  0.942860  0.323501  1
  I  I15  1  0.057140  0.345732  0.176499  1
  Br  Br16  1  0.999755  0.665519  0.986877  1
  Br  Br17  1  0.602169  0.615205  0.905125  1
  Br  Br18  1  0.397831  0.384795  0.094875  1
  Br  Br19  1  0.611542  0.897601  0.202242  1
  Br  Br20  1  0.334481  0.000245  0.513123  1
  Br  Br21  1  0.899669  0.033293  0.891742  1
  Br  Br22  1  0.897601  0.611542  0.702242  1
  Br  Br23  1  0.615205  0.602169  0.405125  1
  Br  Br24  1  0.554768  0.820248  0.051043  1
  Br  Br25  1  0.179752  0.445232  0.448957  1
  Br  Br26  1  0.100331  0.966707  0.108258  1
  Br  Br27  1  0.000245  0.334481  0.013123  1
  Br  Br28  1  0.445232  0.179752  0.948957  1
  Br  Br29  1  0.033293  0.899669  0.391742  1
  Br  Br30  1  0.486826  0.641814  0.665341  1
  Br  Br31  1  0.388458  0.102399  0.797758  1
  Br  Br32  1  0.665519  0.999755  0.486877  1
  Br  Br33  1  0.641814  0.486826  0.165341  1
  Br  Br34  1  0.820248  0.554768  0.551043  1
  Br  Br35  1  0.102399  0.388458  0.297758  1
  Br  Br36  1  0.513174  0.358186  0.334659  1
  Br  Br37  1  0.384795  0.397831  0.594875  1
  Br  Br38  1  0.966707  0.100331  0.608258  1
  Br  Br39  1  0.358186  0.513174  0.834659  1
