# generated using pymatgen
data_Tb2Er(Ga2Ni3)3
_symmetry_space_group_name_H-M   'P 1'
_cell_length_a   8.75110800
_cell_length_b   8.75110814
_cell_length_c   4.08830200
_cell_angle_alpha   90.00000000
_cell_angle_beta   90.00000000
_cell_angle_gamma   119.99999947
_symmetry_Int_Tables_number   1
_chemical_formula_structural   Tb2Er(Ga2Ni3)3
_chemical_formula_sum   'Tb2 Er1 Ga6 Ni9'
_cell_volume   271.14381201
_cell_formula_units_Z   1
loop_
 _symmetry_equiv_pos_site_id
 _symmetry_equiv_pos_as_xyz
  1  'x, y, z'
loop_
 _atom_site_type_symbol
 _atom_site_label
 _atom_site_symmetry_multiplicity
 _atom_site_fract_x
 _atom_site_fract_y
 _atom_site_fract_z
 _atom_site_occupancy
  Tb  Tb0  1  0.666667  0.333333  0.500000  1
  Tb  Tb1  1  0.333333  0.666667  0.500000  1
  Er  Er2  1  0.000000  0.000000  0.000000  1
  Ga  Ga3  1  0.482940  0.482940  0.000000  1
  Ga  Ga4  1  0.517060  0.000000  0.000000  1
  Ga  Ga5  1  0.000000  0.517060  0.000000  1
  Ga  Ga6  1  0.729717  0.729717  0.500000  1
  Ga  Ga7  1  0.270283  0.000000  0.500000  1
  Ga  Ga8  1  0.000000  0.270283  0.500000  1
  Ni  Ni9  1  0.825871  0.196446  0.000000  1
  Ni  Ni10  1  0.803554  0.629425  0.000000  1
  Ni  Ni11  1  0.370575  0.174129  0.000000  1
  Ni  Ni12  1  0.196446  0.825871  0.000000  1
  Ni  Ni13  1  0.629425  0.803554  0.000000  1
  Ni  Ni14  1  0.174129  0.370575  0.000000  1
  Ni  Ni15  1  0.293307  0.293307  0.500000  1
  Ni  Ni16  1  0.706693  0.000000  0.500000  1
  Ni  Ni17  1  0.000000  0.706693  0.500000  1
