# generated using pymatgen
data_TbHo3Zr4(NiP)12
_symmetry_space_group_name_H-M   'P 1'
_cell_length_a   3.73927400
_cell_length_b   10.16040116
_cell_length_c   12.36270316
_cell_angle_alpha   89.98055202
_cell_angle_beta   90.00000000
_cell_angle_gamma   90.00000000
_symmetry_Int_Tables_number   1
_chemical_formula_structural   TbHo3Zr4(NiP)12
_chemical_formula_sum   'Tb1 Ho3 Zr4 Ni12 P12'
_cell_volume   469.69026814
_cell_formula_units_Z   1
loop_
 _symmetry_equiv_pos_site_id
 _symmetry_equiv_pos_as_xyz
  1  'x, y, z'
loop_
 _atom_site_type_symbol
 _atom_site_label
 _atom_site_symmetry_multiplicity
 _atom_site_fract_x
 _atom_site_fract_y
 _atom_site_fract_z
 _atom_site_occupancy
  Tb  Tb0  1  0.250000  0.428725  0.707379  1
  Ho  Ho1  1  0.250000  0.071297  0.207400  1
  Ho  Ho2  1  0.750000  0.928748  0.792419  1
  Ho  Ho3  1  0.750000  0.571385  0.292580  1
  Zr  Zr4  1  0.250000  0.158604  0.497444  1
  Zr  Zr5  1  0.750000  0.841197  0.502119  1
  Zr  Zr6  1  0.750000  0.659273  0.002426  1
  Zr  Zr7  1  0.250000  0.340759  0.998087  1
  Ni  Ni8  1  0.250000  0.727933  0.663883  1
  Ni  Ni9  1  0.750000  0.272417  0.335944  1
  Ni  Ni10  1  0.750000  0.227468  0.836125  1
  Ni  Ni11  1  0.250000  0.772339  0.164118  1
  Ni  Ni12  1  0.250000  0.365651  0.220198  1
  Ni  Ni13  1  0.750000  0.635227  0.780507  1
  Ni  Ni14  1  0.750000  0.865744  0.279937  1
  Ni  Ni15  1  0.250000  0.133550  0.719968  1
  Ni  Ni16  1  0.250000  0.598580  0.482459  1
  Ni  Ni17  1  0.750000  0.401122  0.516771  1
  Ni  Ni18  1  0.750000  0.098022  0.016924  1
  Ni  Ni19  1  0.250000  0.902140  0.983107  1
  P  P20  1  0.250000  0.944800  0.624256  1
  P  P21  1  0.750000  0.055084  0.375269  1
  P  P22  1  0.750000  0.445021  0.876440  1
  P  P23  1  0.250000  0.555023  0.124661  1
  P  P24  1  0.250000  0.394729  0.402454  1
  P  P25  1  0.750000  0.605966  0.597333  1
  P  P26  1  0.750000  0.894569  0.097786  1
  P  P27  1  0.250000  0.105567  0.902133  1
  P  P28  1  0.250000  0.770573  0.353498  1
  P  P29  1  0.750000  0.228162  0.646112  1
  P  P30  1  0.750000  0.270402  0.146481  1
  P  P31  1  0.250000  0.729925  0.853782  1
