# generated using pymatgen
data_DyYCd4(Ga2Ni)2
_symmetry_space_group_name_H-M   'P 1'
_cell_length_a   8.47701707
_cell_length_b   8.47701729
_cell_length_c   6.70058600
_cell_angle_alpha   90.00000000
_cell_angle_beta   90.00000000
_cell_angle_gamma   151.82950620
_symmetry_Int_Tables_number   1
_chemical_formula_structural   DyYCd4(Ga2Ni)2
_chemical_formula_sum   'Dy1 Y1 Cd4 Ga4 Ni2'
_cell_volume   227.31600416
_cell_formula_units_Z   1
loop_
 _symmetry_equiv_pos_site_id
 _symmetry_equiv_pos_as_xyz
  1  'x, y, z'
loop_
 _atom_site_type_symbol
 _atom_site_label
 _atom_site_symmetry_multiplicity
 _atom_site_fract_x
 _atom_site_fract_y
 _atom_site_fract_z
 _atom_site_occupancy
  Dy  Dy0  1  0.367360  0.632640  0.750000  1
  Y  Y1  1  0.632041  0.367959  0.250000  1
  Cd  Cd2  1  0.999709  0.000291  0.999074  1
  Cd  Cd3  1  0.999709  0.000291  0.500926  1
  Cd  Cd4  1  0.573139  0.426861  0.750000  1
  Cd  Cd5  1  0.427136  0.572864  0.250000  1
  Ga  Ga6  1  0.189459  0.810541  0.945846  1
  Ga  Ga7  1  0.810799  0.189201  0.053965  1
  Ga  Ga8  1  0.189459  0.810541  0.554154  1
  Ga  Ga9  1  0.810799  0.189201  0.446035  1
  Ni  Ni10  1  0.731651  0.268349  0.750000  1
  Ni  Ni11  1  0.268740  0.731260  0.250000  1
