# generated using pymatgen
data_TbHo5(MoO7)2
_symmetry_space_group_name_H-M   'P 1'
_cell_length_a   6.45718395
_cell_length_b   6.45718343
_cell_length_c   7.44645817
_cell_angle_alpha   90.01975897
_cell_angle_beta   89.98024690
_cell_angle_gamma   108.67112759
_symmetry_Int_Tables_number   1
_chemical_formula_structural   TbHo5(MoO7)2
_chemical_formula_sum   'Tb1 Ho5 Mo2 O14'
_cell_volume   294.14157512
_cell_formula_units_Z   1
loop_
 _symmetry_equiv_pos_site_id
 _symmetry_equiv_pos_as_xyz
  1  'x, y, z'
loop_
 _atom_site_type_symbol
 _atom_site_label
 _atom_site_symmetry_multiplicity
 _atom_site_fract_x
 _atom_site_fract_y
 _atom_site_fract_z
 _atom_site_occupancy
  Tb  Tb0  1  0.470316  0.470316  0.000000  1
  Ho  Ho1  1  0.464293  0.999121  0.256990  1
  Ho  Ho2  1  0.535685  0.001043  0.755777  1
  Ho  Ho3  1  0.001043  0.535685  0.244223  1
  Ho  Ho4  1  0.533676  0.533676  0.500000  1
  Ho  Ho5  1  0.999121  0.464293  0.743010  1
  Mo  Mo6  1  0.998755  0.998755  0.000000  1
  Mo  Mo7  1  0.001418  0.001418  0.500000  1
  O  O8  1  0.056653  0.311457  0.461460  1
  O  O9  1  0.075493  0.924450  0.249924  1
  O  O10  1  0.631592  0.368633  0.252260  1
  O  O11  1  0.311457  0.056653  0.538540  1
  O  O12  1  0.916357  0.671967  0.525684  1
  O  O13  1  0.924450  0.075493  0.750076  1
  O  O14  1  0.671967  0.916357  0.474316  1
  O  O15  1  0.361819  0.638031  0.252074  1
  O  O16  1  0.687484  0.941800  0.038360  1
  O  O17  1  0.638031  0.361819  0.747926  1
  O  O18  1  0.082208  0.327748  0.025805  1
  O  O19  1  0.941800  0.687484  0.961640  1
  O  O20  1  0.368633  0.631592  0.747740  1
  O  O21  1  0.327748  0.082208  0.974195  1
