# generated using pymatgen
data_Ca9Sm(Sn3H)2
_symmetry_space_group_name_H-M   'P 1'
_cell_length_a   9.44847041
_cell_length_b   9.44847079
_cell_length_c   9.45718156
_cell_angle_alpha   128.67042714
_cell_angle_beta   128.67042686
_cell_angle_gamma   75.51400529
_symmetry_Int_Tables_number   1
_chemical_formula_structural   Ca9Sm(Sn3H)2
_chemical_formula_sum   'Ca9 Sm1 Sn6 H2'
_cell_volume   500.83692370
_cell_formula_units_Z   1
loop_
 _symmetry_equiv_pos_site_id
 _symmetry_equiv_pos_as_xyz
  1  'x, y, z'
loop_
 _atom_site_type_symbol
 _atom_site_label
 _atom_site_symmetry_multiplicity
 _atom_site_fract_x
 _atom_site_fract_y
 _atom_site_fract_z
 _atom_site_occupancy
  Ca  Ca0  1  0.499659  0.501790  0.000601  1
  Ca  Ca1  1  0.001790  0.999659  0.000601  1
  Ca  Ca2  1  0.186435  0.686435  0.175712  1
  Ca  Ca3  1  0.009383  0.185763  0.499469  1
  Ca  Ca4  1  0.685763  0.509383  0.499469  1
  Ca  Ca5  1  0.490911  0.990911  0.180906  1
  Ca  Ca6  1  0.811525  0.311525  0.821333  1
  Ca  Ca7  1  0.987895  0.812537  0.498292  1
  Ca  Ca8  1  0.312537  0.487895  0.498292  1
  Sm  Sm9  1  0.513902  0.013902  0.825351  1
  Sn  Sn10  1  0.252826  0.245962  0.995728  1
  Sn  Sn11  1  0.745962  0.752826  0.995728  1
  Sn  Sn12  1  0.870717  0.370717  0.243122  1
  Sn  Sn13  1  0.126553  0.626553  0.752866  1
  Sn  Sn14  1  0.371589  0.128112  0.503334  1
  Sn  Sn15  1  0.628112  0.871589  0.503334  1
  H  H16  1  0.254439  0.754439  0.504908  1
  H  H17  1  0.750004  0.250004  0.500952  1
