# generated using pymatgen
data_Ti12Mn5CrIr6
_symmetry_space_group_name_H-M   'P 1'
_cell_length_a   4.30505103
_cell_length_b   6.10386705
_cell_length_c   12.93849400
_cell_angle_alpha   89.99989995
_cell_angle_beta   90.00031467
_cell_angle_gamma   89.98593823
_symmetry_Int_Tables_number   1
_chemical_formula_structural   Ti12Mn5CrIr6
_chemical_formula_sum   'Ti12 Mn5 Cr1 Ir6'
_cell_volume   339.99073702
_cell_formula_units_Z   1
loop_
 _symmetry_equiv_pos_site_id
 _symmetry_equiv_pos_as_xyz
  1  'x, y, z'
loop_
 _atom_site_type_symbol
 _atom_site_label
 _atom_site_symmetry_multiplicity
 _atom_site_fract_x
 _atom_site_fract_y
 _atom_site_fract_z
 _atom_site_occupancy
  Ti  Ti0  1  0.500003  0.249651  0.999997  1
  Ti  Ti1  1  0.500002  0.750351  0.999996  1
  Ti  Ti2  1  0.000031  0.249448  0.166206  1
  Ti  Ti3  1  0.999982  0.750547  0.166211  1
  Ti  Ti4  1  0.500024  0.250052  0.332920  1
  Ti  Ti5  1  0.500014  0.749944  0.332922  1
  Ti  Ti6  1  0.000008  0.249608  0.499973  1
  Ti  Ti7  1  0.999997  0.750389  0.499972  1
  Ti  Ti8  1  0.500000  0.250179  0.667079  1
  Ti  Ti9  1  0.499979  0.749819  0.667081  1
  Ti  Ti10  1  0.000026  0.249497  0.833819  1
  Ti  Ti11  1  0.999977  0.750500  0.833815  1
  Mn  Mn12  1  0.500015  0.499970  0.167606  1
  Mn  Mn13  1  0.000005  0.000027  0.334170  1
  Mn  Mn14  1  0.500008  0.499972  0.499965  1
  Mn  Mn15  1  0.999996  0.000025  0.665800  1
  Mn  Mn16  1  0.499992  0.499969  0.832415  1
  Cr  Cr17  1  0.999924  0.000051  0.000051  1
  Ir  Ir18  1  0.000002  0.499988  0.000008  1
  Ir  Ir19  1  0.500004  0.000011  0.167708  1
  Ir  Ir20  1  0.000020  0.499989  0.333721  1
  Ir  Ir21  1  0.500002  0.000010  0.499985  1
  Ir  Ir22  1  0.999988  0.499988  0.666269  1
  Ir  Ir23  1  0.500001  0.000012  0.832313  1
