# generated using pymatgen
data_Pr4Hf3Sn13Ir8
_symmetry_space_group_name_H-M   'P 1'
_cell_length_a   4.56260800
_cell_length_b   7.29805931
_cell_length_c   18.42340117
_cell_angle_alpha   89.39185897
_cell_angle_beta   90.00000000
_cell_angle_gamma   90.00000000
_symmetry_Int_Tables_number   1
_chemical_formula_structural   Pr4Hf3Sn13Ir8
_chemical_formula_sum   'Pr4 Hf3 Sn13 Ir8'
_cell_volume   613.43124232
_cell_formula_units_Z   1
loop_
 _symmetry_equiv_pos_site_id
 _symmetry_equiv_pos_as_xyz
  1  'x, y, z'
loop_
 _atom_site_type_symbol
 _atom_site_label
 _atom_site_symmetry_multiplicity
 _atom_site_fract_x
 _atom_site_fract_y
 _atom_site_fract_z
 _atom_site_occupancy
  Pr  Pr0  1  0.250000  0.987213  0.861016  1
  Pr  Pr1  1  0.250000  0.514759  0.361550  1
  Pr  Pr2  1  0.750000  0.006880  0.139407  1
  Pr  Pr3  1  0.750000  0.493252  0.638349  1
  Hf  Hf4  1  0.250000  0.326995  0.183583  1
  Hf  Hf5  1  0.250000  0.165992  0.683236  1
  Hf  Hf6  1  0.750000  0.663082  0.816662  1
  Sn  Sn7  1  0.750000  0.814886  0.318950  1
  Sn  Sn8  1  0.250000  0.733051  0.195313  1
  Sn  Sn9  1  0.250000  0.762146  0.701894  1
  Sn  Sn10  1  0.750000  0.261024  0.797038  1
  Sn  Sn11  1  0.750000  0.231641  0.299393  1
  Sn  Sn12  1  0.250000  0.862016  0.032590  1
  Sn  Sn13  1  0.250000  0.647616  0.535269  1
  Sn  Sn14  1  0.750000  0.140070  0.964139  1
  Sn  Sn15  1  0.750000  0.370414  0.467321  1
  Sn  Sn16  1  0.250000  0.524472  0.927897  1
  Sn  Sn17  1  0.250000  0.994495  0.432758  1
  Sn  Sn18  1  0.750000  0.471467  0.069436  1
  Sn  Sn19  1  0.750000  0.030184  0.572504  1
  Ir  Ir20  1  0.250000  0.248844  0.037381  1
  Ir  Ir21  1  0.250000  0.260413  0.539027  1
  Ir  Ir22  1  0.750000  0.749384  0.961934  1
  Ir  Ir23  1  0.750000  0.761324  0.467542  1
  Ir  Ir24  1  0.250000  0.032557  0.280318  1
  Ir  Ir25  1  0.250000  0.456592  0.780754  1
  Ir  Ir26  1  0.750000  0.957514  0.719487  1
  Ir  Ir27  1  0.750000  0.531719  0.215251  1
