# generated using pymatgen
data_RbZrRhSe4
_symmetry_space_group_name_H-M   'P 1'
_cell_length_a   3.83981100
_cell_length_b   8.78800767
_cell_length_c   6.18719329
_cell_angle_alpha   70.97596980
_cell_angle_beta   90.00000000
_cell_angle_gamma   90.00000000
_symmetry_Int_Tables_number   1
_chemical_formula_structural   RbZrRhSe4
_chemical_formula_sum   'Rb1 Zr1 Rh1 Se4'
_cell_volume   197.37914529
_cell_formula_units_Z   1
loop_
 _symmetry_equiv_pos_site_id
 _symmetry_equiv_pos_as_xyz
  1  'x, y, z'
loop_
 _atom_site_type_symbol
 _atom_site_label
 _atom_site_symmetry_multiplicity
 _atom_site_fract_x
 _atom_site_fract_y
 _atom_site_fract_z
 _atom_site_occupancy
  Rb  Rb0  1  0.500000  0.506466  0.644429  1
  Zr  Zr1  1  0.000000  0.990793  0.960447  1
  Rh  Rh2  1  0.500000  0.004852  0.531514  1
  Se  Se3  1  0.000000  0.849641  0.436546  1
  Se  Se4  1  0.500000  0.785588  0.936188  1
  Se  Se5  1  0.000000  0.198468  0.552381  1
  Se  Se6  1  0.500000  0.163313  0.105454  1
