# generated using pymatgen
data_Sc4V2ReOs5
_symmetry_space_group_name_H-M   'P 1'
_cell_length_a   5.11615602
_cell_length_b   5.23507676
_cell_length_c   8.63919600
_cell_angle_alpha   90.00000000
_cell_angle_beta   90.00000000
_cell_angle_gamma   120.03421568
_symmetry_Int_Tables_number   1
_chemical_formula_structural   Sc4V2ReOs5
_chemical_formula_sum   'Sc4 V2 Re1 Os5'
_cell_volume   200.31845104
_cell_formula_units_Z   1
loop_
 _symmetry_equiv_pos_site_id
 _symmetry_equiv_pos_as_xyz
  1  'x, y, z'
loop_
 _atom_site_type_symbol
 _atom_site_label
 _atom_site_symmetry_multiplicity
 _atom_site_fract_x
 _atom_site_fract_y
 _atom_site_fract_z
 _atom_site_occupancy
  Sc  Sc0  1  0.336288  0.670463  0.435758  1
  Sc  Sc1  1  0.664012  0.331865  0.560760  1
  Sc  Sc2  1  0.664012  0.331865  0.939240  1
  Sc  Sc3  1  0.336288  0.670463  0.064242  1
  V  V4  1  0.166403  0.826030  0.750000  1
  V  V5  1  0.345659  0.171868  0.250000  1
  Re  Re6  1  0.166697  0.340779  0.750000  1
  Os  Os7  1  0.827307  0.654338  0.250000  1
  Os  Os8  1  0.644894  0.820632  0.750000  1
  Os  Os9  1  0.009178  0.004738  0.999230  1
  Os  Os10  1  0.830082  0.172221  0.250000  1
  Os  Os11  1  0.009178  0.004738  0.500770  1
