# generated using pymatgen
data_Pr2Ho3Sc3(Co4P3)4
_symmetry_space_group_name_H-M   'P 1'
_cell_length_a   12.31643400
_cell_length_b   12.31643300
_cell_length_c   3.73921100
_cell_angle_alpha   90.00000000
_cell_angle_beta   90.00000000
_cell_angle_gamma   120.00000805
_symmetry_Int_Tables_number   1
_chemical_formula_structural   Pr2Ho3Sc3(Co4P3)4
_chemical_formula_sum   'Pr2 Ho3 Sc3 Co16 P12'
_cell_volume   491.22504587
_cell_formula_units_Z   1
loop_
 _symmetry_equiv_pos_site_id
 _symmetry_equiv_pos_as_xyz
  1  'x, y, z'
loop_
 _atom_site_type_symbol
 _atom_site_label
 _atom_site_symmetry_multiplicity
 _atom_site_fract_x
 _atom_site_fract_y
 _atom_site_fract_z
 _atom_site_occupancy
  Pr  Pr0  1  0.666667  0.333333  0.000000  1
  Pr  Pr1  1  0.333333  0.666667  0.000000  1
  Ho  Ho2  1  0.815928  0.815928  0.500000  1
  Ho  Ho3  1  0.184072  0.000000  0.500000  1
  Ho  Ho4  1  0.000000  0.184072  0.500000  1
  Sc  Sc5  1  0.439735  0.439735  0.000000  1
  Sc  Sc6  1  0.560265  0.000000  0.000000  1
  Sc  Sc7  1  0.000000  0.560265  0.000000  1
  Co  Co8  1  0.878133  0.353567  0.500000  1
  Co  Co9  1  0.646433  0.524566  0.500000  1
  Co  Co10  1  0.475434  0.121867  0.500000  1
  Co  Co11  1  0.353567  0.878133  0.500000  1
  Co  Co12  1  0.524566  0.646433  0.500000  1
  Co  Co13  1  0.121867  0.475434  0.500000  1
  Co  Co14  1  0.806514  0.177322  0.000000  1
  Co  Co15  1  0.822678  0.629192  0.000000  1
  Co  Co16  1  0.370808  0.193486  0.000000  1
  Co  Co17  1  0.177322  0.806514  0.000000  1
  Co  Co18  1  0.629192  0.822678  0.000000  1
  Co  Co19  1  0.193486  0.370808  0.000000  1
  Co  Co20  1  0.276023  0.276023  0.500000  1
  Co  Co21  1  0.723977  0.000000  0.500000  1
  Co  Co22  1  0.000000  0.723977  0.500000  1
  Co  Co23  1  0.000000  0.000000  0.000000  1
  P  P24  1  0.695471  0.167822  0.500000  1
  P  P25  1  0.832178  0.527649  0.500000  1
  P  P26  1  0.472351  0.304529  0.500000  1
  P  P27  1  0.167822  0.695471  0.500000  1
  P  P28  1  0.527649  0.832178  0.500000  1
  P  P29  1  0.304529  0.472351  0.500000  1
  P  P30  1  0.177498  0.177498  0.000000  1
  P  P31  1  0.822502  0.000000  0.000000  1
  P  P32  1  0.000000  0.822502  0.000000  1
  P  P33  1  0.645491  0.645491  0.000000  1
  P  P34  1  0.354509  0.000000  0.000000  1
  P  P35  1  0.000000  0.354509  0.000000  1
