# generated using pymatgen
data_Pr2Er(AlBr)2
_symmetry_space_group_name_H-M   'P 1'
_cell_length_a   9.63391957
_cell_length_b   9.63392013
_cell_length_c   11.84166200
_cell_angle_alpha   59.68451279
_cell_angle_beta   59.68451086
_cell_angle_gamma   25.09538955
_symmetry_Int_Tables_number   1
_chemical_formula_structural   Pr2Er(AlBr)2
_chemical_formula_sum   'Pr4 Er2 Al4 Br4'
_cell_volume   398.97549429
_cell_formula_units_Z   2
loop_
 _symmetry_equiv_pos_site_id
 _symmetry_equiv_pos_as_xyz
  1  'x, y, z'
loop_
 _atom_site_type_symbol
 _atom_site_label
 _atom_site_symmetry_multiplicity
 _atom_site_fract_x
 _atom_site_fract_y
 _atom_site_fract_z
 _atom_site_occupancy
  Pr  Pr0  1  0.751528  0.751528  0.808879  1
  Pr  Pr1  1  0.248472  0.248472  0.191121  1
  Pr  Pr2  1  0.536291  0.536291  0.303170  1
  Pr  Pr3  1  0.463709  0.463709  0.696830  1
  Er  Er4  1  0.834937  0.834937  0.382071  1
  Er  Er5  1  0.165063  0.165063  0.617929  1
  Al  Al6  1  0.925519  0.925519  0.529482  1
  Al  Al7  1  0.074481  0.074481  0.470518  1
  Al  Al8  1  0.334021  0.334021  0.580831  1
  Al  Al9  1  0.665979  0.665979  0.419169  1
  Br  Br10  1  0.418412  0.418412  0.180638  1
  Br  Br11  1  0.581588  0.581588  0.819362  1
  Br  Br12  1  0.857819  0.857819  0.941117  1
  Br  Br13  1  0.142181  0.142181  0.058883  1
