# generated using pymatgen
data_PrNd3(ZnIr)4
_symmetry_space_group_name_H-M   'P 1'
_cell_length_a   4.16088400
_cell_length_b   7.18036546
_cell_length_c   8.26431270
_cell_angle_alpha   89.91110512
_cell_angle_beta   90.00000000
_cell_angle_gamma   90.00000000
_symmetry_Int_Tables_number   1
_chemical_formula_structural   PrNd3(ZnIr)4
_chemical_formula_sum   'Pr1 Nd3 Zn4 Ir4'
_cell_volume   246.90982736
_cell_formula_units_Z   1
loop_
 _symmetry_equiv_pos_site_id
 _symmetry_equiv_pos_as_xyz
  1  'x, y, z'
loop_
 _atom_site_type_symbol
 _atom_site_label
 _atom_site_symmetry_multiplicity
 _atom_site_fract_x
 _atom_site_fract_y
 _atom_site_fract_z
 _atom_site_occupancy
  Pr  Pr0  1  0.250000  0.532654  0.185980  1
  Nd  Nd1  1  0.750000  0.466706  0.813455  1
  Nd  Nd2  1  0.750000  0.967306  0.686076  1
  Nd  Nd3  1  0.250000  0.033110  0.314764  1
  Zn  Zn4  1  0.250000  0.640600  0.566317  1
  Zn  Zn5  1  0.750000  0.359760  0.434753  1
  Zn  Zn6  1  0.750000  0.861289  0.065395  1
  Zn  Zn7  1  0.250000  0.139367  0.933575  1
  Ir  Ir8  1  0.250000  0.762914  0.880477  1
  Ir  Ir9  1  0.750000  0.234756  0.117884  1
  Ir  Ir10  1  0.750000  0.738231  0.382840  1
  Ir  Ir11  1  0.250000  0.263308  0.618485  1
