# generated using pymatgen
data_Y4Ga2Ge4Ir7
_symmetry_space_group_name_H-M   'P 1'
_cell_length_a   7.29598176
_cell_length_b   7.30195814
_cell_length_c   7.30195662
_cell_angle_alpha   109.73686602
_cell_angle_beta   109.35503178
_cell_angle_gamma   109.35502835
_symmetry_Int_Tables_number   1
_chemical_formula_structural   Y4Ga2Ge4Ir7
_chemical_formula_sum   'Y4 Ga2 Ge4 Ir7'
_cell_volume   299.33478793
_cell_formula_units_Z   1
loop_
 _symmetry_equiv_pos_site_id
 _symmetry_equiv_pos_as_xyz
  1  'x, y, z'
loop_
 _atom_site_type_symbol
 _atom_site_label
 _atom_site_symmetry_multiplicity
 _atom_site_fract_x
 _atom_site_fract_y
 _atom_site_fract_z
 _atom_site_occupancy
  Y  Y0  1  0.000000  0.998220  0.503090  1
  Y  Y1  1  0.000000  0.496910  0.001780  1
  Y  Y2  1  0.500000  0.998479  0.001521  1
  Y  Y3  1  0.500000  0.498479  0.501521  1
  Ga  Ga4  1  0.688087  0.686865  0.001222  1
  Ga  Ga5  1  0.311913  0.998778  0.313135  1
  Ge  Ge6  1  0.000000  0.315968  0.318565  1
  Ge  Ge7  1  0.323517  0.322360  0.001157  1
  Ge  Ge8  1  0.676483  0.998843  0.677640  1
  Ge  Ge9  1  0.000000  0.681435  0.684032  1
  Ir  Ir10  1  0.749637  0.249373  0.500263  1
  Ir  Ir11  1  0.750939  0.499719  0.251219  1
  Ir  Ir12  1  0.500000  0.249737  0.750263  1
  Ir  Ir13  1  0.250363  0.499737  0.750627  1
  Ir  Ir14  1  0.249061  0.748781  0.500281  1
  Ir  Ir15  1  0.500000  0.749737  0.250263  1
  Ir  Ir16  1  0.000000  0.006578  0.993422  1
