# generated using pymatgen
data_Tb2TcP4Rh5
_symmetry_space_group_name_H-M   'P 1'
_cell_length_a   3.94952400
_cell_length_b   11.21270400
_cell_length_c   12.73961800
_cell_angle_alpha   90.00000000
_cell_angle_beta   90.00000000
_cell_angle_gamma   90.00000000
_symmetry_Int_Tables_number   1
_chemical_formula_structural   Tb2TcP4Rh5
_chemical_formula_sum   'Tb6 Tc3 P12 Rh15'
_cell_volume   564.17199005
_cell_formula_units_Z   3
loop_
 _symmetry_equiv_pos_site_id
 _symmetry_equiv_pos_as_xyz
  1  'x, y, z'
loop_
 _atom_site_type_symbol
 _atom_site_label
 _atom_site_symmetry_multiplicity
 _atom_site_fract_x
 _atom_site_fract_y
 _atom_site_fract_z
 _atom_site_occupancy
  Tb  Tb0  1  0.000000  0.500000  0.521032  1
  Tb  Tb1  1  0.500000  0.000000  0.478130  1
  Tb  Tb2  1  0.500000  0.813830  0.203801  1
  Tb  Tb3  1  0.500000  0.186170  0.203801  1
  Tb  Tb4  1  0.000000  0.682914  0.796992  1
  Tb  Tb5  1  0.000000  0.317086  0.796992  1
  Tc  Tc6  1  0.500000  0.500000  0.158152  1
  Tc  Tc7  1  0.000000  0.000000  0.841513  1
  Tc  Tc8  1  0.000000  0.500000  0.988137  1
  P  P9  1  0.500000  0.500000  0.878762  1
  P  P10  1  0.000000  0.000000  0.123719  1
  P  P11  1  0.500000  0.500000  0.343733  1
  P  P12  1  0.000000  0.000000  0.654777  1
  P  P13  1  0.500000  0.313208  0.619148  1
  P  P14  1  0.500000  0.686792  0.619148  1
  P  P15  1  0.000000  0.186083  0.381201  1
  P  P16  1  0.000000  0.813917  0.381201  1
  P  P17  1  0.500000  0.848280  0.889593  1
  P  P18  1  0.500000  0.151720  0.889593  1
  P  P19  1  0.000000  0.650074  0.108552  1
  P  P20  1  0.000000  0.349926  0.108552  1
  Rh  Rh21  1  0.500000  0.500000  0.696741  1
  Rh  Rh22  1  0.000000  0.000000  0.301343  1
  Rh  Rh23  1  0.500000  0.000000  0.011983  1
  Rh  Rh24  1  0.500000  0.328387  0.986024  1
  Rh  Rh25  1  0.500000  0.671613  0.986024  1
  Rh  Rh26  1  0.000000  0.166603  0.014772  1
  Rh  Rh27  1  0.000000  0.833397  0.014772  1
  Rh  Rh28  1  0.500000  0.295257  0.431689  1
  Rh  Rh29  1  0.500000  0.704743  0.431689  1
  Rh  Rh30  1  0.000000  0.205494  0.569151  1
  Rh  Rh31  1  0.000000  0.794506  0.569151  1
  Rh  Rh32  1  0.500000  0.876129  0.709790  1
  Rh  Rh33  1  0.500000  0.123871  0.709790  1
  Rh  Rh34  1  0.000000  0.624836  0.290275  1
  Rh  Rh35  1  0.000000  0.375164  0.290275  1
