# generated using pymatgen
data_ThInGa3Co
_symmetry_space_group_name_H-M   'P 1'
_cell_length_a   8.23787960
_cell_length_b   8.23787965
_cell_length_c   6.75360800
_cell_angle_alpha   90.00000000
_cell_angle_beta   90.00000000
_cell_angle_gamma   149.83607641
_symmetry_Int_Tables_number   1
_chemical_formula_structural   ThInGa3Co
_chemical_formula_sum   'Th2 In2 Ga6 Co2'
_cell_volume   230.29354081
_cell_formula_units_Z   2
loop_
 _symmetry_equiv_pos_site_id
 _symmetry_equiv_pos_as_xyz
  1  'x, y, z'
loop_
 _atom_site_type_symbol
 _atom_site_label
 _atom_site_symmetry_multiplicity
 _atom_site_fract_x
 _atom_site_fract_y
 _atom_site_fract_z
 _atom_site_occupancy
  Th  Th0  1  0.375967  0.624033  0.750000  1
  Th  Th1  1  0.624033  0.375967  0.250000  1
  In  In2  1  0.000000  0.000000  0.000000  1
  In  In3  1  0.000000  0.000000  0.500000  1
  Ga  Ga4  1  0.808313  0.191687  0.055723  1
  Ga  Ga5  1  0.191687  0.808313  0.944277  1
  Ga  Ga6  1  0.191687  0.808313  0.555723  1
  Ga  Ga7  1  0.808313  0.191687  0.444277  1
  Ga  Ga8  1  0.421289  0.578711  0.250000  1
  Ga  Ga9  1  0.578711  0.421289  0.750000  1
  Co  Co10  1  0.727088  0.272912  0.750000  1
  Co  Co11  1  0.272912  0.727088  0.250000  1
