# generated using pymatgen
data_Ba11Tl(SnAu)12
_symmetry_space_group_name_H-M   'P 1'
_cell_length_a   5.01242300
_cell_length_b   8.46095560
_cell_length_c   25.20439200
_cell_angle_alpha   90.03526746
_cell_angle_beta   90.00000000
_cell_angle_gamma   90.00000000
_symmetry_Int_Tables_number   1
_chemical_formula_structural   Ba11Tl(SnAu)12
_chemical_formula_sum   'Ba11 Tl1 Sn12 Au12'
_cell_volume   1068.91525107
_cell_formula_units_Z   1
loop_
 _symmetry_equiv_pos_site_id
 _symmetry_equiv_pos_as_xyz
  1  'x, y, z'
loop_
 _atom_site_type_symbol
 _atom_site_label
 _atom_site_symmetry_multiplicity
 _atom_site_fract_x
 _atom_site_fract_y
 _atom_site_fract_z
 _atom_site_occupancy
  Ba  Ba0  1  0.250000  0.798551  0.167060  1
  Ba  Ba1  1  0.250000  0.813142  0.502536  1
  Ba  Ba2  1  0.250000  0.794152  0.832344  1
  Ba  Ba3  1  0.250000  0.704678  0.336332  1
  Ba  Ba4  1  0.750000  0.201842  0.832967  1
  Ba  Ba5  1  0.750000  0.292588  0.996981  1
  Ba  Ba6  1  0.750000  0.295623  0.663382  1
  Ba  Ba7  1  0.750000  0.296166  0.337265  1
  Ba  Ba8  1  0.250000  0.701717  0.663622  1
  Ba  Ba9  1  0.250000  0.706152  0.002775  1
  Ba  Ba10  1  0.750000  0.205207  0.167741  1
  Tl  Tl11  1  0.750000  0.202100  0.496384  1
  Sn  Sn12  1  0.250000  0.406895  0.556559  1
  Sn  Sn13  1  0.250000  0.082762  0.395426  1
  Sn  Sn14  1  0.250000  0.086816  0.063063  1
  Sn  Sn15  1  0.250000  0.417186  0.894510  1
  Sn  Sn16  1  0.750000  0.582365  0.105302  1
  Sn  Sn17  1  0.250000  0.417580  0.770741  1
  Sn  Sn18  1  0.750000  0.581745  0.229595  1
  Sn  Sn19  1  0.750000  0.578341  0.442114  1
  Sn  Sn20  1  0.750000  0.913336  0.936821  1
  Sn  Sn21  1  0.250000  0.082378  0.271922  1
  Sn  Sn22  1  0.750000  0.921673  0.603267  1
  Sn  Sn23  1  0.750000  0.916999  0.727657  1
  Au  Au24  1  0.250000  0.090296  0.597303  1
  Au  Au25  1  0.250000  0.084031  0.737947  1
  Au  Au26  1  0.750000  0.587051  0.905576  1
  Au  Au27  1  0.750000  0.914649  0.407190  1
  Au  Au28  1  0.750000  0.586714  0.563549  1
  Au  Au29  1  0.750000  0.584222  0.759247  1
  Au  Au30  1  0.250000  0.409045  0.436714  1
  Au  Au31  1  0.250000  0.416108  0.240680  1
  Au  Au32  1  0.750000  0.918777  0.066413  1
  Au  Au33  1  0.250000  0.413437  0.094364  1
  Au  Au34  1  0.250000  0.081500  0.933172  1
  Au  Au35  1  0.750000  0.914174  0.261477  1
