# generated using pymatgen
data_Y16In4Ni3Rh
_symmetry_space_group_name_H-M   'P 1'
_cell_length_a   9.67993638
_cell_length_b   9.65702474
_cell_length_c   9.65702500
_cell_angle_alpha   60.00000253
_cell_angle_beta   60.07826878
_cell_angle_gamma   60.07827369
_symmetry_Int_Tables_number   1
_chemical_formula_structural   Y16In4Ni3Rh
_chemical_formula_sum   'Y16 In4 Ni3 Rh1'
_cell_volume   639.08261212
_cell_formula_units_Z   1
loop_
 _symmetry_equiv_pos_site_id
 _symmetry_equiv_pos_as_xyz
  1  'x, y, z'
loop_
 _atom_site_type_symbol
 _atom_site_label
 _atom_site_symmetry_multiplicity
 _atom_site_fract_x
 _atom_site_fract_y
 _atom_site_fract_z
 _atom_site_occupancy
  Y  Y0  1  0.595238  0.600004  0.600004  1
  Y  Y1  1  0.595238  0.600004  0.204754  1
  Y  Y2  1  0.595238  0.204754  0.600004  1
  Y  Y3  1  0.209063  0.596979  0.596979  1
  Y  Y4  1  0.063630  0.438658  0.438658  1
  Y  Y5  1  0.439050  0.061119  0.061119  1
  Y  Y6  1  0.439050  0.061119  0.438714  1
  Y  Y7  1  0.063630  0.438658  0.059055  1
  Y  Y8  1  0.439050  0.438714  0.061119  1
  Y  Y9  1  0.063630  0.059055  0.438658  1
  Y  Y10  1  0.186216  0.812865  0.812865  1
  Y  Y11  1  0.811438  0.189417  0.189417  1
  Y  Y12  1  0.811438  0.189417  0.809728  1
  Y  Y13  1  0.186216  0.812865  0.188053  1
  Y  Y14  1  0.811438  0.809728  0.189417  1
  Y  Y15  1  0.186216  0.188053  0.812865  1
  In  In16  1  0.833892  0.831938  0.831938  1
  In  In17  1  0.833892  0.831938  0.502233  1
  In  In18  1  0.833892  0.502233  0.831938  1
  In  In19  1  0.499670  0.833444  0.833444  1
  Ni  Ni20  1  0.393236  0.391197  0.391197  1
  Ni  Ni21  1  0.393236  0.391197  0.824369  1
  Ni  Ni22  1  0.393236  0.824369  0.391197  1
  Rh  Rh23  1  0.823169  0.392277  0.392277  1
