# generated using pymatgen
data_Y2Ho7Lu(In2Pt)4
_symmetry_space_group_name_H-M   'P 1'
_cell_length_a   3.61550000
_cell_length_b   8.15700037
_cell_length_c   18.18611708
_cell_angle_alpha   90.06658112
_cell_angle_beta   90.00000000
_cell_angle_gamma   90.00000000
_symmetry_Int_Tables_number   1
_chemical_formula_structural   Y2Ho7Lu(In2Pt)4
_chemical_formula_sum   'Y2 Ho7 Lu1 In8 Pt4'
_cell_volume   536.33796206
_cell_formula_units_Z   1
loop_
 _symmetry_equiv_pos_site_id
 _symmetry_equiv_pos_as_xyz
  1  'x, y, z'
loop_
 _atom_site_type_symbol
 _atom_site_label
 _atom_site_symmetry_multiplicity
 _atom_site_fract_x
 _atom_site_fract_y
 _atom_site_fract_z
 _atom_site_occupancy
  Y  Y0  1  0.000000  0.000128  0.000372  1
  Y  Y1  1  0.000000  0.500376  0.499345  1
  Ho  Ho2  1  0.000000  0.884047  0.584814  1
  Ho  Ho3  1  0.000000  0.384063  0.914662  1
  Ho  Ho4  1  0.000000  0.616255  0.085655  1
  Ho  Ho5  1  0.000000  0.241542  0.220395  1
  Ho  Ho6  1  0.000000  0.758471  0.779573  1
  Ho  Ho7  1  0.000000  0.258487  0.719441  1
  Ho  Ho8  1  0.000000  0.740555  0.281066  1
  Lu  Lu9  1  0.000000  0.115570  0.413586  1
  In  In10  1  0.500000  0.418664  0.351284  1
  In  In11  1  0.500000  0.578286  0.648695  1
  In  In12  1  0.500000  0.078209  0.850641  1
  In  In13  1  0.500000  0.921478  0.150278  1
  In  In14  1  0.500000  0.293021  0.067005  1
  In  In15  1  0.500000  0.707579  0.933173  1
  In  In16  1  0.500000  0.206289  0.564756  1
  In  In17  1  0.500000  0.795861  0.433842  1
  Pt  Pt18  1  0.500000  0.024639  0.305007  1
  Pt  Pt19  1  0.500000  0.976696  0.696036  1
  Pt  Pt20  1  0.500000  0.475755  0.803213  1
  Pt  Pt21  1  0.500000  0.524027  0.197160  1
