# generated using pymatgen
data_La2Mg3(ZnSn)3
_symmetry_space_group_name_H-M   'P 1'
_cell_length_a   8.34982400
_cell_length_b   8.34982239
_cell_length_c   4.36700700
_cell_angle_alpha   90.00000000
_cell_angle_beta   90.00000000
_cell_angle_gamma   119.99999052
_symmetry_Int_Tables_number   1
_chemical_formula_structural   La2Mg3(ZnSn)3
_chemical_formula_sum   'La2 Mg3 Zn3 Sn3'
_cell_volume   263.67510064
_cell_formula_units_Z   1
loop_
 _symmetry_equiv_pos_site_id
 _symmetry_equiv_pos_as_xyz
  1  'x, y, z'
loop_
 _atom_site_type_symbol
 _atom_site_label
 _atom_site_symmetry_multiplicity
 _atom_site_fract_x
 _atom_site_fract_y
 _atom_site_fract_z
 _atom_site_occupancy
  La  La0  1  0.666667  0.333333  0.000000  1
  La  La1  1  0.333333  0.666667  0.000000  1
  Mg  Mg2  1  0.733460  0.000000  0.500000  1
  Mg  Mg3  1  0.000000  0.733460  0.500000  1
  Mg  Mg4  1  0.266540  0.266540  0.500000  1
  Zn  Zn5  1  0.183677  0.000000  0.000000  1
  Zn  Zn6  1  0.816323  0.816323  0.000000  1
  Zn  Zn7  1  0.000000  0.183677  0.000000  1
  Sn  Sn8  1  0.390990  0.000000  0.500000  1
  Sn  Sn9  1  0.609010  0.609010  0.500000  1
  Sn  Sn10  1  0.000000  0.390990  0.500000  1
