# generated using pymatgen
data_K2OsF8
_symmetry_space_group_name_H-M   'P 1'
_cell_length_a   5.85209200
_cell_length_b   8.65581900
_cell_length_c   12.43354100
_cell_angle_alpha   90.00000000
_cell_angle_beta   90.00000000
_cell_angle_gamma   90.00000000
_symmetry_Int_Tables_number   1
_chemical_formula_structural   K2OsF8
_chemical_formula_sum   'K8 Os4 F32'
_cell_volume   629.81665672
_cell_formula_units_Z   4
loop_
 _symmetry_equiv_pos_site_id
 _symmetry_equiv_pos_as_xyz
  1  'x, y, z'
loop_
 _atom_site_type_symbol
 _atom_site_label
 _atom_site_symmetry_multiplicity
 _atom_site_fract_x
 _atom_site_fract_y
 _atom_site_fract_z
 _atom_site_occupancy
  K  K0  1  0.250000  0.549497  0.709479  1
  K  K1  1  0.750000  0.450503  0.290521  1
  K  K2  1  0.250000  0.049497  0.790521  1
  K  K3  1  0.750000  0.950503  0.209479  1
  K  K4  1  0.250000  0.668974  0.059671  1
  K  K5  1  0.750000  0.331026  0.940329  1
  K  K6  1  0.250000  0.168974  0.440329  1
  K  K7  1  0.750000  0.831026  0.559671  1
  Os  Os8  1  0.250000  0.718615  0.377001  1
  Os  Os9  1  0.750000  0.281385  0.622999  1
  Os  Os10  1  0.250000  0.218615  0.122999  1
  Os  Os11  1  0.750000  0.781385  0.877001  1
  F  F12  1  0.250000  0.271549  0.967749  1
  F  F13  1  0.750000  0.728451  0.032251  1
  F  F14  1  0.250000  0.771549  0.532251  1
  F  F15  1  0.750000  0.228451  0.467749  1
  F  F16  1  0.250000  0.499255  0.338326  1
  F  F17  1  0.750000  0.500745  0.661674  1
  F  F18  1  0.250000  0.999255  0.161674  1
  F  F19  1  0.750000  0.000745  0.838326  1
  F  F20  1  0.469929  0.366422  0.564735  1
  F  F21  1  0.969929  0.633578  0.435265  1
  F  F22  1  0.030071  0.866422  0.935265  1
  F  F23  1  0.530071  0.133578  0.064735  1
  F  F24  1  0.954866  0.599970  0.886728  1
  F  F25  1  0.454866  0.400030  0.113272  1
  F  F26  1  0.545134  0.099970  0.613272  1
  F  F27  1  0.045134  0.900030  0.386728  1
  F  F28  1  0.045134  0.400030  0.113272  1
  F  F29  1  0.545134  0.599970  0.886728  1
  F  F30  1  0.454866  0.900030  0.386728  1
  F  F31  1  0.954866  0.099970  0.613272  1
  F  F32  1  0.955409  0.792045  0.750504  1
  F  F33  1  0.455409  0.207955  0.249496  1
  F  F34  1  0.544591  0.292045  0.749496  1
  F  F35  1  0.044591  0.707955  0.250504  1
  F  F36  1  0.044591  0.207955  0.249496  1
  F  F37  1  0.544591  0.792045  0.750504  1
  F  F38  1  0.455409  0.707955  0.250504  1
  F  F39  1  0.955409  0.292045  0.749496  1
  F  F40  1  0.469929  0.866422  0.935265  1
  F  F41  1  0.969929  0.133578  0.064735  1
  F  F42  1  0.030071  0.366422  0.564735  1
  F  F43  1  0.530071  0.633578  0.435265  1
