# generated using pymatgen
data_ScTaSe10
_symmetry_space_group_name_H-M   'P 1'
_cell_length_a   8.02601348
_cell_length_b   8.02601363
_cell_length_c   12.40598700
_cell_angle_alpha   90.00000000
_cell_angle_beta   90.00000000
_cell_angle_gamma   154.09953346
_symmetry_Int_Tables_number   1
_chemical_formula_structural   ScTaSe10
_chemical_formula_sum   'Sc1 Ta1 Se10'
_cell_volume   349.07824981
_cell_formula_units_Z   1
loop_
 _symmetry_equiv_pos_site_id
 _symmetry_equiv_pos_as_xyz
  1  'x, y, z'
loop_
 _atom_site_type_symbol
 _atom_site_label
 _atom_site_symmetry_multiplicity
 _atom_site_fract_x
 _atom_site_fract_y
 _atom_site_fract_z
 _atom_site_occupancy
  Sc  Sc0  1  0.315532  0.684469  0.249985  1
  Ta  Ta1  1  0.689111  0.310895  0.750017  1
  Se  Se2  1  0.213308  0.786734  0.067179  1
  Se  Se3  1  0.929219  0.070803  0.155505  1
  Se  Se4  1  0.682566  0.317413  0.249998  1
  Se  Se5  1  0.929227  0.070809  0.344424  1
  Se  Se6  1  0.213284  0.786663  0.432816  1
  Se  Se7  1  0.772113  0.227949  0.559801  1
  Se  Se8  1  0.085572  0.914393  0.654759  1
  Se  Se9  1  0.312395  0.687583  0.750009  1
  Se  Se10  1  0.085602  0.914403  0.845305  1
  Se  Se11  1  0.772058  0.227870  0.940201  1
