# generated using pymatgen
data_YbPr8LuIr6
_symmetry_space_group_name_H-M   'P 1'
_cell_length_a   11.24725900
_cell_length_b   11.24725900
_cell_length_c   6.56115000
_cell_angle_alpha   90.00000000
_cell_angle_beta   90.00000000
_cell_angle_gamma   90.00000000
_symmetry_Int_Tables_number   1
_chemical_formula_structural   YbPr8LuIr6
_chemical_formula_sum   'Yb2 Pr16 Lu2 Ir12'
_cell_volume   829.99095365
_cell_formula_units_Z   2
loop_
 _symmetry_equiv_pos_site_id
 _symmetry_equiv_pos_as_xyz
  1  'x, y, z'
loop_
 _atom_site_type_symbol
 _atom_site_label
 _atom_site_symmetry_multiplicity
 _atom_site_fract_x
 _atom_site_fract_y
 _atom_site_fract_z
 _atom_site_occupancy
  Yb  Yb0  1  0.000000  0.000000  0.500000  1
  Yb  Yb1  1  0.000000  0.000000  0.000000  1
  Pr  Pr2  1  0.288451  0.086919  0.385693  1
  Pr  Pr3  1  0.288451  0.913081  0.885693  1
  Pr  Pr4  1  0.711549  0.086919  0.885693  1
  Pr  Pr5  1  0.711549  0.913081  0.385693  1
  Pr  Pr6  1  0.588324  0.787149  0.884210  1
  Pr  Pr7  1  0.588324  0.212851  0.384210  1
  Pr  Pr8  1  0.411676  0.787149  0.384210  1
  Pr  Pr9  1  0.411676  0.212851  0.884210  1
  Pr  Pr10  1  0.212851  0.411676  0.615790  1
  Pr  Pr11  1  0.212851  0.588324  0.115790  1
  Pr  Pr12  1  0.787149  0.411676  0.115790  1
  Pr  Pr13  1  0.787149  0.588324  0.615790  1
  Pr  Pr14  1  0.913081  0.711549  0.114307  1
  Pr  Pr15  1  0.913081  0.288451  0.614307  1
  Pr  Pr16  1  0.086919  0.711549  0.614307  1
  Pr  Pr17  1  0.086919  0.288451  0.114307  1
  Lu  Lu18  1  0.500000  0.500000  0.000000  1
  Lu  Lu19  1  0.500000  0.500000  0.500000  1
  Ir  Ir20  1  0.844450  0.155550  0.250000  1
  Ir  Ir21  1  0.844450  0.844450  0.750000  1
  Ir  Ir22  1  0.155550  0.155550  0.750000  1
  Ir  Ir23  1  0.155550  0.844450  0.250000  1
  Ir  Ir24  1  0.645210  0.354790  0.750000  1
  Ir  Ir25  1  0.645210  0.645210  0.250000  1
  Ir  Ir26  1  0.354790  0.354790  0.250000  1
  Ir  Ir27  1  0.354790  0.645210  0.750000  1
  Ir  Ir28  1  0.500000  0.000000  0.117076  1
  Ir  Ir29  1  0.500000  0.000000  0.617076  1
  Ir  Ir30  1  0.000000  0.500000  0.882924  1
  Ir  Ir31  1  0.000000  0.500000  0.382924  1
