# generated using pymatgen
data_CaTmHf2(NiAs)4
_symmetry_space_group_name_H-M   'P 1'
_cell_length_a   3.98191300
_cell_length_b   3.98191205
_cell_length_c   15.06856500
_cell_angle_alpha   90.00000000
_cell_angle_beta   90.00000000
_cell_angle_gamma   119.99999962
_symmetry_Int_Tables_number   1
_chemical_formula_structural   CaTmHf2(NiAs)4
_chemical_formula_sum   'Ca1 Tm1 Hf2 Ni4 As4'
_cell_volume   206.91213360
_cell_formula_units_Z   1
loop_
 _symmetry_equiv_pos_site_id
 _symmetry_equiv_pos_as_xyz
  1  'x, y, z'
loop_
 _atom_site_type_symbol
 _atom_site_label
 _atom_site_symmetry_multiplicity
 _atom_site_fract_x
 _atom_site_fract_y
 _atom_site_fract_z
 _atom_site_occupancy
  Ca  Ca0  1  0.000000  0.000000  0.000000  1
  Tm  Tm1  1  0.000000  0.000000  0.500000  1
  Hf  Hf2  1  0.000000  0.000000  0.252321  1
  Hf  Hf3  1  0.000000  0.000000  0.747679  1
  Ni  Ni4  1  0.333333  0.666667  0.164630  1
  Ni  Ni5  1  0.666667  0.333333  0.835370  1
  Ni  Ni6  1  0.666667  0.333333  0.651161  1
  Ni  Ni7  1  0.333333  0.666667  0.348839  1
  As  As8  1  0.333333  0.666667  0.618461  1
  As  As9  1  0.666667  0.333333  0.381539  1
  As  As10  1  0.666667  0.333333  0.129959  1
  As  As11  1  0.333333  0.666667  0.870041  1
