# generated using pymatgen
data_V4Cr3(PO4)6
_symmetry_space_group_name_H-M   'P 1'
_cell_length_a   6.41679223
_cell_length_b   8.22486848
_cell_length_c   9.56240830
_cell_angle_alpha   107.24367861
_cell_angle_beta   108.77835869
_cell_angle_gamma   100.58973330
_symmetry_Int_Tables_number   1
_chemical_formula_structural   V4Cr3(PO4)6
_chemical_formula_sum   'V4 Cr3 P6 O24'
_cell_volume   434.03872422
_cell_formula_units_Z   1
loop_
 _symmetry_equiv_pos_site_id
 _symmetry_equiv_pos_as_xyz
  1  'x, y, z'
loop_
 _atom_site_type_symbol
 _atom_site_label
 _atom_site_symmetry_multiplicity
 _atom_site_fract_x
 _atom_site_fract_y
 _atom_site_fract_z
 _atom_site_occupancy
  V  V0  1  0.386817  0.463031  0.115218  1
  V  V1  1  0.952857  0.286624  0.474152  1
  V  V2  1  0.613183  0.536969  0.884782  1
  V  V3  1  0.047143  0.713376  0.525848  1
  Cr  Cr4  1  0.731797  0.185161  0.717780  1
  Cr  Cr5  1  0.268203  0.814839  0.282220  1
  Cr  Cr6  1  0.000000  0.000000  0.000000  1
  P  P7  1  0.771267  0.852530  0.234634  1
  P  P8  1  0.228733  0.147470  0.765366  1
  P  P9  1  0.604089  0.761617  0.635853  1
  P  P10  1  0.395911  0.238383  0.364147  1
  P  P11  1  0.907090  0.406528  0.166544  1
  P  P12  1  0.092910  0.593472  0.833456  1
  O  O13  1  0.730793  0.955406  0.766147  1
  O  O14  1  0.269207  0.044594  0.233853  1
  O  O15  1  0.115466  0.786511  0.915602  1
  O  O16  1  0.884534  0.213489  0.084398  1
  O  O17  1  0.209021  0.950615  0.707588  1
  O  O18  1  0.790979  0.049385  0.292412  1
  O  O19  1  0.366330  0.751772  0.514062  1
  O  O20  1  0.633670  0.248228  0.485938  1
  O  O21  1  0.069966  0.543799  0.655634  1
  O  O22  1  0.930034  0.456201  0.344366  1
  O  O23  1  0.749908  0.712807  0.539796  1
  O  O24  1  0.250092  0.287193  0.460204  1
  O  O25  1  0.985403  0.818684  0.345612  1
  O  O26  1  0.690372  0.457405  0.079887  1
  O  O27  1  0.309628  0.542595  0.920113  1
  O  O28  1  0.542991  0.740565  0.234091  1
  O  O29  1  0.457009  0.259435  0.765909  1
  O  O30  1  0.120012  0.532863  0.166434  1
  O  O31  1  0.014597  0.181316  0.654388  1
  O  O32  1  0.438919  0.363063  0.277697  1
  O  O33  1  0.561081  0.636937  0.722303  1
  O  O34  1  0.231867  0.213306  0.936622  1
  O  O35  1  0.768133  0.786694  0.063378  1
  O  O36  1  0.879988  0.467137  0.833566  1
