# generated using pymatgen
data_Ba7Ca4Re4AsN16
_symmetry_space_group_name_H-M   'P 1'
_cell_length_a   10.79698739
_cell_length_b   10.54910823
_cell_length_c   8.10876865
_cell_angle_alpha   71.37360030
_cell_angle_beta   66.06318053
_cell_angle_gamma   44.63260292
_symmetry_Int_Tables_number   1
_chemical_formula_structural   Ba7Ca4Re4AsN16
_chemical_formula_sum   'Ba7 Ca4 Re4 As1 N16'
_cell_volume   592.38312199
_cell_formula_units_Z   1
loop_
 _symmetry_equiv_pos_site_id
 _symmetry_equiv_pos_as_xyz
  1  'x, y, z'
loop_
 _atom_site_type_symbol
 _atom_site_label
 _atom_site_symmetry_multiplicity
 _atom_site_fract_x
 _atom_site_fract_y
 _atom_site_fract_z
 _atom_site_occupancy
  Ba  Ba0  1  0.930829  0.569171  0.569171  1
  Ba  Ba1  1  0.318675  0.681325  0.681325  1
  Ba  Ba2  1  0.131310  0.104821  0.889818  1
  Ba  Ba3  1  0.144649  0.126930  0.361906  1
  Ba  Ba4  1  0.366514  0.361906  0.126930  1
  Ba  Ba5  1  0.682374  0.317626  0.317626  1
  Ba  Ba6  1  0.874051  0.889818  0.104821  1
  Ca  Ca7  1  0.359780  0.315301  0.655926  1
  Ca  Ca8  1  0.860760  0.934833  0.627230  1
  Ca  Ca9  1  0.668993  0.655926  0.315301  1
  Ca  Ca10  1  0.577178  0.627230  0.934833  1
  Re  Re11  1  0.495230  0.997616  0.485159  1
  Re  Re12  1  0.021996  0.485159  0.997616  1
  Re  Re13  1  0.759829  0.260165  0.746329  1
  Re  Re14  1  0.233677  0.746329  0.260165  1
  As  As15  1  0.489600  0.010400  0.010400  1
  N  N16  1  0.036581  0.635640  0.816036  1
  N  N17  1  0.691708  0.313298  0.980880  1
  N  N18  1  0.654429  0.016818  0.481567  1
  N  N19  1  0.511745  0.816036  0.635640  1
  N  N20  1  0.240284  0.570282  0.411410  1
  N  N21  1  0.778023  0.411410  0.570282  1
  N  N22  1  0.984014  0.024302  0.711899  1
  N  N23  1  0.552648  0.952673  0.248405  1
  N  N24  1  0.422084  0.711240  0.278520  1
  N  N25  1  0.984197  0.542702  0.219769  1
  N  N26  1  0.279784  0.711899  0.024302  1
  N  N27  1  0.847187  0.481567  0.016818  1
  N  N28  1  0.246274  0.248405  0.952673  1
  N  N29  1  0.588155  0.278520  0.711240  1
  N  N30  1  0.253331  0.219769  0.542702  1
  N  N31  1  0.014113  0.980880  0.313298  1
