# generated using pymatgen
data_DyTm9(SiSb2)2
_symmetry_space_group_name_H-M   'P 1'
_cell_length_a   7.86853813
_cell_length_b   8.94898400
_cell_length_c   11.77595369
_cell_angle_alpha   90.00000000
_cell_angle_beta   90.06138848
_cell_angle_gamma   90.00000000
_symmetry_Int_Tables_number   1
_chemical_formula_structural   DyTm9(SiSb2)2
_chemical_formula_sum   'Dy2 Tm18 Si4 Sb8'
_cell_volume   829.20827046
_cell_formula_units_Z   2
loop_
 _symmetry_equiv_pos_site_id
 _symmetry_equiv_pos_as_xyz
  1  'x, y, z'
loop_
 _atom_site_type_symbol
 _atom_site_label
 _atom_site_symmetry_multiplicity
 _atom_site_fract_x
 _atom_site_fract_y
 _atom_site_fract_z
 _atom_site_occupancy
  Dy  Dy0  1  0.361506  0.250000  0.706268  1
  Dy  Dy1  1  0.638494  0.750000  0.293732  1
  Tm  Tm2  1  0.335731  0.750000  0.714260  1
  Tm  Tm3  1  0.664269  0.250000  0.285740  1
  Tm  Tm4  1  0.836045  0.250000  0.785991  1
  Tm  Tm5  1  0.163955  0.750000  0.214009  1
  Tm  Tm6  1  0.039083  0.750000  0.501680  1
  Tm  Tm7  1  0.960917  0.250000  0.498320  1
  Tm  Tm8  1  0.539402  0.250000  0.998592  1
  Tm  Tm9  1  0.460598  0.750000  0.001408  1
  Tm  Tm10  1  0.861473  0.750000  0.793907  1
  Tm  Tm11  1  0.138527  0.250000  0.206093  1
  Tm  Tm12  1  0.684053  0.550972  0.565846  1
  Tm  Tm13  1  0.315947  0.449028  0.434154  1
  Tm  Tm14  1  0.183891  0.449188  0.934674  1
  Tm  Tm15  1  0.315947  0.050972  0.434154  1
  Tm  Tm16  1  0.816109  0.550812  0.065326  1
  Tm  Tm17  1  0.684053  0.949028  0.565846  1
  Tm  Tm18  1  0.816109  0.949188  0.065326  1
  Tm  Tm19  1  0.183891  0.050812  0.934674  1
  Si  Si20  1  0.082948  0.750000  0.980282  1
  Si  Si21  1  0.917052  0.250000  0.019718  1
  Si  Si22  1  0.583897  0.250000  0.518503  1
  Si  Si23  1  0.416103  0.750000  0.481497  1
  Sb  Sb24  1  0.569730  0.511118  0.827272  1
  Sb  Sb25  1  0.430270  0.488882  0.172728  1
  Sb  Sb26  1  0.067858  0.490063  0.673249  1
  Sb  Sb27  1  0.430270  0.011118  0.172728  1
  Sb  Sb28  1  0.932142  0.509937  0.326751  1
  Sb  Sb29  1  0.569730  0.988882  0.827272  1
  Sb  Sb30  1  0.932142  0.990063  0.326751  1
  Sb  Sb31  1  0.067858  0.009937  0.673249  1
