# generated using pymatgen
data_Tb5HoGa7Co16
_symmetry_space_group_name_H-M   'P 1'
_cell_length_a   8.48438128
_cell_length_b   8.48438194
_cell_length_c   8.47584800
_cell_angle_alpha   60.03327518
_cell_angle_beta   60.03327262
_cell_angle_gamma   59.93346804
_symmetry_Int_Tables_number   1
_chemical_formula_structural   Tb5HoGa7Co16
_chemical_formula_sum   'Tb5 Ho1 Ga7 Co16'
_cell_volume   431.42740040
_cell_formula_units_Z   1
loop_
 _symmetry_equiv_pos_site_id
 _symmetry_equiv_pos_as_xyz
  1  'x, y, z'
loop_
 _atom_site_type_symbol
 _atom_site_label
 _atom_site_symmetry_multiplicity
 _atom_site_fract_x
 _atom_site_fract_y
 _atom_site_fract_z
 _atom_site_occupancy
  Tb  Tb0  1  0.719893  0.280448  0.280107  1
  Tb  Tb1  1  0.280448  0.719893  0.719552  1
  Tb  Tb2  1  0.280448  0.719893  0.280107  1
  Tb  Tb3  1  0.279635  0.279635  0.720365  1
  Tb  Tb4  1  0.719893  0.280448  0.719552  1
  Ho  Ho5  1  0.721588  0.721588  0.278412  1
  Ga  Ga6  1  0.500655  0.999588  0.000412  1
  Ga  Ga7  1  0.999588  0.500655  0.499345  1
  Ga  Ga8  1  0.999588  0.500655  0.000412  1
  Ga  Ga9  1  0.999845  0.999845  0.500155  1
  Ga  Ga10  1  0.500655  0.999588  0.499345  1
  Ga  Ga11  1  0.499845  0.499845  0.000155  1
  Ga  Ga12  1  0.000079  0.000079  0.999921  1
  Co  Co13  1  0.320775  0.320775  0.320895  1
  Co  Co14  1  0.320775  0.320775  0.037558  1
  Co  Co15  1  0.036954  0.320844  0.321103  1
  Co  Co16  1  0.320844  0.036954  0.321103  1
  Co  Co17  1  0.678897  0.678897  0.679156  1
  Co  Co18  1  0.678897  0.678897  0.963046  1
  Co  Co19  1  0.679105  0.962442  0.679225  1
  Co  Co20  1  0.962442  0.679105  0.679225  1
  Co  Co21  1  0.126372  0.126372  0.126257  1
  Co  Co22  1  0.126372  0.126372  0.620999  1
  Co  Co23  1  0.621402  0.125431  0.126583  1
  Co  Co24  1  0.125431  0.621402  0.126583  1
  Co  Co25  1  0.873417  0.873417  0.874569  1
  Co  Co26  1  0.873417  0.873417  0.378598  1
  Co  Co27  1  0.873743  0.379001  0.873628  1
  Co  Co28  1  0.379001  0.873743  0.873628  1
