# generated using pymatgen
data_Sc3U3Co16Si7
_symmetry_space_group_name_H-M   'P 1'
_cell_length_a   8.09032117
_cell_length_b   8.09032025
_cell_length_c   8.08996200
_cell_angle_alpha   59.99852842
_cell_angle_beta   59.99853168
_cell_angle_gamma   60.00000414
_symmetry_Int_Tables_number   1
_chemical_formula_structural   Sc3U3Co16Si7
_chemical_formula_sum   'Sc3 U3 Co16 Si7'
_cell_volume   374.41507298
_cell_formula_units_Z   1
loop_
 _symmetry_equiv_pos_site_id
 _symmetry_equiv_pos_as_xyz
  1  'x, y, z'
loop_
 _atom_site_type_symbol
 _atom_site_label
 _atom_site_symmetry_multiplicity
 _atom_site_fract_x
 _atom_site_fract_y
 _atom_site_fract_z
 _atom_site_occupancy
  Sc  Sc0  1  0.291512  0.291512  0.714148  1
  Sc  Sc1  1  0.702827  0.291512  0.714148  1
  Sc  Sc2  1  0.291512  0.702827  0.714148  1
  U  U3  1  0.713516  0.713516  0.292263  1
  U  U4  1  0.280704  0.713516  0.292263  1
  U  U5  1  0.713516  0.280704  0.292263  1
  Co  Co6  1  0.881559  0.881559  0.355323  1
  Co  Co7  1  0.877900  0.361942  0.882257  1
  Co  Co8  1  0.361942  0.877900  0.882257  1
  Co  Co9  1  0.877900  0.877900  0.882257  1
  Co  Co10  1  0.121329  0.121329  0.636013  1
  Co  Co11  1  0.118467  0.639305  0.123763  1
  Co  Co12  1  0.639305  0.118467  0.123763  1
  Co  Co13  1  0.118467  0.118467  0.123763  1
  Co  Co14  1  0.660668  0.660668  0.017996  1
  Co  Co15  1  0.674593  0.996125  0.654689  1
  Co  Co16  1  0.996125  0.674593  0.654689  1
  Co  Co17  1  0.674593  0.674593  0.654689  1
  Co  Co18  1  0.324153  0.324153  0.027542  1
  Co  Co19  1  0.340611  0.991736  0.327043  1
  Co  Co20  1  0.991736  0.340611  0.327043  1
  Co  Co21  1  0.340611  0.340611  0.327043  1
  Si  Si22  1  0.002691  0.002691  0.991926  1
  Si  Si23  1  0.004086  0.004086  0.515569  1
  Si  Si24  1  0.476259  0.004086  0.515569  1
  Si  Si25  1  0.004086  0.476259  0.515569  1
  Si  Si26  1  0.504627  0.504627  0.980668  1
  Si  Si27  1  0.010078  0.504627  0.980668  1
  Si  Si28  1  0.504627  0.010078  0.980668  1
