# generated using pymatgen
data_DyYFe3Tc14C3
_symmetry_space_group_name_H-M   'P 1'
_cell_length_a   6.89105809
_cell_length_b   6.89105793
_cell_length_c   6.89105732
_cell_angle_alpha   82.40281352
_cell_angle_beta   82.40280556
_cell_angle_gamma   82.40280451
_symmetry_Int_Tables_number   1
_chemical_formula_structural   DyYFe3Tc14C3
_chemical_formula_sum   'Dy1 Y1 Fe3 Tc14 C3'
_cell_volume   319.31427724
_cell_formula_units_Z   1
loop_
 _symmetry_equiv_pos_site_id
 _symmetry_equiv_pos_as_xyz
  1  'x, y, z'
loop_
 _atom_site_type_symbol
 _atom_site_label
 _atom_site_symmetry_multiplicity
 _atom_site_fract_x
 _atom_site_fract_y
 _atom_site_fract_z
 _atom_site_occupancy
  Dy  Dy0  1  0.347872  0.347872  0.347872  1
  Y  Y1  1  0.652098  0.652098  0.652098  1
  Fe  Fe2  1  0.000025  0.000025  0.499984  1
  Fe  Fe3  1  0.499984  0.000025  0.000025  1
  Fe  Fe4  1  0.000025  0.499984  0.000025  1
  Tc  Tc5  1  0.724105  0.275842  0.000053  1
  Tc  Tc6  1  0.000053  0.724105  0.275842  1
  Tc  Tc7  1  0.275842  0.000053  0.724105  1
  Tc  Tc8  1  0.000053  0.275842  0.724105  1
  Tc  Tc9  1  0.724105  0.000053  0.275842  1
  Tc  Tc10  1  0.275842  0.724105  0.000053  1
  Tc  Tc11  1  0.348330  0.348330  0.860439  1
  Tc  Tc12  1  0.860439  0.348330  0.348330  1
  Tc  Tc13  1  0.348330  0.860439  0.348330  1
  Tc  Tc14  1  0.651587  0.651587  0.139662  1
  Tc  Tc15  1  0.139662  0.651587  0.651587  1
  Tc  Tc16  1  0.651587  0.139662  0.651587  1
  Tc  Tc17  1  0.899065  0.899065  0.899065  1
  Tc  Tc18  1  0.100999  0.100999  0.100999  1
  C  C19  1  0.499932  0.499932  0.000137  1
  C  C20  1  0.000137  0.499932  0.499932  1
  C  C21  1  0.499932  0.000137  0.499932  1
