# generated using pymatgen
data_LaNd3(Rh2O7)2
_symmetry_space_group_name_H-M   'P 1'
_cell_length_a   7.39594007
_cell_length_b   7.41210751
_cell_length_c   7.39594000
_cell_angle_alpha   60.07212830
_cell_angle_beta   60.00000029
_cell_angle_gamma   60.07212820
_symmetry_Int_Tables_number   1
_chemical_formula_structural   LaNd3(Rh2O7)2
_chemical_formula_sum   'La1 Nd3 Rh4 O14'
_cell_volume   287.00277222
_cell_formula_units_Z   1
loop_
 _symmetry_equiv_pos_site_id
 _symmetry_equiv_pos_as_xyz
  1  'x, y, z'
loop_
 _atom_site_type_symbol
 _atom_site_label
 _atom_site_symmetry_multiplicity
 _atom_site_fract_x
 _atom_site_fract_y
 _atom_site_fract_z
 _atom_site_occupancy
  La  La0  1  0.625000  0.125000  0.625000  1
  Nd  Nd1  1  0.125000  0.625000  0.625000  1
  Nd  Nd2  1  0.625000  0.625000  0.125000  1
  Nd  Nd3  1  0.625000  0.625000  0.625000  1
  Rh  Rh4  1  0.625000  0.125000  0.125000  1
  Rh  Rh5  1  0.125000  0.625000  0.125000  1
  Rh  Rh6  1  0.125000  0.125000  0.625000  1
  Rh  Rh7  1  0.125000  0.125000  0.125000  1
  O  O8  1  0.793262  0.793008  0.206865  1
  O  O9  1  0.202302  0.208886  0.794406  1
  O  O10  1  0.794406  0.208886  0.794406  1
  O  O11  1  0.206865  0.793008  0.206865  1
  O  O12  1  0.206865  0.793008  0.793262  1
  O  O13  1  0.794406  0.208886  0.202302  1
  O  O14  1  0.456738  0.456992  0.043135  1
  O  O15  1  0.047698  0.041114  0.455594  1
  O  O16  1  0.455594  0.041114  0.455594  1
  O  O17  1  0.043135  0.456992  0.043135  1
  O  O18  1  0.043135  0.456992  0.456738  1
  O  O19  1  0.455594  0.041114  0.047698  1
  O  O20  1  0.499551  0.501346  0.499551  1
  O  O21  1  0.750449  0.748654  0.750449  1
