# generated using pymatgen
data_K4As2PdPt
_symmetry_space_group_name_H-M   'P 1'
_cell_length_a   6.35158940
_cell_length_b   6.35158939
_cell_length_c   5.85295956
_cell_angle_alpha   90.29071571
_cell_angle_beta   89.70927983
_cell_angle_gamma   75.34703088
_symmetry_Int_Tables_number   1
_chemical_formula_structural   K4As2PdPt
_chemical_formula_sum   'K4 As2 Pd1 Pt1'
_cell_volume   228.43648115
_cell_formula_units_Z   1
loop_
 _symmetry_equiv_pos_site_id
 _symmetry_equiv_pos_as_xyz
  1  'x, y, z'
loop_
 _atom_site_type_symbol
 _atom_site_label
 _atom_site_symmetry_multiplicity
 _atom_site_fract_x
 _atom_site_fract_y
 _atom_site_fract_z
 _atom_site_occupancy
  K  K0  1  0.175820  0.479704  0.249070  1
  K  K1  1  0.520297  0.824180  0.249070  1
  K  K2  1  0.479704  0.175820  0.750929  1
  K  K3  1  0.824180  0.520297  0.750929  1
  As  As4  1  0.745944  0.254056  0.247284  1
  As  As5  1  0.254056  0.745944  0.752715  1
  Pd  Pd6  1  0.000000  0.000000  0.500001  1
  Pt  Pt7  1  0.000000  0.000000  0.000000  1
