# generated using pymatgen
data_Ti11Nb3P5S3
_symmetry_space_group_name_H-M   'P 1'
_cell_length_a   7.55119585
_cell_length_b   7.55119639
_cell_length_c   13.55272658
_cell_angle_alpha   75.92835093
_cell_angle_beta   75.92834987
_cell_angle_gamma   26.03824562
_symmetry_Int_Tables_number   1
_chemical_formula_structural   Ti11Nb3P5S3
_chemical_formula_sum   'Ti11 Nb3 P5 S3'
_cell_volume   328.49724983
_cell_formula_units_Z   1
loop_
 _symmetry_equiv_pos_site_id
 _symmetry_equiv_pos_as_xyz
  1  'x, y, z'
loop_
 _atom_site_type_symbol
 _atom_site_label
 _atom_site_symmetry_multiplicity
 _atom_site_fract_x
 _atom_site_fract_y
 _atom_site_fract_z
 _atom_site_occupancy
  Ti  Ti0  1  0.662266  0.662266  0.030725  1
  Ti  Ti1  1  0.337568  0.337568  0.968209  1
  Ti  Ti2  1  0.998018  0.998018  0.664912  1
  Ti  Ti3  1  0.002681  0.002681  0.335557  1
  Ti  Ti4  1  0.822560  0.822560  0.539934  1
  Ti  Ti5  1  0.177316  0.177316  0.459499  1
  Ti  Ti6  1  0.206339  0.206339  0.203445  1
  Ti  Ti7  1  0.792827  0.792827  0.797270  1
  Ti  Ti8  1  0.198905  0.198905  0.691663  1
  Ti  Ti9  1  0.802379  0.802379  0.307913  1
  Ti  Ti10  1  0.999830  0.999830  0.999855  1
  Nb  Nb11  1  0.426574  0.426574  0.170670  1
  Nb  Nb12  1  0.574090  0.574090  0.827050  1
  Nb  Nb13  1  0.499675  0.499675  0.500847  1
  P  P14  1  0.630538  0.630538  0.338332  1
  P  P15  1  0.371288  0.371288  0.395049  1
  P  P16  1  0.628514  0.628514  0.605726  1
  P  P17  1  0.179875  0.179875  0.891526  1
  P  P18  1  0.819428  0.819428  0.108281  1
  S  S19  1  0.064207  0.064207  0.150192  1
  S  S20  1  0.935743  0.935743  0.849773  1
  S  S21  1  0.369380  0.369380  0.663573  1
