# generated using pymatgen
data_Ce4MgB4Ir8Rh
_symmetry_space_group_name_H-M   'P 1'
_cell_length_a   10.95781325
_cell_length_b   10.96013065
_cell_length_c   10.96013095
_cell_angle_alpha   29.36716109
_cell_angle_beta   29.33440960
_cell_angle_gamma   29.33441768
_symmetry_Int_Tables_number   1
_chemical_formula_structural   Ce4MgB4Ir8Rh
_chemical_formula_sum   'Ce4 Mg1 B4 Ir8 Rh1'
_cell_volume   279.75951253
_cell_formula_units_Z   1
loop_
 _symmetry_equiv_pos_site_id
 _symmetry_equiv_pos_as_xyz
  1  'x, y, z'
loop_
 _atom_site_type_symbol
 _atom_site_label
 _atom_site_symmetry_multiplicity
 _atom_site_fract_x
 _atom_site_fract_y
 _atom_site_fract_z
 _atom_site_occupancy
  Ce  Ce0  1  0.148893  0.147933  0.147933  1
  Ce  Ce1  1  0.949529  0.949164  0.949164  1
  Ce  Ce2  1  0.851107  0.852067  0.852067  1
  Ce  Ce3  1  0.050471  0.050836  0.050836  1
  Mg  Mg4  1  0.500000  0.500000  0.500000  1
  B  B5  1  0.613589  0.617197  0.617197  1
  B  B6  1  0.714685  0.718538  0.718538  1
  B  B7  1  0.386411  0.382803  0.382803  1
  B  B8  1  0.285315  0.281462  0.281462  1
  Ir  Ir9  1  0.402126  0.905095  0.402178  1
  Ir  Ir10  1  0.905365  0.402732  0.402732  1
  Ir  Ir11  1  0.500000  0.500000  0.000000  1
  Ir  Ir12  1  0.500000  0.000000  0.500000  1
  Ir  Ir13  1  0.597874  0.094905  0.597822  1
  Ir  Ir14  1  0.597874  0.597822  0.094905  1
  Ir  Ir15  1  0.094635  0.597268  0.597268  1
  Ir  Ir16  1  0.402126  0.402178  0.905095  1
  Rh  Rh17  1  0.000000  0.500000  0.500000  1
