# generated using pymatgen
data_Lu8InPb3Au8
_symmetry_space_group_name_H-M   'P 1'
_cell_length_a   8.02253800
_cell_length_b   8.02253800
_cell_length_c   7.19120100
_cell_angle_alpha   90.00000000
_cell_angle_beta   90.00000000
_cell_angle_gamma   90.00000000
_symmetry_Int_Tables_number   1
_chemical_formula_structural   Lu8InPb3Au8
_chemical_formula_sum   'Lu8 In1 Pb3 Au8'
_cell_volume   462.83372146
_cell_formula_units_Z   1
loop_
 _symmetry_equiv_pos_site_id
 _symmetry_equiv_pos_as_xyz
  1  'x, y, z'
loop_
 _atom_site_type_symbol
 _atom_site_label
 _atom_site_symmetry_multiplicity
 _atom_site_fract_x
 _atom_site_fract_y
 _atom_site_fract_z
 _atom_site_occupancy
  Lu  Lu0  1  0.847646  0.156710  0.497586  1
  Lu  Lu1  1  0.152354  0.843290  0.497586  1
  Lu  Lu2  1  0.343290  0.347646  0.002414  1
  Lu  Lu3  1  0.656710  0.652354  0.002414  1
  Lu  Lu4  1  0.681825  0.678567  0.498370  1
  Lu  Lu5  1  0.318175  0.321433  0.498370  1
  Lu  Lu6  1  0.178568  0.818175  0.001630  1
  Lu  Lu7  1  0.821433  0.181826  0.001630  1
  In  In8  1  0.000000  0.500000  0.250000  1
  Pb  Pb9  1  0.500000  0.000000  0.250000  1
  Pb  Pb10  1  0.000000  0.500000  0.750000  1
  Pb  Pb11  1  0.500000  0.000000  0.750000  1
  Au  Au12  1  0.631578  0.375051  0.276470  1
  Au  Au13  1  0.368422  0.624949  0.276470  1
  Au  Au14  1  0.127676  0.126595  0.777168  1
  Au  Au15  1  0.872324  0.873405  0.777168  1
  Au  Au16  1  0.373405  0.627676  0.722832  1
  Au  Au17  1  0.626595  0.372324  0.722832  1
  Au  Au18  1  0.875051  0.868422  0.223530  1
  Au  Au19  1  0.124949  0.131578  0.223530  1
