# generated using pymatgen
data_ZnAsH5
_symmetry_space_group_name_H-M   'P 1'
_cell_length_a   4.26383852
_cell_length_b   4.25776132
_cell_length_c   8.30659824
_cell_angle_alpha   80.17082615
_cell_angle_beta   100.65645714
_cell_angle_gamma   119.44227144
_symmetry_Int_Tables_number   1
_chemical_formula_structural   ZnAsH5
_chemical_formula_sum   'Zn1 As1 H5'
_cell_volume   128.49821727
_cell_formula_units_Z   1
loop_
 _symmetry_equiv_pos_site_id
 _symmetry_equiv_pos_as_xyz
  1  'x, y, z'
loop_
 _atom_site_type_symbol
 _atom_site_label
 _atom_site_symmetry_multiplicity
 _atom_site_fract_x
 _atom_site_fract_y
 _atom_site_fract_z
 _atom_site_occupancy
  Zn  Zn0  1  0.269286  0.680139  0.175188  1
  As  As1  1  0.602298  0.347428  0.163458  1
  H  H2  1  0.946040  0.692003  0.756659  1
  H  H3  1  0.286764  0.393697  0.576627  1
  H  H4  1  0.546707  0.382914  0.973979  1
  H  H5  1  0.372789  0.399289  0.504193  1
  H  H6  1  0.095101  0.761647  0.703413  1
