# generated using pymatgen
data_La6Sn(P3Rh5)4
_symmetry_space_group_name_H-M   'P 1'
_cell_length_a   13.72829500
_cell_length_b   13.72829406
_cell_length_c   3.96581500
_cell_angle_alpha   90.00000000
_cell_angle_beta   90.00000000
_cell_angle_gamma   119.99999504
_symmetry_Int_Tables_number   1
_chemical_formula_structural   La6Sn(P3Rh5)4
_chemical_formula_sum   'La6 Sn1 P12 Rh20'
_cell_volume   647.28609942
_cell_formula_units_Z   1
loop_
 _symmetry_equiv_pos_site_id
 _symmetry_equiv_pos_as_xyz
  1  'x, y, z'
loop_
 _atom_site_type_symbol
 _atom_site_label
 _atom_site_symmetry_multiplicity
 _atom_site_fract_x
 _atom_site_fract_y
 _atom_site_fract_z
 _atom_site_occupancy
  La  La0  1  0.528808  0.718041  0.248690  1
  La  La1  1  0.281959  0.810766  0.248690  1
  La  La2  1  0.189234  0.471192  0.248690  1
  La  La3  1  0.471192  0.281959  0.751310  1
  La  La4  1  0.718041  0.189234  0.751310  1
  La  La5  1  0.810766  0.528808  0.751310  1
  Sn  Sn6  1  0.000000  0.000000  0.000000  1
  P  P7  1  0.520780  0.132424  0.250444  1
  P  P8  1  0.867576  0.388358  0.250444  1
  P  P9  1  0.611642  0.479220  0.250444  1
  P  P10  1  0.949328  0.720664  0.248679  1
  P  P11  1  0.279336  0.228664  0.248679  1
  P  P12  1  0.771336  0.050672  0.248679  1
  P  P13  1  0.388358  0.520780  0.749556  1
  P  P14  1  0.479220  0.867576  0.749556  1
  P  P15  1  0.132424  0.611642  0.749556  1
  P  P16  1  0.720664  0.771336  0.751321  1
  P  P17  1  0.228664  0.949328  0.751321  1
  P  P18  1  0.050672  0.279336  0.751321  1
  Rh  Rh19  1  0.333333  0.666667  0.751687  1
  Rh  Rh20  1  0.923790  0.252986  0.247549  1
  Rh  Rh21  1  0.747014  0.670804  0.247549  1
  Rh  Rh22  1  0.329196  0.076210  0.247549  1
  Rh  Rh23  1  0.442381  0.026038  0.749972  1
  Rh  Rh24  1  0.973962  0.416344  0.749972  1
  Rh  Rh25  1  0.583656  0.557619  0.749972  1
  Rh  Rh26  1  0.666667  0.333333  0.248313  1
  Rh  Rh27  1  0.098732  0.203511  0.260458  1
  Rh  Rh28  1  0.796489  0.895222  0.260458  1
  Rh  Rh29  1  0.104778  0.901268  0.260458  1
  Rh  Rh30  1  0.026038  0.583656  0.250028  1
  Rh  Rh31  1  0.416344  0.442381  0.250028  1
  Rh  Rh32  1  0.557619  0.973962  0.250028  1
  Rh  Rh33  1  0.670804  0.923790  0.752451  1
  Rh  Rh34  1  0.076210  0.747014  0.752451  1
  Rh  Rh35  1  0.252986  0.329196  0.752451  1
  Rh  Rh36  1  0.901268  0.796489  0.739542  1
  Rh  Rh37  1  0.203511  0.104778  0.739542  1
  Rh  Rh38  1  0.895222  0.098732  0.739542  1
