# generated using pymatgen
data_CaAc(SnIr)2
_symmetry_space_group_name_H-M   'P 1'
_cell_length_a   4.61885400
_cell_length_b   7.50779300
_cell_length_c   8.22178400
_cell_angle_alpha   90.00000000
_cell_angle_beta   90.00000000
_cell_angle_gamma   90.00000000
_symmetry_Int_Tables_number   1
_chemical_formula_structural   CaAc(SnIr)2
_chemical_formula_sum   'Ca2 Ac2 Sn4 Ir4'
_cell_volume   285.11009026
_cell_formula_units_Z   2
loop_
 _symmetry_equiv_pos_site_id
 _symmetry_equiv_pos_as_xyz
  1  'x, y, z'
loop_
 _atom_site_type_symbol
 _atom_site_label
 _atom_site_symmetry_multiplicity
 _atom_site_fract_x
 _atom_site_fract_y
 _atom_site_fract_z
 _atom_site_occupancy
  Ca  Ca0  1  0.750000  0.970874  0.686760  1
  Ca  Ca1  1  0.750000  0.470874  0.813240  1
  Ac  Ac2  1  0.250000  0.024649  0.322704  1
  Ac  Ac3  1  0.250000  0.524649  0.177296  1
  Sn  Sn4  1  0.250000  0.154419  0.917007  1
  Sn  Sn5  1  0.250000  0.654419  0.582993  1
  Sn  Sn6  1  0.750000  0.846472  0.059268  1
  Sn  Sn7  1  0.750000  0.346472  0.440732  1
  Ir  Ir8  1  0.250000  0.284627  0.610295  1
  Ir  Ir9  1  0.250000  0.784627  0.889705  1
  Ir  Ir10  1  0.750000  0.718959  0.386209  1
  Ir  Ir11  1  0.750000  0.218959  0.113791  1
