# generated using pymatgen
data_La2Y4TaRuO14
_symmetry_space_group_name_H-M   'P 1'
_cell_length_a   6.52679702
_cell_length_b   6.52679581
_cell_length_c   7.61864103
_cell_angle_alpha   90.00776759
_cell_angle_beta   89.99223040
_cell_angle_gamma   109.13951088
_symmetry_Int_Tables_number   1
_chemical_formula_structural   La2Y4TaRuO14
_chemical_formula_sum   'La2 Y4 Ta1 Ru1 O14'
_cell_volume   306.60705570
_cell_formula_units_Z   1
loop_
 _symmetry_equiv_pos_site_id
 _symmetry_equiv_pos_as_xyz
  1  'x, y, z'
loop_
 _atom_site_type_symbol
 _atom_site_label
 _atom_site_symmetry_multiplicity
 _atom_site_fract_x
 _atom_site_fract_y
 _atom_site_fract_z
 _atom_site_occupancy
  La  La0  1  0.500000  0.500000  0.500000  1
  La  La1  1  0.500000  0.500000  0.000000  1
  Y  Y2  1  0.533903  0.000181  0.750249  1
  Y  Y3  1  0.000181  0.533903  0.249751  1
  Y  Y4  1  0.466097  0.999819  0.249751  1
  Y  Y5  1  0.999819  0.466097  0.750249  1
  Ta  Ta6  1  0.000000  0.000000  0.000000  1
  Ru  Ru7  1  0.000000  0.000000  0.500000  1
  O  O8  1  0.683909  0.934109  0.469837  1
  O  O9  1  0.934109  0.683909  0.530163  1
  O  O10  1  0.681248  0.933817  0.030841  1
  O  O11  1  0.933817  0.681248  0.969159  1
  O  O12  1  0.316091  0.065891  0.530163  1
  O  O13  1  0.065891  0.316091  0.469837  1
  O  O14  1  0.318752  0.066183  0.969159  1
  O  O15  1  0.066183  0.318752  0.030841  1
  O  O16  1  0.937170  0.062830  0.748598  1
  O  O17  1  0.062830  0.937170  0.251402  1
  O  O18  1  0.362699  0.637301  0.750262  1
  O  O19  1  0.637301  0.362699  0.249738  1
  O  O20  1  0.643502  0.356498  0.749144  1
  O  O21  1  0.356498  0.643502  0.250856  1
