# generated using pymatgen
data_Li3Sm3CdSn4
_symmetry_space_group_name_H-M   'P 1'
_cell_length_a   8.85002804
_cell_length_b   8.78160760
_cell_length_c   8.78160854
_cell_angle_alpha   149.21288555
_cell_angle_beta   130.80533285
_cell_angle_gamma   59.09236595
_symmetry_Int_Tables_number   1
_chemical_formula_structural   Li3Sm3CdSn4
_chemical_formula_sum   'Li3 Sm3 Cd1 Sn4'
_cell_volume   262.40416874
_cell_formula_units_Z   1
loop_
 _symmetry_equiv_pos_site_id
 _symmetry_equiv_pos_as_xyz
  1  'x, y, z'
loop_
 _atom_site_type_symbol
 _atom_site_label
 _atom_site_symmetry_multiplicity
 _atom_site_fract_x
 _atom_site_fract_y
 _atom_site_fract_z
 _atom_site_occupancy
  Li  Li0  1  0.863511  0.671021  0.192490  1
  Li  Li1  1  0.144032  0.327575  0.816457  1
  Li  Li2  1  0.515818  0.327184  0.188633  1
  Sm  Sm3  1  0.502048  0.001882  0.500166  1
  Sm  Sm4  1  0.871912  0.873845  0.998067  1
  Sm  Sm5  1  0.115322  0.127313  0.988010  1
  Cd  Cd6  1  0.480134  0.672378  0.807757  1
  Sn  Sn7  1  0.277003  0.787718  0.489284  1
  Sn  Sn8  1  0.740876  0.217190  0.523687  1
  Sn  Sn9  1  0.800649  0.499689  0.300959  1
  Sn  Sn10  1  0.188695  0.494207  0.694488  1
