# generated using pymatgen
data_Hf3Zr3Zn22PdN
_symmetry_space_group_name_H-M   'P 1'
_cell_length_a   8.65591266
_cell_length_b   8.68527073
_cell_length_c   8.68830598
_cell_angle_alpha   59.76499933
_cell_angle_beta   60.10010065
_cell_angle_gamma   60.13492162
_symmetry_Int_Tables_number   1
_chemical_formula_structural   Hf3Zr3Zn22PdN
_chemical_formula_sum   'Hf3 Zr3 Zn22 Pd1 N1'
_cell_volume   461.85472575
_cell_formula_units_Z   1
loop_
 _symmetry_equiv_pos_site_id
 _symmetry_equiv_pos_as_xyz
  1  'x, y, z'
loop_
 _atom_site_type_symbol
 _atom_site_label
 _atom_site_symmetry_multiplicity
 _atom_site_fract_x
 _atom_site_fract_y
 _atom_site_fract_z
 _atom_site_occupancy
  Hf  Hf0  1  0.681583  0.318417  0.318369  1
  Hf  Hf1  1  0.318369  0.681631  0.681583  1
  Hf  Hf2  1  0.313481  0.686519  0.313481  1
  Zr  Zr3  1  0.688476  0.311524  0.688476  1
  Zr  Zr4  1  0.306894  0.306967  0.693033  1
  Zr  Zr5  1  0.693033  0.693106  0.306894  1
  Zn  Zn6  1  0.118587  0.119975  0.121474  1
  Zn  Zn7  1  0.881815  0.879125  0.878375  1
  Zn  Zn8  1  0.120875  0.118185  0.639316  1
  Zn  Zn9  1  0.121474  0.639964  0.118587  1
  Zn  Zn10  1  0.880025  0.881413  0.360036  1
  Zn  Zn11  1  0.878375  0.360684  0.881815  1
  Zn  Zn12  1  0.639316  0.121625  0.120875  1
  Zn  Zn13  1  0.360036  0.878526  0.880025  1
  Zn  Zn14  1  0.499958  0.999985  0.000015  1
  Zn  Zn15  1  0.000015  0.500042  0.499958  1
  Zn  Zn16  1  0.999839  0.500161  0.999839  1
  Zn  Zn17  1  0.499839  0.000161  0.499839  1
  Zn  Zn18  1  0.999988  0.000012  0.499633  1
  Zn  Zn19  1  0.499633  0.500367  0.999988  1
  Zn  Zn20  1  0.331004  0.332265  0.331890  1
  Zn  Zn21  1  0.669256  0.668817  0.668379  1
  Zn  Zn22  1  0.331183  0.330744  0.006451  1
  Zn  Zn23  1  0.331890  0.004842  0.331004  1
  Zn  Zn24  1  0.667735  0.668996  0.995158  1
  Zn  Zn25  1  0.668379  0.993549  0.669256  1
  Zn  Zn26  1  0.006451  0.331621  0.331183  1
  Zn  Zn27  1  0.995158  0.668110  0.667735  1
  Pd  Pd28  1  0.999638  0.000362  0.999638  1
  N  N29  1  0.497696  0.502304  0.497696  1
