# generated using pymatgen
data_Er4TiAl19Pt12
_symmetry_space_group_name_H-M   'P 1'
_cell_length_a   4.09457000
_cell_length_b   7.39834559
_cell_length_c   20.53209663
_cell_angle_alpha   89.71043758
_cell_angle_beta   90.00000000
_cell_angle_gamma   90.00000000
_symmetry_Int_Tables_number   1
_chemical_formula_structural   Er4TiAl19Pt12
_chemical_formula_sum   'Er4 Ti1 Al19 Pt12'
_cell_volume   621.97176178
_cell_formula_units_Z   1
loop_
 _symmetry_equiv_pos_site_id
 _symmetry_equiv_pos_as_xyz
  1  'x, y, z'
loop_
 _atom_site_type_symbol
 _atom_site_label
 _atom_site_symmetry_multiplicity
 _atom_site_fract_x
 _atom_site_fract_y
 _atom_site_fract_z
 _atom_site_occupancy
  Er  Er0  1  0.250000  0.113159  0.639750  1
  Er  Er1  1  0.750000  0.879491  0.359425  1
  Er  Er2  1  0.250000  0.384733  0.139178  1
  Er  Er3  1  0.750000  0.615719  0.860663  1
  Ti  Ti4  1  0.750000  0.364898  0.381122  1
  Al  Al5  1  0.750000  0.883489  0.984432  1
  Al  Al6  1  0.750000  0.680680  0.201423  1
  Al  Al7  1  0.250000  0.872054  0.492583  1
  Al  Al8  1  0.250000  0.629289  0.991553  1
  Al  Al9  1  0.250000  0.315561  0.798983  1
  Al  Al10  1  0.750000  0.068177  0.209399  1
  Al  Al11  1  0.250000  0.642519  0.618192  1
  Al  Al12  1  0.250000  0.565952  0.292030  1
  Al  Al13  1  0.250000  0.181179  0.298605  1
  Al  Al14  1  0.750000  0.144943  0.881861  1
  Al  Al15  1  0.250000  0.929074  0.791624  1
  Al  Al16  1  0.750000  0.370370  0.008304  1
  Al  Al17  1  0.750000  0.623139  0.485104  1
  Al  Al18  1  0.750000  0.130589  0.507355  1
  Al  Al19  1  0.250000  0.117952  0.016315  1
  Al  Al20  1  0.250000  0.854715  0.118229  1
  Al  Al21  1  0.250000  0.383315  0.514075  1
  Al  Al22  1  0.750000  0.430143  0.708212  1
  Al  Al23  1  0.750000  0.816366  0.701797  1
  Pt  Pt24  1  0.750000  0.375225  0.256928  1
  Pt  Pt25  1  0.250000  0.875532  0.241591  1
  Pt  Pt26  1  0.250000  0.621077  0.741713  1
  Pt  Pt27  1  0.750000  0.121820  0.758652  1
  Pt  Pt28  1  0.250000  0.157993  0.424452  1
  Pt  Pt29  1  0.750000  0.415713  0.584720  1
  Pt  Pt30  1  0.750000  0.084601  0.085754  1
  Pt  Pt31  1  0.250000  0.917098  0.915275  1
  Pt  Pt32  1  0.750000  0.843354  0.576342  1
  Pt  Pt33  1  0.250000  0.341113  0.925101  1
  Pt  Pt34  1  0.750000  0.658180  0.074742  1
  Pt  Pt35  1  0.250000  0.590790  0.414515  1
