# generated using pymatgen
data_DyIn6IrCl12
_symmetry_space_group_name_H-M   'P 1'
_cell_length_a   8.87679092
_cell_length_b   8.87679006
_cell_length_c   8.87679050
_cell_angle_alpha   104.81230101
_cell_angle_beta   104.81230221
_cell_angle_gamma   104.81230090
_symmetry_Int_Tables_number   1
_chemical_formula_structural   DyIn6IrCl12
_chemical_formula_sum   'Dy1 In6 Ir1 Cl12'
_cell_volume   613.98233151
_cell_formula_units_Z   1
loop_
 _symmetry_equiv_pos_site_id
 _symmetry_equiv_pos_as_xyz
  1  'x, y, z'
loop_
 _atom_site_type_symbol
 _atom_site_label
 _atom_site_symmetry_multiplicity
 _atom_site_fract_x
 _atom_site_fract_y
 _atom_site_fract_z
 _atom_site_occupancy
  Dy  Dy0  1  0.500000  0.500000  0.500000  1
  In  In1  1  0.053545  0.062885  0.318622  1
  In  In2  1  0.318622  0.053545  0.062885  1
  In  In3  1  0.062885  0.318622  0.053545  1
  In  In4  1  0.946455  0.937115  0.681378  1
  In  In5  1  0.681378  0.946455  0.937115  1
  In  In6  1  0.937115  0.681378  0.946455  1
  Ir  Ir7  1  0.000000  0.000000  0.000000  1
  Cl  Cl8  1  0.984464  0.562599  0.190466  1
  Cl  Cl9  1  0.190466  0.984464  0.562599  1
  Cl  Cl10  1  0.562599  0.190466  0.984464  1
  Cl  Cl11  1  0.015536  0.437401  0.809534  1
  Cl  Cl12  1  0.809534  0.015536  0.437401  1
  Cl  Cl13  1  0.437401  0.809534  0.015536  1
  Cl  Cl14  1  0.490730  0.188914  0.383094  1
  Cl  Cl15  1  0.383094  0.490730  0.188914  1
  Cl  Cl16  1  0.188914  0.383094  0.490730  1
  Cl  Cl17  1  0.509270  0.811086  0.616906  1
  Cl  Cl18  1  0.616906  0.509270  0.811086  1
  Cl  Cl19  1  0.811086  0.616906  0.509270  1
