# generated using pymatgen
data_TaBe5Nb5SiRu6
_symmetry_space_group_name_H-M   'P 1'
_cell_length_a   7.37534604
_cell_length_b   7.36330655
_cell_length_c   7.37487810
_cell_angle_alpha   126.22993622
_cell_angle_beta   129.38476774
_cell_angle_gamma   77.00420850
_symmetry_Int_Tables_number   1
_chemical_formula_structural   TaBe5Nb5SiRu6
_chemical_formula_sum   'Ta1 Be5 Nb5 Si1 Ru6'
_cell_volume   242.35252465
_cell_formula_units_Z   1
loop_
 _symmetry_equiv_pos_site_id
 _symmetry_equiv_pos_as_xyz
  1  'x, y, z'
loop_
 _atom_site_type_symbol
 _atom_site_label
 _atom_site_symmetry_multiplicity
 _atom_site_fract_x
 _atom_site_fract_y
 _atom_site_fract_z
 _atom_site_occupancy
  Ta  Ta0  1  0.556911  0.090335  0.043669  1
  Be  Be1  1  0.750241  0.497340  0.247006  1
  Be  Be2  1  0.250142  0.496758  0.747242  1
  Be  Be3  1  0.331948  0.829814  0.498891  1
  Be  Be4  1  0.665240  0.163726  0.495413  1
  Be  Be5  1  0.834671  0.830288  0.994406  1
  Nb  Nb6  1  0.458660  0.505799  0.557403  1
  Nb  Nb7  1  0.948468  0.505044  0.046185  1
  Nb  Nb8  1  0.045550  0.088946  0.533492  1
  Nb  Nb9  1  0.739569  0.895553  0.643984  1
  Nb  Nb10  1  0.250837  0.894646  0.155582  1
  Si  Si11  1  0.167318  0.163357  0.997583  1
  Ru  Ru12  1  0.499754  0.245198  0.746669  1
  Ru  Ru13  1  0.998585  0.246712  0.247395  1
  Ru  Ru14  1  0.126307  0.747214  0.622636  1
  Ru  Ru15  1  0.874023  0.495538  0.620434  1
  Ru  Ru16  1  0.625533  0.747616  0.120824  1
  Ru  Ru17  1  0.376243  0.498316  0.123387  1
