# generated using pymatgen
data_Y9Er11Cd6RuRh
_symmetry_space_group_name_H-M   'P 1'
_cell_length_a   9.59675900
_cell_length_b   9.59675781
_cell_length_c   9.78404600
_cell_angle_alpha   90.00000000
_cell_angle_beta   90.00000000
_cell_angle_gamma   120.00000066
_symmetry_Int_Tables_number   1
_chemical_formula_structural   Y9Er11Cd6RuRh
_chemical_formula_sum   'Y9 Er11 Cd6 Ru1 Rh1'
_cell_volume   780.36581818
_cell_formula_units_Z   1
loop_
 _symmetry_equiv_pos_site_id
 _symmetry_equiv_pos_as_xyz
  1  'x, y, z'
loop_
 _atom_site_type_symbol
 _atom_site_label
 _atom_site_symmetry_multiplicity
 _atom_site_fract_x
 _atom_site_fract_y
 _atom_site_fract_z
 _atom_site_occupancy
  Y  Y0  1  0.208257  0.791743  0.059693  1
  Y  Y1  1  0.208257  0.416515  0.059693  1
  Y  Y2  1  0.583485  0.791743  0.059693  1
  Y  Y3  1  0.542190  0.457810  0.251291  1
  Y  Y4  1  0.542190  0.084381  0.251291  1
  Y  Y5  1  0.915619  0.457810  0.251291  1
  Y  Y6  1  0.459624  0.540376  0.748761  1
  Y  Y7  1  0.459624  0.919250  0.748761  1
  Y  Y8  1  0.080750  0.540376  0.748761  1
  Er  Er9  1  0.000000  0.000000  0.499229  1
  Er  Er10  1  0.000000  0.000000  0.999028  1
  Er  Er11  1  0.209349  0.790651  0.440882  1
  Er  Er12  1  0.209349  0.418699  0.440882  1
  Er  Er13  1  0.581301  0.790651  0.440882  1
  Er  Er14  1  0.790225  0.209775  0.560230  1
  Er  Er15  1  0.790225  0.580448  0.560230  1
  Er  Er16  1  0.419552  0.209775  0.560230  1
  Er  Er17  1  0.789892  0.210108  0.939451  1
  Er  Er18  1  0.789892  0.579782  0.939451  1
  Er  Er19  1  0.420218  0.210108  0.939451  1
  Cd  Cd20  1  0.886027  0.113973  0.250329  1
  Cd  Cd21  1  0.886027  0.772055  0.250329  1
  Cd  Cd22  1  0.227945  0.113973  0.250329  1
  Cd  Cd23  1  0.114551  0.885449  0.748933  1
  Cd  Cd24  1  0.114551  0.229101  0.748933  1
  Cd  Cd25  1  0.770899  0.885449  0.748933  1
  Ru  Ru26  1  0.666667  0.333333  0.749469  1
  Rh  Rh27  1  0.333333  0.666667  0.253566  1
