# generated using pymatgen
data_Pr4NdNb2O12
_symmetry_space_group_name_H-M   'P 1'
_cell_length_a   7.14409911
_cell_length_b   7.14409974
_cell_length_c   7.80526239
_cell_angle_alpha   74.07539112
_cell_angle_beta   74.07539832
_cell_angle_gamma   50.76740012
_symmetry_Int_Tables_number   1
_chemical_formula_structural   Pr4NdNb2O12
_chemical_formula_sum   'Pr4 Nd1 Nb2 O12'
_cell_volume   293.99484232
_cell_formula_units_Z   1
loop_
 _symmetry_equiv_pos_site_id
 _symmetry_equiv_pos_as_xyz
  1  'x, y, z'
loop_
 _atom_site_type_symbol
 _atom_site_label
 _atom_site_symmetry_multiplicity
 _atom_site_fract_x
 _atom_site_fract_y
 _atom_site_fract_z
 _atom_site_occupancy
  Pr  Pr0  1  0.694825  0.694825  0.639382  1
  Pr  Pr1  1  0.691231  0.691231  0.170771  1
  Pr  Pr2  1  0.308774  0.308774  0.829070  1
  Pr  Pr3  1  0.000183  0.000183  0.499651  1
  Nd  Nd4  1  0.305207  0.305207  0.360128  1
  Nb  Nb5  1  0.766504  0.233037  0.000449  1
  Nb  Nb6  1  0.233037  0.766504  0.000449  1
  O  O7  1  0.096673  0.592672  0.575536  1
  O  O8  1  0.999097  0.999097  0.190240  1
  O  O9  1  0.405396  0.906852  0.422466  1
  O  O10  1  0.500028  0.500028  0.177778  1
  O  O11  1  0.101345  0.576603  0.081310  1
  O  O12  1  0.906852  0.405396  0.422466  1
  O  O13  1  0.000751  0.000751  0.810095  1
  O  O14  1  0.592672  0.096672  0.575536  1
  O  O15  1  0.499240  0.499240  0.823295  1
  O  O16  1  0.576603  0.101345  0.081310  1
  O  O17  1  0.422569  0.899014  0.920034  1
  O  O18  1  0.899014  0.422569  0.920034  1
