# generated using pymatgen
data_Th3Al3IrOsAu
_symmetry_space_group_name_H-M   'P 1'
_cell_length_a   7.29177400
_cell_length_b   7.29177491
_cell_length_c   4.20696900
_cell_angle_alpha   90.00000000
_cell_angle_beta   90.00000000
_cell_angle_gamma   120.00000493
_symmetry_Int_Tables_number   1
_chemical_formula_structural   Th3Al3IrOsAu
_chemical_formula_sum   'Th3 Al3 Ir1 Os1 Au1'
_cell_volume   193.71639387
_cell_formula_units_Z   1
loop_
 _symmetry_equiv_pos_site_id
 _symmetry_equiv_pos_as_xyz
  1  'x, y, z'
loop_
 _atom_site_type_symbol
 _atom_site_label
 _atom_site_symmetry_multiplicity
 _atom_site_fract_x
 _atom_site_fract_y
 _atom_site_fract_z
 _atom_site_occupancy
  Th  Th0  1  0.421208  0.015011  0.500000  1
  Th  Th1  1  0.984989  0.406198  0.500000  1
  Th  Th2  1  0.593802  0.578792  0.500000  1
  Al  Al3  1  0.776207  0.008350  0.000000  1
  Al  Al4  1  0.991650  0.767858  0.000000  1
  Al  Al5  1  0.232142  0.223793  0.000000  1
  Ir  Ir6  1  0.000000  0.000000  0.500000  1
  Os  Os7  1  0.666667  0.333333  0.000000  1
  Au  Au8  1  0.333333  0.666667  0.000000  1
