# generated using pymatgen
data_PrHgPd2O7
_symmetry_space_group_name_H-M   'P 1'
_cell_length_a   7.54530583
_cell_length_b   7.37146899
_cell_length_c   7.37167705
_cell_angle_alpha   59.30742966
_cell_angle_beta   59.21590503
_cell_angle_gamma   59.21862951
_symmetry_Int_Tables_number   1
_chemical_formula_structural   PrHgPd2O7
_chemical_formula_sum   'Pr2 Hg2 Pd4 O14'
_cell_volume   284.95178287
_cell_formula_units_Z   2
loop_
 _symmetry_equiv_pos_site_id
 _symmetry_equiv_pos_as_xyz
  1  'x, y, z'
loop_
 _atom_site_type_symbol
 _atom_site_label
 _atom_site_symmetry_multiplicity
 _atom_site_fract_x
 _atom_site_fract_y
 _atom_site_fract_z
 _atom_site_occupancy
  Pr  Pr0  1  0.125000  0.125000  0.125000  1
  Pr  Pr1  1  0.625000  0.125000  0.125000  1
  Hg  Hg2  1  0.125000  0.125000  0.625000  1
  Hg  Hg3  1  0.125000  0.625000  0.125000  1
  Pd  Pd4  1  0.625000  0.625000  0.625000  1
  Pd  Pd5  1  0.125000  0.625000  0.625000  1
  Pd  Pd6  1  0.625000  0.125000  0.625000  1
  Pd  Pd7  1  0.625000  0.625000  0.125000  1
  O  O8  1  0.951582  0.548418  0.548418  1
  O  O9  1  0.297527  0.293785  0.710374  1
  O  O10  1  0.952467  0.539618  0.956210  1
  O  O11  1  0.713539  0.286461  0.286461  1
  O  O12  1  0.551687  0.539626  0.956215  1
  O  O13  1  0.551704  0.956210  0.539618  1
  O  O14  1  0.536461  0.963539  0.963539  1
  O  O15  1  0.234067  0.265933  0.265933  1
  O  O16  1  0.298418  0.701582  0.701582  1
  O  O17  1  0.698296  0.293790  0.710382  1
  O  O18  1  0.015933  0.984067  0.984067  1
  O  O19  1  0.952473  0.956215  0.539626  1
  O  O20  1  0.297533  0.710382  0.293790  1
  O  O21  1  0.698313  0.710374  0.293785  1
