# generated using pymatgen
data_Sm3Lu13(ZrIr3)4
_symmetry_space_group_name_H-M   'P 1'
_cell_length_a   10.76227453
_cell_length_b   10.75353599
_cell_length_c   6.20770200
_cell_angle_alpha   90.00901512
_cell_angle_beta   90.19995023
_cell_angle_gamma   90.10142541
_symmetry_Int_Tables_number   1
_chemical_formula_structural   Sm3Lu13(ZrIr3)4
_chemical_formula_sum   'Sm3 Lu13 Zr4 Ir12'
_cell_volume   718.42740250
_cell_formula_units_Z   1
loop_
 _symmetry_equiv_pos_site_id
 _symmetry_equiv_pos_as_xyz
  1  'x, y, z'
loop_
 _atom_site_type_symbol
 _atom_site_label
 _atom_site_symmetry_multiplicity
 _atom_site_fract_x
 _atom_site_fract_y
 _atom_site_fract_z
 _atom_site_occupancy
  Sm  Sm0  1  0.908352  0.285871  0.635069  1
  Sm  Sm1  1  0.214017  0.409757  0.635116  1
  Sm  Sm2  1  0.786097  0.593444  0.636471  1
  Lu  Lu3  1  0.087165  0.291846  0.131072  1
  Lu  Lu4  1  0.789872  0.414244  0.129883  1
  Lu  Lu5  1  0.209487  0.589906  0.131319  1
  Lu  Lu6  1  0.914816  0.711747  0.132604  1
  Lu  Lu7  1  0.414872  0.791254  0.371567  1
  Lu  Lu8  1  0.585598  0.208936  0.370165  1
  Lu  Lu9  1  0.291153  0.085323  0.368165  1
  Lu  Lu10  1  0.708899  0.914880  0.373931  1
  Lu  Lu11  1  0.417701  0.205785  0.874213  1
  Lu  Lu12  1  0.707304  0.081594  0.875481  1
  Lu  Lu13  1  0.290726  0.914207  0.869882  1
  Lu  Lu14  1  0.580845  0.793516  0.873104  1
  Lu  Lu15  1  0.089071  0.709051  0.631164  1
  Zr  Zr16  1  0.001748  0.000161  0.998461  1
  Zr  Zr17  1  0.498090  0.501194  0.993567  1
  Zr  Zr18  1  0.500134  0.500739  0.490302  1
  Zr  Zr19  1  0.002878  0.996045  0.495398  1
  Ir  Ir20  1  0.150042  0.850922  0.250132  1
  Ir  Ir21  1  0.353750  0.350876  0.240759  1
  Ir  Ir22  1  0.645489  0.650067  0.240496  1
  Ir  Ir23  1  0.851769  0.145329  0.243454  1
  Ir  Ir24  1  0.353953  0.651181  0.747215  1
  Ir  Ir25  1  0.152115  0.140577  0.753167  1
  Ir  Ir26  1  0.853990  0.856651  0.750663  1
  Ir  Ir27  1  0.639658  0.349127  0.751086  1
  Ir  Ir28  1  0.000781  0.503054  0.381492  1
  Ir  Ir29  1  0.499524  0.999396  0.118544  1
  Ir  Ir30  1  0.499134  0.000098  0.613920  1
  Ir  Ir31  1  0.000970  0.503221  0.892136  1
