# generated using pymatgen
data_CaDy(NbSe2)6
_symmetry_space_group_name_H-M   'P 1'
_cell_length_a   6.09294900
_cell_length_b   6.09294958
_cell_length_c   14.63074800
_cell_angle_alpha   90.00000000
_cell_angle_beta   90.00000000
_cell_angle_gamma   120.00000228
_symmetry_Int_Tables_number   1
_chemical_formula_structural   CaDy(NbSe2)6
_chemical_formula_sum   'Ca1 Dy1 Nb6 Se12'
_cell_volume   470.38371648
_cell_formula_units_Z   1
loop_
 _symmetry_equiv_pos_site_id
 _symmetry_equiv_pos_as_xyz
  1  'x, y, z'
loop_
 _atom_site_type_symbol
 _atom_site_label
 _atom_site_symmetry_multiplicity
 _atom_site_fract_x
 _atom_site_fract_y
 _atom_site_fract_z
 _atom_site_occupancy
  Ca  Ca0  1  0.666667  0.333333  0.750000  1
  Dy  Dy1  1  0.333333  0.666667  0.250000  1
  Nb  Nb2  1  0.333333  0.666667  0.007077  1
  Nb  Nb3  1  0.000000  0.000000  0.005447  1
  Nb  Nb4  1  0.666667  0.333333  0.004487  1
  Nb  Nb5  1  0.333333  0.666667  0.492923  1
  Nb  Nb6  1  0.000000  0.000000  0.494553  1
  Nb  Nb7  1  0.666667  0.333333  0.495513  1
  Se  Se8  1  0.674006  0.665843  0.380128  1
  Se  Se9  1  0.665809  0.671677  0.608153  1
  Se  Se10  1  0.005869  0.671677  0.891847  1
  Se  Se11  1  0.665809  0.994131  0.891847  1
  Se  Se12  1  0.674006  0.008163  0.119872  1
  Se  Se13  1  0.334157  0.008163  0.380128  1
  Se  Se14  1  0.005869  0.334191  0.608153  1
  Se  Se15  1  0.328323  0.994131  0.608153  1
  Se  Se16  1  0.991837  0.665843  0.119872  1
  Se  Se17  1  0.328323  0.334191  0.891847  1
  Se  Se18  1  0.991837  0.325994  0.380128  1
  Se  Se19  1  0.334157  0.325994  0.119872  1
