# generated using pymatgen
data_Ba2NpNiO6
_symmetry_space_group_name_H-M   'P 1'
_cell_length_a   5.93990663
_cell_length_b   5.93990686
_cell_length_c   10.28779510
_cell_angle_alpha   106.76620106
_cell_angle_beta   73.23380060
_cell_angle_gamma   119.98867079
_symmetry_Int_Tables_number   1
_chemical_formula_structural   Ba2NpNiO6
_chemical_formula_sum   'Ba4 Np2 Ni2 O12'
_cell_volume   296.42957076
_cell_formula_units_Z   2
loop_
 _symmetry_equiv_pos_site_id
 _symmetry_equiv_pos_as_xyz
  1  'x, y, z'
loop_
 _atom_site_type_symbol
 _atom_site_label
 _atom_site_symmetry_multiplicity
 _atom_site_fract_x
 _atom_site_fract_y
 _atom_site_fract_z
 _atom_site_occupancy
  Ba  Ba0  1  0.624998  0.375002  0.125002  1
  Ba  Ba1  1  0.124998  0.875002  0.625002  1
  Ba  Ba2  1  0.875002  0.124998  0.374998  1
  Ba  Ba3  1  0.375002  0.624998  0.874998  1
  Np  Np4  1  0.500000  0.500000  0.500000  1
  Np  Np5  1  0.000000  0.000000  0.999999  1
  Ni  Ni6  1  0.750000  0.250000  0.749999  1
  Ni  Ni7  1  0.250000  0.750000  0.250001  1
  O  O8  1  0.376370  0.129074  0.376345  1
  O  O9  1  0.876371  0.629078  0.876347  1
  O  O10  1  0.123665  0.876335  0.123663  1
  O  O11  1  0.623665  0.376335  0.623664  1
  O  O12  1  0.376334  0.623665  0.376336  1
  O  O13  1  0.876336  0.123664  0.876337  1
  O  O14  1  0.870926  0.623631  0.376345  1
  O  O15  1  0.370922  0.123630  0.876347  1
  O  O16  1  0.123630  0.370923  0.123653  1
  O  O17  1  0.623630  0.870925  0.623654  1
  O  O18  1  0.629077  0.876370  0.123654  1
  O  O19  1  0.129075  0.376370  0.623654  1
