# generated using pymatgen
data_Y2TmCoSn3Rh2
_symmetry_space_group_name_H-M   'P 1'
_cell_length_a   7.63741600
_cell_length_b   7.59520206
_cell_length_c   3.69163900
_cell_angle_alpha   90.00000000
_cell_angle_beta   90.00000000
_cell_angle_gamma   120.18403598
_symmetry_Int_Tables_number   1
_chemical_formula_structural   Y2TmCoSn3Rh2
_chemical_formula_sum   'Y2 Tm1 Co1 Sn3 Rh2'
_cell_volume   185.10888285
_cell_formula_units_Z   1
loop_
 _symmetry_equiv_pos_site_id
 _symmetry_equiv_pos_as_xyz
  1  'x, y, z'
loop_
 _atom_site_type_symbol
 _atom_site_label
 _atom_site_symmetry_multiplicity
 _atom_site_fract_x
 _atom_site_fract_y
 _atom_site_fract_z
 _atom_site_occupancy
  Y  Y0  1  0.000598  0.403215  0.000000  1
  Y  Y1  1  0.597383  0.596785  0.000000  1
  Tm  Tm2  1  0.402930  0.000000  0.000000  1
  Co  Co3  1  0.001102  0.000000  0.000000  1
  Sn  Sn4  1  0.256828  0.255814  0.500000  1
  Sn  Sn5  1  0.001014  0.744186  0.500000  1
  Sn  Sn6  1  0.743736  0.000000  0.500000  1
  Rh  Rh7  1  0.661850  0.327288  0.500000  1
  Rh  Rh8  1  0.334560  0.672712  0.500000  1
