# generated using pymatgen
data_Rb12TaMo3Se16
_symmetry_space_group_name_H-M   'P 1'
_cell_length_a   10.14039700
_cell_length_b   10.21591697
_cell_length_c   11.82332100
_cell_angle_alpha   90.00000000
_cell_angle_beta   90.00000000
_cell_angle_gamma   89.69371377
_symmetry_Int_Tables_number   1
_chemical_formula_structural   Rb12TaMo3Se16
_chemical_formula_sum   'Rb12 Ta1 Mo3 Se16'
_cell_volume   1224.80115691
_cell_formula_units_Z   1
loop_
 _symmetry_equiv_pos_site_id
 _symmetry_equiv_pos_as_xyz
  1  'x, y, z'
loop_
 _atom_site_type_symbol
 _atom_site_label
 _atom_site_symmetry_multiplicity
 _atom_site_fract_x
 _atom_site_fract_y
 _atom_site_fract_z
 _atom_site_occupancy
  Rb  Rb0  1  0.949617  0.707448  0.954363  1
  Rb  Rb1  1  0.448785  0.791971  0.954296  1
  Rb  Rb2  1  0.551202  0.207948  0.454940  1
  Rb  Rb3  1  0.051600  0.292549  0.045323  1
  Rb  Rb4  1  0.140443  0.082823  0.750000  1
  Rb  Rb5  1  0.640158  0.420047  0.750000  1
  Rb  Rb6  1  0.359660  0.581927  0.250000  1
  Rb  Rb7  1  0.859589  0.916022  0.250000  1
  Rb  Rb8  1  0.051600  0.292549  0.454677  1
  Rb  Rb9  1  0.448785  0.791971  0.545704  1
  Rb  Rb10  1  0.551202  0.207948  0.045060  1
  Rb  Rb11  1  0.949617  0.707448  0.545637  1
  Ta  Ta12  1  0.779120  0.484185  0.250000  1
  Mo  Mo13  1  0.278183  0.015390  0.250000  1
  Mo  Mo14  1  0.722070  0.985948  0.750000  1
  Mo  Mo15  1  0.219521  0.514705  0.750000  1
  Se  Se16  1  0.201517  0.747582  0.750000  1
  Se  Se17  1  0.702436  0.753424  0.750000  1
  Se  Se18  1  0.298396  0.247765  0.250000  1
  Se  Se19  1  0.799195  0.248022  0.250000  1
  Se  Se20  1  0.003566  0.421733  0.750000  1
  Se  Se21  1  0.507091  0.081125  0.750000  1
  Se  Se22  1  0.493319  0.919531  0.250000  1
  Se  Se23  1  0.998252  0.578755  0.250000  1
  Se  Se24  1  0.662841  0.550390  0.419534  1
  Se  Se25  1  0.164289  0.951747  0.083038  1
  Se  Se26  1  0.836608  0.049793  0.583427  1
  Se  Se27  1  0.333800  0.448662  0.916403  1
  Se  Se28  1  0.333800  0.448662  0.583597  1
  Se  Se29  1  0.662841  0.550390  0.080466  1
  Se  Se30  1  0.164289  0.951747  0.416962  1
  Se  Se31  1  0.836608  0.049793  0.916573  1
