# generated using pymatgen
data_Ba4Ni3P4Os
_symmetry_space_group_name_H-M   'P 1'
_cell_length_a   6.25299004
_cell_length_b   6.29162695
_cell_length_c   7.50399522
_cell_angle_alpha   89.24978846
_cell_angle_beta   89.53860664
_cell_angle_gamma   106.16810087
_symmetry_Int_Tables_number   1
_chemical_formula_structural   Ba4Ni3P4Os
_chemical_formula_sum   'Ba4 Ni3 P4 Os1'
_cell_volume   283.49672265
_cell_formula_units_Z   1
loop_
 _symmetry_equiv_pos_site_id
 _symmetry_equiv_pos_as_xyz
  1  'x, y, z'
loop_
 _atom_site_type_symbol
 _atom_site_label
 _atom_site_symmetry_multiplicity
 _atom_site_fract_x
 _atom_site_fract_y
 _atom_site_fract_z
 _atom_site_occupancy
  Ba  Ba0  1  0.187532  0.818865  0.508455  1
  Ba  Ba1  1  0.678029  0.313511  0.993239  1
  Ba  Ba2  1  0.819498  0.188918  0.485981  1
  Ba  Ba3  1  0.313863  0.681356  0.014259  1
  Ni  Ni4  1  0.381761  0.384613  0.618232  1
  Ni  Ni5  1  0.619561  0.616712  0.382921  1
  Ni  Ni6  1  0.121793  0.117685  0.120538  1
  P  P7  1  0.168013  0.190381  0.825181  1
  P  P8  1  0.663798  0.674901  0.668932  1
  P  P9  1  0.835877  0.814376  0.178307  1
  P  P10  1  0.335807  0.315163  0.327036  1
  Os  Os11  1  0.874469  0.883515  0.876920  1
