# generated using pymatgen
data_SrLi4Sm3Si7Ge
_symmetry_space_group_name_H-M   'P 1'
_cell_length_a   3.86690200
_cell_length_b   7.83521176
_cell_length_c   10.54052991
_cell_angle_alpha   89.63011658
_cell_angle_beta   90.00000000
_cell_angle_gamma   90.00000000
_symmetry_Int_Tables_number   1
_chemical_formula_structural   SrLi4Sm3Si7Ge
_chemical_formula_sum   'Sr1 Li4 Sm3 Si7 Ge1'
_cell_volume   319.35027843
_cell_formula_units_Z   1
loop_
 _symmetry_equiv_pos_site_id
 _symmetry_equiv_pos_as_xyz
  1  'x, y, z'
loop_
 _atom_site_type_symbol
 _atom_site_label
 _atom_site_symmetry_multiplicity
 _atom_site_fract_x
 _atom_site_fract_y
 _atom_site_fract_z
 _atom_site_occupancy
  Sr  Sr0  1  0.250000  0.137785  0.633707  1
  Li  Li1  1  0.250000  0.491521  0.389189  1
  Li  Li2  1  0.250000  0.990764  0.108509  1
  Li  Li3  1  0.750000  0.502999  0.603873  1
  Li  Li4  1  0.750000  0.009054  0.892057  1
  Sm  Sm5  1  0.250000  0.639364  0.869608  1
  Sm  Sm6  1  0.750000  0.864509  0.364908  1
  Sm  Sm7  1  0.750000  0.369233  0.136706  1
  Si  Si8  1  0.250000  0.235193  0.939657  1
  Si  Si9  1  0.250000  0.724035  0.569392  1
  Si  Si10  1  0.750000  0.768978  0.071260  1
  Si  Si11  1  0.750000  0.266392  0.421063  1
  Si  Si12  1  0.250000  0.161180  0.314277  1
  Si  Si13  1  0.250000  0.663671  0.181185  1
  Si  Si14  1  0.750000  0.826510  0.678952  1
  Ge  Ge15  1  0.750000  0.348812  0.825659  1
