# generated using pymatgen
data_Sm2HoIn3Ga2Pd
_symmetry_space_group_name_H-M   'P 1'
_cell_length_a   7.33195600
_cell_length_b   7.30053652
_cell_length_c   4.48271600
_cell_angle_alpha   90.00000000
_cell_angle_beta   90.00000000
_cell_angle_gamma   120.14246841
_symmetry_Int_Tables_number   1
_chemical_formula_structural   Sm2HoIn3Ga2Pd
_chemical_formula_sum   'Sm2 Ho1 In3 Ga2 Pd1'
_cell_volume   207.50148872
_cell_formula_units_Z   1
loop_
 _symmetry_equiv_pos_site_id
 _symmetry_equiv_pos_as_xyz
  1  'x, y, z'
loop_
 _atom_site_type_symbol
 _atom_site_label
 _atom_site_symmetry_multiplicity
 _atom_site_fract_x
 _atom_site_fract_y
 _atom_site_fract_z
 _atom_site_occupancy
  Sm  Sm0  1  0.000705  0.587489  0.500000  1
  Sm  Sm1  1  0.413216  0.412511  0.500000  1
  Ho  Ho2  1  0.589479  0.000000  0.500000  1
  In  In3  1  0.248281  0.000000  0.000000  1
  In  In4  1  0.999359  0.247153  0.000000  1
  In  In5  1  0.752207  0.752847  0.000000  1
  Ga  Ga6  1  0.335682  0.669896  0.000000  1
  Ga  Ga7  1  0.665787  0.330104  0.000000  1
  Pd  Pd8  1  0.995283  0.000000  0.500000  1
