# generated using pymatgen
data_Ni8RhSeS7
_symmetry_space_group_name_H-M   'P 1'
_cell_length_a   7.19067340
_cell_length_b   7.19067400
_cell_length_c   7.11107300
_cell_angle_alpha   60.36551851
_cell_angle_beta   60.36551578
_cell_angle_gamma   59.26895857
_symmetry_Int_Tables_number   1
_chemical_formula_structural   Ni8RhSeS7
_chemical_formula_sum   'Ni8 Rh1 Se1 S7'
_cell_volume   259.92855310
_cell_formula_units_Z   1
loop_
 _symmetry_equiv_pos_site_id
 _symmetry_equiv_pos_as_xyz
  1  'x, y, z'
loop_
 _atom_site_type_symbol
 _atom_site_label
 _atom_site_symmetry_multiplicity
 _atom_site_fract_x
 _atom_site_fract_y
 _atom_site_fract_z
 _atom_site_occupancy
  Ni  Ni0  1  0.619132  0.128338  0.126265  1
  Ni  Ni1  1  0.128338  0.619132  0.126265  1
  Ni  Ni2  1  0.121837  0.121837  0.616938  1
  Ni  Ni3  1  0.121837  0.121837  0.139388  1
  Ni  Ni4  1  0.383062  0.860612  0.878163  1
  Ni  Ni5  1  0.860612  0.383062  0.878163  1
  Ni  Ni6  1  0.873735  0.873735  0.380868  1
  Ni  Ni7  1  0.873735  0.873735  0.871662  1
  Rh  Rh8  1  0.508724  0.508724  0.491276  1
  Se  Se9  1  0.261457  0.261457  0.738543  1
  S  S10  1  0.250070  0.250070  0.249930  1
  S  S11  1  0.750070  0.750070  0.749930  1
  S  S12  1  0.742398  0.258085  0.257602  1
  S  S13  1  0.742398  0.258085  0.741915  1
  S  S14  1  0.746424  0.746424  0.253576  1
  S  S15  1  0.258085  0.742398  0.741915  1
  S  S16  1  0.258085  0.742398  0.257602  1
