# generated using pymatgen
data_Pr8Er6Sc6Si15P
_symmetry_space_group_name_H-M   'P 1'
_cell_length_a   7.35881611
_cell_length_b   7.68859771
_cell_length_c   14.53802038
_cell_angle_alpha   90.01385703
_cell_angle_beta   90.18275173
_cell_angle_gamma   90.51560315
_symmetry_Int_Tables_number   1
_chemical_formula_structural   Pr8Er6Sc6Si15P
_chemical_formula_sum   'Pr8 Er6 Sc6 Si15 P1'
_cell_volume   822.50879661
_cell_formula_units_Z   1
loop_
 _symmetry_equiv_pos_site_id
 _symmetry_equiv_pos_as_xyz
  1  'x, y, z'
loop_
 _atom_site_type_symbol
 _atom_site_label
 _atom_site_symmetry_multiplicity
 _atom_site_fract_x
 _atom_site_fract_y
 _atom_site_fract_z
 _atom_site_occupancy
  Pr  Pr0  1  0.018372  0.177765  0.398500  1
  Pr  Pr1  1  0.517434  0.323416  0.398666  1
  Pr  Pr2  1  0.485669  0.675506  0.904310  1
  Pr  Pr3  1  0.483605  0.675499  0.598473  1
  Pr  Pr4  1  0.986045  0.824937  0.602081  1
  Pr  Pr5  1  0.988090  0.824318  0.900874  1
  Pr  Pr6  1  0.516287  0.325220  0.097275  1
  Pr  Pr7  1  0.016652  0.175558  0.097436  1
  Er  Er8  1  0.316674  0.169217  0.627950  1
  Er  Er9  1  0.678369  0.824337  0.372766  1
  Er  Er10  1  0.176992  0.677943  0.373318  1
  Er  Er11  1  0.818895  0.327586  0.879413  1
  Er  Er12  1  0.817942  0.326456  0.623824  1
  Er  Er13  1  0.318698  0.168438  0.875228  1
  Sc  Sc14  1  0.653344  0.990732  0.751693  1
  Sc  Sc15  1  0.845858  0.497177  0.246007  1
  Sc  Sc16  1  0.346722  0.003414  0.245900  1
  Sc  Sc17  1  0.176017  0.676192  0.125197  1
  Sc  Sc18  1  0.676540  0.825950  0.126161  1
  Sc  Sc19  1  0.153873  0.507497  0.751908  1
  Si  Si20  1  0.473907  0.617355  0.244890  1
  Si  Si21  1  0.008082  0.129212  0.751811  1
  Si  Si22  1  0.520366  0.383161  0.751425  1
  Si  Si23  1  0.148471  0.466074  0.540035  1
  Si  Si24  1  0.976314  0.882705  0.244798  1
  Si  Si25  1  0.717416  0.122558  0.246638  1
  Si  Si26  1  0.854608  0.541621  0.044468  1
  Si  Si27  1  0.354307  0.961309  0.043630  1
  Si  Si28  1  0.151661  0.469368  0.963780  1
  Si  Si29  1  0.646059  0.031439  0.540255  1
  Si  Si30  1  0.353303  0.968005  0.459434  1
  Si  Si31  1  0.852664  0.534637  0.458701  1
  Si  Si32  1  0.783351  0.628175  0.751282  1
  Si  Si33  1  0.219251  0.379533  0.246683  1
  Si  Si34  1  0.649516  0.028225  0.963775  1
  P  P35  1  0.298647  0.859469  0.751416  1
