# generated using pymatgen
data_Sc4Fe9Co10P12Rh
_symmetry_space_group_name_H-M   'P 1'
_cell_length_a   3.61892500
_cell_length_b   10.14117037
_cell_length_c   11.63308262
_cell_angle_alpha   89.92729161
_cell_angle_beta   90.00000000
_cell_angle_gamma   90.00000000
_symmetry_Int_Tables_number   1
_chemical_formula_structural   Sc4Fe9Co10P12Rh
_chemical_formula_sum   'Sc4 Fe9 Co10 P12 Rh1'
_cell_volume   426.93535887
_cell_formula_units_Z   1
loop_
 _symmetry_equiv_pos_site_id
 _symmetry_equiv_pos_as_xyz
  1  'x, y, z'
loop_
 _atom_site_type_symbol
 _atom_site_label
 _atom_site_symmetry_multiplicity
 _atom_site_fract_x
 _atom_site_fract_y
 _atom_site_fract_z
 _atom_site_occupancy
  Sc  Sc0  1  0.250000  0.578040  0.703871  1
  Sc  Sc1  1  0.250000  0.923040  0.205185  1
  Sc  Sc2  1  0.750000  0.419859  0.294777  1
  Sc  Sc3  1  0.750000  0.081288  0.792717  1
  Fe  Fe4  1  0.250000  0.096204  0.985719  1
  Fe  Fe5  1  0.750000  0.909102  0.014337  1
  Fe  Fe6  1  0.250000  0.461572  0.930829  1
  Fe  Fe7  1  0.250000  0.036211  0.430434  1
  Fe  Fe8  1  0.750000  0.537558  0.069197  1
  Fe  Fe9  1  0.750000  0.962515  0.569692  1
  Fe  Fe10  1  0.250000  0.786683  0.492738  1
  Fe  Fe11  1  0.750000  0.288455  0.010440  1
  Fe  Fe12  1  0.750000  0.211927  0.508285  1
  Co  Co13  1  0.250000  0.224559  0.173908  1
  Co  Co14  1  0.250000  0.275848  0.673547  1
  Co  Co15  1  0.750000  0.774691  0.824879  1
  Co  Co16  1  0.750000  0.723399  0.327801  1
  Co  Co17  1  0.250000  0.878168  0.702885  1
  Co  Co18  1  0.250000  0.619000  0.204887  1
  Co  Co19  1  0.750000  0.122332  0.297533  1
  Co  Co20  1  0.750000  0.376330  0.797205  1
  Co  Co21  1  0.250000  0.406703  0.484310  1
  Co  Co22  1  0.750000  0.591374  0.515604  1
  P  P23  1  0.250000  0.423494  0.114668  1
  P  P24  1  0.250000  0.075610  0.613626  1
  P  P25  1  0.750000  0.571354  0.882399  1
  P  P26  1  0.750000  0.924231  0.385872  1
  P  P27  1  0.250000  0.263135  0.865453  1
  P  P28  1  0.250000  0.235528  0.365515  1
  P  P29  1  0.750000  0.737580  0.139052  1
  P  P30  1  0.750000  0.763456  0.633918  1
  P  P31  1  0.250000  0.600026  0.393093  1
  P  P32  1  0.250000  0.909862  0.890197  1
  P  P33  1  0.750000  0.398011  0.607844  1
  P  P34  1  0.750000  0.099547  0.107237  1
  Rh  Rh35  1  0.250000  0.713315  0.990345  1
