# generated using pymatgen
data_ZrTaTiRh5
_symmetry_space_group_name_H-M   'P 1'
_cell_length_a   4.17760400
_cell_length_b   5.54984585
_cell_length_c   10.87398057
_cell_angle_alpha   90.40898052
_cell_angle_beta   90.00000000
_cell_angle_gamma   90.00000000
_symmetry_Int_Tables_number   1
_chemical_formula_structural   ZrTaTiRh5
_chemical_formula_sum   'Zr2 Ta2 Ti2 Rh10'
_cell_volume   252.10745003
_cell_formula_units_Z   2
loop_
 _symmetry_equiv_pos_site_id
 _symmetry_equiv_pos_as_xyz
  1  'x, y, z'
loop_
 _atom_site_type_symbol
 _atom_site_label
 _atom_site_symmetry_multiplicity
 _atom_site_fract_x
 _atom_site_fract_y
 _atom_site_fract_z
 _atom_site_occupancy
  Zr  Zr0  1  0.500000  0.835187  0.355535  1
  Zr  Zr1  1  0.500000  0.164813  0.644465  1
  Ta  Ta2  1  0.500000  0.334394  0.144692  1
  Ta  Ta3  1  0.500000  0.665606  0.855308  1
  Ti  Ti4  1  0.000000  0.000000  0.000000  1
  Ti  Ti5  1  0.000000  0.500000  0.500000  1
  Rh  Rh6  1  0.000000  0.000000  0.500000  1
  Rh  Rh7  1  0.000000  0.500000  0.000000  1
  Rh  Rh8  1  0.000000  0.091945  0.234065  1
  Rh  Rh9  1  0.000000  0.908055  0.765935  1
  Rh  Rh10  1  0.000000  0.583790  0.253855  1
  Rh  Rh11  1  0.000000  0.416210  0.746145  1
  Rh  Rh12  1  0.500000  0.325146  0.390194  1
  Rh  Rh13  1  0.500000  0.674854  0.609806  1
  Rh  Rh14  1  0.500000  0.809646  0.099545  1
  Rh  Rh15  1  0.500000  0.190354  0.900455  1
