# generated using pymatgen
data_Ce2CrFe(Co4P3)2
_symmetry_space_group_name_H-M   'P 1'
_cell_length_a   3.70303900
_cell_length_b   10.39487500
_cell_length_c   11.80250800
_cell_angle_alpha   90.00000000
_cell_angle_beta   90.00000000
_cell_angle_gamma   90.00000000
_symmetry_Int_Tables_number   1
_chemical_formula_structural   Ce2CrFe(Co4P3)2
_chemical_formula_sum   'Ce4 Cr2 Fe2 Co16 P12'
_cell_volume   454.30954431
_cell_formula_units_Z   2
loop_
 _symmetry_equiv_pos_site_id
 _symmetry_equiv_pos_as_xyz
  1  'x, y, z'
loop_
 _atom_site_type_symbol
 _atom_site_label
 _atom_site_symmetry_multiplicity
 _atom_site_fract_x
 _atom_site_fract_y
 _atom_site_fract_z
 _atom_site_occupancy
  Ce  Ce0  1  0.250000  0.582517  0.702268  1
  Ce  Ce1  1  0.250000  0.917483  0.202268  1
  Ce  Ce2  1  0.750000  0.418680  0.298310  1
  Ce  Ce3  1  0.750000  0.081320  0.798310  1
  Cr  Cr4  1  0.750000  0.291645  0.010483  1
  Cr  Cr5  1  0.750000  0.208355  0.510483  1
  Fe  Fe6  1  0.250000  0.708187  0.988389  1
  Fe  Fe7  1  0.250000  0.791813  0.488389  1
  Co  Co8  1  0.250000  0.405762  0.486834  1
  Co  Co9  1  0.250000  0.094238  0.986834  1
  Co  Co10  1  0.750000  0.594397  0.514279  1
  Co  Co11  1  0.750000  0.905603  0.014279  1
  Co  Co12  1  0.250000  0.220333  0.176314  1
  Co  Co13  1  0.250000  0.279667  0.676314  1
  Co  Co14  1  0.750000  0.779338  0.824086  1
  Co  Co15  1  0.750000  0.720662  0.324086  1
  Co  Co16  1  0.250000  0.884309  0.698392  1
  Co  Co17  1  0.250000  0.615691  0.198392  1
  Co  Co18  1  0.750000  0.114576  0.301047  1
  Co  Co19  1  0.750000  0.385424  0.801047  1
  Co  Co20  1  0.250000  0.467830  0.931799  1
  Co  Co21  1  0.250000  0.032170  0.431799  1
  Co  Co22  1  0.750000  0.532311  0.067031  1
  Co  Co23  1  0.750000  0.967689  0.567031  1
  P  P24  1  0.250000  0.417309  0.111089  1
  P  P25  1  0.250000  0.082691  0.611089  1
  P  P26  1  0.750000  0.582565  0.888659  1
  P  P27  1  0.750000  0.917435  0.388659  1
  P  P28  1  0.250000  0.274061  0.868255  1
  P  P29  1  0.250000  0.225939  0.368255  1
  P  P30  1  0.750000  0.725183  0.132655  1
  P  P31  1  0.750000  0.774817  0.632655  1
  P  P32  1  0.250000  0.606819  0.393823  1
  P  P33  1  0.250000  0.893181  0.893823  1
  P  P34  1  0.750000  0.395420  0.606286  1
  P  P35  1  0.750000  0.104580  0.106286  1
