# generated using pymatgen
data_Nb2I3ClO2
_symmetry_space_group_name_H-M   'P 1'
_cell_length_a   8.28162570
_cell_length_b   8.27570489
_cell_length_c   7.44895105
_cell_angle_alpha   76.51514177
_cell_angle_beta   76.52920986
_cell_angle_gamma   27.59039057
_symmetry_Int_Tables_number   1
_chemical_formula_structural   Nb2I3ClO2
_chemical_formula_sum   'Nb2 I3 Cl1 O2'
_cell_volume   229.53738917
_cell_formula_units_Z   1
loop_
 _symmetry_equiv_pos_site_id
 _symmetry_equiv_pos_as_xyz
  1  'x, y, z'
loop_
 _atom_site_type_symbol
 _atom_site_label
 _atom_site_symmetry_multiplicity
 _atom_site_fract_x
 _atom_site_fract_y
 _atom_site_fract_z
 _atom_site_occupancy
  Nb  Nb0  1  0.968794  0.036229  0.793390  1
  Nb  Nb1  1  0.969720  0.035511  0.204116  1
  I  I2  1  0.130239  0.122573  0.434240  1
  I  I3  1  0.889732  0.873691  0.561648  1
  I  I4  1  0.853202  0.854052  0.075926  1
  Cl  Cl5  1  0.128538  0.126142  0.933651  1
  O  O6  1  0.499115  0.506867  0.784401  1
  O  O7  1  0.499524  0.506072  0.212627  1
