# generated using pymatgen
data_Tm5TcRuO12
_symmetry_space_group_name_H-M   'P 1'
_cell_length_a   6.75398765
_cell_length_b   6.75398866
_cell_length_c   7.38848588
_cell_angle_alpha   73.89802113
_cell_angle_beta   73.89801873
_cell_angle_gamma   49.18843573
_symmetry_Int_Tables_number   1
_chemical_formula_structural   Tm5TcRuO12
_chemical_formula_sum   'Tm5 Tc1 Ru1 O12'
_cell_volume   242.93392371
_cell_formula_units_Z   1
loop_
 _symmetry_equiv_pos_site_id
 _symmetry_equiv_pos_as_xyz
  1  'x, y, z'
loop_
 _atom_site_type_symbol
 _atom_site_label
 _atom_site_symmetry_multiplicity
 _atom_site_fract_x
 _atom_site_fract_y
 _atom_site_fract_z
 _atom_site_occupancy
  Tm  Tm0  1  0.811863  0.792900  0.358580  1
  Tm  Tm1  1  0.207100  0.188137  0.641420  1
  Tm  Tm2  1  0.189927  0.181266  0.175234  1
  Tm  Tm3  1  0.818734  0.810073  0.824766  1
  Tm  Tm4  1  0.508254  0.491746  0.500000  1
  Tc  Tc5  1  0.705505  0.294495  0.000000  1
  Ru  Ru6  1  0.270255  0.729745  0.000000  1
  O  O7  1  0.412722  0.930387  0.913471  1
  O  O8  1  0.069613  0.587278  0.086529  1
  O  O9  1  0.588943  0.085081  0.086370  1
  O  O10  1  0.914919  0.411057  0.913630  1
  O  O11  1  0.606701  0.090610  0.570049  1
  O  O12  1  0.909390  0.393299  0.429951  1
  O  O13  1  0.409234  0.899688  0.425234  1
  O  O14  1  0.993668  0.008208  0.819359  1
  O  O15  1  0.991792  0.006332  0.180641  1
  O  O16  1  0.493435  0.502366  0.795518  1
  O  O17  1  0.497634  0.506565  0.204482  1
  O  O18  1  0.100312  0.590766  0.574766  1
