# generated using pymatgen
data_Y6Al24Ru7Pt
_symmetry_space_group_name_H-M   'P 1'
_cell_length_a   8.81188146
_cell_length_b   8.81188255
_cell_length_c   9.53705716
_cell_angle_alpha   90.15254686
_cell_angle_beta   89.84745014
_cell_angle_gamma   119.85628480
_symmetry_Int_Tables_number   1
_chemical_formula_structural   Y6Al24Ru7Pt
_chemical_formula_sum   'Y6 Al24 Ru7 Pt1'
_cell_volume   642.25489089
_cell_formula_units_Z   1
loop_
 _symmetry_equiv_pos_site_id
 _symmetry_equiv_pos_as_xyz
  1  'x, y, z'
loop_
 _atom_site_type_symbol
 _atom_site_label
 _atom_site_symmetry_multiplicity
 _atom_site_fract_x
 _atom_site_fract_y
 _atom_site_fract_z
 _atom_site_occupancy
  Y  Y0  1  0.194125  0.805875  0.249624  1
  Y  Y1  1  0.191727  0.385984  0.249796  1
  Y  Y2  1  0.614016  0.808273  0.249796  1
  Y  Y3  1  0.805875  0.194125  0.750376  1
  Y  Y4  1  0.808273  0.614016  0.750204  1
  Y  Y5  1  0.385984  0.191727  0.750204  1
  Al  Al6  1  0.561875  0.438125  0.247765  1
  Al  Al7  1  0.560671  0.121790  0.251129  1
  Al  Al8  1  0.878210  0.439329  0.251129  1
  Al  Al9  1  0.438125  0.561875  0.752235  1
  Al  Al10  1  0.439329  0.878210  0.748871  1
  Al  Al11  1  0.121790  0.560671  0.748871  1
  Al  Al12  1  0.323777  0.157752  0.422393  1
  Al  Al13  1  0.837352  0.162648  0.422412  1
  Al  Al14  1  0.842248  0.676223  0.422393  1
  Al  Al15  1  0.676223  0.842248  0.577607  1
  Al  Al16  1  0.162648  0.837352  0.577588  1
  Al  Al17  1  0.157752  0.323777  0.577607  1
  Al  Al18  1  0.675758  0.837310  0.921915  1
  Al  Al19  1  0.162665  0.837335  0.922066  1
  Al  Al20  1  0.162690  0.324242  0.921915  1
  Al  Al21  1  0.324242  0.162690  0.078085  1
  Al  Al22  1  0.837335  0.162665  0.077934  1
  Al  Al23  1  0.837310  0.675758  0.078085  1
  Al  Al24  1  0.669223  0.330777  0.519353  1
  Al  Al25  1  0.330777  0.669223  0.480647  1
  Al  Al26  1  0.333253  0.666747  0.016436  1
  Al  Al27  1  0.666747  0.333253  0.983564  1
  Al  Al28  1  0.999700  0.000300  0.249946  1
  Al  Al29  1  0.000300  0.999700  0.750054  1
  Ru  Ru30  1  0.000000  0.000000  0.500000  1
  Ru  Ru31  1  0.000000  0.000000  0.000000  1
  Ru  Ru32  1  0.500000  0.000000  0.500000  1
  Ru  Ru33  1  0.000000  0.500000  0.500000  1
  Ru  Ru34  1  0.500000  0.500000  0.000000  1
  Ru  Ru35  1  0.500000  0.000000  0.000000  1
  Ru  Ru36  1  0.000000  0.500000  0.000000  1
  Pt  Pt37  1  0.500000  0.500000  0.500000  1
