# generated using pymatgen
data_La3Yb11Pr2(MgRu)4
_symmetry_space_group_name_H-M   'P 1'
_cell_length_a   10.11502779
_cell_length_b   10.00561029
_cell_length_c   9.91990200
_cell_angle_alpha   60.28295293
_cell_angle_beta   60.63609856
_cell_angle_gamma   60.16198267
_symmetry_Int_Tables_number   1
_chemical_formula_structural   La3Yb11Pr2(MgRu)4
_chemical_formula_sum   'La3 Yb11 Pr2 Mg4 Ru4'
_cell_volume   715.66994300
_cell_formula_units_Z   1
loop_
 _symmetry_equiv_pos_site_id
 _symmetry_equiv_pos_as_xyz
  1  'x, y, z'
loop_
 _atom_site_type_symbol
 _atom_site_label
 _atom_site_symmetry_multiplicity
 _atom_site_fract_x
 _atom_site_fract_y
 _atom_site_fract_z
 _atom_site_occupancy
  La  La0  1  0.198822  0.175755  0.812712  1
  La  La1  1  0.019628  0.661414  0.659479  1
  La  La2  1  0.808038  0.815589  0.188187  1
  Yb  Yb3  1  0.045576  0.451415  0.452100  1
  Yb  Yb4  1  0.190901  0.809587  0.189870  1
  Yb  Yb5  1  0.656024  0.659134  0.659871  1
  Yb  Yb6  1  0.450355  0.445141  0.052252  1
  Yb  Yb7  1  0.045576  0.451415  0.050909  1
  Yb  Yb8  1  0.455462  0.046356  0.047293  1
  Yb  Yb9  1  0.053642  0.055813  0.445272  1
  Yb  Yb10  1  0.656024  0.659134  0.024969  1
  Yb  Yb11  1  0.660013  0.022353  0.658817  1
  Yb  Yb12  1  0.190901  0.809587  0.809641  1
  Yb  Yb13  1  0.455462  0.046356  0.450887  1
  Pr  Pr14  1  0.806005  0.192056  0.191835  1
  Pr  Pr15  1  0.806005  0.192056  0.810103  1
  Mg  Mg16  1  0.422187  0.420484  0.422400  1
  Mg  Mg17  1  0.423522  0.732785  0.421847  1
  Mg  Mg18  1  0.731084  0.420626  0.424146  1
  Mg  Mg19  1  0.422187  0.420484  0.734930  1
  Ru  Ru20  1  0.861651  0.857836  0.882336  1
  Ru  Ru21  1  0.393508  0.895791  0.855350  1
  Ru  Ru22  1  0.885774  0.400991  0.856617  1
  Ru  Ru23  1  0.861651  0.857836  0.398177  1
