# generated using pymatgen
data_Hf12Ti4Mo5Pt3
_symmetry_space_group_name_H-M   'P 1'
_cell_length_a   8.65907268
_cell_length_b   8.62973809
_cell_length_c   8.62973900
_cell_angle_alpha   60.00000034
_cell_angle_beta   60.11200237
_cell_angle_gamma   60.11199680
_symmetry_Int_Tables_number   1
_chemical_formula_structural   Hf12Ti4Mo5Pt3
_chemical_formula_sum   'Hf12 Ti4 Mo5 Pt3'
_cell_volume   456.75656589
_cell_formula_units_Z   1
loop_
 _symmetry_equiv_pos_site_id
 _symmetry_equiv_pos_as_xyz
  1  'x, y, z'
loop_
 _atom_site_type_symbol
 _atom_site_label
 _atom_site_symmetry_multiplicity
 _atom_site_fract_x
 _atom_site_fract_y
 _atom_site_fract_z
 _atom_site_occupancy
  Hf  Hf0  1  0.805155  0.806690  0.194071  1
  Hf  Hf1  1  0.197426  0.187414  0.807578  1
  Hf  Hf2  1  0.805155  0.194071  0.806690  1
  Hf  Hf3  1  0.197426  0.807578  0.187414  1
  Hf  Hf4  1  0.197422  0.807578  0.807578  1
  Hf  Hf5  1  0.805154  0.194076  0.194076  1
  Hf  Hf6  1  0.435919  0.444250  0.059919  1
  Hf  Hf7  1  0.062099  0.061237  0.438332  1
  Hf  Hf8  1  0.435919  0.059919  0.444250  1
  Hf  Hf9  1  0.062099  0.438332  0.061237  1
  Hf  Hf10  1  0.062104  0.438331  0.438331  1
  Hf  Hf11  1  0.435920  0.059916  0.059916  1
  Ti  Ti12  1  0.113364  0.628879  0.628879  1
  Ti  Ti13  1  0.627389  0.123121  0.624744  1
  Ti  Ti14  1  0.627389  0.624744  0.123121  1
  Ti  Ti15  1  0.627386  0.624746  0.624746  1
  Mo  Mo16  1  0.755662  0.414783  0.414783  1
  Mo  Mo17  1  0.411279  0.757599  0.415562  1
  Mo  Mo18  1  0.411279  0.415562  0.757599  1
  Mo  Mo19  1  0.411282  0.415561  0.415561  1
  Mo  Mo20  1  0.505005  0.831665  0.831665  1
  Pt  Pt21  1  0.836057  0.479633  0.842160  1
  Pt  Pt22  1  0.836057  0.842160  0.479633  1
  Pt  Pt23  1  0.836054  0.842157  0.842157  1
