# generated using pymatgen
data_HoMn3Fe2P3
_symmetry_space_group_name_H-M   'P 1'
_cell_length_a   3.64474600
_cell_length_b   10.39411400
_cell_length_c   12.06302200
_cell_angle_alpha   90.00000000
_cell_angle_beta   90.00000000
_cell_angle_gamma   90.00000000
_symmetry_Int_Tables_number   1
_chemical_formula_structural   HoMn3Fe2P3
_chemical_formula_sum   'Ho4 Mn12 Fe8 P12'
_cell_volume   456.99438459
_cell_formula_units_Z   4
loop_
 _symmetry_equiv_pos_site_id
 _symmetry_equiv_pos_as_xyz
  1  'x, y, z'
loop_
 _atom_site_type_symbol
 _atom_site_label
 _atom_site_symmetry_multiplicity
 _atom_site_fract_x
 _atom_site_fract_y
 _atom_site_fract_z
 _atom_site_occupancy
  Ho  Ho0  1  0.250000  0.580887  0.709698  1
  Ho  Ho1  1  0.250000  0.919113  0.209698  1
  Ho  Ho2  1  0.750000  0.419113  0.290302  1
  Ho  Ho3  1  0.750000  0.080887  0.790302  1
  Mn  Mn4  1  0.250000  0.707434  0.989238  1
  Mn  Mn5  1  0.250000  0.792566  0.489238  1
  Mn  Mn6  1  0.750000  0.292566  0.010762  1
  Mn  Mn7  1  0.750000  0.207434  0.510762  1
  Mn  Mn8  1  0.250000  0.406994  0.493031  1
  Mn  Mn9  1  0.250000  0.093006  0.993031  1
  Mn  Mn10  1  0.750000  0.593006  0.506969  1
  Mn  Mn11  1  0.750000  0.906994  0.006969  1
  Mn  Mn12  1  0.250000  0.220109  0.172173  1
  Mn  Mn13  1  0.250000  0.279891  0.672173  1
  Mn  Mn14  1  0.750000  0.779891  0.827827  1
  Mn  Mn15  1  0.750000  0.720109  0.327827  1
  Fe  Fe16  1  0.250000  0.872731  0.699766  1
  Fe  Fe17  1  0.250000  0.627269  0.199766  1
  Fe  Fe18  1  0.750000  0.127269  0.300234  1
  Fe  Fe19  1  0.750000  0.372731  0.800234  1
  Fe  Fe20  1  0.250000  0.462110  0.934105  1
  Fe  Fe21  1  0.250000  0.037890  0.434105  1
  Fe  Fe22  1  0.750000  0.537890  0.065895  1
  Fe  Fe23  1  0.750000  0.962110  0.565895  1
  P  P24  1  0.250000  0.428886  0.112438  1
  P  P25  1  0.250000  0.071114  0.612438  1
  P  P26  1  0.750000  0.571114  0.887562  1
  P  P27  1  0.750000  0.928886  0.387562  1
  P  P28  1  0.250000  0.266654  0.867210  1
  P  P29  1  0.250000  0.233346  0.367210  1
  P  P30  1  0.750000  0.733346  0.132790  1
  P  P31  1  0.750000  0.766654  0.632790  1
  P  P32  1  0.250000  0.595107  0.386291  1
  P  P33  1  0.250000  0.904893  0.886291  1
  P  P34  1  0.750000  0.404893  0.613709  1
  P  P35  1  0.750000  0.095107  0.113709  1
