# generated using pymatgen
data_CsCuP2Se5
_symmetry_space_group_name_H-M   'P 1'
_cell_length_a   8.01144900
_cell_length_b   11.43185751
_cell_length_c   13.81094102
_cell_angle_alpha   59.32788901
_cell_angle_beta   90.00000000
_cell_angle_gamma   90.00000000
_symmetry_Int_Tables_number   1
_chemical_formula_structural   CsCuP2Se5
_chemical_formula_sum   'Cs4 Cu4 P8 Se20'
_cell_volume   1087.92870672
_cell_formula_units_Z   4
loop_
 _symmetry_equiv_pos_site_id
 _symmetry_equiv_pos_as_xyz
  1  'x, y, z'
loop_
 _atom_site_type_symbol
 _atom_site_label
 _atom_site_symmetry_multiplicity
 _atom_site_fract_x
 _atom_site_fract_y
 _atom_site_fract_z
 _atom_site_occupancy
  Cs  Cs0  1  0.621113  0.624925  0.780348  1
  Cs  Cs1  1  0.378887  0.375075  0.219652  1
  Cs  Cs2  1  0.878887  0.624925  0.280348  1
  Cs  Cs3  1  0.121113  0.375075  0.719652  1
  Cu  Cu4  1  0.318539  0.859768  0.319602  1
  Cu  Cu5  1  0.818539  0.140232  0.180398  1
  Cu  Cu6  1  0.181461  0.859768  0.819602  1
  Cu  Cu7  1  0.681461  0.140232  0.680398  1
  P  P8  1  0.663059  0.181255  0.930364  1
  P  P9  1  0.940843  0.842049  0.456458  1
  P  P10  1  0.059157  0.157951  0.543542  1
  P  P11  1  0.836941  0.181255  0.430364  1
  P  P12  1  0.336941  0.818745  0.069636  1
  P  P13  1  0.163059  0.818745  0.569636  1
  P  P14  1  0.559157  0.842049  0.956458  1
  P  P15  1  0.440843  0.157951  0.043542  1
  Se  Se16  1  0.680711  0.646893  0.029756  1
  Se  Se17  1  0.602131  0.291284  0.751210  1
  Se  Se18  1  0.130874  0.736064  0.018069  1
  Se  Se19  1  0.474087  0.943768  0.779446  1
  Se  Se20  1  0.180711  0.353107  0.470244  1
  Se  Se21  1  0.369126  0.736064  0.518069  1
  Se  Se22  1  0.319289  0.353107  0.970244  1
  Se  Se23  1  0.974087  0.056232  0.720554  1
  Se  Se24  1  0.751737  0.961715  0.995077  1
  Se  Se25  1  0.251737  0.038285  0.504923  1
  Se  Se26  1  0.869126  0.263936  0.981931  1
  Se  Se27  1  0.748263  0.961715  0.495077  1
  Se  Se28  1  0.102131  0.708716  0.748790  1
  Se  Se29  1  0.025913  0.943768  0.279446  1
  Se  Se30  1  0.630874  0.263936  0.481931  1
  Se  Se31  1  0.397869  0.708716  0.248790  1
  Se  Se32  1  0.897869  0.291284  0.251210  1
  Se  Se33  1  0.525913  0.056232  0.220554  1
  Se  Se34  1  0.248263  0.038285  0.004923  1
  Se  Se35  1  0.819289  0.646893  0.529756  1
