# generated using pymatgen
data_Nd18Dy2(Ir3Au)3
_symmetry_space_group_name_H-M   'P 1'
_cell_length_a   11.44567470
_cell_length_b   11.42979479
_cell_length_c   6.52001705
_cell_angle_alpha   90.03458921
_cell_angle_beta   90.06012744
_cell_angle_gamma   89.82680526
_symmetry_Int_Tables_number   1
_chemical_formula_structural   Nd18Dy2(Ir3Au)3
_chemical_formula_sum   'Nd18 Dy2 Ir9 Au3'
_cell_volume   852.95527904
_cell_formula_units_Z   1
loop_
 _symmetry_equiv_pos_site_id
 _symmetry_equiv_pos_as_xyz
  1  'x, y, z'
loop_
 _atom_site_type_symbol
 _atom_site_label
 _atom_site_symmetry_multiplicity
 _atom_site_fract_x
 _atom_site_fract_y
 _atom_site_fract_z
 _atom_site_occupancy
  Nd  Nd0  1  0.290859  0.089260  0.379773  1
  Nd  Nd1  1  0.293183  0.907590  0.878965  1
  Nd  Nd2  1  0.697302  0.082892  0.866100  1
  Nd  Nd3  1  0.697166  0.903199  0.365914  1
  Nd  Nd4  1  0.579550  0.783242  0.879688  1
  Nd  Nd5  1  0.575121  0.207150  0.367565  1
  Nd  Nd6  1  0.407208  0.791125  0.381452  1
  Nd  Nd7  1  0.401449  0.206570  0.883827  1
  Nd  Nd8  1  0.214342  0.410776  0.618580  1
  Nd  Nd9  1  0.210180  0.591733  0.117976  1
  Nd  Nd10  1  0.793809  0.423015  0.132298  1
  Nd  Nd11  1  0.792955  0.588477  0.616557  1
  Nd  Nd12  1  0.917146  0.705859  0.133852  1
  Nd  Nd13  1  0.925644  0.295155  0.636389  1
  Nd  Nd14  1  0.098442  0.702459  0.619855  1
  Nd  Nd15  1  0.099080  0.299253  0.119753  1
  Nd  Nd16  1  0.008687  0.997324  0.500088  1
  Nd  Nd17  1  0.010512  0.002090  0.002030  1
  Dy  Dy18  1  0.493620  0.501403  0.002311  1
  Dy  Dy19  1  0.495420  0.507274  0.497105  1
  Ir  Ir20  1  0.153153  0.155263  0.751668  1
  Ir  Ir21  1  0.154905  0.845730  0.251471  1
  Ir  Ir22  1  0.648585  0.645064  0.249069  1
  Ir  Ir23  1  0.353714  0.353331  0.249281  1
  Ir  Ir24  1  0.351807  0.650283  0.751099  1
  Ir  Ir25  1  0.501526  0.999285  0.114012  1
  Ir  Ir26  1  0.500420  0.001895  0.615806  1
  Ir  Ir27  1  0.997657  0.502297  0.883198  1
  Ir  Ir28  1  0.999504  0.498418  0.385654  1
  Au  Au29  1  0.842965  0.156421  0.250148  1
  Au  Au30  1  0.843799  0.845739  0.750209  1
  Au  Au31  1  0.650292  0.350428  0.748308  1
