# generated using pymatgen
data_Tb17Yb2DyIr12
_symmetry_space_group_name_H-M   'P 1'
_cell_length_a   10.93837000
_cell_length_b   10.93837000
_cell_length_c   6.37254500
_cell_angle_alpha   90.00000000
_cell_angle_beta   90.00000000
_cell_angle_gamma   90.00000000
_symmetry_Int_Tables_number   1
_chemical_formula_structural   Tb17Yb2DyIr12
_chemical_formula_sum   'Tb17 Yb2 Dy1 Ir12'
_cell_volume   762.46187070
_cell_formula_units_Z   1
loop_
 _symmetry_equiv_pos_site_id
 _symmetry_equiv_pos_as_xyz
  1  'x, y, z'
loop_
 _atom_site_type_symbol
 _atom_site_label
 _atom_site_symmetry_multiplicity
 _atom_site_fract_x
 _atom_site_fract_y
 _atom_site_fract_z
 _atom_site_occupancy
  Tb  Tb0  1  0.289995  0.087820  0.381404  1
  Tb  Tb1  1  0.289983  0.912218  0.881401  1
  Tb  Tb2  1  0.710017  0.087782  0.881401  1
  Tb  Tb3  1  0.710005  0.912180  0.381404  1
  Tb  Tb4  1  0.589235  0.791230  0.880011  1
  Tb  Tb5  1  0.589223  0.208836  0.380078  1
  Tb  Tb6  1  0.410777  0.791164  0.380078  1
  Tb  Tb7  1  0.410765  0.208770  0.880011  1
  Tb  Tb8  1  0.208836  0.410777  0.619922  1
  Tb  Tb9  1  0.208770  0.589235  0.119989  1
  Tb  Tb10  1  0.791230  0.410765  0.119989  1
  Tb  Tb11  1  0.791164  0.589223  0.619922  1
  Tb  Tb12  1  0.912218  0.710017  0.118599  1
  Tb  Tb13  1  0.912180  0.289995  0.618596  1
  Tb  Tb14  1  0.087820  0.710005  0.618596  1
  Tb  Tb15  1  0.087782  0.289983  0.118599  1
  Tb  Tb16  1  0.500000  0.500000  0.000000  1
  Yb  Yb17  1  0.000000  0.000000  0.500000  1
  Yb  Yb18  1  0.000000  0.000000  0.000000  1
  Dy  Dy19  1  0.500000  0.500000  0.500000  1
  Ir  Ir20  1  0.842212  0.157791  0.249991  1
  Ir  Ir21  1  0.842209  0.842212  0.750009  1
  Ir  Ir22  1  0.157791  0.157788  0.750009  1
  Ir  Ir23  1  0.157788  0.842209  0.249991  1
  Ir  Ir24  1  0.653237  0.346769  0.749723  1
  Ir  Ir25  1  0.653231  0.653237  0.250277  1
  Ir  Ir26  1  0.346769  0.346763  0.250277  1
  Ir  Ir27  1  0.346763  0.653231  0.749723  1
  Ir  Ir28  1  0.500000  0.000000  0.122556  1
  Ir  Ir29  1  0.500000  0.000000  0.622554  1
  Ir  Ir30  1  0.000000  0.500000  0.877444  1
  Ir  Ir31  1  0.000000  0.500000  0.377446  1
