# generated using pymatgen
data_Tm12Hg2Os3
_symmetry_space_group_name_H-M   'P 1'
_cell_length_a   8.29788303
_cell_length_b   8.29788328
_cell_length_c   8.29788313
_cell_angle_alpha   109.22433781
_cell_angle_beta   109.22434127
_cell_angle_gamma   109.96611234
_symmetry_Int_Tables_number   1
_chemical_formula_structural   Tm12Hg2Os3
_chemical_formula_sum   'Tm12 Hg2 Os3'
_cell_volume   439.80054562
_cell_formula_units_Z   1
loop_
 _symmetry_equiv_pos_site_id
 _symmetry_equiv_pos_as_xyz
  1  'x, y, z'
loop_
 _atom_site_type_symbol
 _atom_site_label
 _atom_site_symmetry_multiplicity
 _atom_site_fract_x
 _atom_site_fract_y
 _atom_site_fract_z
 _atom_site_occupancy
  Tm  Tm0  1  0.183196  0.426874  0.243678  1
  Tm  Tm1  1  0.816804  0.573126  0.756322  1
  Tm  Tm2  1  0.183196  0.939520  0.756322  1
  Tm  Tm3  1  0.939520  0.183196  0.756322  1
  Tm  Tm4  1  0.816804  0.060480  0.243678  1
  Tm  Tm5  1  0.060480  0.816804  0.243678  1
  Tm  Tm6  1  0.426874  0.183196  0.243678  1
  Tm  Tm7  1  0.573126  0.816804  0.756322  1
  Tm  Tm8  1  0.319161  0.319161  0.638325  1
  Tm  Tm9  1  0.680839  0.680839  0.361675  1
  Tm  Tm10  1  0.680839  0.319161  0.000000  1
  Tm  Tm11  1  0.319161  0.680839  0.000000  1
  Hg  Hg12  1  0.000000  0.500000  0.500000  1
  Hg  Hg13  1  0.500000  0.000000  0.500000  1
  Os  Os14  1  0.343032  0.343032  0.000000  1
  Os  Os15  1  0.656968  0.656968  0.000000  1
  Os  Os16  1  0.000000  0.000000  0.000000  1
