# generated using pymatgen
data_HoTh7ScSe17
_symmetry_space_group_name_H-M   'P 1'
_cell_length_a   8.47340685
_cell_length_b   8.46221531
_cell_length_c   11.23363500
_cell_angle_alpha   80.69806060
_cell_angle_beta   80.88125407
_cell_angle_gamma   65.07597312
_symmetry_Int_Tables_number   1
_chemical_formula_structural   HoTh7ScSe17
_chemical_formula_sum   'Ho1 Th7 Sc1 Se17'
_cell_volume   717.18664418
_cell_formula_units_Z   1
loop_
 _symmetry_equiv_pos_site_id
 _symmetry_equiv_pos_as_xyz
  1  'x, y, z'
loop_
 _atom_site_type_symbol
 _atom_site_label
 _atom_site_symmetry_multiplicity
 _atom_site_fract_x
 _atom_site_fract_y
 _atom_site_fract_z
 _atom_site_occupancy
  Ho  Ho0  1  0.812620  0.303598  0.297185  1
  Th  Th1  1  0.301222  0.812401  0.295642  1
  Th  Th2  1  0.185928  0.699469  0.702321  1
  Th  Th3  1  0.699214  0.188233  0.700506  1
  Th  Th4  1  0.205525  0.204640  0.539464  1
  Th  Th5  1  0.794311  0.796644  0.456444  1
  Th  Th6  1  0.684648  0.679928  0.982087  1
  Th  Th7  1  0.316433  0.316870  0.022648  1
  Sc  Sc8  1  0.998103  0.003075  0.001786  1
  Se  Se9  1  0.824598  0.429022  0.529291  1
  Se  Se10  1  0.432216  0.821323  0.531338  1
  Se  Se11  1  0.176912  0.568085  0.467328  1
  Se  Se12  1  0.570853  0.178389  0.467509  1
  Se  Se13  1  0.941724  0.327996  0.034153  1
  Se  Se14  1  0.328370  0.941509  0.030753  1
  Se  Se15  1  0.058719  0.673366  0.968214  1
  Se  Se16  1  0.671847  0.058563  0.967070  1
  Se  Se17  1  0.205219  0.206484  0.277740  1
  Se  Se18  1  0.791448  0.791436  0.723007  1
  Se  Se19  1  0.062943  0.063141  0.769530  1
  Se  Se20  1  0.935285  0.944564  0.232848  1
  Se  Se21  1  0.304708  0.304727  0.753625  1
  Se  Se22  1  0.694693  0.692798  0.246682  1
  Se  Se23  1  0.520904  0.521751  0.832058  1
  Se  Se24  1  0.478773  0.478180  0.166338  1
  Se  Se25  1  0.002781  0.993810  0.504432  1
