# generated using pymatgen
data_Tm20ZnBi9Sb2
_symmetry_space_group_name_H-M   'P 1'
_cell_length_a   8.08192541
_cell_length_b   9.34890000
_cell_length_c   11.83783800
_cell_angle_alpha   90.00000000
_cell_angle_beta   89.68538003
_cell_angle_gamma   90.00000000
_symmetry_Int_Tables_number   1
_chemical_formula_structural   Tm20ZnBi9Sb2
_chemical_formula_sum   'Tm20 Zn1 Bi9 Sb2'
_cell_volume   894.41937212
_cell_formula_units_Z   1
loop_
 _symmetry_equiv_pos_site_id
 _symmetry_equiv_pos_as_xyz
  1  'x, y, z'
loop_
 _atom_site_type_symbol
 _atom_site_label
 _atom_site_symmetry_multiplicity
 _atom_site_fract_x
 _atom_site_fract_y
 _atom_site_fract_z
 _atom_site_occupancy
  Tm  Tm0  1  0.035938  0.250000  0.508524  1
  Tm  Tm1  1  0.976229  0.750000  0.489661  1
  Tm  Tm2  1  0.471257  0.750000  0.010846  1
  Tm  Tm3  1  0.525031  0.250000  0.989437  1
  Tm  Tm4  1  0.356372  0.250000  0.294950  1
  Tm  Tm5  1  0.647316  0.750000  0.712941  1
  Tm  Tm6  1  0.149163  0.750000  0.785632  1
  Tm  Tm7  1  0.852129  0.250000  0.216025  1
  Tm  Tm8  1  0.191471  0.250000  0.778596  1
  Tm  Tm9  1  0.812705  0.750000  0.216668  1
  Tm  Tm10  1  0.315973  0.750000  0.282173  1
  Tm  Tm11  1  0.673796  0.250000  0.710305  1
  Tm  Tm12  1  0.192353  0.061938  0.061189  1
  Tm  Tm13  1  0.809111  0.932235  0.941512  1
  Tm  Tm14  1  0.311601  0.950063  0.557857  1
  Tm  Tm15  1  0.809111  0.567765  0.941512  1
  Tm  Tm16  1  0.682998  0.068173  0.445654  1
  Tm  Tm17  1  0.192353  0.438062  0.061189  1
  Tm  Tm18  1  0.682998  0.431827  0.445654  1
  Tm  Tm19  1  0.311601  0.549937  0.557857  1
  Zn  Zn20  1  0.407787  0.250000  0.539757  1
  Bi  Bi21  1  0.906963  0.250000  0.954618  1
  Bi  Bi22  1  0.063037  0.002374  0.323967  1
  Bi  Bi23  1  0.935526  0.997500  0.675675  1
  Bi  Bi24  1  0.435886  0.996971  0.824764  1
  Bi  Bi25  1  0.935526  0.502500  0.675675  1
  Bi  Bi26  1  0.564620  0.003805  0.174586  1
  Bi  Bi27  1  0.063037  0.497626  0.323967  1
  Bi  Bi28  1  0.564620  0.496195  0.174586  1
  Bi  Bi29  1  0.435886  0.503029  0.824764  1
  Sb  Sb30  1  0.594024  0.750000  0.457903  1
  Sb  Sb31  1  0.093584  0.750000  0.041555  1
