# generated using pymatgen
data_Tm9Lu11Sb12
_symmetry_space_group_name_H-M   'P 1'
_cell_length_a   8.03648821
_cell_length_b   9.11070912
_cell_length_c   11.67510733
_cell_angle_alpha   89.98547635
_cell_angle_beta   89.97698419
_cell_angle_gamma   89.98808698
_symmetry_Int_Tables_number   1
_chemical_formula_structural   Tm9Lu11Sb12
_chemical_formula_sum   'Tm9 Lu11 Sb12'
_cell_volume   854.82913584
_cell_formula_units_Z   1
loop_
 _symmetry_equiv_pos_site_id
 _symmetry_equiv_pos_as_xyz
  1  'x, y, z'
loop_
 _atom_site_type_symbol
 _atom_site_label
 _atom_site_symmetry_multiplicity
 _atom_site_fract_x
 _atom_site_fract_y
 _atom_site_fract_z
 _atom_site_occupancy
  Tm  Tm0  1  0.308650  0.439629  0.433911  1
  Tm  Tm1  1  0.175447  0.750036  0.228770  1
  Tm  Tm2  1  0.675343  0.249960  0.271169  1
  Tm  Tm3  1  0.824529  0.249973  0.771192  1
  Tm  Tm4  1  0.324530  0.750007  0.728756  1
  Tm  Tm5  1  0.657976  0.749911  0.290941  1
  Tm  Tm6  1  0.157934  0.249755  0.208854  1
  Tm  Tm7  1  0.342043  0.249855  0.709176  1
  Tm  Tm8  1  0.842052  0.749970  0.790938  1
  Lu  Lu9  1  0.808758  0.939094  0.066143  1
  Lu  Lu10  1  0.308787  0.060772  0.433795  1
  Lu  Lu11  1  0.191211  0.439106  0.933817  1
  Lu  Lu12  1  0.691228  0.560886  0.566176  1
  Lu  Lu13  1  0.191241  0.060890  0.933844  1
  Lu  Lu14  1  0.691340  0.939115  0.566196  1
  Lu  Lu15  1  0.808699  0.560912  0.066142  1
  Lu  Lu16  1  0.524897  0.249947  0.994985  1
  Lu  Lu17  1  0.024808  0.750049  0.505002  1
  Lu  Lu18  1  0.475121  0.750009  0.004989  1
  Lu  Lu19  1  0.974842  0.249850  0.495054  1
  Sb  Sb20  1  0.936248  0.990731  0.325935  1
  Sb  Sb21  1  0.436352  0.009136  0.173989  1
  Sb  Sb22  1  0.063705  0.490729  0.674080  1
  Sb  Sb23  1  0.563706  0.509175  0.825984  1
  Sb  Sb24  1  0.063597  0.009117  0.674094  1
  Sb  Sb25  1  0.563653  0.990800  0.825993  1
  Sb  Sb26  1  0.936211  0.509132  0.325903  1
  Sb  Sb27  1  0.436491  0.490780  0.173883  1
  Sb  Sb28  1  0.903092  0.250012  0.024152  1
  Sb  Sb29  1  0.403536  0.750938  0.476012  1
  Sb  Sb30  1  0.096834  0.750013  0.975825  1
  Sb  Sb31  1  0.597138  0.249714  0.524300  1
