# generated using pymatgen
data_Rb(CrTe2)2
_symmetry_space_group_name_H-M   'P 1'
_cell_length_a   6.72788100
_cell_length_b   7.75920400
_cell_length_c   18.13518900
_cell_angle_alpha   90.00000000
_cell_angle_beta   90.00000000
_cell_angle_gamma   90.00000000
_symmetry_Int_Tables_number   1
_chemical_formula_structural   Rb(CrTe2)2
_chemical_formula_sum   'Rb4 Cr8 Te16'
_cell_volume   946.71129253
_cell_formula_units_Z   4
loop_
 _symmetry_equiv_pos_site_id
 _symmetry_equiv_pos_as_xyz
  1  'x, y, z'
loop_
 _atom_site_type_symbol
 _atom_site_label
 _atom_site_symmetry_multiplicity
 _atom_site_fract_x
 _atom_site_fract_y
 _atom_site_fract_z
 _atom_site_occupancy
  Rb  Rb0  1  0.343895  0.000000  0.000000  1
  Rb  Rb1  1  0.656105  0.500000  0.500000  1
  Rb  Rb2  1  0.036120  0.000000  0.500000  1
  Rb  Rb3  1  0.963880  0.500000  0.000000  1
  Cr  Cr4  1  0.996419  0.000000  0.249044  1
  Cr  Cr5  1  0.996419  0.000000  0.750956  1
  Cr  Cr6  1  0.003581  0.500000  0.250956  1
  Cr  Cr7  1  0.003581  0.500000  0.749044  1
  Cr  Cr8  1  0.500000  0.250000  0.250000  1
  Cr  Cr9  1  0.500000  0.750000  0.750000  1
  Cr  Cr10  1  0.500000  0.750000  0.250000  1
  Cr  Cr11  1  0.500000  0.250000  0.750000  1
  Te  Te12  1  0.833900  0.249845  0.335854  1
  Te  Te13  1  0.833900  0.750155  0.664146  1
  Te  Te14  1  0.166100  0.749845  0.164146  1
  Te  Te15  1  0.166100  0.250155  0.835854  1
  Te  Te16  1  0.166100  0.250155  0.164146  1
  Te  Te17  1  0.166100  0.749845  0.835854  1
  Te  Te18  1  0.833900  0.750155  0.335854  1
  Te  Te19  1  0.833900  0.249845  0.664146  1
  Te  Te20  1  0.666117  0.000000  0.163208  1
  Te  Te21  1  0.666117  0.000000  0.836792  1
  Te  Te22  1  0.333883  0.500000  0.336792  1
  Te  Te23  1  0.333883  0.500000  0.663208  1
  Te  Te24  1  0.333560  0.000000  0.334397  1
  Te  Te25  1  0.333560  0.000000  0.665603  1
  Te  Te26  1  0.666440  0.500000  0.165603  1
  Te  Te27  1  0.666440  0.500000  0.834397  1
