# generated using pymatgen
data_Ho7Lu3In8PtRh3
_symmetry_space_group_name_H-M   'P 1'
_cell_length_a   3.59837200
_cell_length_b   8.02706866
_cell_length_c   18.17570406
_cell_angle_alpha   89.99597180
_cell_angle_beta   90.00000000
_cell_angle_gamma   90.00000000
_symmetry_Int_Tables_number   1
_chemical_formula_structural   Ho7Lu3In8PtRh3
_chemical_formula_sum   'Ho7 Lu3 In8 Pt1 Rh3'
_cell_volume   524.99392566
_cell_formula_units_Z   1
loop_
 _symmetry_equiv_pos_site_id
 _symmetry_equiv_pos_as_xyz
  1  'x, y, z'
loop_
 _atom_site_type_symbol
 _atom_site_label
 _atom_site_symmetry_multiplicity
 _atom_site_fract_x
 _atom_site_fract_y
 _atom_site_fract_z
 _atom_site_occupancy
  Ho  Ho0  1  0.000000  0.619408  0.085593  1
  Ho  Ho1  1  0.000000  0.240411  0.222363  1
  Ho  Ho2  1  0.000000  0.754005  0.778573  1
  Ho  Ho3  1  0.000000  0.253817  0.720460  1
  Ho  Ho4  1  0.000000  0.750967  0.280750  1
  Ho  Ho5  1  0.000000  0.999803  0.999010  1
  Ho  Ho6  1  0.000000  0.500507  0.500408  1
  Lu  Lu7  1  0.000000  0.116720  0.412457  1
  Lu  Lu8  1  0.000000  0.882684  0.589589  1
  Lu  Lu9  1  0.000000  0.382804  0.909490  1
  In  In10  1  0.500000  0.422594  0.352466  1
  In  In11  1  0.500000  0.573664  0.649795  1
  In  In12  1  0.500000  0.073669  0.849339  1
  In  In13  1  0.500000  0.930628  0.150125  1
  In  In14  1  0.500000  0.293278  0.064531  1
  In  In15  1  0.500000  0.703430  0.931914  1
  In  In16  1  0.500000  0.202414  0.565993  1
  In  In17  1  0.500000  0.798243  0.434913  1
  Pt  Pt18  1  0.500000  0.525549  0.196862  1
  Rh  Rh19  1  0.500000  0.025476  0.306357  1
  Rh  Rh20  1  0.500000  0.975711  0.694004  1
  Rh  Rh21  1  0.500000  0.474219  0.805006  1
