# generated using pymatgen
data_Dy9YSi16Ge
_symmetry_space_group_name_H-M   'P 1'
_cell_length_a   11.03841759
_cell_length_b   11.02548204
_cell_length_c   11.03830802
_cell_angle_alpha   144.76126466
_cell_angle_beta   135.78258480
_cell_angle_gamma   57.78358422
_symmetry_Int_Tables_number   1
_chemical_formula_structural   Dy9YSi16Ge
_chemical_formula_sum   'Dy9 Y1 Si16 Ge1'
_cell_volume   535.98176217
_cell_formula_units_Z   1
loop_
 _symmetry_equiv_pos_site_id
 _symmetry_equiv_pos_as_xyz
  1  'x, y, z'
loop_
 _atom_site_type_symbol
 _atom_site_label
 _atom_site_symmetry_multiplicity
 _atom_site_fract_x
 _atom_site_fract_y
 _atom_site_fract_z
 _atom_site_occupancy
  Dy  Dy0  1  0.448653  0.963822  0.013310  1
  Dy  Dy1  1  0.848333  0.367479  0.016113  1
  Dy  Dy2  1  0.950514  0.963828  0.515167  1
  Dy  Dy3  1  0.151575  0.166894  0.519370  1
  Dy  Dy4  1  0.351359  0.367460  0.519137  1
  Dy  Dy5  1  0.244183  0.759786  0.004366  1
  Dy  Dy6  1  0.548616  0.561865  0.509040  1
  Dy  Dy7  1  0.052825  0.561869  0.013244  1
  Dy  Dy8  1  0.647516  0.166888  0.015323  1
  Y  Y9  1  0.755430  0.759801  0.515626  1
  Si  Si10  1  0.199426  0.577611  0.378162  1
  Si  Si11  1  0.000216  0.081622  0.081493  1
  Si  Si12  1  0.698974  0.290030  0.591064  1
  Si  Si13  1  0.800721  0.180306  0.379567  1
  Si  Si14  1  0.895732  0.504843  0.609173  1
  Si  Si15  1  0.417649  0.872535  0.454805  1
  Si  Si16  1  0.104396  0.713198  0.608862  1
  Si  Si17  1  0.300770  0.896427  0.595667  1
  Si  Si18  1  0.581419  0.037877  0.456377  1
  Si  Si19  1  0.999891  0.430813  0.430985  1
  Si  Si20  1  0.880550  0.843109  0.962575  1
  Si  Si21  1  0.399784  0.500444  0.100597  1
  Si  Si22  1  0.120353  0.084806  0.964471  1
  Si  Si23  1  0.285579  0.241024  0.955457  1
  Si  Si24  1  0.499591  0.387670  0.888058  1
  Si  Si25  1  0.598636  0.701611  0.102908  1
  Ge  Ge26  1  0.717311  0.677881  0.960583  1
