# generated using pymatgen
data_NdHo2Co9(SiB2)2
_symmetry_space_group_name_H-M   'P 1'
_cell_length_a   5.14808805
_cell_length_b   5.14961537
_cell_length_c   9.33467500
_cell_angle_alpha   90.00001512
_cell_angle_beta   90.00005335
_cell_angle_gamma   120.00821861
_symmetry_Int_Tables_number   1
_chemical_formula_structural   NdHo2Co9(SiB2)2
_chemical_formula_sum   'Nd1 Ho2 Co9 Si2 B4'
_cell_volume   214.29627379
_cell_formula_units_Z   1
loop_
 _symmetry_equiv_pos_site_id
 _symmetry_equiv_pos_as_xyz
  1  'x, y, z'
loop_
 _atom_site_type_symbol
 _atom_site_label
 _atom_site_symmetry_multiplicity
 _atom_site_fract_x
 _atom_site_fract_y
 _atom_site_fract_z
 _atom_site_occupancy
  Nd  Nd0  1  0.999991  0.999997  0.000000  1
  Ho  Ho1  1  0.999992  0.999998  0.339417  1
  Ho  Ho2  1  0.999998  0.000003  0.660542  1
  Co  Co3  1  0.499996  0.000002  0.499974  1
  Co  Co4  1  0.499996  0.500001  0.499981  1
  Co  Co5  1  0.999996  0.500002  0.499972  1
  Co  Co6  1  0.499992  0.999999  0.198768  1
  Co  Co7  1  0.499992  0.499998  0.198773  1
  Co  Co8  1  0.999993  0.499998  0.198768  1
  Co  Co9  1  0.499997  0.000000  0.801247  1
  Co  Co10  1  0.499996  0.500001  0.801257  1
  Co  Co11  1  0.999997  0.500002  0.801249  1
  Si  Si12  1  0.333208  0.666589  0.000040  1
  Si  Si13  1  0.666777  0.333408  0.000040  1
  B  B14  1  0.333336  0.666687  0.346771  1
  B  B15  1  0.666653  0.333313  0.346771  1
  B  B16  1  0.666658  0.333344  0.653214  1
  B  B17  1  0.333335  0.666658  0.653214  1
