# generated using pymatgen
data_Hf2Pa6Bi7Sb3
_symmetry_space_group_name_H-M   'P 1'
_cell_length_a   9.48528400
_cell_length_b   9.48596355
_cell_length_c   6.29382600
_cell_angle_alpha   90.00000000
_cell_angle_beta   90.00000000
_cell_angle_gamma   119.99763724
_symmetry_Int_Tables_number   1
_chemical_formula_structural   Hf2Pa6Bi7Sb3
_chemical_formula_sum   'Hf2 Pa6 Bi7 Sb3'
_cell_volume   490.44181811
_cell_formula_units_Z   1
loop_
 _symmetry_equiv_pos_site_id
 _symmetry_equiv_pos_as_xyz
  1  'x, y, z'
loop_
 _atom_site_type_symbol
 _atom_site_label
 _atom_site_symmetry_multiplicity
 _atom_site_fract_x
 _atom_site_fract_y
 _atom_site_fract_z
 _atom_site_occupancy
  Hf  Hf0  1  0.009011  0.000000  0.501911  1
  Hf  Hf1  1  0.009011  0.000000  0.998089  1
  Pa  Pa2  1  0.374260  0.000000  0.750000  1
  Pa  Pa3  1  0.380738  0.377227  0.250000  1
  Pa  Pa4  1  0.003510  0.622773  0.250000  1
  Pa  Pa5  1  0.003420  0.389233  0.750000  1
  Pa  Pa6  1  0.614187  0.610767  0.750000  1
  Pa  Pa7  1  0.609056  0.000000  0.250000  1
  Bi  Bi8  1  0.333932  0.666865  0.500117  1
  Bi  Bi9  1  0.667068  0.333135  0.999883  1
  Bi  Bi10  1  0.667068  0.333135  0.500117  1
  Bi  Bi11  1  0.333932  0.666865  0.999883  1
  Bi  Bi12  1  0.730618  0.000000  0.750000  1
  Bi  Bi13  1  0.728426  0.730838  0.250000  1
  Bi  Bi14  1  0.997588  0.269162  0.250000  1
  Sb  Sb15  1  0.997374  0.728143  0.750000  1
  Sb  Sb16  1  0.271567  0.000000  0.250000  1
  Sb  Sb17  1  0.269232  0.271857  0.750000  1
