# generated using pymatgen
data_Rb6Cu(SiO4)2
_symmetry_space_group_name_H-M   'P 1'
_cell_length_a   6.66681185
_cell_length_b   6.92131839
_cell_length_c   7.85407176
_cell_angle_alpha   86.02378162
_cell_angle_beta   89.14666575
_cell_angle_gamma   69.74393627
_symmetry_Int_Tables_number   1
_chemical_formula_structural   Rb6Cu(SiO4)2
_chemical_formula_sum   'Rb6 Cu1 Si2 O8'
_cell_volume   339.16350265
_cell_formula_units_Z   1
loop_
 _symmetry_equiv_pos_site_id
 _symmetry_equiv_pos_as_xyz
  1  'x, y, z'
loop_
 _atom_site_type_symbol
 _atom_site_label
 _atom_site_symmetry_multiplicity
 _atom_site_fract_x
 _atom_site_fract_y
 _atom_site_fract_z
 _atom_site_occupancy
  Rb  Rb0  1  0.200306  0.699872  0.011266  1
  Rb  Rb1  1  0.715882  0.197473  0.472462  1
  Rb  Rb2  1  0.799694  0.300128  0.988734  1
  Rb  Rb3  1  0.660963  0.830096  0.162336  1
  Rb  Rb4  1  0.339037  0.169904  0.837664  1
  Rb  Rb5  1  0.284118  0.802527  0.527538  1
  Cu  Cu6  1  0.000000  0.500000  0.500000  1
  Si  Si7  1  0.772176  0.746362  0.728905  1
  Si  Si8  1  0.227824  0.253638  0.271095  1
  O  O9  1  0.005746  0.466327  0.250511  1
  O  O10  1  0.749439  0.761265  0.513863  1
  O  O11  1  0.994254  0.533673  0.749489  1
  O  O12  1  0.435730  0.289998  0.178557  1
  O  O13  1  0.813209  0.948545  0.798013  1
  O  O14  1  0.250561  0.238735  0.486137  1
  O  O15  1  0.564270  0.710002  0.821443  1
  O  O16  1  0.186791  0.051455  0.201987  1
