# generated using pymatgen
data_ZrVCl6
_symmetry_space_group_name_H-M   'P 1'
_cell_length_a   7.80760216
_cell_length_b   7.80760221
_cell_length_c   7.80760174
_cell_angle_alpha   47.53874658
_cell_angle_beta   47.53874921
_cell_angle_gamma   47.53875486
_symmetry_Int_Tables_number   1
_chemical_formula_structural   ZrVCl6
_chemical_formula_sum   'Zr1 V1 Cl6'
_cell_volume   237.06367520
_cell_formula_units_Z   1
loop_
 _symmetry_equiv_pos_site_id
 _symmetry_equiv_pos_as_xyz
  1  'x, y, z'
loop_
 _atom_site_type_symbol
 _atom_site_label
 _atom_site_symmetry_multiplicity
 _atom_site_fract_x
 _atom_site_fract_y
 _atom_site_fract_z
 _atom_site_occupancy
  Zr  Zr0  1  0.333334  0.333334  0.333334  1
  V  V1  1  0.666675  0.666675  0.666675  1
  Cl  Cl2  1  0.715667  0.064968  0.428151  1
  Cl  Cl3  1  0.064968  0.428151  0.715667  1
  Cl  Cl4  1  0.576512  0.288920  0.925773  1
  Cl  Cl5  1  0.925773  0.576512  0.288920  1
  Cl  Cl6  1  0.288920  0.925773  0.576512  1
  Cl  Cl7  1  0.428151  0.715667  0.064968  1
