# generated using pymatgen
data_Ba4B4Pd11Pt5
_symmetry_space_group_name_H-M   'P 1'
_cell_length_a   6.18264103
_cell_length_b   5.71824561
_cell_length_c   12.18400769
_cell_angle_alpha   90.10989754
_cell_angle_beta   90.00278825
_cell_angle_gamma   89.99004544
_symmetry_Int_Tables_number   1
_chemical_formula_structural   Ba4B4Pd11Pt5
_chemical_formula_sum   'Ba4 B4 Pd11 Pt5'
_cell_volume   430.75090171
_cell_formula_units_Z   1
loop_
 _symmetry_equiv_pos_site_id
 _symmetry_equiv_pos_as_xyz
  1  'x, y, z'
loop_
 _atom_site_type_symbol
 _atom_site_label
 _atom_site_symmetry_multiplicity
 _atom_site_fract_x
 _atom_site_fract_y
 _atom_site_fract_z
 _atom_site_occupancy
  Ba  Ba0  1  0.182805  0.249996  0.335192  1
  Ba  Ba1  1  0.683198  0.250607  0.164997  1
  Ba  Ba2  1  0.816342  0.749269  0.665155  1
  Ba  Ba3  1  0.316475  0.750082  0.835022  1
  B  B4  1  0.093880  0.248620  0.950832  1
  B  B5  1  0.593856  0.245740  0.547251  1
  B  B6  1  0.906272  0.748636  0.049048  1
  B  B7  1  0.408531  0.755356  0.450903  1
  Pd  Pd8  1  0.108898  0.248680  0.767060  1
  Pd  Pd9  1  0.608892  0.251573  0.732770  1
  Pd  Pd10  1  0.891114  0.752484  0.233285  1
  Pd  Pd11  1  0.390344  0.751955  0.266071  1
  Pd  Pd12  1  0.435789  0.252338  0.940429  1
  Pd  Pd13  1  0.936681  0.248351  0.559607  1
  Pd  Pd14  1  0.564230  0.751391  0.059054  1
  Pd  Pd15  1  0.065603  0.749677  0.440729  1
  Pd  Pd16  1  0.169966  0.504188  0.085252  1
  Pd  Pd17  1  0.331101  0.497192  0.584155  1
  Pd  Pd18  1  0.829189  0.003734  0.915130  1
  Pt  Pt19  1  0.332633  0.010836  0.581636  1
  Pt  Pt20  1  0.837329  0.490064  0.920973  1
  Pt  Pt21  1  0.664103  0.506363  0.419959  1
  Pt  Pt22  1  0.162911  0.990568  0.078566  1
  Pt  Pt23  1  0.669860  0.992301  0.416923  1
