# generated using pymatgen
data_K2Ge(AuS2)2
_symmetry_space_group_name_H-M   'P 1'
_cell_length_a   13.41103631
_cell_length_b   11.93091282
_cell_length_c   7.53267144
_cell_angle_alpha   83.85778744
_cell_angle_beta   62.19334950
_cell_angle_gamma   33.94885415
_symmetry_Int_Tables_number   1
_chemical_formula_structural   K2Ge(AuS2)2
_chemical_formula_sum   'K4 Ge2 Au4 S8'
_cell_volume   490.49934844
_cell_formula_units_Z   2
loop_
 _symmetry_equiv_pos_site_id
 _symmetry_equiv_pos_as_xyz
  1  'x, y, z'
loop_
 _atom_site_type_symbol
 _atom_site_label
 _atom_site_symmetry_multiplicity
 _atom_site_fract_x
 _atom_site_fract_y
 _atom_site_fract_z
 _atom_site_occupancy
  K  K0  1  0.317703  0.317703  0.682297  1
  K  K1  1  0.682297  0.682297  0.317703  1
  K  K2  1  0.567703  0.567703  0.932297  1
  K  K3  1  0.932297  0.932297  0.567703  1
  Ge  Ge4  1  0.500000  0.500000  0.500000  1
  Ge  Ge5  1  0.750000  0.750000  0.750000  1
  Au  Au6  1  0.183254  0.183254  0.316746  1
  Au  Au7  1  0.933254  0.933254  0.066746  1
  Au  Au8  1  0.066746  0.066746  0.933254  1
  Au  Au9  1  0.316746  0.316746  0.183254  1
  S  S10  1  0.903982  0.713259  0.397302  1
  S  S11  1  0.985458  0.397302  0.713259  1
  S  S12  1  0.536741  0.346018  0.264542  1
  S  S13  1  0.397302  0.985458  0.903982  1
  S  S14  1  0.264542  0.852698  0.536741  1
  S  S15  1  0.713259  0.903982  0.985458  1
  S  S16  1  0.852698  0.264542  0.346018  1
  S  S17  1  0.346018  0.536741  0.852698  1
