# generated using pymatgen
data_YHo11(IrPd)2
_symmetry_space_group_name_H-M   'P 1'
_cell_length_a   6.43281718
_cell_length_b   7.11923257
_cell_length_c   9.39620200
_cell_angle_alpha   90.00000000
_cell_angle_beta   90.00000000
_cell_angle_gamma   89.90430951
_symmetry_Int_Tables_number   1
_chemical_formula_structural   YHo11(IrPd)2
_chemical_formula_sum   'Y1 Ho11 Ir2 Pd2'
_cell_volume   430.31464688
_cell_formula_units_Z   1
loop_
 _symmetry_equiv_pos_site_id
 _symmetry_equiv_pos_as_xyz
  1  'x, y, z'
loop_
 _atom_site_type_symbol
 _atom_site_label
 _atom_site_symmetry_multiplicity
 _atom_site_fract_x
 _atom_site_fract_y
 _atom_site_fract_z
 _atom_site_occupancy
  Y  Y0  1  0.865532  0.521439  0.250000  1
  Ho  Ho1  1  0.626651  0.037338  0.250000  1
  Ho  Ho2  1  0.372868  0.962660  0.750000  1
  Ho  Ho3  1  0.135832  0.477422  0.750000  1
  Ho  Ho4  1  0.177903  0.183979  0.061595  1
  Ho  Ho5  1  0.822372  0.815876  0.937822  1
  Ho  Ho6  1  0.669753  0.321755  0.939624  1
  Ho  Ho7  1  0.822372  0.815876  0.562178  1
  Ho  Ho8  1  0.330307  0.678281  0.059986  1
  Ho  Ho9  1  0.177903  0.183979  0.438405  1
  Ho  Ho10  1  0.330307  0.678281  0.440014  1
  Ho  Ho11  1  0.669753  0.321755  0.560376  1
  Ir  Ir12  1  0.445912  0.386014  0.250000  1
  Ir  Ir13  1  0.551420  0.613420  0.750000  1
  Pd  Pd14  1  0.949917  0.112599  0.750000  1
  Pd  Pd15  1  0.051200  0.889325  0.250000  1
