# generated using pymatgen
data_Ho2Nb4C5
_symmetry_space_group_name_H-M   'P 1'
_cell_length_a   5.69555204
_cell_length_b   5.69555119
_cell_length_c   5.59422000
_cell_angle_alpha   81.79803225
_cell_angle_beta   81.79802331
_cell_angle_gamma   121.27515210
_symmetry_Int_Tables_number   1
_chemical_formula_structural   Ho2Nb4C5
_chemical_formula_sum   'Ho2 Nb4 C5'
_cell_volume   148.39170879
_cell_formula_units_Z   1
loop_
 _symmetry_equiv_pos_site_id
 _symmetry_equiv_pos_as_xyz
  1  'x, y, z'
loop_
 _atom_site_type_symbol
 _atom_site_label
 _atom_site_symmetry_multiplicity
 _atom_site_fract_x
 _atom_site_fract_y
 _atom_site_fract_z
 _atom_site_occupancy
  Ho  Ho0  1  0.761123  0.761123  0.758140  1
  Ho  Ho1  1  0.238877  0.238877  0.241860  1
  Nb  Nb2  1  0.100876  0.452454  0.740820  1
  Nb  Nb3  1  0.547546  0.899124  0.259180  1
  Nb  Nb4  1  0.899124  0.547546  0.259180  1
  Nb  Nb5  1  0.452454  0.100876  0.740820  1
  C  C6  1  0.500000  0.500000  0.500000  1
  C  C7  1  0.679597  0.320403  0.000000  1
  C  C8  1  0.320403  0.679597  0.000000  1
  C  C9  1  0.820916  0.179084  0.500000  1
  C  C10  1  0.179084  0.820916  0.500000  1
