# generated using pymatgen
data_Hf7Zr6Sn3(Ir2N)4
_symmetry_space_group_name_H-M   'P 1'
_cell_length_a   8.70806704
_cell_length_b   8.75623744
_cell_length_c   8.70806600
_cell_angle_alpha   60.18181057
_cell_angle_beta   59.99999636
_cell_angle_gamma   60.18180742
_symmetry_Int_Tables_number   1
_chemical_formula_structural   Hf7Zr6Sn3(Ir2N)4
_chemical_formula_sum   'Hf7 Zr6 Sn3 Ir8 N4'
_cell_volume   470.79734480
_cell_formula_units_Z   1
loop_
 _symmetry_equiv_pos_site_id
 _symmetry_equiv_pos_as_xyz
  1  'x, y, z'
loop_
 _atom_site_type_symbol
 _atom_site_label
 _atom_site_symmetry_multiplicity
 _atom_site_fract_x
 _atom_site_fract_y
 _atom_site_fract_z
 _atom_site_occupancy
  Hf  Hf0  1  0.624946  0.125161  0.624946  1
  Hf  Hf1  1  0.813746  0.818638  0.183807  1
  Hf  Hf2  1  0.183829  0.187537  0.814317  1
  Hf  Hf3  1  0.814317  0.187537  0.814317  1
  Hf  Hf4  1  0.183807  0.818638  0.183807  1
  Hf  Hf5  1  0.183807  0.818638  0.813746  1
  Hf  Hf6  1  0.814317  0.187537  0.183829  1
  Zr  Zr7  1  0.438816  0.434478  0.063354  1
  Zr  Zr8  1  0.064328  0.059836  0.437919  1
  Zr  Zr9  1  0.437919  0.059836  0.437919  1
  Zr  Zr10  1  0.063354  0.434478  0.063354  1
  Zr  Zr11  1  0.063354  0.434478  0.438816  1
  Zr  Zr12  1  0.437919  0.059836  0.064328  1
  Sn  Sn13  1  0.123770  0.625129  0.625551  1
  Sn  Sn14  1  0.625551  0.625129  0.123770  1
  Sn  Sn15  1  0.625551  0.625129  0.625551  1
  Ir  Ir16  1  0.771291  0.400646  0.414032  1
  Ir  Ir17  1  0.408796  0.773612  0.408796  1
  Ir  Ir18  1  0.414032  0.400646  0.771291  1
  Ir  Ir19  1  0.414032  0.400646  0.414032  1
  Ir  Ir20  1  0.474422  0.850376  0.837601  1
  Ir  Ir21  1  0.842951  0.471148  0.842951  1
  Ir  Ir22  1  0.837601  0.850376  0.474422  1
  Ir  Ir23  1  0.837601  0.850376  0.837601  1
  N  N24  1  0.631247  0.122863  0.122945  1
  N  N25  1  0.122809  0.631573  0.122809  1
  N  N26  1  0.122945  0.122863  0.631247  1
  N  N27  1  0.122945  0.122863  0.122945  1
