# generated using pymatgen
data_Tb19ErSi15P
_symmetry_space_group_name_H-M   'P 1'
_cell_length_a   7.45456895
_cell_length_b   7.61780247
_cell_length_c   14.54069400
_cell_angle_alpha   89.89593523
_cell_angle_beta   86.16653289
_cell_angle_gamma   90.04298484
_symmetry_Int_Tables_number   1
_chemical_formula_structural   Tb19ErSi15P
_chemical_formula_sum   'Tb19 Er1 Si15 P1'
_cell_volume   823.87952806
_cell_formula_units_Z   1
loop_
 _symmetry_equiv_pos_site_id
 _symmetry_equiv_pos_as_xyz
  1  'x, y, z'
loop_
 _atom_site_type_symbol
 _atom_site_label
 _atom_site_symmetry_multiplicity
 _atom_site_fract_x
 _atom_site_fract_y
 _atom_site_fract_z
 _atom_site_occupancy
  Tb  Tb0  1  0.167300  0.505543  0.245056  1
  Tb  Tb1  1  0.831873  0.494223  0.753789  1
  Tb  Tb2  1  0.331354  0.005598  0.754656  1
  Tb  Tb3  1  0.003304  0.821976  0.100739  1
  Tb  Tb4  1  0.473487  0.684300  0.399172  1
  Tb  Tb5  1  0.498881  0.319692  0.901753  1
  Tb  Tb6  1  0.026954  0.184850  0.601409  1
  Tb  Tb7  1  0.999269  0.182393  0.901226  1
  Tb  Tb8  1  0.526417  0.314709  0.600671  1
  Tb  Tb9  1  0.503287  0.682484  0.099059  1
  Tb  Tb10  1  0.972600  0.814357  0.398613  1
  Tb  Tb11  1  0.643996  0.831946  0.881629  1
  Tb  Tb12  1  0.175901  0.677535  0.622322  1
  Tb  Tb13  1  0.854881  0.340571  0.114615  1
  Tb  Tb14  1  0.325382  0.178347  0.377469  1
  Tb  Tb15  1  0.356224  0.164140  0.120143  1
  Tb  Tb16  1  0.824122  0.322412  0.377852  1
  Tb  Tb17  1  0.139431  0.663983  0.883556  1
  Tb  Tb18  1  0.674896  0.821362  0.622298  1
  Er  Er19  1  0.669571  0.994731  0.245633  1
  Si  Si20  1  0.781330  0.629465  0.251094  1
  Si  Si21  1  0.283170  0.872020  0.251770  1
  Si  Si22  1  0.717636  0.127600  0.749018  1
  Si  Si23  1  0.218000  0.372600  0.749080  1
  Si  Si24  1  0.041494  0.106667  0.251543  1
  Si  Si25  1  0.544410  0.394083  0.250630  1
  Si  Si26  1  0.455170  0.605424  0.749899  1
  Si  Si27  1  0.956159  0.893923  0.748867  1
  Si  Si28  1  0.355990  0.971204  0.541461  1
  Si  Si29  1  0.704717  0.035002  0.042755  1
  Si  Si30  1  0.144812  0.470905  0.458462  1
  Si  Si31  1  0.211119  0.464759  0.042814  1
  Si  Si32  1  0.644403  0.027249  0.457242  1
  Si  Si33  1  0.296918  0.964103  0.957824  1
  Si  Si34  1  0.856017  0.527742  0.542022  1
  P  P35  1  0.789528  0.532100  0.953862  1
