# generated using pymatgen
data_Na3Ca(U2S5)4
_symmetry_space_group_name_H-M   'P 1'
_cell_length_a   7.33428505
_cell_length_b   8.03471797
_cell_length_c   11.57839200
_cell_angle_alpha   89.64012330
_cell_angle_beta   89.90514608
_cell_angle_gamma   89.95442890
_symmetry_Int_Tables_number   1
_chemical_formula_structural   Na3Ca(U2S5)4
_chemical_formula_sum   'Na3 Ca1 U8 S20'
_cell_volume   682.28743760
_cell_formula_units_Z   1
loop_
 _symmetry_equiv_pos_site_id
 _symmetry_equiv_pos_as_xyz
  1  'x, y, z'
loop_
 _atom_site_type_symbol
 _atom_site_label
 _atom_site_symmetry_multiplicity
 _atom_site_fract_x
 _atom_site_fract_y
 _atom_site_fract_z
 _atom_site_occupancy
  Na  Na0  1  0.530087  0.996792  0.172679  1
  Na  Na1  1  0.970580  0.997045  0.677388  1
  Na  Na2  1  0.471102  0.003652  0.824940  1
  Ca  Ca3  1  0.028393  0.002603  0.325303  1
  U  U4  1  0.021526  0.499626  0.320573  1
  U  U5  1  0.519050  0.500650  0.179955  1
  U  U6  1  0.978261  0.500194  0.679085  1
  U  U7  1  0.477976  0.499749  0.819833  1
  U  U8  1  0.076477  0.752663  0.005865  1
  U  U9  1  0.576488  0.247293  0.491905  1
  U  U10  1  0.923146  0.248439  0.991164  1
  U  U11  1  0.424606  0.750133  0.510593  1
  S  S12  1  0.161768  0.453673  0.097332  1
  S  S13  1  0.661835  0.546733  0.402468  1
  S  S14  1  0.837364  0.547959  0.903118  1
  S  S15  1  0.336577  0.451148  0.596681  1
  S  S16  1  0.454700  0.718366  0.001507  1
  S  S17  1  0.957180  0.277730  0.497030  1
  S  S18  1  0.545312  0.282572  0.998827  1
  S  S19  1  0.043041  0.721509  0.499597  1
  S  S20  1  0.328918  0.277681  0.316568  1
  S  S21  1  0.837310  0.724734  0.185704  1
  S  S22  1  0.668841  0.717808  0.683392  1
  S  S23  1  0.167689  0.281910  0.817028  1
  S  S24  1  0.669534  0.955713  0.413830  1
  S  S25  1  0.161961  0.042229  0.091781  1
  S  S26  1  0.331373  0.043411  0.582848  1
  S  S27  1  0.836058  0.957100  0.912761  1
  S  S28  1  0.303083  0.735092  0.284681  1
  S  S29  1  0.803933  0.265933  0.218649  1
  S  S30  1  0.697212  0.269590  0.716600  1
  S  S31  1  0.198620  0.730271  0.780314  1
