# generated using pymatgen
data_LiAg3S2
_symmetry_space_group_name_H-M   'P 1'
_cell_length_a   7.58927102
_cell_length_b   7.58927168
_cell_length_c   7.58927151
_cell_angle_alpha   129.47543970
_cell_angle_beta   125.24416542
_cell_angle_gamma   77.71295345
_symmetry_Int_Tables_number   1
_chemical_formula_structural   LiAg3S2
_chemical_formula_sum   'Li2 Ag6 S4'
_cell_volume   267.20908169
_cell_formula_units_Z   2
loop_
 _symmetry_equiv_pos_site_id
 _symmetry_equiv_pos_as_xyz
  1  'x, y, z'
loop_
 _atom_site_type_symbol
 _atom_site_label
 _atom_site_symmetry_multiplicity
 _atom_site_fract_x
 _atom_site_fract_y
 _atom_site_fract_z
 _atom_site_occupancy
  Li  Li0  1  0.500000  0.750000  0.250000  1
  Li  Li1  1  0.500000  0.250000  0.750000  1
  Ag  Ag2  1  0.500000  0.000000  0.000000  1
  Ag  Ag3  1  0.000000  0.500000  0.000000  1
  Ag  Ag4  1  0.500000  0.500000  0.500000  1
  Ag  Ag5  1  0.000000  0.500000  0.500000  1
  Ag  Ag6  1  0.000000  0.000000  0.000000  1
  Ag  Ag7  1  0.000000  0.000000  0.500000  1
  S  S8  1  0.807719  0.603317  0.204401  1
  S  S9  1  0.398916  0.103317  0.295599  1
  S  S10  1  0.601084  0.896683  0.704401  1
  S  S11  1  0.192281  0.396683  0.795599  1
