# generated using pymatgen
data_RbIn9CoIr
_symmetry_space_group_name_H-M   'P 1'
_cell_length_a   8.97498300
_cell_length_b   8.97498301
_cell_length_c   4.30490200
_cell_angle_alpha   90.00000000
_cell_angle_beta   90.00000000
_cell_angle_gamma   120.00000365
_symmetry_Int_Tables_number   1
_chemical_formula_structural   RbIn9CoIr
_chemical_formula_sum   'Rb1 In9 Co1 Ir1'
_cell_volume   300.30402616
_cell_formula_units_Z   1
loop_
 _symmetry_equiv_pos_site_id
 _symmetry_equiv_pos_as_xyz
  1  'x, y, z'
loop_
 _atom_site_type_symbol
 _atom_site_label
 _atom_site_symmetry_multiplicity
 _atom_site_fract_x
 _atom_site_fract_y
 _atom_site_fract_z
 _atom_site_occupancy
  Rb  Rb0  1  0.000000  0.000000  0.000000  1
  In  In1  1  0.792805  0.585608  0.500000  1
  In  In2  1  0.495170  0.504830  0.000000  1
  In  In3  1  0.495170  0.990339  0.000000  1
  In  In4  1  0.414392  0.207195  0.500000  1
  In  In5  1  0.208677  0.417355  0.500000  1
  In  In6  1  0.208677  0.791323  0.500000  1
  In  In7  1  0.582645  0.791323  0.500000  1
  In  In8  1  0.009661  0.504830  0.000000  1
  In  In9  1  0.792805  0.207195  0.500000  1
  Co  Co10  1  0.333333  0.666667  0.000000  1
  Ir  Ir11  1  0.666667  0.333333  0.000000  1
