# generated using pymatgen
data_Tb3Tm7(In2Sb)2
_symmetry_space_group_name_H-M   'P 1'
_cell_length_a   8.92065100
_cell_length_b   8.93279794
_cell_length_c   6.51100700
_cell_angle_alpha   90.00000000
_cell_angle_beta   90.00000000
_cell_angle_gamma   119.95503161
_symmetry_Int_Tables_number   1
_chemical_formula_structural   Tb3Tm7(In2Sb)2
_chemical_formula_sum   'Tb3 Tm7 In4 Sb2'
_cell_volume   449.53081487
_cell_formula_units_Z   1
loop_
 _symmetry_equiv_pos_site_id
 _symmetry_equiv_pos_as_xyz
  1  'x, y, z'
loop_
 _atom_site_type_symbol
 _atom_site_label
 _atom_site_symmetry_multiplicity
 _atom_site_fract_x
 _atom_site_fract_y
 _atom_site_fract_z
 _atom_site_occupancy
  Tb  Tb0  1  0.760172  0.000000  0.750000  1
  Tb  Tb1  1  0.240409  0.236480  0.750000  1
  Tb  Tb2  1  0.003929  0.763520  0.750000  1
  Tm  Tm3  1  0.331297  0.664944  0.003841  1
  Tm  Tm4  1  0.666354  0.335056  0.496159  1
  Tm  Tm5  1  0.666354  0.335056  0.003841  1
  Tm  Tm6  1  0.331297  0.664944  0.496159  1
  Tm  Tm7  1  0.237426  0.000000  0.250000  1
  Tm  Tm8  1  0.999331  0.238877  0.250000  1
  Tm  Tm9  1  0.760454  0.761123  0.250000  1
  In  In10  1  0.602603  0.000000  0.250000  1
  In  In11  1  0.402601  0.000000  0.750000  1
  In  In12  1  0.999372  0.605452  0.250000  1
  In  In13  1  0.393920  0.394548  0.250000  1
  Sb  Sb14  1  0.604461  0.604440  0.750000  1
  Sb  Sb15  1  0.000021  0.395560  0.750000  1
