# generated using pymatgen
data_Sm3Lu4Th(TcB6)4
_symmetry_space_group_name_H-M   'P 1'
_cell_length_a   3.69463600
_cell_length_b   9.16492923
_cell_length_c   11.60108600
_cell_angle_alpha   89.96006456
_cell_angle_beta   90.00000000
_cell_angle_gamma   90.00000000
_symmetry_Int_Tables_number   1
_chemical_formula_structural   Sm3Lu4Th(TcB6)4
_chemical_formula_sum   'Sm3 Lu4 Th1 Tc4 B24'
_cell_volume   392.82517621
_cell_formula_units_Z   1
loop_
 _symmetry_equiv_pos_site_id
 _symmetry_equiv_pos_as_xyz
  1  'x, y, z'
loop_
 _atom_site_type_symbol
 _atom_site_label
 _atom_site_symmetry_multiplicity
 _atom_site_fract_x
 _atom_site_fract_y
 _atom_site_fract_z
 _atom_site_occupancy
  Sm  Sm0  1  0.000000  0.323455  0.414607  1
  Sm  Sm1  1  0.000000  0.677015  0.584882  1
  Sm  Sm2  1  0.000000  0.821961  0.086393  1
  Lu  Lu3  1  0.000000  0.942998  0.369367  1
  Lu  Lu4  1  0.000000  0.056377  0.629368  1
  Lu  Lu5  1  0.000000  0.444166  0.131693  1
  Lu  Lu6  1  0.000000  0.557535  0.868931  1
  Th  Th7  1  0.000000  0.177429  0.914676  1
  Tc  Tc8  1  0.000000  0.639852  0.318923  1
  Tc  Tc9  1  0.000000  0.359569  0.681190  1
  Tc  Tc10  1  0.000000  0.139613  0.181385  1
  Tc  Tc11  1  0.000000  0.860521  0.818786  1
  B  B12  1  0.500000  0.554916  0.431154  1
  B  B13  1  0.500000  0.445024  0.568621  1
  B  B14  1  0.500000  0.055160  0.070336  1
  B  B15  1  0.500000  0.943683  0.930501  1
  B  B16  1  0.500000  0.751398  0.416545  1
  B  B17  1  0.500000  0.248847  0.582706  1
  B  B18  1  0.500000  0.251402  0.085072  1
  B  B19  1  0.500000  0.748166  0.916341  1
  B  B20  1  0.500000  0.792637  0.265408  1
  B  B21  1  0.500000  0.208059  0.733606  1
  B  B22  1  0.500000  0.292536  0.235419  1
  B  B23  1  0.500000  0.707412  0.765075  1
  B  B24  1  0.500000  0.629774  0.185310  1
  B  B25  1  0.500000  0.370889  0.814114  1
  B  B26  1  0.500000  0.129397  0.315470  1
  B  B27  1  0.500000  0.869826  0.684264  1
  B  B28  1  0.500000  0.983083  0.214271  1
  B  B29  1  0.500000  0.015153  0.785683  1
  B  B30  1  0.500000  0.483576  0.286999  1
  B  B31  1  0.500000  0.516681  0.712813  1
  B  B32  1  0.500000  0.597640  0.026891  1
  B  B33  1  0.500000  0.404465  0.973881  1
  B  B34  1  0.500000  0.096776  0.473153  1
  B  B35  1  0.500000  0.903006  0.526168  1
