# generated using pymatgen
data_Er16In4Ir2OsRh
_symmetry_space_group_name_H-M   'P 1'
_cell_length_a   9.58758202
_cell_length_b   9.60060549
_cell_length_c   9.58775581
_cell_angle_alpha   60.01141416
_cell_angle_beta   59.95658533
_cell_angle_gamma   60.01026245
_symmetry_Int_Tables_number   1
_chemical_formula_structural   Er16In4Ir2OsRh
_chemical_formula_sum   'Er16 In4 Ir2 Os1 Rh1'
_cell_volume   623.93315814
_cell_formula_units_Z   1
loop_
 _symmetry_equiv_pos_site_id
 _symmetry_equiv_pos_as_xyz
  1  'x, y, z'
loop_
 _atom_site_type_symbol
 _atom_site_label
 _atom_site_symmetry_multiplicity
 _atom_site_fract_x
 _atom_site_fract_y
 _atom_site_fract_z
 _atom_site_occupancy
  Er  Er0  1  0.191008  0.193231  0.809383  1
  Er  Er1  1  0.438402  0.059539  0.060506  1
  Er  Er2  1  0.440001  0.059023  0.440003  1
  Er  Er3  1  0.057661  0.437425  0.057672  1
  Er  Er4  1  0.649115  0.048109  0.649120  1
  Er  Er5  1  0.193238  0.808186  0.808611  1
  Er  Er6  1  0.060507  0.059536  0.438412  1
  Er  Er7  1  0.809388  0.193224  0.191008  1
  Er  Er8  1  0.808606  0.808187  0.193239  1
  Er  Er9  1  0.648846  0.649317  0.047660  1
  Er  Er10  1  0.652069  0.651632  0.652067  1
  Er  Er11  1  0.058110  0.438376  0.445065  1
  Er  Er12  1  0.047655  0.649318  0.648853  1
  Er  Er13  1  0.808589  0.194086  0.808591  1
  Er  Er14  1  0.445073  0.438382  0.058109  1
  Er  Er15  1  0.192606  0.808761  0.192615  1
  In  In16  1  0.416980  0.748938  0.416905  1
  In  In17  1  0.415992  0.416985  0.750769  1
  In  In18  1  0.750744  0.416984  0.415964  1
  In  In19  1  0.416333  0.416813  0.416336  1
  Ir  Ir20  1  0.859162  0.860131  0.421646  1
  Ir  Ir21  1  0.421640  0.860124  0.859175  1
  Os  Os22  1  0.858941  0.422800  0.858952  1
  Rh  Rh23  1  0.859333  0.860894  0.859336  1
