# generated using pymatgen
data_Sr2Ga5Ir2Pd
_symmetry_space_group_name_H-M   'P 1'
_cell_length_a   8.73571874
_cell_length_b   8.73577700
_cell_length_c   8.73574900
_cell_angle_alpha   140.50164689
_cell_angle_beta   107.74442350
_cell_angle_gamma   85.61725179
_symmetry_Int_Tables_number   1
_chemical_formula_structural   Sr2Ga5Ir2Pd
_chemical_formula_sum   'Sr4 Ga10 Ir4 Pd2'
_cell_volume   389.74182043
_cell_formula_units_Z   2
loop_
 _symmetry_equiv_pos_site_id
 _symmetry_equiv_pos_as_xyz
  1  'x, y, z'
loop_
 _atom_site_type_symbol
 _atom_site_label
 _atom_site_symmetry_multiplicity
 _atom_site_fract_x
 _atom_site_fract_y
 _atom_site_fract_z
 _atom_site_occupancy
  Sr  Sr0  1  0.093488  0.862636  0.230871  1
  Sr  Sr1  1  0.633647  0.362439  0.271186  1
  Sr  Sr2  1  0.908755  0.137536  0.771198  1
  Sr  Sr3  1  0.368241  0.637379  0.730869  1
  Ga  Ga4  1  0.293646  0.042945  0.754820  1
  Ga  Ga5  1  0.293647  0.538828  0.250704  1
  Ga  Ga6  1  0.008266  0.250001  0.258268  1
  Ga  Ga7  1  0.236572  0.406058  0.830523  1
  Ga  Ga8  1  0.753791  0.592124  0.161662  1
  Ga  Ga9  1  0.711876  0.457053  0.750703  1
  Ga  Ga10  1  0.569533  0.907873  0.661661  1
  Ga  Ga11  1  0.711877  0.961174  0.254823  1
  Ga  Ga12  1  0.424467  0.093946  0.330520  1
  Ga  Ga13  1  0.008271  0.750004  0.758271  1
  Ir  Ir14  1  0.949986  0.357128  0.592852  1
  Ir  Ir15  1  0.235729  0.142868  0.092856  1
  Ir  Ir16  1  0.495874  0.750003  0.245868  1
  Ir  Ir17  1  0.495862  0.250002  0.745873  1
  Pd  Pd18  1  0.046251  0.643016  0.403239  1
  Pd  Pd19  1  0.760220  0.856985  0.903236  1
