# generated using pymatgen
data_Tm6TcNi17P12
_symmetry_space_group_name_H-M   'P 1'
_cell_length_a   3.73412100
_cell_length_b   10.48511900
_cell_length_c   12.26401200
_cell_angle_alpha   90.00000000
_cell_angle_beta   90.00000000
_cell_angle_gamma   90.00000000
_symmetry_Int_Tables_number   1
_chemical_formula_structural   Tm6TcNi17P12
_chemical_formula_sum   'Tm6 Tc1 Ni17 P12'
_cell_volume   480.16921998
_cell_formula_units_Z   1
loop_
 _symmetry_equiv_pos_site_id
 _symmetry_equiv_pos_as_xyz
  1  'x, y, z'
loop_
 _atom_site_type_symbol
 _atom_site_label
 _atom_site_symmetry_multiplicity
 _atom_site_fract_x
 _atom_site_fract_y
 _atom_site_fract_z
 _atom_site_occupancy
  Tm  Tm0  1  0.000000  0.500000  0.524970  1
  Tm  Tm1  1  0.500000  0.000000  0.478945  1
  Tm  Tm2  1  0.500000  0.817135  0.206394  1
  Tm  Tm3  1  0.500000  0.182865  0.206394  1
  Tm  Tm4  1  0.000000  0.683936  0.792292  1
  Tm  Tm5  1  0.000000  0.316064  0.792292  1
  Tc  Tc6  1  0.500000  0.500000  0.155174  1
  Ni  Ni7  1  0.000000  0.000000  0.839602  1
  Ni  Ni8  1  0.500000  0.500000  0.701655  1
  Ni  Ni9  1  0.000000  0.000000  0.300805  1
  Ni  Ni10  1  0.000000  0.500000  0.984384  1
  Ni  Ni11  1  0.500000  0.000000  0.016378  1
  Ni  Ni12  1  0.500000  0.329069  0.989218  1
  Ni  Ni13  1  0.500000  0.670931  0.989218  1
  Ni  Ni14  1  0.000000  0.164362  0.006230  1
  Ni  Ni15  1  0.000000  0.835638  0.006230  1
  Ni  Ni16  1  0.500000  0.302501  0.429454  1
  Ni  Ni17  1  0.500000  0.697499  0.429454  1
  Ni  Ni18  1  0.000000  0.197927  0.571073  1
  Ni  Ni19  1  0.000000  0.802073  0.571073  1
  Ni  Ni20  1  0.500000  0.878566  0.710833  1
  Ni  Ni21  1  0.500000  0.121434  0.710833  1
  Ni  Ni22  1  0.000000  0.621263  0.290523  1
  Ni  Ni23  1  0.000000  0.378737  0.290523  1
  P  P24  1  0.500000  0.500000  0.878132  1
  P  P25  1  0.000000  0.000000  0.125393  1
  P  P26  1  0.500000  0.500000  0.349227  1
  P  P27  1  0.000000  0.000000  0.653102  1
  P  P28  1  0.500000  0.314422  0.615374  1
  P  P29  1  0.500000  0.685578  0.615374  1
  P  P30  1  0.000000  0.184968  0.385902  1
  P  P31  1  0.000000  0.815032  0.385902  1
  P  P32  1  0.500000  0.849072  0.891154  1
  P  P33  1  0.500000  0.150928  0.891154  1
  P  P34  1  0.000000  0.654456  0.107667  1
  P  P35  1  0.000000  0.345544  0.107667  1
