# generated using pymatgen
data_Ca3Lu(Ga2Ag)4
_symmetry_space_group_name_H-M   'P 1'
_cell_length_a   4.34357700
_cell_length_b   7.02787290
_cell_length_c   10.49224408
_cell_angle_alpha   91.05870221
_cell_angle_beta   90.00000000
_cell_angle_gamma   90.00000000
_symmetry_Int_Tables_number   1
_chemical_formula_structural   Ca3Lu(Ga2Ag)4
_chemical_formula_sum   'Ca3 Lu1 Ga8 Ag4'
_cell_volume   320.23269016
_cell_formula_units_Z   1
loop_
 _symmetry_equiv_pos_site_id
 _symmetry_equiv_pos_as_xyz
  1  'x, y, z'
loop_
 _atom_site_type_symbol
 _atom_site_label
 _atom_site_symmetry_multiplicity
 _atom_site_fract_x
 _atom_site_fract_y
 _atom_site_fract_z
 _atom_site_occupancy
  Ca  Ca0  1  0.750000  0.225670  0.172962  1
  Ca  Ca1  1  0.750000  0.726724  0.325379  1
  Ca  Ca2  1  0.250000  0.273958  0.674453  1
  Lu  Lu3  1  0.250000  0.778754  0.829854  1
  Ga  Ga4  1  0.250000  0.704365  0.536781  1
  Ga  Ga5  1  0.750000  0.300752  0.467303  1
  Ga  Ga6  1  0.750000  0.796588  0.032279  1
  Ga  Ga7  1  0.250000  0.197412  0.965235  1
  Ga  Ga8  1  0.250000  0.924382  0.147811  1
  Ga  Ga9  1  0.750000  0.069682  0.848080  1
  Ga  Ga10  1  0.750000  0.574961  0.654239  1
  Ga  Ga11  1  0.250000  0.428362  0.349304  1
  Ag  Ag12  1  0.250000  0.540205  0.097843  1
  Ag  Ag13  1  0.750000  0.458100  0.898980  1
  Ag  Ag14  1  0.750000  0.957356  0.599197  1
  Ag  Ag15  1  0.250000  0.042728  0.400302  1
