# generated using pymatgen
data_Mg2SiNi2Ir
_symmetry_space_group_name_H-M   'P 1'
_cell_length_a   4.74126283
_cell_length_b   4.74126289
_cell_length_c   4.80134955
_cell_angle_alpha   66.14086739
_cell_angle_beta   66.14087414
_cell_angle_gamma   63.24958846
_symmetry_Int_Tables_number   1
_chemical_formula_structural   Mg2SiNi2Ir
_chemical_formula_sum   'Mg2 Si1 Ni2 Ir1'
_cell_volume   84.81219916
_cell_formula_units_Z   1
loop_
 _symmetry_equiv_pos_site_id
 _symmetry_equiv_pos_as_xyz
  1  'x, y, z'
loop_
 _atom_site_type_symbol
 _atom_site_label
 _atom_site_symmetry_multiplicity
 _atom_site_fract_x
 _atom_site_fract_y
 _atom_site_fract_z
 _atom_site_occupancy
  Mg  Mg0  1  0.127506  0.127506  0.121426  1
  Mg  Mg1  1  0.872494  0.872494  0.878574  1
  Si  Si2  1  0.500000  0.500000  0.500000  1
  Ni  Ni3  1  0.000000  0.500000  0.500000  1
  Ni  Ni4  1  0.500000  0.000000  0.500000  1
  Ir  Ir5  1  0.500000  0.500000  0.000000  1
