# generated using pymatgen
data_Hf4Mn4GeAs3
_symmetry_space_group_name_H-M   'P 1'
_cell_length_a   3.70275600
_cell_length_b   6.60845791
_cell_length_c   7.77532331
_cell_angle_alpha   90.04613075
_cell_angle_beta   90.00000000
_cell_angle_gamma   90.00000000
_symmetry_Int_Tables_number   1
_chemical_formula_structural   Hf4Mn4GeAs3
_chemical_formula_sum   'Hf4 Mn4 Ge1 As3'
_cell_volume   190.25826775
_cell_formula_units_Z   1
loop_
 _symmetry_equiv_pos_site_id
 _symmetry_equiv_pos_as_xyz
  1  'x, y, z'
loop_
 _atom_site_type_symbol
 _atom_site_label
 _atom_site_symmetry_multiplicity
 _atom_site_fract_x
 _atom_site_fract_y
 _atom_site_fract_z
 _atom_site_occupancy
  Hf  Hf0  1  0.250000  0.536054  0.674821  1
  Hf  Hf1  1  0.250000  0.037021  0.824148  1
  Hf  Hf2  1  0.750000  0.964035  0.176133  1
  Hf  Hf3  1  0.750000  0.463615  0.324960  1
  Mn  Mn4  1  0.750000  0.865003  0.562052  1
  Mn  Mn5  1  0.250000  0.133393  0.437479  1
  Mn  Mn6  1  0.750000  0.365700  0.938983  1
  Mn  Mn7  1  0.250000  0.635027  0.062337  1
  Ge  Ge8  1  0.750000  0.238074  0.626851  1
  As  As9  1  0.750000  0.738563  0.871376  1
  As  As10  1  0.250000  0.761981  0.371863  1
  As  As11  1  0.250000  0.261533  0.128996  1
