# generated using pymatgen
data_LiLa2In(AsO)2
_symmetry_space_group_name_H-M   'P 1'
_cell_length_a   4.18643600
_cell_length_b   4.18643600
_cell_length_c   9.29386200
_cell_angle_alpha   90.00000000
_cell_angle_beta   90.00000000
_cell_angle_gamma   90.00000000
_symmetry_Int_Tables_number   1
_chemical_formula_structural   LiLa2In(AsO)2
_chemical_formula_sum   'Li1 La2 In1 As2 O2'
_cell_volume   162.88651525
_cell_formula_units_Z   1
loop_
 _symmetry_equiv_pos_site_id
 _symmetry_equiv_pos_as_xyz
  1  'x, y, z'
loop_
 _atom_site_type_symbol
 _atom_site_label
 _atom_site_symmetry_multiplicity
 _atom_site_fract_x
 _atom_site_fract_y
 _atom_site_fract_z
 _atom_site_occupancy
  Li  Li0  1  0.000000  0.000000  0.500000  1
  La  La1  1  0.499999  0.000000  0.126740  1
  La  La2  1  0.000000  0.499999  0.873260  1
  In  In3  1  0.499999  0.499999  0.500000  1
  As  As4  1  0.000000  0.499999  0.316388  1
  As  As5  1  0.499999  0.000000  0.683612  1
  O  O6  1  0.000000  0.000000  0.000000  1
  O  O7  1  0.499999  0.499999  0.000000  1
