# generated using pymatgen
data_Er5Tm3(Si4Mo3)4
_symmetry_space_group_name_H-M   'P 1'
_cell_length_a   6.73621704
_cell_length_b   6.92861549
_cell_length_c   12.88802305
_cell_angle_alpha   89.98746355
_cell_angle_beta   90.00776562
_cell_angle_gamma   89.98440342
_symmetry_Int_Tables_number   1
_chemical_formula_structural   Er5Tm3(Si4Mo3)4
_chemical_formula_sum   'Er5 Tm3 Si16 Mo12'
_cell_volume   601.51824672
_cell_formula_units_Z   1
loop_
 _symmetry_equiv_pos_site_id
 _symmetry_equiv_pos_as_xyz
  1  'x, y, z'
loop_
 _atom_site_type_symbol
 _atom_site_label
 _atom_site_symmetry_multiplicity
 _atom_site_fract_x
 _atom_site_fract_y
 _atom_site_fract_z
 _atom_site_occupancy
  Er  Er0  1  0.496904  0.332590  0.093957  1
  Er  Er1  1  0.996986  0.167457  0.406247  1
  Er  Er2  1  0.503045  0.667390  0.593785  1
  Er  Er3  1  0.003096  0.832600  0.906224  1
  Er  Er4  1  0.503057  0.667503  0.906003  1
  Tm  Tm5  1  0.003273  0.832306  0.593938  1
  Tm  Tm6  1  0.496757  0.332360  0.405915  1
  Tm  Tm7  1  0.996723  0.167598  0.094226  1
  Si  Si8  1  0.660121  0.040959  0.547030  1
  Si  Si9  1  0.159667  0.458650  0.953012  1
  Si  Si10  1  0.339915  0.959216  0.047258  1
  Si  Si11  1  0.839845  0.540975  0.452929  1
  Si  Si12  1  0.340419  0.959312  0.452864  1
  Si  Si13  1  0.840509  0.540663  0.047256  1
  Si  Si14  1  0.659757  0.041133  0.952975  1
  Si  Si15  1  0.159682  0.459340  0.546958  1
  Si  Si16  1  0.534655  0.366971  0.749961  1
  Si  Si17  1  0.034573  0.132538  0.749773  1
  Si  Si18  1  0.465472  0.632897  0.250167  1
  Si  Si19  1  0.965542  0.867299  0.249973  1
  Si  Si20  1  0.802649  0.631012  0.749824  1
  Si  Si21  1  0.302123  0.869138  0.749757  1
  Si  Si22  1  0.197559  0.369033  0.250082  1
  Si  Si23  1  0.697622  0.131123  0.250102  1
  Mo  Mo24  1  0.830083  0.334644  0.624935  1
  Mo  Mo25  1  0.329945  0.165191  0.874892  1
  Mo  Mo26  1  0.169891  0.665210  0.125066  1
  Mo  Mo27  1  0.670101  0.834881  0.375060  1
  Mo  Mo28  1  0.169784  0.665251  0.375211  1
  Mo  Mo29  1  0.670041  0.834958  0.125011  1
  Mo  Mo30  1  0.830391  0.334493  0.875024  1
  Mo  Mo31  1  0.330087  0.165365  0.624714  1
  Mo  Mo32  1  0.666553  0.997775  0.749845  1
  Mo  Mo33  1  0.166350  0.502094  0.749811  1
  Mo  Mo34  1  0.333396  0.002331  0.250108  1
  Mo  Mo35  1  0.833426  0.497745  0.250109  1
