# generated using pymatgen
data_MoPbF6
_symmetry_space_group_name_H-M   'P 1'
_cell_length_a   6.25631923
_cell_length_b   6.25749173
_cell_length_c   6.25452083
_cell_angle_alpha   53.96531735
_cell_angle_beta   53.99766024
_cell_angle_gamma   53.94890417
_symmetry_Int_Tables_number   1
_chemical_formula_structural   MoPbF6
_chemical_formula_sum   'Mo1 Pb1 F6'
_cell_volume   148.75405091
_cell_formula_units_Z   1
loop_
 _symmetry_equiv_pos_site_id
 _symmetry_equiv_pos_as_xyz
  1  'x, y, z'
loop_
 _atom_site_type_symbol
 _atom_site_label
 _atom_site_symmetry_multiplicity
 _atom_site_fract_x
 _atom_site_fract_y
 _atom_site_fract_z
 _atom_site_occupancy
  Mo  Mo0  1  0.500000  0.500000  0.500000  1
  Pb  Pb1  1  0.000000  0.000000  0.000000  1
  F  F2  1  0.286348  0.852294  0.585929  1
  F  F3  1  0.585898  0.286486  0.852178  1
  F  F4  1  0.147549  0.414204  0.713643  1
  F  F5  1  0.414102  0.713514  0.147822  1
  F  F6  1  0.713652  0.147706  0.414071  1
  F  F7  1  0.852451  0.585796  0.286357  1
