# generated using pymatgen
data_Y8Ir3IO24
_symmetry_space_group_name_H-M   'P 1'
_cell_length_a   5.30843796
_cell_length_b   9.18193822
_cell_length_c   9.94017386
_cell_angle_alpha   89.85449495
_cell_angle_beta   89.86731312
_cell_angle_gamma   90.03824007
_symmetry_Int_Tables_number   1
_chemical_formula_structural   Y8Ir3IO24
_chemical_formula_sum   'Y8 Ir3 I1 O24'
_cell_volume   484.49849177
_cell_formula_units_Z   1
loop_
 _symmetry_equiv_pos_site_id
 _symmetry_equiv_pos_as_xyz
  1  'x, y, z'
loop_
 _atom_site_type_symbol
 _atom_site_label
 _atom_site_symmetry_multiplicity
 _atom_site_fract_x
 _atom_site_fract_y
 _atom_site_fract_z
 _atom_site_occupancy
  Y  Y0  1  0.981061  0.599790  0.533634  1
  Y  Y1  1  0.481074  0.897482  0.472492  1
  Y  Y2  1  0.020684  0.107909  0.955014  1
  Y  Y3  1  0.519153  0.404275  0.035566  1
  Y  Y4  1  0.458124  0.778324  0.862168  1
  Y  Y5  1  0.964072  0.709156  0.133983  1
  Y  Y6  1  0.042645  0.222101  0.373909  1
  Y  Y7  1  0.539414  0.282075  0.631188  1
  Ir  Ir8  1  0.958856  0.995848  0.645661  1
  Ir  Ir9  1  0.458653  0.502982  0.353128  1
  Ir  Ir10  1  0.041099  0.495776  0.851874  1
  I  I11  1  0.540980  0.004724  0.148768  1
  O  O12  1  0.753535  0.088504  0.500640  1
  O  O13  1  0.251779  0.409563  0.498410  1
  O  O14  1  0.247108  0.591116  0.996561  1
  O  O15  1  0.742426  0.918631  0.006607  1
  O  O16  1  0.239586  0.113020  0.566259  1
  O  O17  1  0.737705  0.384823  0.430821  1
  O  O18  1  0.765792  0.617168  0.930519  1
  O  O19  1  0.273553  0.888499  0.073889  1
  O  O20  1  0.081796  0.843244  0.526414  1
  O  O21  1  0.584139  0.656355  0.471975  1
  O  O22  1  0.914067  0.344776  0.974848  1
  O  O23  1  0.419767  0.152473  0.030009  1
  O  O24  1  0.679709  0.859686  0.260985  1
  O  O25  1  0.190429  0.640833  0.734126  1
  O  O26  1  0.312176  0.357520  0.235969  1
  O  O27  1  0.812140  0.143561  0.761034  1
  O  O28  1  0.338270  0.053332  0.296679  1
  O  O29  1  0.834314  0.444624  0.702212  1
  O  O30  1  0.672526  0.863190  0.682678  1
  O  O31  1  0.163370  0.944749  0.800566  1
  O  O32  1  0.816202  0.134243  0.180039  1
  O  O33  1  0.325112  0.359542  0.822153  1
  O  O34  1  0.171984  0.635079  0.318299  1
  O  O35  1  0.666697  0.555029  0.200921  1
