# generated using pymatgen
data_Dy7Ho9Cd4Ir3Ru
_symmetry_space_group_name_H-M   'P 1'
_cell_length_a   9.62511901
_cell_length_b   9.62511955
_cell_length_c   9.62335952
_cell_angle_alpha   59.78924071
_cell_angle_beta   59.78923977
_cell_angle_gamma   59.80705133
_symmetry_Int_Tables_number   1
_chemical_formula_structural   Dy7Ho9Cd4Ir3Ru
_chemical_formula_sum   'Dy7 Ho9 Cd4 Ir3 Ru1'
_cell_volume   627.47992736
_cell_formula_units_Z   1
loop_
 _symmetry_equiv_pos_site_id
 _symmetry_equiv_pos_as_xyz
  1  'x, y, z'
loop_
 _atom_site_type_symbol
 _atom_site_label
 _atom_site_symmetry_multiplicity
 _atom_site_fract_x
 _atom_site_fract_y
 _atom_site_fract_z
 _atom_site_occupancy
  Dy  Dy0  1  0.060545  0.060545  0.438278  1
  Dy  Dy1  1  0.188552  0.811711  0.811879  1
  Dy  Dy2  1  0.810269  0.188313  0.188137  1
  Dy  Dy3  1  0.811711  0.188552  0.811879  1
  Dy  Dy4  1  0.188313  0.810269  0.188137  1
  Dy  Dy5  1  0.811778  0.811778  0.188536  1
  Dy  Dy6  1  0.188229  0.188229  0.810341  1
  Ho  Ho7  1  0.598732  0.598732  0.598709  1
  Ho  Ho8  1  0.598433  0.598433  0.205564  1
  Ho  Ho9  1  0.598075  0.205724  0.598471  1
  Ho  Ho10  1  0.205724  0.598075  0.598471  1
  Ho  Ho11  1  0.062170  0.438645  0.438404  1
  Ho  Ho12  1  0.438413  0.060626  0.060511  1
  Ho  Ho13  1  0.438645  0.062170  0.438404  1
  Ho  Ho14  1  0.060626  0.438413  0.060511  1
  Ho  Ho15  1  0.438428  0.438428  0.062191  1
  Cd  Cd16  1  0.830020  0.830020  0.830142  1
  Cd  Cd17  1  0.830618  0.830618  0.507242  1
  Cd  Cd18  1  0.830651  0.507244  0.830643  1
  Cd  Cd19  1  0.507244  0.830651  0.830643  1
  Ir  Ir20  1  0.392929  0.392929  0.825817  1
  Ir  Ir21  1  0.393266  0.825512  0.392946  1
  Ir  Ir22  1  0.825512  0.393266  0.392946  1
  Ru  Ru23  1  0.391115  0.391115  0.391197  1
