# generated using pymatgen
data_Yb8Cd(Si4Pt)3
_symmetry_space_group_name_H-M   'P 1'
_cell_length_a   8.27812600
_cell_length_b   8.27812701
_cell_length_c   8.42031300
_cell_angle_alpha   90.00000000
_cell_angle_beta   90.00000000
_cell_angle_gamma   120.00000396
_symmetry_Int_Tables_number   1
_chemical_formula_structural   Yb8Cd(Si4Pt)3
_chemical_formula_sum   'Yb8 Cd1 Si12 Pt3'
_cell_volume   499.71566934
_cell_formula_units_Z   1
loop_
 _symmetry_equiv_pos_site_id
 _symmetry_equiv_pos_as_xyz
  1  'x, y, z'
loop_
 _atom_site_type_symbol
 _atom_site_label
 _atom_site_symmetry_multiplicity
 _atom_site_fract_x
 _atom_site_fract_y
 _atom_site_fract_z
 _atom_site_occupancy
  Yb  Yb0  1  0.494701  0.505299  0.740258  1
  Yb  Yb1  1  0.496285  0.503715  0.259252  1
  Yb  Yb2  1  0.010597  0.505299  0.740258  1
  Yb  Yb3  1  0.007429  0.503715  0.259252  1
  Yb  Yb4  1  0.494701  0.989403  0.740258  1
  Yb  Yb5  1  0.496285  0.992571  0.259252  1
  Yb  Yb6  1  0.000000  0.000000  0.746433  1
  Yb  Yb7  1  0.000000  0.000000  0.254465  1
  Cd  Cd8  1  0.666667  0.333333  0.994732  1
  Si  Si9  1  0.843817  0.156183  0.001836  1
  Si  Si10  1  0.167728  0.832272  0.999320  1
  Si  Si11  1  0.312367  0.156183  0.001836  1
  Si  Si12  1  0.164374  0.835626  0.499939  1
  Si  Si13  1  0.664543  0.832272  0.999320  1
  Si  Si14  1  0.834035  0.165965  0.499976  1
  Si  Si15  1  0.843817  0.687633  0.001836  1
  Si  Si16  1  0.671251  0.835626  0.499939  1
  Si  Si17  1  0.167728  0.335457  0.999320  1
  Si  Si18  1  0.331931  0.165965  0.499976  1
  Si  Si19  1  0.164374  0.328749  0.499939  1
  Si  Si20  1  0.834035  0.668069  0.499976  1
  Pt  Pt21  1  0.333333  0.666667  0.001851  1
  Pt  Pt22  1  0.333333  0.666667  0.498378  1
  Pt  Pt23  1  0.666667  0.333333  0.502400  1
