# generated using pymatgen
data_TbTm2(In2Rh)2
_symmetry_space_group_name_H-M   'P 1'
_cell_length_a   7.91002944
_cell_length_b   7.92723183
_cell_length_c   3.73079500
_cell_angle_alpha   90.00000000
_cell_angle_beta   90.00000000
_cell_angle_gamma   119.99742549
_symmetry_Int_Tables_number   1
_chemical_formula_structural   TbTm2(In2Rh)2
_chemical_formula_sum   'Tb1 Tm2 In4 Rh2'
_cell_volume   202.60163386
_cell_formula_units_Z   1
loop_
 _symmetry_equiv_pos_site_id
 _symmetry_equiv_pos_as_xyz
  1  'x, y, z'
loop_
 _atom_site_type_symbol
 _atom_site_label
 _atom_site_symmetry_multiplicity
 _atom_site_fract_x
 _atom_site_fract_y
 _atom_site_fract_z
 _atom_site_occupancy
  Tb  Tb0  1  0.412487  0.033468  0.000000  1
  Tm  Tm1  1  0.963688  0.376908  0.000000  1
  Tm  Tm2  1  0.623921  0.588255  0.000000  1
  In  In3  1  0.741932  0.999456  0.500001  1
  In  In4  1  0.256607  0.260167  0.500001  1
  In  In5  1  0.332584  0.664500  0.500001  1
  In  In6  1  0.000204  0.740911  0.500001  1
  Rh  Rh7  1  0.998453  0.998545  0.000000  1
  Rh  Rh8  1  0.670124  0.337792  0.500001  1
