# generated using pymatgen
data_HoMgSi3BiP3Pd20
_symmetry_space_group_name_H-M   'P 1'
_cell_length_a   8.63721312
_cell_length_b   8.63327720
_cell_length_c   8.63158000
_cell_angle_alpha   60.03651353
_cell_angle_beta   59.98895055
_cell_angle_gamma   59.97195385
_symmetry_Int_Tables_number   1
_chemical_formula_structural   HoMgSi3BiP3Pd20
_chemical_formula_sum   'Ho1 Mg1 Si3 Bi1 P3 Pd20'
_cell_volume   455.10944855
_cell_formula_units_Z   1
loop_
 _symmetry_equiv_pos_site_id
 _symmetry_equiv_pos_as_xyz
  1  'x, y, z'
loop_
 _atom_site_type_symbol
 _atom_site_label
 _atom_site_symmetry_multiplicity
 _atom_site_fract_x
 _atom_site_fract_y
 _atom_site_fract_z
 _atom_site_occupancy
  Ho  Ho0  1  0.748808  0.751191  0.748810  1
  Mg  Mg1  1  0.002481  0.997517  0.002483  1
  Si  Si2  1  0.734275  0.265378  0.263993  1
  Si  Si3  1  0.263994  0.736355  0.734274  1
  Si  Si4  1  0.265404  0.734598  0.265402  1
  Bi  Bi5  1  0.249041  0.250961  0.249040  1
  P  P6  1  0.735488  0.264512  0.735486  1
  P  P7  1  0.264025  0.265570  0.734190  1
  P  P8  1  0.734191  0.736214  0.264023  1
  Pd  Pd9  1  0.381897  0.381843  0.382956  1
  Pd  Pd10  1  0.615646  0.613633  0.613561  1
  Pd  Pd11  1  0.383096  0.382811  0.850768  1
  Pd  Pd12  1  0.382960  0.853301  0.381899  1
  Pd  Pd13  1  0.616076  0.616027  0.154345  1
  Pd  Pd14  1  0.613564  0.157165  0.615642  1
  Pd  Pd15  1  0.850766  0.383327  0.383098  1
  Pd  Pd16  1  0.154345  0.613553  0.616074  1
  Pd  Pd17  1  0.346318  0.999064  0.995580  1
  Pd  Pd18  1  0.660599  0.997652  0.997422  1
  Pd  Pd19  1  0.997422  0.344327  0.660600  1
  Pd  Pd20  1  0.995580  0.659038  0.346320  1
  Pd  Pd21  1  0.000138  0.345089  0.996582  1
  Pd  Pd22  1  0.660400  0.993925  0.347915  1
  Pd  Pd23  1  0.996582  0.658192  0.000137  1
  Pd  Pd24  1  0.347915  0.997759  0.660402  1
  Pd  Pd25  1  0.996705  0.996616  0.348054  1
  Pd  Pd26  1  0.994845  0.998644  0.659388  1
  Pd  Pd27  1  0.659384  0.347119  0.994849  1
  Pd  Pd28  1  0.348056  0.658619  0.996707  1
