# generated using pymatgen
data_Zr3Al3CoCuNi
_symmetry_space_group_name_H-M   'P 1'
_cell_length_a   6.94133100
_cell_length_b   6.94132940
_cell_length_c   3.50566900
_cell_angle_alpha   90.00000000
_cell_angle_beta   90.00000000
_cell_angle_gamma   119.99998508
_symmetry_Int_Tables_number   1
_chemical_formula_structural   Zr3Al3CoCuNi
_chemical_formula_sum   'Zr3 Al3 Co1 Cu1 Ni1'
_cell_volume   146.28069461
_cell_formula_units_Z   1
loop_
 _symmetry_equiv_pos_site_id
 _symmetry_equiv_pos_as_xyz
  1  'x, y, z'
loop_
 _atom_site_type_symbol
 _atom_site_label
 _atom_site_symmetry_multiplicity
 _atom_site_fract_x
 _atom_site_fract_y
 _atom_site_fract_z
 _atom_site_occupancy
  Zr  Zr0  1  0.014623  0.413952  0.500000  1
  Zr  Zr1  1  0.586048  0.600671  0.500000  1
  Zr  Zr2  1  0.399329  0.985377  0.500000  1
  Al  Al3  1  0.995839  0.750125  0.000000  1
  Al  Al4  1  0.249875  0.245714  0.000000  1
  Al  Al5  1  0.754286  0.004161  0.000000  1
  Co  Co6  1  0.333333  0.666667  0.000000  1
  Cu  Cu7  1  0.666667  0.333333  0.000000  1
  Ni  Ni8  1  0.000000  0.000000  0.500000  1
