# generated using pymatgen
data_Tm2Si2NiRu
_symmetry_space_group_name_H-M   'P 1'
_cell_length_a   4.20410900
_cell_length_b   6.81211159
_cell_length_c   7.14007320
_cell_angle_alpha   91.24327824
_cell_angle_beta   90.00000000
_cell_angle_gamma   90.00000000
_symmetry_Int_Tables_number   1
_chemical_formula_structural   Tm2Si2NiRu
_chemical_formula_sum   'Tm4 Si4 Ni2 Ru2'
_cell_volume   204.43541477
_cell_formula_units_Z   2
loop_
 _symmetry_equiv_pos_site_id
 _symmetry_equiv_pos_as_xyz
  1  'x, y, z'
loop_
 _atom_site_type_symbol
 _atom_site_label
 _atom_site_symmetry_multiplicity
 _atom_site_fract_x
 _atom_site_fract_y
 _atom_site_fract_z
 _atom_site_occupancy
  Tm  Tm0  1  0.250000  0.990804  0.799515  1
  Tm  Tm1  1  0.750000  0.009196  0.200485  1
  Tm  Tm2  1  0.250000  0.489333  0.684144  1
  Tm  Tm3  1  0.750000  0.510667  0.315856  1
  Si  Si4  1  0.250000  0.298031  0.100370  1
  Si  Si5  1  0.750000  0.701969  0.899630  1
  Si  Si6  1  0.250000  0.802865  0.397585  1
  Si  Si7  1  0.750000  0.197135  0.602415  1
  Ni  Ni8  1  0.750000  0.836184  0.573737  1
  Ni  Ni9  1  0.250000  0.163816  0.426263  1
  Ru  Ru10  1  0.750000  0.343035  0.931769  1
  Ru  Ru11  1  0.250000  0.656965  0.068231  1
