# generated using pymatgen
data_CeErRh6C
_symmetry_space_group_name_H-M   'P 1'
_cell_length_a   5.82085809
_cell_length_b   5.82085829
_cell_length_c   5.82085800
_cell_angle_alpha   60.00000166
_cell_angle_beta   60.00000049
_cell_angle_gamma   60.00000149
_symmetry_Int_Tables_number   1
_chemical_formula_structural   CeErRh6C
_chemical_formula_sum   'Ce1 Er1 Rh6 C1'
_cell_volume   139.45884263
_cell_formula_units_Z   1
loop_
 _symmetry_equiv_pos_site_id
 _symmetry_equiv_pos_as_xyz
  1  'x, y, z'
loop_
 _atom_site_type_symbol
 _atom_site_label
 _atom_site_symmetry_multiplicity
 _atom_site_fract_x
 _atom_site_fract_y
 _atom_site_fract_z
 _atom_site_occupancy
  Ce  Ce0  1  0.250000  0.250000  0.250000  1
  Er  Er1  1  0.750000  0.750000  0.750000  1
  Rh  Rh2  1  0.752613  0.247386  0.247386  1
  Rh  Rh3  1  0.247386  0.752613  0.247386  1
  Rh  Rh4  1  0.752613  0.752613  0.247386  1
  Rh  Rh5  1  0.247386  0.247386  0.752613  1
  Rh  Rh6  1  0.752613  0.247386  0.752613  1
  Rh  Rh7  1  0.247386  0.752613  0.752613  1
  C  C8  1  0.499999  0.499999  0.499999  1
