# generated using pymatgen
data_Ca3Zn3(Ni5B)2
_symmetry_space_group_name_H-M   'P 1'
_cell_length_a   5.11774505
_cell_length_b   5.11606552
_cell_length_c   10.70863766
_cell_angle_alpha   90.00000771
_cell_angle_beta   89.99881721
_cell_angle_gamma   119.95417235
_symmetry_Int_Tables_number   1
_chemical_formula_structural   Ca3Zn3(Ni5B)2
_chemical_formula_sum   'Ca3 Zn3 Ni10 B2'
_cell_volume   242.92933838
_cell_formula_units_Z   1
loop_
 _symmetry_equiv_pos_site_id
 _symmetry_equiv_pos_as_xyz
  1  'x, y, z'
loop_
 _atom_site_type_symbol
 _atom_site_label
 _atom_site_symmetry_multiplicity
 _atom_site_fract_x
 _atom_site_fract_y
 _atom_site_fract_z
 _atom_site_occupancy
  Ca  Ca0  1  0.000009  0.000040  0.999306  1
  Ca  Ca1  1  0.000015  0.000006  0.663668  1
  Ca  Ca2  1  0.999895  0.000028  0.326859  1
  Zn  Zn3  1  0.666616  0.333227  0.685835  1
  Zn  Zn4  1  0.333388  0.666699  0.684828  1
  Zn  Zn5  1  0.333458  0.666875  0.314771  1
  Ni  Ni6  1  0.501629  0.498304  0.499130  1
  Ni  Ni7  1  0.501554  0.002967  0.499196  1
  Ni  Ni8  1  0.996786  0.498291  0.499166  1
  Ni  Ni9  1  0.666642  0.333218  0.318678  1
  Ni  Ni10  1  0.499504  0.500559  0.874441  1
  Ni  Ni11  1  0.499487  0.998999  0.874562  1
  Ni  Ni12  1  0.001063  0.500577  0.874517  1
  Ni  Ni13  1  0.501880  0.498191  0.127637  1
  Ni  Ni14  1  0.501871  0.003793  0.127529  1
  Ni  Ni15  1  0.996192  0.498154  0.127558  1
  B  B16  1  0.666907  0.333592  0.000009  1
  B  B17  1  0.333101  0.666482  0.002309  1
