# generated using pymatgen
data_Hf3BeRe3Ge2
_symmetry_space_group_name_H-M   'P 1'
_cell_length_a   6.94649700
_cell_length_b   6.94649773
_cell_length_c   3.43049200
_cell_angle_alpha   90.00000000
_cell_angle_beta   90.00000000
_cell_angle_gamma   119.99999177
_symmetry_Int_Tables_number   1
_chemical_formula_structural   Hf3BeRe3Ge2
_chemical_formula_sum   'Hf3 Be1 Re3 Ge2'
_cell_volume   143.35697529
_cell_formula_units_Z   1
loop_
 _symmetry_equiv_pos_site_id
 _symmetry_equiv_pos_as_xyz
  1  'x, y, z'
loop_
 _atom_site_type_symbol
 _atom_site_label
 _atom_site_symmetry_multiplicity
 _atom_site_fract_x
 _atom_site_fract_y
 _atom_site_fract_z
 _atom_site_occupancy
  Hf  Hf0  1  0.000000  0.380842  0.500000  1
  Hf  Hf1  1  0.619158  0.619158  0.500000  1
  Hf  Hf2  1  0.380842  0.000000  0.500000  1
  Be  Be3  1  0.000000  0.000000  0.500000  1
  Re  Re4  1  0.000000  0.755711  0.000000  1
  Re  Re5  1  0.244289  0.244289  0.000000  1
  Re  Re6  1  0.755711  0.000000  0.000000  1
  Ge  Ge7  1  0.333333  0.666667  0.000000  1
  Ge  Ge8  1  0.666667  0.333333  0.000000  1
