# generated using pymatgen
data_Tb3DyTm2Mn6O18
_symmetry_space_group_name_H-M   'P 1'
_cell_length_a   6.20594800
_cell_length_b   6.20594919
_cell_length_c   11.52684300
_cell_angle_alpha   90.00000000
_cell_angle_beta   90.00000000
_cell_angle_gamma   119.99999364
_symmetry_Int_Tables_number   1
_chemical_formula_structural   Tb3DyTm2Mn6O18
_chemical_formula_sum   'Tb3 Dy1 Tm2 Mn6 O18'
_cell_volume   384.46550976
_cell_formula_units_Z   1
loop_
 _symmetry_equiv_pos_site_id
 _symmetry_equiv_pos_as_xyz
  1  'x, y, z'
loop_
 _atom_site_type_symbol
 _atom_site_label
 _atom_site_symmetry_multiplicity
 _atom_site_fract_x
 _atom_site_fract_y
 _atom_site_fract_z
 _atom_site_occupancy
  Tb  Tb0  1  0.333333  0.666667  0.239381  1
  Tb  Tb1  1  0.666667  0.333333  0.739438  1
  Tb  Tb2  1  0.333333  0.666667  0.739414  1
  Dy  Dy3  1  0.666667  0.333333  0.239187  1
  Tm  Tm4  1  0.000000  0.000000  0.282659  1
  Tm  Tm5  1  0.000000  0.000000  0.783006  1
  Mn  Mn6  1  0.331014  0.000232  0.008129  1
  Mn  Mn7  1  0.331088  0.330848  0.507775  1
  Mn  Mn8  1  0.999760  0.668912  0.507775  1
  Mn  Mn9  1  0.999768  0.330782  0.008129  1
  Mn  Mn10  1  0.669218  0.668986  0.008129  1
  Mn  Mn11  1  0.669152  0.000240  0.507775  1
  O  O12  1  0.303471  0.001380  0.172725  1
  O  O13  1  0.301932  0.302017  0.672435  1
  O  O14  1  0.000085  0.698068  0.672435  1
  O  O15  1  0.998620  0.302091  0.172725  1
  O  O16  1  0.697909  0.696529  0.172725  1
  O  O17  1  0.697983  0.999915  0.672435  1
  O  O18  1  0.646453  0.001446  0.343275  1
  O  O19  1  0.646285  0.646260  0.843722  1
  O  O20  1  0.999975  0.353715  0.843722  1
  O  O21  1  0.998554  0.645007  0.343275  1
  O  O22  1  0.354993  0.353547  0.343275  1
  O  O23  1  0.353740  0.000025  0.843722  1
  O  O24  1  0.000000  0.000000  0.481917  1
  O  O25  1  0.000000  0.000000  0.982246  1
  O  O26  1  0.333333  0.666667  0.028403  1
  O  O27  1  0.666667  0.333333  0.528123  1
  O  O28  1  0.333333  0.666667  0.527643  1
  O  O29  1  0.666667  0.333333  0.028408  1
