# generated using pymatgen
data_Lu5Be4VIr10
_symmetry_space_group_name_H-M   'P 1'
_cell_length_a   9.72988900
_cell_length_b   9.72988900
_cell_length_c   3.28874000
_cell_angle_alpha   90.00000000
_cell_angle_beta   90.00000000
_cell_angle_gamma   90.00000000
_symmetry_Int_Tables_number   1
_chemical_formula_structural   Lu5Be4VIr10
_chemical_formula_sum   'Lu5 Be4 V1 Ir10'
_cell_volume   311.34744931
_cell_formula_units_Z   1
loop_
 _symmetry_equiv_pos_site_id
 _symmetry_equiv_pos_as_xyz
  1  'x, y, z'
loop_
 _atom_site_type_symbol
 _atom_site_label
 _atom_site_symmetry_multiplicity
 _atom_site_fract_x
 _atom_site_fract_y
 _atom_site_fract_z
 _atom_site_occupancy
  Lu  Lu0  1  0.176156  0.676059  0.000000  1
  Lu  Lu1  1  0.323941  0.176156  0.000000  1
  Lu  Lu2  1  0.823844  0.323941  0.000000  1
  Lu  Lu3  1  0.500000  0.500000  0.000000  1
  Lu  Lu4  1  0.676059  0.823844  0.000000  1
  Be  Be5  1  0.377901  0.880099  0.000000  1
  Be  Be6  1  0.119901  0.377901  0.000000  1
  Be  Be7  1  0.880099  0.622099  0.000000  1
  Be  Be8  1  0.622099  0.119901  0.000000  1
  V  V9  1  0.000000  0.000000  0.000000  1
  Ir  Ir10  1  0.206875  0.937037  0.500000  1
  Ir  Ir11  1  0.937037  0.793125  0.500000  1
  Ir  Ir12  1  0.425083  0.722844  0.500000  1
  Ir  Ir13  1  0.574917  0.277156  0.500000  1
  Ir  Ir14  1  0.722844  0.574917  0.500000  1
  Ir  Ir15  1  0.277156  0.425083  0.500000  1
  Ir  Ir16  1  0.062963  0.206875  0.500000  1
  Ir  Ir17  1  0.000000  0.500000  0.500000  1
  Ir  Ir18  1  0.500000  0.000000  0.500000  1
  Ir  Ir19  1  0.793125  0.062963  0.500000  1
