# generated using pymatgen
data_Sc12Co5Si
_symmetry_space_group_name_H-M   'P 1'
_cell_length_a   7.61598576
_cell_length_b   7.61598480
_cell_length_c   7.61598496
_cell_angle_alpha   106.79389123
_cell_angle_beta   110.81479213
_cell_angle_gamma   110.83770274
_symmetry_Int_Tables_number   1
_chemical_formula_structural   Sc12Co5Si
_chemical_formula_sum   'Sc12 Co5 Si1'
_cell_volume   339.50700209
_cell_formula_units_Z   1
loop_
 _symmetry_equiv_pos_site_id
 _symmetry_equiv_pos_as_xyz
  1  'x, y, z'
loop_
 _atom_site_type_symbol
 _atom_site_label
 _atom_site_symmetry_multiplicity
 _atom_site_fract_x
 _atom_site_fract_y
 _atom_site_fract_z
 _atom_site_occupancy
  Sc  Sc0  1  0.465504  0.280290  0.185214  1
  Sc  Sc1  1  0.095076  0.280290  0.814786  1
  Sc  Sc2  1  0.904924  0.719710  0.185214  1
  Sc  Sc3  1  0.534496  0.719710  0.814786  1
  Sc  Sc4  1  0.298633  0.616383  0.317750  1
  Sc  Sc5  1  0.298633  0.980884  0.682250  1
  Sc  Sc6  1  0.701367  0.383617  0.682250  1
  Sc  Sc7  1  0.701367  0.019116  0.317750  1
  Sc  Sc8  1  0.194582  0.225113  0.419694  1
  Sc  Sc9  1  0.805418  0.774887  0.580306  1
  Sc  Sc10  1  0.194582  0.774887  0.969467  1
  Sc  Sc11  1  0.805418  0.225113  0.030533  1
  Co  Co12  1  0.500000  0.620921  0.120921  1
  Co  Co13  1  0.500000  0.379079  0.879079  1
  Co  Co14  1  0.361170  0.000000  0.361170  1
  Co  Co15  1  0.638830  0.000000  0.638830  1
  Co  Co16  1  0.000000  0.000000  0.000000  1
  Si  Si17  1  0.000000  0.500000  0.500000  1
