# generated using pymatgen
data_Er8Cd2CoOs
_symmetry_space_group_name_H-M   'P 1'
_cell_length_a   9.59425761
_cell_length_b   9.48046471
_cell_length_c   9.48046358
_cell_angle_alpha   59.30536093
_cell_angle_beta   59.60214637
_cell_angle_gamma   59.60214206
_symmetry_Int_Tables_number   1
_chemical_formula_structural   Er8Cd2CoOs
_chemical_formula_sum   'Er16 Cd4 Co2 Os2'
_cell_volume   602.85536824
_cell_formula_units_Z   2
loop_
 _symmetry_equiv_pos_site_id
 _symmetry_equiv_pos_as_xyz
  1  'x, y, z'
loop_
 _atom_site_type_symbol
 _atom_site_label
 _atom_site_symmetry_multiplicity
 _atom_site_fract_x
 _atom_site_fract_y
 _atom_site_fract_z
 _atom_site_occupancy
  Er  Er0  1  0.939518  0.939751  0.555441  1
  Er  Er1  1  0.811909  0.188091  0.188091  1
  Er  Er2  1  0.936987  0.563013  0.563013  1
  Er  Er3  1  0.939518  0.555441  0.939751  1
  Er  Er4  1  0.815695  0.807020  0.186260  1
  Er  Er5  1  0.339079  0.349724  0.349724  1
  Er  Er6  1  0.556108  0.943892  0.943892  1
  Er  Er7  1  0.565290  0.939751  0.555441  1
  Er  Er8  1  0.190240  0.809760  0.809760  1
  Er  Er9  1  0.191026  0.186260  0.807020  1
  Er  Er10  1  0.342667  0.354253  0.960415  1
  Er  Er11  1  0.342667  0.960415  0.354253  1
  Er  Er12  1  0.815695  0.186260  0.807020  1
  Er  Er13  1  0.565290  0.555441  0.939751  1
  Er  Er14  1  0.191026  0.807020  0.186260  1
  Er  Er15  1  0.961474  0.349724  0.349724  1
  Cd  Cd16  1  0.581745  0.579641  0.256870  1
  Cd  Cd17  1  0.258080  0.580074  0.580074  1
  Cd  Cd18  1  0.581774  0.580074  0.580074  1
  Cd  Cd19  1  0.581745  0.256870  0.579641  1
  Co  Co20  1  0.137502  0.581267  0.143730  1
  Co  Co21  1  0.137502  0.143730  0.581267  1
  Os  Os22  1  0.577899  0.141267  0.141267  1
  Os  Os23  1  0.139570  0.141267  0.141267  1
