# generated using pymatgen
data_LaPrV2F14
_symmetry_space_group_name_H-M   'P 1'
_cell_length_a   5.67881900
_cell_length_b   9.17994236
_cell_length_c   12.20596600
_cell_angle_alpha   62.73489878
_cell_angle_beta   90.00000000
_cell_angle_gamma   90.00000000
_symmetry_Int_Tables_number   1
_chemical_formula_structural   LaPrV2F14
_chemical_formula_sum   'La2 Pr2 V4 F28'
_cell_volume   565.61549621
_cell_formula_units_Z   2
loop_
 _symmetry_equiv_pos_site_id
 _symmetry_equiv_pos_as_xyz
  1  'x, y, z'
loop_
 _atom_site_type_symbol
 _atom_site_label
 _atom_site_symmetry_multiplicity
 _atom_site_fract_x
 _atom_site_fract_y
 _atom_site_fract_z
 _atom_site_occupancy
  La  La0  1  0.241957  0.195141  0.731024  1
  La  La1  1  0.741957  0.804859  0.768976  1
  Pr  Pr2  1  0.758695  0.805796  0.268603  1
  Pr  Pr3  1  0.258695  0.194204  0.231397  1
  V  V4  1  0.246140  0.727850  0.541453  1
  V  V5  1  0.746140  0.272150  0.958547  1
  V  V6  1  0.754980  0.275504  0.453721  1
  V  V7  1  0.254980  0.724496  0.046279  1
  F  F8  1  0.971194  0.714297  0.456350  1
  F  F9  1  0.471194  0.285703  0.043650  1
  F  F10  1  0.029199  0.287566  0.539799  1
  F  F11  1  0.529199  0.712434  0.960201  1
  F  F12  1  0.058519  0.707728  0.927194  1
  F  F13  1  0.558519  0.292272  0.572806  1
  F  F14  1  0.943414  0.290911  0.076335  1
  F  F15  1  0.443414  0.709089  0.423665  1
  F  F16  1  0.736022  0.497239  0.867852  1
  F  F17  1  0.236022  0.502761  0.632148  1
  F  F18  1  0.263533  0.499268  0.136631  1
  F  F19  1  0.763533  0.500732  0.363369  1
  F  F20  1  0.740192  0.048440  0.046491  1
  F  F21  1  0.240192  0.951560  0.453509  1
  F  F22  1  0.258978  0.947918  0.957163  1
  F  F23  1  0.758978  0.052082  0.542837  1
  F  F24  1  0.050718  0.744317  0.662861  1
  F  F25  1  0.550718  0.255683  0.837139  1
  F  F26  1  0.951314  0.257597  0.333615  1
  F  F27  1  0.451314  0.742403  0.166385  1
  F  F28  1  0.014767  0.267852  0.867725  1
  F  F29  1  0.514767  0.732148  0.632275  1
  F  F30  1  0.986754  0.731140  0.136551  1
  F  F31  1  0.486754  0.268860  0.363449  1
  F  F32  1  0.085774  0.971178  0.229661  1
  F  F33  1  0.585774  0.028822  0.270339  1
  F  F34  1  0.907850  0.031437  0.771034  1
  F  F35  1  0.407850  0.968563  0.728966  1
