# generated using pymatgen
data_Ba2ScHgO3
_symmetry_space_group_name_H-M   'P 1'
_cell_length_a   4.19324700
_cell_length_b   4.19324700
_cell_length_c   16.44781400
_cell_angle_alpha   90.00000000
_cell_angle_beta   90.00000000
_cell_angle_gamma   90.00000000
_symmetry_Int_Tables_number   1
_chemical_formula_structural   Ba2ScHgO3
_chemical_formula_sum   'Ba4 Sc2 Hg2 O6'
_cell_volume   289.20718349
_cell_formula_units_Z   2
loop_
 _symmetry_equiv_pos_site_id
 _symmetry_equiv_pos_as_xyz
  1  'x, y, z'
loop_
 _atom_site_type_symbol
 _atom_site_label
 _atom_site_symmetry_multiplicity
 _atom_site_fract_x
 _atom_site_fract_y
 _atom_site_fract_z
 _atom_site_occupancy
  Ba  Ba0  1  0.000000  0.500000  0.676485  1
  Ba  Ba1  1  0.500000  0.000000  0.088681  1
  Ba  Ba2  1  0.500000  0.000000  0.323515  1
  Ba  Ba3  1  0.000000  0.500000  0.911319  1
  Sc  Sc4  1  0.000000  0.500000  0.195001  1
  Sc  Sc5  1  0.500000  0.000000  0.804999  1
  Hg  Hg6  1  0.000000  0.500000  0.454163  1
  Hg  Hg7  1  0.500000  0.000000  0.545837  1
  O  O8  1  0.000000  0.500000  0.074177  1
  O  O9  1  0.500000  0.500000  0.784474  1
  O  O10  1  0.000000  0.000000  0.784474  1
  O  O11  1  0.500000  0.500000  0.215526  1
  O  O12  1  0.000000  0.000000  0.215526  1
  O  O13  1  0.500000  0.000000  0.925823  1
