# generated using pymatgen
data_Nd4ThSi12Ir19
_symmetry_space_group_name_H-M   'P 1'
_cell_length_a   12.95213017
_cell_length_b   12.93411511
_cell_length_c   4.02672000
_cell_angle_alpha   90.00000000
_cell_angle_beta   90.00000000
_cell_angle_gamma   119.95400067
_symmetry_Int_Tables_number   1
_chemical_formula_structural   Nd4ThSi12Ir19
_chemical_formula_sum   'Nd4 Th1 Si12 Ir19'
_cell_volume   584.46849116
_cell_formula_units_Z   1
loop_
 _symmetry_equiv_pos_site_id
 _symmetry_equiv_pos_as_xyz
  1  'x, y, z'
loop_
 _atom_site_type_symbol
 _atom_site_label
 _atom_site_symmetry_multiplicity
 _atom_site_fract_x
 _atom_site_fract_y
 _atom_site_fract_z
 _atom_site_occupancy
  Nd  Nd0  1  0.186946  0.187599  0.500000  1
  Nd  Nd1  1  0.813054  0.000653  0.500000  1
  Nd  Nd2  1  0.333053  0.666574  0.000000  1
  Nd  Nd3  1  0.666947  0.333520  0.000000  1
  Th  Th4  1  0.000000  0.815329  0.500000  1
  Si  Si5  1  0.000000  0.182867  0.000000  1
  Si  Si6  1  0.814430  0.817151  0.000000  1
  Si  Si7  1  0.185570  0.002721  0.000000  1
  Si  Si8  1  0.520085  0.688437  0.500000  1
  Si  Si9  1  0.312056  0.831770  0.500000  1
  Si  Si10  1  0.168648  0.479614  0.500000  1
  Si  Si11  1  0.479915  0.168352  0.500000  1
  Si  Si12  1  0.687944  0.519714  0.500000  1
  Si  Si13  1  0.831352  0.310966  0.500000  1
  Si  Si14  1  0.000000  0.628135  0.000000  1
  Si  Si15  1  0.370599  0.370607  0.000000  1
  Si  Si16  1  0.629401  0.000008  0.000000  1
  Ir  Ir17  1  0.000000  0.284108  0.500000  1
  Ir  Ir18  1  0.715896  0.715302  0.500000  1
  Ir  Ir19  1  0.284104  0.999406  0.500000  1
  Ir  Ir20  1  0.621460  0.804212  0.000000  1
  Ir  Ir21  1  0.193376  0.817779  0.000000  1
  Ir  Ir22  1  0.182603  0.378030  0.000000  1
  Ir  Ir23  1  0.378540  0.182752  0.000000  1
  Ir  Ir24  1  0.806624  0.624402  0.000000  1
  Ir  Ir25  1  0.817397  0.195427  0.000000  1
  Ir  Ir26  1  0.512638  0.874489  0.500000  1
  Ir  Ir27  1  0.125415  0.638026  0.500000  1
  Ir  Ir28  1  0.362519  0.487441  0.500000  1
  Ir  Ir29  1  0.487362  0.361850  0.500000  1
  Ir  Ir30  1  0.874585  0.512610  0.500000  1
  Ir  Ir31  1  0.637481  0.124921  0.500000  1
  Ir  Ir32  1  0.000000  0.997346  0.000000  1
  Ir  Ir33  1  0.000000  0.446206  0.000000  1
  Ir  Ir34  1  0.553891  0.552784  0.000000  1
  Ir  Ir35  1  0.446109  0.998892  0.000000  1
