# generated using pymatgen
data_CF8
_symmetry_space_group_name_H-M   'P 1'
_cell_length_a   3.68669794
_cell_length_b   4.60809557
_cell_length_c   7.57982699
_cell_angle_alpha   95.00922729
_cell_angle_beta   94.65397699
_cell_angle_gamma   89.58929752
_symmetry_Int_Tables_number   1
_chemical_formula_structural   CF8
_chemical_formula_sum   'C1 F8'
_cell_volume   127.85630238
_cell_formula_units_Z   1
loop_
 _symmetry_equiv_pos_site_id
 _symmetry_equiv_pos_as_xyz
  1  'x, y, z'
loop_
 _atom_site_type_symbol
 _atom_site_label
 _atom_site_symmetry_multiplicity
 _atom_site_fract_x
 _atom_site_fract_y
 _atom_site_fract_z
 _atom_site_occupancy
  C  C0  1  0.819835  0.186118  0.220040  1
  F  F1  1  0.870759  0.780371  0.611519  1
  F  F2  1  0.243755  0.311434  0.818068  1
  F  F3  1  0.007441  0.373301  0.135799  1
  F  F4  1  0.042277  0.001111  0.303701  1
  F  F5  1  0.595990  0.029833  0.099866  1
  F  F6  1  0.633261  0.341352  0.340654  1
  F  F7  1  0.364526  0.285582  0.643660  1
  F  F8  1  0.778843  0.801164  0.790978  1
