# generated using pymatgen
data_NaTbDyGa8Ag3
_symmetry_space_group_name_H-M   'P 1'
_cell_length_a   4.36329446
_cell_length_b   8.40766088
_cell_length_c   8.40766135
_cell_angle_alpha   70.72770902
_cell_angle_beta   74.96059929
_cell_angle_gamma   74.96059307
_symmetry_Int_Tables_number   1
_chemical_formula_structural   NaTbDyGa8Ag3
_chemical_formula_sum   'Na1 Tb1 Dy1 Ga8 Ag3'
_cell_volume   276.01915670
_cell_formula_units_Z   1
loop_
 _symmetry_equiv_pos_site_id
 _symmetry_equiv_pos_as_xyz
  1  'x, y, z'
loop_
 _atom_site_type_symbol
 _atom_site_label
 _atom_site_symmetry_multiplicity
 _atom_site_fract_x
 _atom_site_fract_y
 _atom_site_fract_z
 _atom_site_occupancy
  Na  Na0  1  0.499992  0.500008  0.500008  1
  Tb  Tb1  1  0.795384  0.204616  0.204616  1
  Dy  Dy2  1  0.204579  0.795421  0.795421  1
  Ga  Ga3  1  0.641977  0.077178  0.638868  1
  Ga  Ga4  1  0.358040  0.922706  0.361212  1
  Ga  Ga5  1  0.641977  0.638868  0.077178  1
  Ga  Ga6  1  0.358040  0.361212  0.922706  1
  Ga  Ga7  1  0.838784  0.795186  0.527247  1
  Ga  Ga8  1  0.161149  0.204813  0.472889  1
  Ga  Ga9  1  0.838784  0.527247  0.795186  1
  Ga  Ga10  1  0.161149  0.472889  0.204813  1
  Ag  Ag11  1  0.500051  0.999949  0.999949  1
  Ag  Ag12  1  0.000047  0.809414  0.190492  1
  Ag  Ag13  1  0.000047  0.190492  0.809414  1
