# generated using pymatgen
data_SrSi2Ni9
_symmetry_space_group_name_H-M   'P 1'
_cell_length_a   7.63203539
_cell_length_b   7.63097028
_cell_length_c   7.63203633
_cell_angle_alpha   99.62463358
_cell_angle_beta   99.62335239
_cell_angle_gamma   131.74012443
_symmetry_Int_Tables_number   1
_chemical_formula_structural   SrSi2Ni9
_chemical_formula_sum   'Sr2 Si4 Ni18'
_cell_volume   302.66316859
_cell_formula_units_Z   2
loop_
 _symmetry_equiv_pos_site_id
 _symmetry_equiv_pos_as_xyz
  1  'x, y, z'
loop_
 _atom_site_type_symbol
 _atom_site_label
 _atom_site_symmetry_multiplicity
 _atom_site_fract_x
 _atom_site_fract_y
 _atom_site_fract_z
 _atom_site_occupancy
  Sr  Sr0  1  0.250021  0.750121  0.500101  1
  Sr  Sr1  1  0.000009  0.999902  0.999893  1
  Si  Si2  1  0.125060  0.375310  0.749645  1
  Si  Si3  1  0.624726  0.875052  0.250327  1
  Si  Si4  1  0.624529  0.374252  0.749723  1
  Si  Si5  1  0.625665  0.375310  0.250250  1
  Ni  Ni6  1  0.749997  0.249995  0.499998  1
  Ni  Ni7  1  0.500001  0.499972  0.999971  1
  Ni  Ni8  1  0.189095  0.517784  0.078339  1
  Ni  Ni9  1  0.189107  0.110726  0.671410  1
  Ni  Ni10  1  0.767983  0.938888  0.578595  1
  Ni  Ni11  1  0.767904  0.189348  0.829088  1
  Ni  Ni12  1  0.439446  0.517784  0.328690  1
  Ni  Ni13  1  0.439316  0.110726  0.921619  1
  Ni  Ni14  1  0.360293  0.938888  0.170904  1
  Ni  Ni15  1  0.360260  0.189348  0.421443  1
  Ni  Ni16  1  0.061148  0.232050  0.421422  1
  Ni  Ni17  1  0.061149  0.639713  0.829102  1
  Ni  Ni18  1  0.482304  0.810952  0.921645  1
  Ni  Ni19  1  0.482227  0.560582  0.671365  1
  Ni  Ni20  1  0.810627  0.232050  0.170900  1
  Ni  Ni21  1  0.810610  0.639713  0.578564  1
  Ni  Ni22  1  0.889307  0.810952  0.328649  1
  Ni  Ni23  1  0.889217  0.560582  0.078357  1
