# generated using pymatgen
data_Cs5Ga3Se5S2
_symmetry_space_group_name_H-M   'P 1'
_cell_length_a   11.27352303
_cell_length_b   11.27352381
_cell_length_c   9.71379841
_cell_angle_alpha   75.96961412
_cell_angle_beta   75.96961337
_cell_angle_gamma   71.62581092
_symmetry_Int_Tables_number   1
_chemical_formula_structural   Cs5Ga3Se5S2
_chemical_formula_sum   'Cs10 Ga6 Se10 S4'
_cell_volume   1118.02671588
_cell_formula_units_Z   2
loop_
 _symmetry_equiv_pos_site_id
 _symmetry_equiv_pos_as_xyz
  1  'x, y, z'
loop_
 _atom_site_type_symbol
 _atom_site_label
 _atom_site_symmetry_multiplicity
 _atom_site_fract_x
 _atom_site_fract_y
 _atom_site_fract_z
 _atom_site_occupancy
  Cs  Cs0  1  0.024868  0.439240  0.723305  1
  Cs  Cs1  1  0.439240  0.024868  0.723305  1
  Cs  Cs2  1  0.975132  0.560760  0.276695  1
  Cs  Cs3  1  0.560760  0.975132  0.276695  1
  Cs  Cs4  1  0.284980  0.715020  0.000000  1
  Cs  Cs5  1  0.715020  0.284980  0.000000  1
  Cs  Cs6  1  0.848422  0.151578  0.500000  1
  Cs  Cs7  1  0.151578  0.848422  0.500000  1
  Cs  Cs8  1  0.426296  0.426296  0.691448  1
  Cs  Cs9  1  0.573704  0.573704  0.308552  1
  Ga  Ga10  1  0.210499  0.210499  0.179689  1
  Ga  Ga11  1  0.789501  0.789501  0.820311  1
  Ga  Ga12  1  0.073460  0.073460  0.058940  1
  Ga  Ga13  1  0.926540  0.926540  0.941060  1
  Ga  Ga14  1  0.346630  0.346630  0.335010  1
  Ga  Ga15  1  0.653370  0.653370  0.664990  1
  Se  Se16  1  0.202930  0.202930  0.433038  1
  Se  Se17  1  0.797070  0.797070  0.566962  1
  Se  Se18  1  0.064267  0.064267  0.812132  1
  Se  Se19  1  0.935733  0.935733  0.187868  1
  Se  Se20  1  0.349240  0.349240  0.073170  1
  Se  Se21  1  0.650760  0.650760  0.926830  1
  Se  Se22  1  0.249958  0.553919  0.395147  1
  Se  Se23  1  0.553919  0.249958  0.395147  1
  Se  Se24  1  0.750042  0.446081  0.604853  1
  Se  Se25  1  0.446081  0.750042  0.604853  1
  S  S26  1  0.010368  0.275647  0.113532  1
  S  S27  1  0.275647  0.010368  0.113532  1
  S  S28  1  0.989632  0.724353  0.886468  1
  S  S29  1  0.724353  0.989632  0.886468  1
