# generated using pymatgen
data_HoLu3MnB12Ru
_symmetry_space_group_name_H-M   'P 1'
_cell_length_a   3.55587000
_cell_length_b   9.02002922
_cell_length_c   11.39456406
_cell_angle_alpha   89.99302661
_cell_angle_beta   90.00000000
_cell_angle_gamma   90.00000000
_symmetry_Int_Tables_number   1
_chemical_formula_structural   HoLu3MnB12Ru
_chemical_formula_sum   'Ho2 Lu6 Mn2 B24 Ru2'
_cell_volume   365.46982932
_cell_formula_units_Z   2
loop_
 _symmetry_equiv_pos_site_id
 _symmetry_equiv_pos_as_xyz
  1  'x, y, z'
loop_
 _atom_site_type_symbol
 _atom_site_label
 _atom_site_symmetry_multiplicity
 _atom_site_fract_x
 _atom_site_fract_y
 _atom_site_fract_z
 _atom_site_occupancy
  Ho  Ho0  1  0.000000  0.325990  0.416142  1
  Ho  Ho1  1  0.000000  0.674010  0.583858  1
  Lu  Lu2  1  0.000000  0.819740  0.087591  1
  Lu  Lu3  1  0.000000  0.180260  0.912409  1
  Lu  Lu4  1  0.000000  0.940046  0.370632  1
  Lu  Lu5  1  0.000000  0.059954  0.629368  1
  Lu  Lu6  1  0.000000  0.445388  0.130835  1
  Lu  Lu7  1  0.000000  0.554612  0.869165  1
  Mn  Mn8  1  0.000000  0.638674  0.319539  1
  Mn  Mn9  1  0.000000  0.361326  0.680461  1
  B  B10  1  0.500000  0.554327  0.431883  1
  B  B11  1  0.500000  0.445673  0.568117  1
  B  B12  1  0.500000  0.053221  0.066187  1
  B  B13  1  0.500000  0.946779  0.933813  1
  B  B14  1  0.500000  0.747513  0.417243  1
  B  B15  1  0.500000  0.252487  0.582757  1
  B  B16  1  0.500000  0.249832  0.080253  1
  B  B17  1  0.500000  0.750168  0.919747  1
  B  B18  1  0.500000  0.790384  0.265024  1
  B  B19  1  0.500000  0.209616  0.734976  1
  B  B20  1  0.500000  0.292262  0.234869  1
  B  B21  1  0.500000  0.707738  0.765131  1
  B  B22  1  0.500000  0.631260  0.185585  1
  B  B23  1  0.500000  0.368740  0.814415  1
  B  B24  1  0.500000  0.130156  0.315221  1
  B  B25  1  0.500000  0.869844  0.684779  1
  B  B26  1  0.500000  0.980667  0.212249  1
  B  B27  1  0.500000  0.019333  0.787751  1
  B  B28  1  0.500000  0.484863  0.287937  1
  B  B29  1  0.500000  0.515137  0.712063  1
  B  B30  1  0.500000  0.603039  0.028464  1
  B  B31  1  0.500000  0.396961  0.971536  1
  B  B32  1  0.500000  0.101630  0.472035  1
  B  B33  1  0.500000  0.898370  0.527965  1
  Ru  Ru34  1  0.000000  0.137823  0.178885  1
  Ru  Ru35  1  0.000000  0.862177  0.821115  1
