# generated using pymatgen
data_Ba4Pr7SmSe16
_symmetry_space_group_name_H-M   'P 1'
_cell_length_a   4.37272100
_cell_length_b   13.07378308
_cell_length_c   15.68394219
_cell_angle_alpha   89.84505108
_cell_angle_beta   90.00000000
_cell_angle_gamma   90.00000000
_symmetry_Int_Tables_number   1
_chemical_formula_structural   Ba4Pr7SmSe16
_chemical_formula_sum   'Ba4 Pr7 Sm1 Se16'
_cell_volume   896.61641944
_cell_formula_units_Z   1
loop_
 _symmetry_equiv_pos_site_id
 _symmetry_equiv_pos_as_xyz
  1  'x, y, z'
loop_
 _atom_site_type_symbol
 _atom_site_label
 _atom_site_symmetry_multiplicity
 _atom_site_fract_x
 _atom_site_fract_y
 _atom_site_fract_z
 _atom_site_occupancy
  Ba  Ba0  1  0.250000  0.756694  0.339313  1
  Ba  Ba1  1  0.250000  0.256812  0.163132  1
  Ba  Ba2  1  0.750000  0.241443  0.659137  1
  Ba  Ba3  1  0.750000  0.743431  0.838251  1
  Pr  Pr4  1  0.250000  0.426588  0.392595  1
  Pr  Pr5  1  0.250000  0.929423  0.109891  1
  Pr  Pr6  1  0.750000  0.571681  0.608515  1
  Pr  Pr7  1  0.750000  0.072380  0.891835  1
  Pr  Pr8  1  0.250000  0.419791  0.898322  1
  Pr  Pr9  1  0.250000  0.922238  0.600324  1
  Pr  Pr10  1  0.750000  0.579095  0.102282  1
  Sm  Sm11  1  0.750000  0.078629  0.397161  1
  Se  Se12  1  0.250000  0.207769  0.822361  1
  Se  Se13  1  0.250000  0.708896  0.674795  1
  Se  Se14  1  0.750000  0.791897  0.177266  1
  Se  Se15  1  0.750000  0.289350  0.326179  1
  Se  Se16  1  0.250000  0.131791  0.519975  1
  Se  Se17  1  0.250000  0.631288  0.975247  1
  Se  Se18  1  0.750000  0.871256  0.473470  1
  Se  Se19  1  0.750000  0.368156  0.025318  1
  Se  Se20  1  0.250000  0.521058  0.217862  1
  Se  Se21  1  0.250000  0.024145  0.284824  1
  Se  Se22  1  0.750000  0.477362  0.782568  1
  Se  Se23  1  0.750000  0.978405  0.716772  1
  Se  Se24  1  0.250000  0.416983  0.580532  1
  Se  Se25  1  0.250000  0.917854  0.921379  1
  Se  Se26  1  0.750000  0.581820  0.420234  1
  Se  Se27  1  0.750000  0.083766  0.080461  1
