# generated using pymatgen
data_CsAs2PdRu
_symmetry_space_group_name_H-M   'P 1'
_cell_length_a   8.05066300
_cell_length_b   8.05066250
_cell_length_c   8.05066267
_cell_angle_alpha   150.56093661
_cell_angle_beta   150.56092960
_cell_angle_gamma   42.11862944
_symmetry_Int_Tables_number   1
_chemical_formula_structural   CsAs2PdRu
_chemical_formula_sum   'Cs1 As2 Pd1 Ru1'
_cell_volume   125.74798595
_cell_formula_units_Z   1
loop_
 _symmetry_equiv_pos_site_id
 _symmetry_equiv_pos_as_xyz
  1  'x, y, z'
loop_
 _atom_site_type_symbol
 _atom_site_label
 _atom_site_symmetry_multiplicity
 _atom_site_fract_x
 _atom_site_fract_y
 _atom_site_fract_z
 _atom_site_occupancy
  Cs  Cs0  1  0.000000  0.000000  0.000000  1
  As  As1  1  0.342637  0.342637  0.000000  1
  As  As2  1  0.657363  0.657363  0.000000  1
  Pd  Pd3  1  0.750000  0.250000  0.500000  1
  Ru  Ru4  1  0.250000  0.750000  0.500000  1
