# generated using pymatgen
data_ThU5(Ni3Sn4)2
_symmetry_space_group_name_H-M   'P 1'
_cell_length_a   8.15026297
_cell_length_b   8.15026380
_cell_length_c   8.15026313
_cell_angle_alpha   109.48150696
_cell_angle_beta   109.48150990
_cell_angle_gamma   109.45063968
_symmetry_Int_Tables_number   1
_chemical_formula_structural   ThU5(Ni3Sn4)2
_chemical_formula_sum   'Th1 U5 Ni6 Sn8'
_cell_volume   416.76671278
_cell_formula_units_Z   1
loop_
 _symmetry_equiv_pos_site_id
 _symmetry_equiv_pos_as_xyz
  1  'x, y, z'
loop_
 _atom_site_type_symbol
 _atom_site_label
 _atom_site_symmetry_multiplicity
 _atom_site_fract_x
 _atom_site_fract_y
 _atom_site_fract_z
 _atom_site_occupancy
  Th  Th0  1  0.875000  0.125000  0.750000  1
  U  U1  1  0.122270  0.748779  0.874442  1
  U  U2  1  0.374337  0.247827  0.625558  1
  U  U3  1  0.625000  0.375000  0.250000  1
  U  U4  1  0.251221  0.625663  0.373491  1
  U  U5  1  0.752173  0.877730  0.126509  1
  Ni  Ni6  1  0.873373  0.253497  0.132434  1
  Ni  Ni7  1  0.746503  0.378937  0.619876  1
  Ni  Ni8  1  0.259061  0.126627  0.880124  1
  Ni  Ni9  1  0.621063  0.740939  0.367566  1
  Ni  Ni10  1  0.125000  0.875000  0.250000  1
  Ni  Ni11  1  0.375000  0.625000  0.750000  1
  Sn  Sn12  1  0.497054  0.997491  0.834228  1
  Sn  Sn13  1  0.170213  0.168767  0.171464  1
  Sn  Sn14  1  0.497304  0.998750  0.328536  1
  Sn  Sn15  1  0.831233  0.502696  0.001446  1
  Sn  Sn16  1  0.002509  0.336736  0.499563  1
  Sn  Sn17  1  0.337173  0.502946  0.000437  1
  Sn  Sn18  1  0.001250  0.829787  0.498554  1
  Sn  Sn19  1  0.663264  0.662827  0.665772  1
