# generated using pymatgen
data_Ac4Cu3Sb8
_symmetry_space_group_name_H-M   'P 1'
_cell_length_a   11.42395456
_cell_length_b   11.42395431
_cell_length_c   11.42395525
_cell_angle_alpha   147.46091786
_cell_angle_beta   147.46091853
_cell_angle_gamma   46.68180148
_symmetry_Int_Tables_number   1
_chemical_formula_structural   Ac4Cu3Sb8
_chemical_formula_sum   'Ac4 Cu3 Sb8'
_cell_volume   429.76470354
_cell_formula_units_Z   1
loop_
 _symmetry_equiv_pos_site_id
 _symmetry_equiv_pos_as_xyz
  1  'x, y, z'
loop_
 _atom_site_type_symbol
 _atom_site_label
 _atom_site_symmetry_multiplicity
 _atom_site_fract_x
 _atom_site_fract_y
 _atom_site_fract_z
 _atom_site_occupancy
  Ac  Ac0  1  0.632022  0.632022  0.500646  1
  Ac  Ac1  1  0.131375  0.131375  0.499354  1
  Ac  Ac2  1  0.367978  0.868625  0.000000  1
  Ac  Ac3  1  0.868625  0.367978  0.000000  1
  Cu  Cu4  1  0.000000  0.000000  0.000000  1
  Cu  Cu5  1  0.000000  0.500000  0.500000  1
  Cu  Cu6  1  0.500000  0.000000  0.500000  1
  Sb  Sb7  1  0.318392  0.318392  0.504749  1
  Sb  Sb8  1  0.813643  0.813643  0.495251  1
  Sb  Sb9  1  0.681608  0.186357  0.000000  1
  Sb  Sb10  1  0.186357  0.681608  0.000000  1
  Sb  Sb11  1  0.249892  0.249892  0.000000  1
  Sb  Sb12  1  0.750108  0.750108  0.000000  1
  Sb  Sb13  1  0.750000  0.250000  0.500000  1
  Sb  Sb14  1  0.250000  0.750000  0.500000  1
