# generated using pymatgen
data_Er2HfB2Ir2Ru3
_symmetry_space_group_name_H-M   'P 1'
_cell_length_a   9.74192468
_cell_length_b   9.74457571
_cell_length_c   3.14814600
_cell_angle_alpha   90.00000000
_cell_angle_beta   90.00000000
_cell_angle_gamma   89.95681322
_symmetry_Int_Tables_number   1
_chemical_formula_structural   Er2HfB2Ir2Ru3
_chemical_formula_sum   'Er4 Hf2 B4 Ir4 Ru6'
_cell_volume   298.85631920
_cell_formula_units_Z   2
loop_
 _symmetry_equiv_pos_site_id
 _symmetry_equiv_pos_as_xyz
  1  'x, y, z'
loop_
 _atom_site_type_symbol
 _atom_site_label
 _atom_site_symmetry_multiplicity
 _atom_site_fract_x
 _atom_site_fract_y
 _atom_site_fract_z
 _atom_site_occupancy
  Er  Er0  1  0.174828  0.678180  0.000000  1
  Er  Er1  1  0.327483  0.171690  0.000000  1
  Er  Er2  1  0.822978  0.325672  0.000000  1
  Er  Er3  1  0.675387  0.824465  0.000000  1
  Hf  Hf4  1  0.499231  0.501110  0.000000  1
  Hf  Hf5  1  0.002318  0.995538  0.000000  1
  B  B6  1  0.378895  0.878445  0.000000  1
  B  B7  1  0.116546  0.381644  0.000000  1
  B  B8  1  0.883277  0.624052  0.000000  1
  B  B9  1  0.616395  0.122853  0.000000  1
  Ir  Ir10  1  0.722906  0.570054  0.500000  1
  Ir  Ir11  1  0.276333  0.427037  0.500000  1
  Ir  Ir12  1  0.070682  0.221771  0.500000  1
  Ir  Ir13  1  0.778085  0.071845  0.500000  1
  Ru  Ru14  1  0.223534  0.929804  0.500000  1
  Ru  Ru15  1  0.928337  0.777046  0.500000  1
  Ru  Ru16  1  0.429469  0.722124  0.500000  1
  Ru  Ru17  1  0.570498  0.278424  0.500000  1
  Ru  Ru18  1  0.000148  0.499448  0.500000  1
  Ru  Ru19  1  0.502669  0.998798  0.500000  1
