# generated using pymatgen
data_Ta2Ti2Nb2C5
_symmetry_space_group_name_H-M   'P 1'
_cell_length_a   5.45005649
_cell_length_b   5.45005782
_cell_length_c   5.44606977
_cell_angle_alpha   80.30016279
_cell_angle_beta   80.30015993
_cell_angle_gamma   120.04506836
_symmetry_Int_Tables_number   1
_chemical_formula_structural   Ta2Ti2Nb2C5
_chemical_formula_sum   'Ta2 Ti2 Nb2 C5'
_cell_volume   131.82794587
_cell_formula_units_Z   1
loop_
 _symmetry_equiv_pos_site_id
 _symmetry_equiv_pos_as_xyz
  1  'x, y, z'
loop_
 _atom_site_type_symbol
 _atom_site_label
 _atom_site_symmetry_multiplicity
 _atom_site_fract_x
 _atom_site_fract_y
 _atom_site_fract_z
 _atom_site_occupancy
  Ta  Ta0  1  0.733242  0.735908  0.733603  1
  Ta  Ta1  1  0.264092  0.266758  0.266397  1
  Ti  Ti2  1  0.082937  0.440569  0.746402  1
  Ti  Ti3  1  0.559431  0.917063  0.253598  1
  Nb  Nb4  1  0.918108  0.562809  0.250876  1
  Nb  Nb5  1  0.437191  0.081892  0.749124  1
  C  C6  1  0.494950  0.505050  0.500000  1
  C  C7  1  0.668541  0.331459  0.000000  1
  C  C8  1  0.336930  0.663070  0.000000  1
  C  C9  1  0.835796  0.164204  0.500000  1
  C  C10  1  0.168782  0.831218  0.500000  1
