# generated using pymatgen
data_Sc2Fe3(TcB2)2
_symmetry_space_group_name_H-M   'P 1'
_cell_length_a   2.96766400
_cell_length_b   8.32021738
_cell_length_c   9.48289432
_cell_angle_alpha   89.96792348
_cell_angle_beta   90.00000000
_cell_angle_gamma   90.00000000
_symmetry_Int_Tables_number   1
_chemical_formula_structural   Sc2Fe3(TcB2)2
_chemical_formula_sum   'Sc4 Fe6 Tc4 B8'
_cell_volume   234.14788750
_cell_formula_units_Z   2
loop_
 _symmetry_equiv_pos_site_id
 _symmetry_equiv_pos_as_xyz
  1  'x, y, z'
loop_
 _atom_site_type_symbol
 _atom_site_label
 _atom_site_symmetry_multiplicity
 _atom_site_fract_x
 _atom_site_fract_y
 _atom_site_fract_z
 _atom_site_occupancy
  Sc  Sc0  1  0.500000  0.838399  0.181549  1
  Sc  Sc1  1  0.500000  0.161601  0.818451  1
  Sc  Sc2  1  0.500000  0.661562  0.681608  1
  Sc  Sc3  1  0.500000  0.338438  0.318392  1
  Fe  Fe4  1  0.000000  0.000000  0.000000  1
  Fe  Fe5  1  0.000000  0.409133  0.756111  1
  Fe  Fe6  1  0.000000  0.590867  0.243889  1
  Fe  Fe7  1  0.000000  0.500000  0.500000  1
  Fe  Fe8  1  0.000000  0.909066  0.743891  1
  Fe  Fe9  1  0.000000  0.090934  0.256109  1
  Tc  Tc10  1  0.000000  0.664043  0.953805  1
  Tc  Tc11  1  0.000000  0.335957  0.046195  1
  Tc  Tc12  1  0.000000  0.835972  0.453814  1
  Tc  Tc13  1  0.000000  0.164028  0.546186  1
  B  B14  1  0.500000  0.965312  0.594764  1
  B  B15  1  0.500000  0.034688  0.405236  1
  B  B16  1  0.500000  0.860559  0.899739  1
  B  B17  1  0.500000  0.139441  0.100261  1
  B  B18  1  0.500000  0.639357  0.399751  1
  B  B19  1  0.500000  0.360643  0.600249  1
  B  B20  1  0.500000  0.465357  0.905313  1
  B  B21  1  0.500000  0.534643  0.094687  1
