# generated using pymatgen
data_YHoB6MoW
_symmetry_space_group_name_H-M   'P 1'
_cell_length_a   3.16911500
_cell_length_b   5.44930336
_cell_length_c   6.83999153
_cell_angle_alpha   77.97959887
_cell_angle_beta   90.00000000
_cell_angle_gamma   90.00000000
_symmetry_Int_Tables_number   1
_chemical_formula_structural   YHoB6MoW
_chemical_formula_sum   'Y1 Ho1 B6 Mo1 W1'
_cell_volume   115.53299827
_cell_formula_units_Z   1
loop_
 _symmetry_equiv_pos_site_id
 _symmetry_equiv_pos_as_xyz
  1  'x, y, z'
loop_
 _atom_site_type_symbol
 _atom_site_label
 _atom_site_symmetry_multiplicity
 _atom_site_fract_x
 _atom_site_fract_y
 _atom_site_fract_z
 _atom_site_occupancy
  Y  Y0  1  0.250000  0.324668  0.707844  1
  Ho  Ho1  1  0.750000  0.676382  0.290345  1
  B  B2  1  0.250000  0.918197  0.523788  1
  B  B3  1  0.750000  0.081086  0.474432  1
  B  B4  1  0.250000  0.912355  0.005357  1
  B  B5  1  0.750000  0.086820  0.996455  1
  B  B6  1  0.250000  0.583447  0.007535  1
  B  B7  1  0.750000  0.416806  0.993961  1
  Mo  Mo8  1  0.750000  0.811667  0.780580  1
  W  W9  1  0.250000  0.188571  0.219704  1
