# generated using pymatgen
data_Dy3Er3(SbO7)2
_symmetry_space_group_name_H-M   'P 1'
_cell_length_a   6.45204787
_cell_length_b   6.44426631
_cell_length_c   7.48222205
_cell_angle_alpha   90.00167757
_cell_angle_beta   90.01162893
_cell_angle_gamma   109.18114053
_symmetry_Int_Tables_number   1
_chemical_formula_structural   Dy3Er3(SbO7)2
_chemical_formula_sum   'Dy3 Er3 Sb2 O14'
_cell_volume   293.83025272
_cell_formula_units_Z   1
loop_
 _symmetry_equiv_pos_site_id
 _symmetry_equiv_pos_as_xyz
  1  'x, y, z'
loop_
 _atom_site_type_symbol
 _atom_site_label
 _atom_site_symmetry_multiplicity
 _atom_site_fract_x
 _atom_site_fract_y
 _atom_site_fract_z
 _atom_site_occupancy
  Dy  Dy0  1  0.468223  0.999891  0.252340  1
  Dy  Dy1  1  0.512066  0.512055  0.500449  1
  Dy  Dy2  1  0.489675  0.490533  0.999715  1
  Er  Er3  1  0.999487  0.468152  0.747620  1
  Er  Er4  1  0.000923  0.531692  0.247606  1
  Er  Er5  1  0.531554  0.001035  0.752341  1
  Sb  Sb6  1  0.999760  0.999676  0.500562  1
  Sb  Sb7  1  0.000160  0.999961  0.999455  1
  O  O8  1  0.639728  0.361213  0.749959  1
  O  O9  1  0.360481  0.636711  0.250161  1
  O  O10  1  0.928349  0.072653  0.750035  1
  O  O11  1  0.070150  0.927760  0.250050  1
  O  O12  1  0.924843  0.674972  0.528706  1
  O  O13  1  0.075176  0.324514  0.028619  1
  O  O14  1  0.324644  0.077404  0.970451  1
  O  O15  1  0.674541  0.921221  0.473509  1
  O  O16  1  0.368181  0.631498  0.749970  1
  O  O17  1  0.633241  0.371691  0.249745  1
  O  O18  1  0.935430  0.679551  0.966966  1
  O  O19  1  0.064381  0.319753  0.467000  1
  O  O20  1  0.320114  0.067230  0.533982  1
  O  O21  1  0.678893  0.930832  0.030759  1
