# generated using pymatgen
data_Sc20Si9SbAs2
_symmetry_space_group_name_H-M   'P 1'
_cell_length_a   5.81832000
_cell_length_b   7.93137502
_cell_length_c   13.78629331
_cell_angle_alpha   89.96311809
_cell_angle_beta   90.00000000
_cell_angle_gamma   90.00000000
_symmetry_Int_Tables_number   1
_chemical_formula_structural   Sc20Si9SbAs2
_chemical_formula_sum   'Sc20 Si9 Sb1 As2'
_cell_volume   636.19977644
_cell_formula_units_Z   1
loop_
 _symmetry_equiv_pos_site_id
 _symmetry_equiv_pos_as_xyz
  1  'x, y, z'
loop_
 _atom_site_type_symbol
 _atom_site_label
 _atom_site_symmetry_multiplicity
 _atom_site_fract_x
 _atom_site_fract_y
 _atom_site_fract_z
 _atom_site_occupancy
  Sc  Sc0  1  0.744956  0.007056  0.338018  1
  Sc  Sc1  1  0.748643  0.500533  0.830781  1
  Sc  Sc2  1  0.744799  0.489933  0.167073  1
  Sc  Sc3  1  0.748745  0.001699  0.667560  1
  Sc  Sc4  1  0.255201  0.489933  0.167073  1
  Sc  Sc5  1  0.251255  0.001699  0.667560  1
  Sc  Sc6  1  0.255044  0.007056  0.338018  1
  Sc  Sc7  1  0.251357  0.500533  0.830781  1
  Sc  Sc8  1  0.000000  0.259967  0.501286  1
  Sc  Sc9  1  0.000000  0.757925  0.991787  1
  Sc  Sc10  1  0.000000  0.614898  0.383211  1
  Sc  Sc11  1  0.000000  0.119427  0.876305  1
  Sc  Sc12  1  0.000000  0.131727  0.120577  1
  Sc  Sc13  1  0.000000  0.618914  0.622473  1
  Sc  Sc14  1  0.500000  0.743387  0.500128  1
  Sc  Sc15  1  0.500000  0.242309  0.999461  1
  Sc  Sc16  1  0.500000  0.878279  0.119572  1
  Sc  Sc17  1  0.500000  0.380209  0.621465  1
  Sc  Sc18  1  0.500000  0.378858  0.379206  1
  Sc  Sc19  1  0.500000  0.878190  0.877780  1
  Si  Si20  1  0.000000  0.303495  0.697264  1
  Si  Si21  1  0.000000  0.303062  0.303923  1
  Si  Si22  1  0.000000  0.803601  0.800463  1
  Si  Si23  1  0.500000  0.607614  0.999505  1
  Si  Si24  1  0.500000  0.109916  0.502141  1
  Si  Si25  1  0.500000  0.695687  0.304718  1
  Si  Si26  1  0.500000  0.197136  0.803685  1
  Si  Si27  1  0.500000  0.192719  0.196620  1
  Si  Si28  1  0.500000  0.697613  0.695863  1
  Sb  Sb29  1  0.000000  0.803918  0.196323  1
  As  As30  1  0.000000  0.889925  0.501350  1
  As  As31  1  0.000000  0.392710  0.998017  1
