# generated using pymatgen
data_Y3Mg5(B6Ru)4
_symmetry_space_group_name_H-M   'P 1'
_cell_length_a   3.54669300
_cell_length_b   8.89833688
_cell_length_c   11.22192385
_cell_angle_alpha   89.90643842
_cell_angle_beta   90.00000000
_cell_angle_gamma   90.00000000
_symmetry_Int_Tables_number   1
_chemical_formula_structural   Y3Mg5(B6Ru)4
_chemical_formula_sum   'Y3 Mg5 B24 Ru4'
_cell_volume   354.15973146
_cell_formula_units_Z   1
loop_
 _symmetry_equiv_pos_site_id
 _symmetry_equiv_pos_as_xyz
  1  'x, y, z'
loop_
 _atom_site_type_symbol
 _atom_site_label
 _atom_site_symmetry_multiplicity
 _atom_site_fract_x
 _atom_site_fract_y
 _atom_site_fract_z
 _atom_site_occupancy
  Y  Y0  1  0.000000  0.321724  0.414646  1
  Y  Y1  1  0.000000  0.677038  0.587091  1
  Y  Y2  1  0.000000  0.822807  0.084208  1
  Mg  Mg3  1  0.000000  0.171796  0.913331  1
  Mg  Mg4  1  0.000000  0.944894  0.369929  1
  Mg  Mg5  1  0.000000  0.057410  0.630707  1
  Mg  Mg6  1  0.000000  0.443886  0.127321  1
  Mg  Mg7  1  0.000000  0.556928  0.872311  1
  B  B8  1  0.500000  0.555205  0.432457  1
  B  B9  1  0.500000  0.443350  0.568727  1
  B  B10  1  0.500000  0.055469  0.064828  1
  B  B11  1  0.500000  0.945498  0.932493  1
  B  B12  1  0.500000  0.755910  0.417760  1
  B  B13  1  0.500000  0.244022  0.584421  1
  B  B14  1  0.500000  0.256102  0.078165  1
  B  B15  1  0.500000  0.745084  0.917166  1
  B  B16  1  0.500000  0.794418  0.262458  1
  B  B17  1  0.500000  0.204492  0.739664  1
  B  B18  1  0.500000  0.293818  0.235861  1
  B  B19  1  0.500000  0.705948  0.763465  1
  B  B20  1  0.500000  0.628016  0.181800  1
  B  B21  1  0.500000  0.369497  0.821351  1
  B  B22  1  0.500000  0.128269  0.316806  1
  B  B23  1  0.500000  0.872579  0.682694  1
  B  B24  1  0.500000  0.981984  0.211895  1
  B  B25  1  0.500000  0.021721  0.788801  1
  B  B26  1  0.500000  0.480778  0.286008  1
  B  B27  1  0.500000  0.518645  0.714266  1
  B  B28  1  0.500000  0.592298  0.024739  1
  B  B29  1  0.500000  0.406473  0.974606  1
  B  B30  1  0.500000  0.092674  0.474985  1
  B  B31  1  0.500000  0.907468  0.525574  1
  Ru  Ru32  1  0.000000  0.641135  0.318368  1
  Ru  Ru33  1  0.000000  0.359592  0.685668  1
  Ru  Ru34  1  0.000000  0.142154  0.177653  1
  Ru  Ru35  1  0.000000  0.860919  0.817776  1
