# generated using pymatgen
data_Mg2ScMn3(B2Rh5)2
_symmetry_space_group_name_H-M   'P 1'
_cell_length_a   9.42791194
_cell_length_b   9.41243432
_cell_length_c   2.97291800
_cell_angle_alpha   90.00000000
_cell_angle_beta   90.00000000
_cell_angle_gamma   90.77415956
_symmetry_Int_Tables_number   1
_chemical_formula_structural   Mg2ScMn3(B2Rh5)2
_chemical_formula_sum   'Mg2 Sc1 Mn3 B4 Rh10'
_cell_volume   263.79147855
_cell_formula_units_Z   1
loop_
 _symmetry_equiv_pos_site_id
 _symmetry_equiv_pos_as_xyz
  1  'x, y, z'
loop_
 _atom_site_type_symbol
 _atom_site_label
 _atom_site_symmetry_multiplicity
 _atom_site_fract_x
 _atom_site_fract_y
 _atom_site_fract_z
 _atom_site_occupancy
  Mg  Mg0  1  0.323909  0.823105  0.000000  1
  Mg  Mg1  1  0.820775  0.679316  0.000000  1
  Sc  Sc2  1  0.175588  0.323918  0.000000  1
  Mn  Mn3  1  0.676570  0.176199  0.000000  1
  Mn  Mn4  1  0.001948  0.997261  0.000000  1
  Mn  Mn5  1  0.501167  0.502176  0.000000  1
  B  B6  1  0.124935  0.624546  0.000000  1
  B  B7  1  0.871286  0.369932  0.000000  1
  B  B8  1  0.627462  0.875352  0.000000  1
  B  B9  1  0.378309  0.125183  0.000000  1
  Rh  Rh10  1  0.502373  0.002959  0.500000  1
  Rh  Rh11  1  0.997022  0.499557  0.500000  1
  Rh  Rh12  1  0.219070  0.072810  0.500000  1
  Rh  Rh13  1  0.781976  0.935951  0.500000  1
  Rh  Rh14  1  0.070985  0.780968  0.500000  1
  Rh  Rh15  1  0.715600  0.424038  0.500000  1
  Rh  Rh16  1  0.927810  0.215611  0.500000  1
  Rh  Rh17  1  0.281044  0.568435  0.500000  1
  Rh  Rh18  1  0.570134  0.719839  0.500000  1
  Rh  Rh19  1  0.432040  0.282845  0.500000  1
