# generated using pymatgen
data_Y2Al6(SiRu)3
_symmetry_space_group_name_H-M   'P 1'
_cell_length_a   7.44684015
_cell_length_b   7.41271701
_cell_length_c   9.46952568
_cell_angle_alpha   90.06665853
_cell_angle_beta   90.01656919
_cell_angle_gamma   119.82273390
_symmetry_Int_Tables_number   1
_chemical_formula_structural   Y2Al6(SiRu)3
_chemical_formula_sum   'Y4 Al12 Si6 Ru6'
_cell_volume   453.50365346
_cell_formula_units_Z   2
loop_
 _symmetry_equiv_pos_site_id
 _symmetry_equiv_pos_as_xyz
  1  'x, y, z'
loop_
 _atom_site_type_symbol
 _atom_site_label
 _atom_site_symmetry_multiplicity
 _atom_site_fract_x
 _atom_site_fract_y
 _atom_site_fract_z
 _atom_site_occupancy
  Y  Y0  1  0.999903  0.663490  0.254749  1
  Y  Y1  1  0.000097  0.336510  0.745251  1
  Y  Y2  1  0.674532  0.007303  0.257706  1
  Y  Y3  1  0.325468  0.992697  0.742294  1
  Al  Al4  1  0.127008  0.126790  0.250505  1
  Al  Al5  1  0.872992  0.873210  0.749495  1
  Al  Al6  1  0.662470  0.995363  0.929900  1
  Al  Al7  1  0.337530  0.004637  0.070100  1
  Al  Al8  1  0.336078  0.334732  0.556300  1
  Al  Al9  1  0.663922  0.665268  0.443700  1
  Al  Al10  1  0.664371  0.667438  0.056772  1
  Al  Al11  1  0.335629  0.332562  0.943228  1
  Al  Al12  1  0.338093  0.548696  0.250302  1
  Al  Al13  1  0.661907  0.451304  0.749698  1
  Al  Al14  1  0.546610  0.341546  0.251122  1
  Al  Al15  1  0.453390  0.658454  0.748878  1
  Si  Si16  1  0.003278  0.329004  0.065566  1
  Si  Si17  1  0.996722  0.670996  0.934434  1
  Si  Si18  1  0.989192  0.664621  0.570663  1
  Si  Si19  1  0.334451  0.008837  0.423616  1
  Si  Si20  1  0.010808  0.335379  0.429337  1
  Si  Si21  1  0.665549  0.991163  0.576384  1
  Ru  Ru22  1  0.688600  0.336652  0.002176  1
  Ru  Ru23  1  0.311400  0.663348  0.997824  1
  Ru  Ru24  1  0.318841  0.681314  0.500014  1
  Ru  Ru25  1  0.681159  0.318686  0.499986  1
  Ru  Ru26  1  0.000000  0.000000  0.000000  1
  Ru  Ru27  1  0.000000  0.000000  0.500000  1
