# generated using pymatgen
data_Rb3TmAsI9
_symmetry_space_group_name_H-M   'P 1'
_cell_length_a   8.39478470
_cell_length_b   8.38389140
_cell_length_c   21.47121729
_cell_angle_alpha   87.90036424
_cell_angle_beta   87.92763317
_cell_angle_gamma   119.67722927
_symmetry_Int_Tables_number   1
_chemical_formula_structural   Rb3TmAsI9
_chemical_formula_sum   'Rb6 Tm2 As2 I18'
_cell_volume   1309.49294259
_cell_formula_units_Z   2
loop_
 _symmetry_equiv_pos_site_id
 _symmetry_equiv_pos_as_xyz
  1  'x, y, z'
loop_
 _atom_site_type_symbol
 _atom_site_label
 _atom_site_symmetry_multiplicity
 _atom_site_fract_x
 _atom_site_fract_y
 _atom_site_fract_z
 _atom_site_occupancy
  Rb  Rb0  1  0.990495  0.014071  0.753137  1
  Rb  Rb1  1  0.682522  0.337940  0.059092  1
  Rb  Rb2  1  0.009505  0.985929  0.246863  1
  Rb  Rb3  1  0.336371  0.680313  0.563060  1
  Rb  Rb4  1  0.317478  0.662060  0.940908  1
  Rb  Rb5  1  0.663629  0.319687  0.436940  1
  Tm  Tm6  1  0.314877  0.645996  0.160629  1
  Tm  Tm7  1  0.685123  0.354004  0.839371  1
  As  As8  1  0.645548  0.314173  0.656729  1
  As  As9  1  0.354452  0.685827  0.343271  1
  I  I10  1  0.632784  0.797141  0.071790  1
  I  I11  1  0.367216  0.202859  0.928210  1
  I  I12  1  0.504229  0.009374  0.763466  1
  I  I13  1  0.210041  0.865383  0.412051  1
  I  I14  1  0.878628  0.208113  0.911097  1
  I  I15  1  0.791388  0.620372  0.574064  1
  I  I16  1  0.789959  0.134617  0.587949  1
  I  I17  1  0.310417  0.138714  0.600859  1
  I  I18  1  0.495771  0.990626  0.236534  1
  I  I19  1  0.987367  0.493321  0.730129  1
  I  I20  1  0.121372  0.791887  0.088903  1
  I  I21  1  0.012633  0.506679  0.269871  1
  I  I22  1  0.503960  0.495912  0.746364  1
  I  I23  1  0.873090  0.707420  0.896378  1
  I  I24  1  0.126910  0.292580  0.103622  1
  I  I25  1  0.689583  0.861286  0.399141  1
  I  I26  1  0.496040  0.504088  0.253636  1
  I  I27  1  0.208612  0.379628  0.425936  1
