# generated using pymatgen
data_Mg7Ga11Rh6
_symmetry_space_group_name_H-M   'P 1'
_cell_length_a   7.52542233
_cell_length_b   7.52542244
_cell_length_c   8.36393160
_cell_angle_alpha   89.93254170
_cell_angle_beta   89.93254690
_cell_angle_gamma   120.68622877
_symmetry_Int_Tables_number   1
_chemical_formula_structural   Mg7Ga11Rh6
_chemical_formula_sum   'Mg7 Ga11 Rh6'
_cell_volume   407.33976630
_cell_formula_units_Z   1
loop_
 _symmetry_equiv_pos_site_id
 _symmetry_equiv_pos_as_xyz
  1  'x, y, z'
loop_
 _atom_site_type_symbol
 _atom_site_label
 _atom_site_symmetry_multiplicity
 _atom_site_fract_x
 _atom_site_fract_y
 _atom_site_fract_z
 _atom_site_occupancy
  Mg  Mg0  1  0.700586  0.700586  0.073349  1
  Mg  Mg1  1  0.637736  0.637736  0.419501  1
  Mg  Mg2  1  0.005858  0.634783  0.917975  1
  Mg  Mg3  1  0.634783  0.005858  0.917975  1
  Mg  Mg4  1  0.363309  0.003721  0.420867  1
  Mg  Mg5  1  0.003721  0.363309  0.420867  1
  Mg  Mg6  1  0.355111  0.355111  0.915017  1
  Ga  Ga7  1  0.997988  0.997988  0.290746  1
  Ga  Ga8  1  0.991481  0.991481  0.793418  1
  Ga  Ga9  1  0.338928  0.670099  0.216233  1
  Ga  Ga10  1  0.668242  0.334976  0.720562  1
  Ga  Ga11  1  0.334976  0.668242  0.720562  1
  Ga  Ga12  1  0.670099  0.338928  0.216233  1
  Ga  Ga13  1  0.300700  0.300700  0.573315  1
  Ga  Ga14  1  0.999544  0.296839  0.075348  1
  Ga  Ga15  1  0.296839  0.999544  0.075348  1
  Ga  Ga16  1  0.698821  0.999045  0.573138  1
  Ga  Ga17  1  0.999045  0.698821  0.573138  1
  Rh  Rh18  1  0.325245  0.325245  0.248530  1
  Rh  Rh19  1  0.999561  0.320123  0.749969  1
  Rh  Rh20  1  0.320123  0.999561  0.749969  1
  Rh  Rh21  1  0.678184  0.009557  0.253658  1
  Rh  Rh22  1  0.009557  0.678184  0.253658  1
  Rh  Rh23  1  0.669563  0.669563  0.739623  1
