# generated using pymatgen
data_Tb3In4CoPt
_symmetry_space_group_name_H-M   'P 1'
_cell_length_a   7.89555200
_cell_length_b   7.89555247
_cell_length_c   3.77477100
_cell_angle_alpha   90.00000000
_cell_angle_beta   90.00000000
_cell_angle_gamma   120.00001478
_symmetry_Int_Tables_number   1
_chemical_formula_structural   Tb3In4CoPt
_chemical_formula_sum   'Tb3 In4 Co1 Pt1'
_cell_volume   203.79156253
_cell_formula_units_Z   1
loop_
 _symmetry_equiv_pos_site_id
 _symmetry_equiv_pos_as_xyz
  1  'x, y, z'
loop_
 _atom_site_type_symbol
 _atom_site_label
 _atom_site_symmetry_multiplicity
 _atom_site_fract_x
 _atom_site_fract_y
 _atom_site_fract_z
 _atom_site_occupancy
  Tb  Tb0  1  0.045243  0.303373  0.500000  1
  Tb  Tb1  1  0.696627  0.741869  0.500000  1
  Tb  Tb2  1  0.258131  0.954757  0.500000  1
  In  In3  1  0.661923  0.084196  0.000000  1
  In  In4  1  0.915804  0.577729  0.000000  1
  In  In5  1  0.422271  0.338077  0.000000  1
  In  In6  1  0.333333  0.666667  0.000000  1
  Co  Co7  1  0.666667  0.333333  0.500000  1
  Pt  Pt8  1  0.000000  0.000000  0.000000  1
