# generated using pymatgen
data_Nd16In3Ir4Au
_symmetry_space_group_name_H-M   'P 1'
_cell_length_a   9.93663976
_cell_length_b   9.93663941
_cell_length_c   9.93663985
_cell_angle_alpha   60.05463544
_cell_angle_beta   60.05463557
_cell_angle_gamma   60.05463133
_symmetry_Int_Tables_number   1
_chemical_formula_structural   Nd16In3Ir4Au
_chemical_formula_sum   'Nd16 In3 Ir4 Au1'
_cell_volume   694.61005477
_cell_formula_units_Z   1
loop_
 _symmetry_equiv_pos_site_id
 _symmetry_equiv_pos_as_xyz
  1  'x, y, z'
loop_
 _atom_site_type_symbol
 _atom_site_label
 _atom_site_symmetry_multiplicity
 _atom_site_fract_x
 _atom_site_fract_y
 _atom_site_fract_z
 _atom_site_occupancy
  Nd  Nd0  1  0.100214  0.701368  0.100214  1
  Nd  Nd1  1  0.941024  0.941024  0.558351  1
  Nd  Nd2  1  0.941024  0.558351  0.941024  1
  Nd  Nd3  1  0.309948  0.686656  0.309948  1
  Nd  Nd4  1  0.939538  0.557890  0.557890  1
  Nd  Nd5  1  0.309948  0.309948  0.686656  1
  Nd  Nd6  1  0.098271  0.098271  0.098271  1
  Nd  Nd7  1  0.557890  0.557890  0.939538  1
  Nd  Nd8  1  0.100214  0.100214  0.701368  1
  Nd  Nd9  1  0.690701  0.307484  0.690701  1
  Nd  Nd10  1  0.690701  0.690701  0.307484  1
  Nd  Nd11  1  0.686656  0.309948  0.309948  1
  Nd  Nd12  1  0.307484  0.690701  0.690701  1
  Nd  Nd13  1  0.557890  0.939538  0.557890  1
  Nd  Nd14  1  0.701368  0.100214  0.100214  1
  Nd  Nd15  1  0.558351  0.941024  0.941024  1
  In  In16  1  0.008142  0.330923  0.330923  1
  In  In17  1  0.330923  0.008142  0.330923  1
  In  In18  1  0.330923  0.330923  0.008142  1
  Ir  Ir19  1  0.892189  0.892189  0.892189  1
  Ir  Ir20  1  0.891706  0.891706  0.325406  1
  Ir  Ir21  1  0.325406  0.891706  0.891706  1
  Ir  Ir22  1  0.891706  0.325406  0.891706  1
  Au  Au23  1  0.337781  0.337781  0.337781  1
