# generated using pymatgen
data_Yb3U5(Si4Mo3)4
_symmetry_space_group_name_H-M   'P 1'
_cell_length_a   6.76886537
_cell_length_b   6.93201620
_cell_length_c   12.92164926
_cell_angle_alpha   89.99739975
_cell_angle_beta   89.70694576
_cell_angle_gamma   90.14476548
_symmetry_Int_Tables_number   1
_chemical_formula_structural   Yb3U5(Si4Mo3)4
_chemical_formula_sum   'Yb3 U5 Si16 Mo12'
_cell_volume   606.29826575
_cell_formula_units_Z   1
loop_
 _symmetry_equiv_pos_site_id
 _symmetry_equiv_pos_as_xyz
  1  'x, y, z'
loop_
 _atom_site_type_symbol
 _atom_site_label
 _atom_site_symmetry_multiplicity
 _atom_site_fract_x
 _atom_site_fract_y
 _atom_site_fract_z
 _atom_site_occupancy
  Yb  Yb0  1  0.995947  0.161473  0.088434  1
  Yb  Yb1  1  0.003106  0.836686  0.910506  1
  Yb  Yb2  1  0.503580  0.663513  0.909601  1
  U  U3  1  0.005679  0.835840  0.594418  1
  U  U4  1  0.494853  0.337625  0.092080  1
  U  U5  1  0.992656  0.161919  0.406271  1
  U  U6  1  0.491543  0.336900  0.407382  1
  U  U7  1  0.505911  0.665919  0.594339  1
  Si  Si8  1  0.037650  0.133501  0.750592  1
  Si  Si9  1  0.963287  0.864186  0.247664  1
  Si  Si10  1  0.462516  0.635246  0.251040  1
  Si  Si11  1  0.537802  0.368937  0.749401  1
  Si  Si12  1  0.304008  0.872318  0.753565  1
  Si  Si13  1  0.696081  0.129712  0.246951  1
  Si  Si14  1  0.190874  0.368301  0.248820  1
  Si  Si15  1  0.805045  0.629119  0.753258  1
  Si  Si16  1  0.159424  0.455170  0.543851  1
  Si  Si17  1  0.840413  0.544541  0.455538  1
  Si  Si18  1  0.341000  0.955898  0.455417  1
  Si  Si19  1  0.844729  0.539257  0.047550  1
  Si  Si20  1  0.660170  0.045018  0.543535  1
  Si  Si21  1  0.154867  0.460898  0.951536  1
  Si  Si22  1  0.655808  0.038865  0.953253  1
  Si  Si23  1  0.344771  0.957970  0.048036  1
  Mo  Mo24  1  0.169082  0.503640  0.745029  1
  Mo  Mo25  1  0.827803  0.493745  0.252612  1
  Mo  Mo26  1  0.331435  0.008587  0.252213  1
  Mo  Mo27  1  0.668123  0.997237  0.745224  1
  Mo  Mo28  1  0.330798  0.164210  0.624452  1
  Mo  Mo29  1  0.672798  0.838035  0.375468  1
  Mo  Mo30  1  0.171464  0.662829  0.376684  1
  Mo  Mo31  1  0.665735  0.829308  0.126511  1
  Mo  Mo32  1  0.829514  0.336791  0.623717  1
  Mo  Mo33  1  0.336842  0.176298  0.875175  1
  Mo  Mo34  1  0.831579  0.327926  0.873301  1
  Mo  Mo35  1  0.173110  0.662575  0.126580  1
