# generated using pymatgen
data_Mg8GePd3O16
_symmetry_space_group_name_H-M   'P 1'
_cell_length_a   6.05285500
_cell_length_b   6.05939833
_cell_length_c   8.51770818
_cell_angle_alpha   90.27786609
_cell_angle_beta   90.00000000
_cell_angle_gamma   90.00000000
_symmetry_Int_Tables_number   1
_chemical_formula_structural   Mg8GePd3O16
_chemical_formula_sum   'Mg8 Ge1 Pd3 O16'
_cell_volume   312.39740886
_cell_formula_units_Z   1
loop_
 _symmetry_equiv_pos_site_id
 _symmetry_equiv_pos_as_xyz
  1  'x, y, z'
loop_
 _atom_site_type_symbol
 _atom_site_label
 _atom_site_symmetry_multiplicity
 _atom_site_fract_x
 _atom_site_fract_y
 _atom_site_fract_z
 _atom_site_occupancy
  Mg  Mg0  1  0.999171  0.244016  0.999833  1
  Mg  Mg1  1  0.999171  0.755984  0.500167  1
  Mg  Mg2  1  0.243759  0.000000  0.750000  1
  Mg  Mg3  1  0.252622  0.249291  0.372130  1
  Mg  Mg4  1  0.252622  0.750709  0.127870  1
  Mg  Mg5  1  0.748158  0.252448  0.622701  1
  Mg  Mg6  1  0.748158  0.747552  0.877299  1
  Mg  Mg7  1  0.755509  0.000000  0.250000  1
  Ge  Ge8  1  0.766043  0.500000  0.250000  1
  Pd  Pd9  1  0.245727  0.500000  0.750000  1
  Pd  Pd10  1  0.500668  0.250325  0.002538  1
  Pd  Pd11  1  0.500668  0.749675  0.497462  1
  O  O12  1  0.016744  0.257350  0.755785  1
  O  O13  1  0.016744  0.742650  0.744215  1
  O  O14  1  0.251849  0.480947  0.988330  1
  O  O15  1  0.251849  0.519053  0.511670  1
  O  O16  1  0.257389  0.020144  0.996316  1
  O  O17  1  0.257389  0.979856  0.503684  1
  O  O18  1  0.479815  0.253551  0.762865  1
  O  O19  1  0.479815  0.746449  0.737135  1
  O  O20  1  0.528378  0.267078  0.239535  1
  O  O21  1  0.528378  0.732922  0.260465  1
  O  O22  1  0.742908  0.978817  0.493011  1
  O  O23  1  0.742908  0.021183  0.006989  1
  O  O24  1  0.743388  0.486684  0.023418  1
  O  O25  1  0.743388  0.513316  0.476582  1
  O  O26  1  0.973391  0.268294  0.248892  1
  O  O27  1  0.973391  0.731706  0.251108  1
