# generated using pymatgen
data_Dy3Er3Al24(Ir3Ru)2
_symmetry_space_group_name_H-M   'P 1'
_cell_length_a   8.81971000
_cell_length_b   8.81971057
_cell_length_c   9.48215800
_cell_angle_alpha   90.00000000
_cell_angle_beta   90.00000000
_cell_angle_gamma   120.00000535
_symmetry_Int_Tables_number   1
_chemical_formula_structural   Dy3Er3Al24(Ir3Ru)2
_chemical_formula_sum   'Dy3 Er3 Al24 Ir6 Ru2'
_cell_volume   638.77282954
_cell_formula_units_Z   1
loop_
 _symmetry_equiv_pos_site_id
 _symmetry_equiv_pos_as_xyz
  1  'x, y, z'
loop_
 _atom_site_type_symbol
 _atom_site_label
 _atom_site_symmetry_multiplicity
 _atom_site_fract_x
 _atom_site_fract_y
 _atom_site_fract_z
 _atom_site_occupancy
  Dy  Dy0  1  0.807899  0.192101  0.750000  1
  Dy  Dy1  1  0.807899  0.615799  0.750000  1
  Dy  Dy2  1  0.384201  0.192101  0.750000  1
  Er  Er3  1  0.193654  0.806346  0.250000  1
  Er  Er4  1  0.193654  0.387308  0.250000  1
  Er  Er5  1  0.612692  0.806346  0.250000  1
  Al  Al6  1  0.562048  0.437952  0.250000  1
  Al  Al7  1  0.562048  0.124096  0.250000  1
  Al  Al8  1  0.875904  0.437952  0.250000  1
  Al  Al9  1  0.437732  0.562268  0.750000  1
  Al  Al10  1  0.437732  0.875464  0.750000  1
  Al  Al11  1  0.124536  0.562268  0.750000  1
  Al  Al12  1  0.325935  0.162968  0.423425  1
  Al  Al13  1  0.837032  0.162968  0.423425  1
  Al  Al14  1  0.837032  0.674065  0.423425  1
  Al  Al15  1  0.673846  0.836922  0.575906  1
  Al  Al16  1  0.163078  0.836922  0.575906  1
  Al  Al17  1  0.163078  0.326154  0.575906  1
  Al  Al18  1  0.673846  0.836922  0.924094  1
  Al  Al19  1  0.163078  0.836922  0.924094  1
  Al  Al20  1  0.163078  0.326154  0.924094  1
  Al  Al21  1  0.325935  0.162968  0.076575  1
  Al  Al22  1  0.837032  0.162968  0.076575  1
  Al  Al23  1  0.837032  0.674065  0.076575  1
  Al  Al24  1  0.666667  0.333333  0.529041  1
  Al  Al25  1  0.333333  0.666667  0.470358  1
  Al  Al26  1  0.333333  0.666667  0.029642  1
  Al  Al27  1  0.666667  0.333333  0.970959  1
  Al  Al28  1  0.000000  0.000000  0.250000  1
  Al  Al29  1  0.000000  0.000000  0.750000  1
  Ir  Ir30  1  0.499675  0.500325  0.499222  1
  Ir  Ir31  1  0.499675  0.999350  0.499222  1
  Ir  Ir32  1  0.000650  0.500325  0.499222  1
  Ir  Ir33  1  0.499675  0.500325  0.000778  1
  Ir  Ir34  1  0.499675  0.999350  0.000778  1
  Ir  Ir35  1  0.000650  0.500325  0.000778  1
  Ru  Ru36  1  0.000000  0.000000  0.499390  1
  Ru  Ru37  1  0.000000  0.000000  0.000610  1
