# generated using pymatgen
data_Er2Tm6Re3B24Ir
_symmetry_space_group_name_H-M   'P 1'
_cell_length_a   3.63898100
_cell_length_b   9.09870260
_cell_length_c   11.47110701
_cell_angle_alpha   90.12549835
_cell_angle_beta   90.00000000
_cell_angle_gamma   90.00000000
_symmetry_Int_Tables_number   1
_chemical_formula_structural   Er2Tm6Re3B24Ir
_chemical_formula_sum   'Er2 Tm6 Re3 B24 Ir1'
_cell_volume   379.80750951
_cell_formula_units_Z   1
loop_
 _symmetry_equiv_pos_site_id
 _symmetry_equiv_pos_as_xyz
  1  'x, y, z'
loop_
 _atom_site_type_symbol
 _atom_site_label
 _atom_site_symmetry_multiplicity
 _atom_site_fract_x
 _atom_site_fract_y
 _atom_site_fract_z
 _atom_site_occupancy
  Er  Er0  1  0.000000  0.317469  0.415546  1
  Er  Er1  1  0.000000  0.679066  0.591472  1
  Tm  Tm2  1  0.000000  0.826996  0.080979  1
  Tm  Tm3  1  0.000000  0.177580  0.912543  1
  Tm  Tm4  1  0.000000  0.944369  0.370646  1
  Tm  Tm5  1  0.000000  0.055769  0.628882  1
  Tm  Tm6  1  0.000000  0.441079  0.127927  1
  Tm  Tm7  1  0.000000  0.556569  0.871770  1
  Re  Re8  1  0.000000  0.362361  0.677818  1
  Re  Re9  1  0.000000  0.138265  0.179956  1
  Re  Re10  1  0.000000  0.861744  0.821011  1
  B  B11  1  0.500000  0.553907  0.433979  1
  B  B12  1  0.500000  0.446809  0.566373  1
  B  B13  1  0.500000  0.053104  0.066255  1
  B  B14  1  0.500000  0.947246  0.933152  1
  B  B15  1  0.500000  0.749771  0.420385  1
  B  B16  1  0.500000  0.249794  0.580781  1
  B  B17  1  0.500000  0.249595  0.080739  1
  B  B18  1  0.500000  0.750975  0.919369  1
  B  B19  1  0.500000  0.791812  0.264817  1
  B  B20  1  0.500000  0.207752  0.734507  1
  B  B21  1  0.500000  0.292353  0.235231  1
  B  B22  1  0.500000  0.707598  0.765771  1
  B  B23  1  0.500000  0.631694  0.183758  1
  B  B24  1  0.500000  0.369429  0.814774  1
  B  B25  1  0.500000  0.130714  0.315309  1
  B  B26  1  0.500000  0.868747  0.685065  1
  B  B27  1  0.500000  0.982011  0.212153  1
  B  B28  1  0.500000  0.018195  0.787031  1
  B  B29  1  0.500000  0.482388  0.287673  1
  B  B30  1  0.500000  0.518665  0.712611  1
  B  B31  1  0.500000  0.603319  0.029163  1
  B  B32  1  0.500000  0.397599  0.971992  1
  B  B33  1  0.500000  0.101368  0.471410  1
  B  B34  1  0.500000  0.895930  0.528127  1
  Ir  Ir35  1  0.000000  0.637962  0.321025  1
