# generated using pymatgen
data_PrNd17(BiO)10
_symmetry_space_group_name_H-M   'P 1'
_cell_length_a   10.37158400
_cell_length_b   10.37158400
_cell_length_c   9.33110700
_cell_angle_alpha   90.00000000
_cell_angle_beta   90.00000000
_cell_angle_gamma   90.00000000
_symmetry_Int_Tables_number   1
_chemical_formula_structural   PrNd17(BiO)10
_chemical_formula_sum   'Pr1 Nd17 Bi10 O10'
_cell_volume   1003.74489078
_cell_formula_units_Z   1
loop_
 _symmetry_equiv_pos_site_id
 _symmetry_equiv_pos_as_xyz
  1  'x, y, z'
loop_
 _atom_site_type_symbol
 _atom_site_label
 _atom_site_symmetry_multiplicity
 _atom_site_fract_x
 _atom_site_fract_y
 _atom_site_fract_z
 _atom_site_occupancy
  Pr  Pr0  1  0.500000  0.000000  0.670934  1
  Nd  Nd1  1  0.000000  0.500000  0.327955  1
  Nd  Nd2  1  0.104410  0.205153  0.660097  1
  Nd  Nd3  1  0.895590  0.794847  0.660097  1
  Nd  Nd4  1  0.294847  0.604410  0.660097  1
  Nd  Nd5  1  0.705153  0.395590  0.660097  1
  Nd  Nd6  1  0.395607  0.294821  0.339921  1
  Nd  Nd7  1  0.604393  0.705179  0.339921  1
  Nd  Nd8  1  0.205179  0.895607  0.339921  1
  Nd  Nd9  1  0.794821  0.104393  0.339921  1
  Nd  Nd10  1  0.725714  0.917696  0.001502  1
  Nd  Nd11  1  0.274286  0.082304  0.001502  1
  Nd  Nd12  1  0.582304  0.225714  0.001502  1
  Nd  Nd13  1  0.417696  0.774286  0.001502  1
  Nd  Nd14  1  0.774251  0.582306  0.998628  1
  Nd  Nd15  1  0.225749  0.417694  0.998628  1
  Nd  Nd16  1  0.917694  0.274251  0.998628  1
  Nd  Nd17  1  0.082306  0.725749  0.998628  1
  Bi  Bi18  1  0.500000  0.000000  0.312074  1
  Bi  Bi19  1  0.000000  0.500000  0.687202  1
  Bi  Bi20  1  0.403604  0.304593  0.699120  1
  Bi  Bi21  1  0.596396  0.695407  0.699120  1
  Bi  Bi22  1  0.195407  0.903604  0.699120  1
  Bi  Bi23  1  0.804593  0.096396  0.699120  1
  Bi  Bi24  1  0.096239  0.195895  0.300938  1
  Bi  Bi25  1  0.903761  0.804105  0.300938  1
  Bi  Bi26  1  0.304105  0.596239  0.300938  1
  Bi  Bi27  1  0.695895  0.403761  0.300938  1
  O  O28  1  0.500000  0.000000  0.934777  1
  O  O29  1  0.000000  0.500000  0.066408  1
  O  O30  1  0.774789  0.120785  0.086846  1
  O  O31  1  0.225211  0.879215  0.086846  1
  O  O32  1  0.379215  0.274789  0.086846  1
  O  O33  1  0.620785  0.725211  0.086846  1
  O  O34  1  0.725287  0.379226  0.913111  1
  O  O35  1  0.274713  0.620774  0.913111  1
  O  O36  1  0.120774  0.225287  0.913111  1
  O  O37  1  0.879226  0.774713  0.913111  1
