# generated using pymatgen
data_Ti2Nb4Re3(Si2Mo)3
_symmetry_space_group_name_H-M   'P 1'
_cell_length_a   7.64094993
_cell_length_b   7.64329020
_cell_length_c   7.63948908
_cell_angle_alpha   126.13671607
_cell_angle_beta   128.53611993
_cell_angle_gamma   77.70940788
_symmetry_Int_Tables_number   1
_chemical_formula_structural   Ti2Nb4Re3(Si2Mo)3
_chemical_formula_sum   'Ti2 Nb4 Re3 Si6 Mo3'
_cell_volume   273.28991317
_cell_formula_units_Z   1
loop_
 _symmetry_equiv_pos_site_id
 _symmetry_equiv_pos_as_xyz
  1  'x, y, z'
loop_
 _atom_site_type_symbol
 _atom_site_label
 _atom_site_symmetry_multiplicity
 _atom_site_fract_x
 _atom_site_fract_y
 _atom_site_fract_z
 _atom_site_occupancy
  Ti  Ti0  1  0.550770  0.091804  0.040807  1
  Ti  Ti1  1  0.447841  0.492876  0.544893  1
  Nb  Nb2  1  0.949323  0.493439  0.045029  1
  Nb  Nb3  1  0.050490  0.089324  0.540361  1
  Nb  Nb4  1  0.755192  0.909338  0.654881  1
  Nb  Nb5  1  0.247925  0.902624  0.154099  1
  Re  Re6  1  0.869003  0.496098  0.626063  1
  Re  Re7  1  0.627975  0.754619  0.124462  1
  Re  Re8  1  0.370746  0.497279  0.127835  1
  Si  Si9  1  0.748197  0.498057  0.249406  1
  Si  Si10  1  0.248954  0.498923  0.749612  1
  Si  Si11  1  0.339653  0.825610  0.500358  1
  Si  Si12  1  0.663314  0.164634  0.488262  1
  Si  Si13  1  0.823955  0.824609  0.986753  1
  Si  Si14  1  0.176938  0.167698  0.004330  1
  Mo  Mo15  1  0.500407  0.239812  0.739087  1
  Mo  Mo16  1  0.999296  0.238433  0.238856  1
  Mo  Mo17  1  0.130018  0.757022  0.627107  1
