# generated using pymatgen
data_DyEr4Pa7Ga20
_symmetry_space_group_name_H-M   'P 1'
_cell_length_a   6.07476181
_cell_length_b   9.50237323
_cell_length_c   11.63366146
_cell_angle_alpha   90.02654348
_cell_angle_beta   90.09682690
_cell_angle_gamma   90.05210326
_symmetry_Int_Tables_number   1
_chemical_formula_structural   DyEr4Pa7Ga20
_chemical_formula_sum   'Dy1 Er4 Pa7 Ga20'
_cell_volume   671.54777290
_cell_formula_units_Z   1
loop_
 _symmetry_equiv_pos_site_id
 _symmetry_equiv_pos_as_xyz
  1  'x, y, z'
loop_
 _atom_site_type_symbol
 _atom_site_label
 _atom_site_symmetry_multiplicity
 _atom_site_fract_x
 _atom_site_fract_y
 _atom_site_fract_z
 _atom_site_occupancy
  Dy  Dy0  1  0.882552  0.503277  0.350664  1
  Er  Er1  1  0.857374  0.750421  0.072991  1
  Er  Er2  1  0.642282  0.750428  0.572889  1
  Er  Er3  1  0.142587  0.250159  0.927670  1
  Er  Er4  1  0.356924  0.248951  0.427340  1
  Pa  Pa5  1  0.618625  0.996602  0.852077  1
  Pa  Pa6  1  0.118238  0.003711  0.647784  1
  Pa  Pa7  1  0.381706  0.496601  0.147293  1
  Pa  Pa8  1  0.119286  0.496449  0.648603  1
  Pa  Pa9  1  0.380862  0.003176  0.148100  1
  Pa  Pa10  1  0.881343  0.996778  0.351999  1
  Pa  Pa11  1  0.618931  0.503758  0.852138  1
  Ga  Ga12  1  0.871525  0.052406  0.090838  1
  Ga  Ga13  1  0.627915  0.448026  0.591587  1
  Ga  Ga14  1  0.128849  0.551952  0.909164  1
  Ga  Ga15  1  0.371574  0.946775  0.409105  1
  Ga  Ga16  1  0.128892  0.948205  0.909274  1
  Ga  Ga17  1  0.369140  0.551890  0.409409  1
  Ga  Ga18  1  0.870469  0.448256  0.091006  1
  Ga  Ga19  1  0.628678  0.052492  0.590325  1
  Ga  Ga20  1  0.158252  0.750275  0.262637  1
  Ga  Ga21  1  0.343270  0.750310  0.763544  1
  Ga  Ga22  1  0.842701  0.250232  0.736233  1
  Ga  Ga23  1  0.655561  0.249770  0.237258  1
  Ga  Ga24  1  0.390367  0.750086  0.994809  1
  Ga  Ga25  1  0.110298  0.749727  0.495939  1
  Ga  Ga26  1  0.610360  0.250435  0.005295  1
  Ga  Ga27  1  0.890791  0.249777  0.505049  1
  Ga  Ga28  1  0.594431  0.750229  0.292441  1
  Ga  Ga29  1  0.904333  0.750035  0.792982  1
  Ga  Ga30  1  0.404408  0.249975  0.707419  1
  Ga  Ga31  1  0.097477  0.248837  0.206141  1
