# generated using pymatgen
data_RbBa(BiAu)4
_symmetry_space_group_name_H-M   'P 1'
_cell_length_a   5.17840439
_cell_length_b   4.95037100
_cell_length_c   11.72801965
_cell_angle_alpha   90.00000000
_cell_angle_beta   92.61585402
_cell_angle_gamma   90.00000000
_symmetry_Int_Tables_number   1
_chemical_formula_structural   RbBa(BiAu)4
_chemical_formula_sum   'Rb1 Ba1 Bi4 Au4'
_cell_volume   300.33477091
_cell_formula_units_Z   1
loop_
 _symmetry_equiv_pos_site_id
 _symmetry_equiv_pos_as_xyz
  1  'x, y, z'
loop_
 _atom_site_type_symbol
 _atom_site_label
 _atom_site_symmetry_multiplicity
 _atom_site_fract_x
 _atom_site_fract_y
 _atom_site_fract_z
 _atom_site_occupancy
  Rb  Rb0  1  0.275136  0.249999  0.255188  1
  Ba  Ba1  1  0.723017  0.749999  0.743513  1
  Bi  Bi2  1  0.244086  0.749999  0.001316  1
  Bi  Bi3  1  0.819353  0.749999  0.382850  1
  Bi  Bi4  1  0.179225  0.249999  0.618450  1
  Bi  Bi5  1  0.755494  0.249999  0.997813  1
  Au  Au6  1  0.752442  0.749999  0.136517  1
  Au  Au7  1  0.672523  0.249999  0.502229  1
  Au  Au8  1  0.330104  0.749999  0.500347  1
  Au  Au9  1  0.248620  0.249999  0.861779  1
