# generated using pymatgen
data_PrNd3(ScSe3)4
_symmetry_space_group_name_H-M   'P 1'
_cell_length_a   6.80287603
_cell_length_b   7.52583104
_cell_length_c   10.05789100
_cell_angle_alpha   90.00000000
_cell_angle_beta   90.00000000
_cell_angle_gamma   90.01133243
_symmetry_Int_Tables_number   1
_chemical_formula_structural   PrNd3(ScSe3)4
_chemical_formula_sum   'Pr1 Nd3 Sc4 Se12'
_cell_volume   514.93680847
_cell_formula_units_Z   1
loop_
 _symmetry_equiv_pos_site_id
 _symmetry_equiv_pos_as_xyz
  1  'x, y, z'
loop_
 _atom_site_type_symbol
 _atom_site_label
 _atom_site_symmetry_multiplicity
 _atom_site_fract_x
 _atom_site_fract_y
 _atom_site_fract_z
 _atom_site_occupancy
  Pr  Pr0  1  0.542644  0.396196  0.750000  1
  Nd  Nd1  1  0.457433  0.604005  0.250000  1
  Nd  Nd2  1  0.042444  0.103864  0.250000  1
  Nd  Nd3  1  0.957226  0.896233  0.750000  1
  Sc  Sc4  1  0.000057  0.500055  0.000146  1
  Sc  Sc5  1  0.000057  0.500055  0.499854  1
  Sc  Sc6  1  0.500007  0.999852  0.499879  1
  Sc  Sc7  1  0.500007  0.999852  0.000121  1
  Se  Se8  1  0.825562  0.184712  0.563293  1
  Se  Se9  1  0.175203  0.814745  0.063898  1
  Se  Se10  1  0.324844  0.314819  0.063882  1
  Se  Se11  1  0.675687  0.686218  0.563172  1
  Se  Se12  1  0.825562  0.184712  0.936707  1
  Se  Se13  1  0.175203  0.814745  0.436102  1
  Se  Se14  1  0.324844  0.314819  0.436118  1
  Se  Se15  1  0.675687  0.686218  0.936828  1
  Se  Se16  1  0.864598  0.462065  0.250000  1
  Se  Se17  1  0.133528  0.538228  0.750000  1
  Se  Se18  1  0.364126  0.036495  0.750000  1
  Se  Se19  1  0.635282  0.962112  0.250000  1
