# generated using pymatgen
data_BiPb3F15
_symmetry_space_group_name_H-M   'P 1'
_cell_length_a   8.42725521
_cell_length_b   8.42725484
_cell_length_c   8.41204996
_cell_angle_alpha   79.69760310
_cell_angle_beta   79.69760188
_cell_angle_gamma   99.63264007
_symmetry_Int_Tables_number   1
_chemical_formula_structural   BiPb3F15
_chemical_formula_sum   'Bi2 Pb6 F30'
_cell_volume   565.91260231
_cell_formula_units_Z   2
loop_
 _symmetry_equiv_pos_site_id
 _symmetry_equiv_pos_as_xyz
  1  'x, y, z'
loop_
 _atom_site_type_symbol
 _atom_site_label
 _atom_site_symmetry_multiplicity
 _atom_site_fract_x
 _atom_site_fract_y
 _atom_site_fract_z
 _atom_site_occupancy
  Bi  Bi0  1  0.178552  0.821448  0.250000  1
  Bi  Bi1  1  0.821448  0.178552  0.750000  1
  Pb  Pb2  1  0.750818  0.249182  0.250000  1
  Pb  Pb3  1  0.249182  0.750818  0.750000  1
  Pb  Pb4  1  0.746429  0.678596  0.677155  1
  Pb  Pb5  1  0.321404  0.253571  0.822845  1
  Pb  Pb6  1  0.253571  0.321404  0.322845  1
  Pb  Pb7  1  0.678596  0.746429  0.177155  1
  F  F8  1  0.466226  0.533774  0.250000  1
  F  F9  1  0.747711  0.955130  0.969666  1
  F  F10  1  0.044870  0.252289  0.530334  1
  F  F11  1  0.252289  0.044870  0.030334  1
  F  F12  1  0.955130  0.747711  0.469666  1
  F  F13  1  0.533774  0.466226  0.750000  1
  F  F14  1  0.216811  0.490827  0.774863  1
  F  F15  1  0.228376  0.714341  0.006256  1
  F  F16  1  0.991901  0.725881  0.787310  1
  F  F17  1  0.725881  0.991901  0.287310  1
  F  F18  1  0.714341  0.228376  0.506256  1
  F  F19  1  0.490827  0.216811  0.274863  1
  F  F20  1  0.783190  0.509173  0.225137  1
  F  F21  1  0.771624  0.285659  0.993744  1
  F  F22  1  0.008099  0.274119  0.212690  1
  F  F23  1  0.274119  0.008099  0.712690  1
  F  F24  1  0.285659  0.771624  0.493744  1
  F  F25  1  0.509173  0.783189  0.725137  1
  F  F26  1  0.539726  0.153563  0.817573  1
  F  F27  1  0.188181  0.060599  0.354410  1
  F  F28  1  0.642565  0.680557  0.447208  1
  F  F29  1  0.680557  0.642565  0.947208  1
  F  F30  1  0.060599  0.188181  0.854410  1
  F  F31  1  0.153563  0.539726  0.317573  1
  F  F32  1  0.460274  0.846437  0.182427  1
  F  F33  1  0.811819  0.939401  0.645590  1
  F  F34  1  0.357435  0.319443  0.552792  1
  F  F35  1  0.319443  0.357435  0.052792  1
  F  F36  1  0.939401  0.811819  0.145590  1
  F  F37  1  0.846437  0.460274  0.682427  1
