# generated using pymatgen
data_NaY3(Ga2Ag)4
_symmetry_space_group_name_H-M   'P 1'
_cell_length_a   4.35176400
_cell_length_b   6.98298696
_cell_length_c   10.38831712
_cell_angle_alpha   90.32696256
_cell_angle_beta   90.00000000
_cell_angle_gamma   90.00000000
_symmetry_Int_Tables_number   1
_chemical_formula_structural   NaY3(Ga2Ag)4
_chemical_formula_sum   'Na1 Y3 Ga8 Ag4'
_cell_volume   315.67827415
_cell_formula_units_Z   1
loop_
 _symmetry_equiv_pos_site_id
 _symmetry_equiv_pos_as_xyz
  1  'x, y, z'
loop_
 _atom_site_type_symbol
 _atom_site_label
 _atom_site_symmetry_multiplicity
 _atom_site_fract_x
 _atom_site_fract_y
 _atom_site_fract_z
 _atom_site_occupancy
  Na  Na0  1  0.250000  0.270827  0.674266  1
  Y  Y1  1  0.250000  0.779733  0.825533  1
  Y  Y2  1  0.750000  0.223844  0.171872  1
  Y  Y3  1  0.750000  0.718714  0.329371  1
  Ga  Ga4  1  0.250000  0.703575  0.534850  1
  Ga  Ga5  1  0.750000  0.300868  0.466698  1
  Ga  Ga6  1  0.750000  0.791782  0.036787  1
  Ga  Ga7  1  0.250000  0.203692  0.963596  1
  Ga  Ga8  1  0.250000  0.925989  0.153559  1
  Ga  Ga9  1  0.750000  0.073248  0.849556  1
  Ga  Ga10  1  0.750000  0.571065  0.650864  1
  Ga  Ga11  1  0.250000  0.427325  0.343162  1
  Ag  Ag12  1  0.250000  0.544608  0.097522  1
  Ag  Ag13  1  0.750000  0.456872  0.901556  1
  Ag  Ag14  1  0.750000  0.961647  0.598561  1
  Ag  Ag15  1  0.250000  0.046210  0.402245  1
