# generated using pymatgen
data_CsLuP2S7
_symmetry_space_group_name_H-M   'P 1'
_cell_length_a   6.84158842
_cell_length_b   6.84158835
_cell_length_c   7.02178550
_cell_angle_alpha   95.68022268
_cell_angle_beta   95.68021902
_cell_angle_gamma   97.98923772
_symmetry_Int_Tables_number   1
_chemical_formula_structural   CsLuP2S7
_chemical_formula_sum   'Cs1 Lu1 P2 S7'
_cell_volume   321.75650897
_cell_formula_units_Z   1
loop_
 _symmetry_equiv_pos_site_id
 _symmetry_equiv_pos_as_xyz
  1  'x, y, z'
loop_
 _atom_site_type_symbol
 _atom_site_label
 _atom_site_symmetry_multiplicity
 _atom_site_fract_x
 _atom_site_fract_y
 _atom_site_fract_z
 _atom_site_occupancy
  Cs  Cs0  1  0.076547  0.923452  0.000000  1
  Lu  Lu1  1  0.492353  0.507646  0.499999  1
  P  P2  1  0.643396  0.963518  0.416708  1
  P  P3  1  0.036483  0.356604  0.583293  1
  S  S4  1  0.634281  0.715292  0.227273  1
  S  S5  1  0.540287  0.178246  0.272089  1
  S  S6  1  0.110678  0.482197  0.345793  1
  S  S7  1  0.960208  0.039791  0.499999  1
  S  S8  1  0.517803  0.889322  0.654207  1
  S  S9  1  0.821754  0.459713  0.727912  1
  S  S10  1  0.284709  0.365719  0.772727  1
