# generated using pymatgen
data_Nd3Y13CdNi4Ag3
_symmetry_space_group_name_H-M   'P 1'
_cell_length_a   9.57672901
_cell_length_b   9.58184110
_cell_length_c   9.58640161
_cell_angle_alpha   60.01537568
_cell_angle_beta   60.00215019
_cell_angle_gamma   59.98075845
_symmetry_Int_Tables_number   1
_chemical_formula_structural   Nd3Y13CdNi4Ag3
_chemical_formula_sum   'Nd3 Y13 Cd1 Ni4 Ag3'
_cell_volume   622.01530726
_cell_formula_units_Z   1
loop_
 _symmetry_equiv_pos_site_id
 _symmetry_equiv_pos_as_xyz
  1  'x, y, z'
loop_
 _atom_site_type_symbol
 _atom_site_label
 _atom_site_symmetry_multiplicity
 _atom_site_fract_x
 _atom_site_fract_y
 _atom_site_fract_z
 _atom_site_occupancy
  Nd  Nd0  1  0.600017  0.599977  0.601195  1
  Nd  Nd1  1  0.601957  0.600761  0.196561  1
  Nd  Nd2  1  0.600010  0.198812  0.601217  1
  Y  Y3  1  0.191672  0.602447  0.603463  1
  Y  Y4  1  0.062284  0.438770  0.437881  1
  Y  Y5  1  0.436924  0.062663  0.063072  1
  Y  Y6  1  0.437152  0.062720  0.437366  1
  Y  Y7  1  0.062316  0.438076  0.061530  1
  Y  Y8  1  0.436921  0.437338  0.063059  1
  Y  Y9  1  0.062300  0.061051  0.437877  1
  Y  Y10  1  0.183028  0.814844  0.815347  1
  Y  Y11  1  0.815301  0.184351  0.184873  1
  Y  Y12  1  0.815143  0.184607  0.815660  1
  Y  Y13  1  0.183622  0.814792  0.186784  1
  Y  Y14  1  0.815314  0.815480  0.184871  1
  Y  Y15  1  0.183027  0.186791  0.815338  1
  Cd  Cd16  1  0.512212  0.829595  0.828579  1
  Ni  Ni17  1  0.388847  0.394569  0.393899  1
  Ni  Ni18  1  0.388617  0.393910  0.823578  1
  Ni  Ni19  1  0.388856  0.822650  0.393900  1
  Ni  Ni20  1  0.824517  0.392131  0.391235  1
  Ag  Ag21  1  0.836626  0.831318  0.831303  1
  Ag  Ag22  1  0.836725  0.831584  0.500110  1
  Ag  Ag23  1  0.836613  0.500765  0.831304  1
