# generated using pymatgen
data_HoLu3(IrO4)4
_symmetry_space_group_name_H-M   'P 1'
_cell_length_a   5.28158251
_cell_length_b   7.33035593
_cell_length_c   7.56007375
_cell_angle_alpha   81.09114195
_cell_angle_beta   86.92757731
_cell_angle_gamma   89.22837171
_symmetry_Int_Tables_number   1
_chemical_formula_structural   HoLu3(IrO4)4
_chemical_formula_sum   'Ho1 Lu3 Ir4 O16'
_cell_volume   288.74420662
_cell_formula_units_Z   1
loop_
 _symmetry_equiv_pos_site_id
 _symmetry_equiv_pos_as_xyz
  1  'x, y, z'
loop_
 _atom_site_type_symbol
 _atom_site_label
 _atom_site_symmetry_multiplicity
 _atom_site_fract_x
 _atom_site_fract_y
 _atom_site_fract_z
 _atom_site_occupancy
  Ho  Ho0  1  0.238539  0.614628  0.627312  1
  Lu  Lu1  1  0.703744  0.890335  0.336267  1
  Lu  Lu2  1  0.298102  0.109842  0.662104  1
  Lu  Lu3  1  0.762427  0.383943  0.373434  1
  Ir  Ir4  1  0.781203  0.300435  0.836606  1
  Ir  Ir5  1  0.218695  0.698346  0.163775  1
  Ir  Ir6  1  0.260857  0.202396  0.161685  1
  Ir  Ir7  1  0.738555  0.798409  0.839073  1
  O  O8  1  0.898650  0.809063  0.064930  1
  O  O9  1  0.103858  0.191889  0.934402  1
  O  O10  1  0.370000  0.943262  0.170716  1
  O  O11  1  0.627955  0.056195  0.832800  1
  O  O12  1  0.100662  0.445420  0.175141  1
  O  O13  1  0.895291  0.553857  0.826976  1
  O  O14  1  0.583015  0.313264  0.056691  1
  O  O15  1  0.417419  0.686509  0.943594  1
  O  O16  1  0.999451  0.318224  0.603826  1
  O  O17  1  0.996262  0.678827  0.394218  1
  O  O18  1  0.455915  0.174158  0.389662  1
  O  O19  1  0.546619  0.831119  0.608950  1
  O  O20  1  0.491535  0.614896  0.329495  1
  O  O21  1  0.513358  0.381315  0.667637  1
  O  O22  1  0.951513  0.122573  0.300133  1
  O  O23  1  0.046374  0.881096  0.700571  1
