# generated using pymatgen
data_Y4ScIr3
_symmetry_space_group_name_H-M   'P 1'
_cell_length_a   10.82725900
_cell_length_b   10.82725900
_cell_length_c   6.27937600
_cell_angle_alpha   90.00000000
_cell_angle_beta   90.00000000
_cell_angle_gamma   90.00000000
_symmetry_Int_Tables_number   1
_chemical_formula_structural   Y4ScIr3
_chemical_formula_sum   'Y16 Sc4 Ir12'
_cell_volume   736.12834397
_cell_formula_units_Z   4
loop_
 _symmetry_equiv_pos_site_id
 _symmetry_equiv_pos_as_xyz
  1  'x, y, z'
loop_
 _atom_site_type_symbol
 _atom_site_label
 _atom_site_symmetry_multiplicity
 _atom_site_fract_x
 _atom_site_fract_y
 _atom_site_fract_z
 _atom_site_occupancy
  Y  Y0  1  0.287616  0.086718  0.377851  1
  Y  Y1  1  0.287616  0.913282  0.877851  1
  Y  Y2  1  0.712384  0.086718  0.877851  1
  Y  Y3  1  0.712384  0.913282  0.377851  1
  Y  Y4  1  0.586718  0.787616  0.877851  1
  Y  Y5  1  0.586718  0.212384  0.377851  1
  Y  Y6  1  0.413282  0.787616  0.377851  1
  Y  Y7  1  0.413282  0.212384  0.877851  1
  Y  Y8  1  0.212384  0.413282  0.622149  1
  Y  Y9  1  0.212384  0.586718  0.122149  1
  Y  Y10  1  0.787616  0.413282  0.122149  1
  Y  Y11  1  0.787616  0.586718  0.622149  1
  Y  Y12  1  0.913282  0.712384  0.122149  1
  Y  Y13  1  0.913282  0.287616  0.622149  1
  Y  Y14  1  0.086718  0.712384  0.622149  1
  Y  Y15  1  0.086718  0.287616  0.122149  1
  Sc  Sc16  1  0.000000  0.000000  0.500000  1
  Sc  Sc17  1  0.000000  0.000000  0.000000  1
  Sc  Sc18  1  0.500000  0.500000  0.000000  1
  Sc  Sc19  1  0.500000  0.500000  0.500000  1
  Ir  Ir20  1  0.853550  0.146450  0.250000  1
  Ir  Ir21  1  0.853550  0.853550  0.750000  1
  Ir  Ir22  1  0.146450  0.146450  0.750000  1
  Ir  Ir23  1  0.146450  0.853550  0.250000  1
  Ir  Ir24  1  0.646450  0.353550  0.750000  1
  Ir  Ir25  1  0.646450  0.646450  0.250000  1
  Ir  Ir26  1  0.353550  0.353550  0.250000  1
  Ir  Ir27  1  0.353550  0.646450  0.750000  1
  Ir  Ir28  1  0.500000  0.000000  0.124491  1
  Ir  Ir29  1  0.500000  0.000000  0.624491  1
  Ir  Ir30  1  0.000000  0.500000  0.875509  1
  Ir  Ir31  1  0.000000  0.500000  0.375509  1
