# generated using pymatgen
data_La4Yb5YRu4
_symmetry_space_group_name_H-M   'P 1'
_cell_length_a   6.53036806
_cell_length_b   7.38715531
_cell_length_c   8.83842148
_cell_angle_alpha   96.06166812
_cell_angle_beta   111.68051930
_cell_angle_gamma   89.99998944
_symmetry_Int_Tables_number   1
_chemical_formula_structural   La4Yb5YRu4
_chemical_formula_sum   'La4 Yb5 Y1 Ru4'
_cell_volume   393.64398163
_cell_formula_units_Z   1
loop_
 _symmetry_equiv_pos_site_id
 _symmetry_equiv_pos_as_xyz
  1  'x, y, z'
loop_
 _atom_site_type_symbol
 _atom_site_label
 _atom_site_symmetry_multiplicity
 _atom_site_fract_x
 _atom_site_fract_y
 _atom_site_fract_z
 _atom_site_occupancy
  La  La0  1  0.978977  0.905799  0.188241  1
  La  La1  1  0.790737  0.594201  0.811759  1
  La  La2  1  0.018645  0.090859  0.812033  1
  La  La3  1  0.206611  0.409141  0.187967  1
  Yb  Yb4  1  0.626062  0.817150  0.424939  1
  Yb  Yb5  1  0.201124  0.682850  0.575061  1
  Yb  Yb6  1  0.372268  0.183702  0.573867  1
  Yb  Yb7  1  0.798400  0.316298  0.426133  1
  Yb  Yb8  1  0.423759  0.750000  0.000000  1
  Y  Y9  1  0.571514  0.250000  0.000000  1
  Ru  Ru10  1  0.844639  0.587926  0.213738  1
  Ru  Ru11  1  0.630901  0.912074  0.786262  1
  Ru  Ru12  1  0.160640  0.403539  0.784919  1
  Ru  Ru13  1  0.375721  0.096461  0.215081  1
