# generated using pymatgen
data_Tb15Ho4ErPb16
_symmetry_space_group_name_H-M   'P 1'
_cell_length_a   8.21839907
_cell_length_b   8.30503697
_cell_length_c   15.69208302
_cell_angle_alpha   90.00529682
_cell_angle_beta   89.99800227
_cell_angle_gamma   90.03496570
_symmetry_Int_Tables_number   1
_chemical_formula_structural   Tb15Ho4ErPb16
_chemical_formula_sum   'Tb15 Ho4 Er1 Pb16'
_cell_volume   1071.04892579
_cell_formula_units_Z   1
loop_
 _symmetry_equiv_pos_site_id
 _symmetry_equiv_pos_as_xyz
  1  'x, y, z'
loop_
 _atom_site_type_symbol
 _atom_site_label
 _atom_site_symmetry_multiplicity
 _atom_site_fract_x
 _atom_site_fract_y
 _atom_site_fract_z
 _atom_site_occupancy
  Tb  Tb0  1  0.877436  0.659482  0.620433  1
  Tb  Tb1  1  0.622356  0.159313  0.379525  1
  Tb  Tb2  1  0.122661  0.340494  0.120409  1
  Tb  Tb3  1  0.622378  0.159391  0.120505  1
  Tb  Tb4  1  0.122632  0.340471  0.379537  1
  Tb  Tb5  1  0.377468  0.840519  0.620365  1
  Tb  Tb6  1  0.877502  0.659463  0.879601  1
  Tb  Tb7  1  0.534441  0.323177  0.899835  1
  Tb  Tb8  1  0.034442  0.176722  0.600120  1
  Tb  Tb9  1  0.465488  0.676901  0.399817  1
  Tb  Tb10  1  0.965616  0.823298  0.100193  1
  Tb  Tb11  1  0.465440  0.676947  0.100074  1
  Tb  Tb12  1  0.965653  0.823359  0.399811  1
  Tb  Tb13  1  0.534442  0.323247  0.600192  1
  Tb  Tb14  1  0.034501  0.176679  0.899876  1
  Ho  Ho15  1  0.377384  0.840589  0.879606  1
  Ho  Ho16  1  0.209089  0.503829  0.750077  1
  Ho  Ho17  1  0.708873  0.996310  0.750063  1
  Ho  Ho18  1  0.791027  0.496371  0.249997  1
  Er  Er19  1  0.290961  0.003682  0.250023  1
  Pb  Pb20  1  0.281013  0.032482  0.042871  1
  Pb  Pb21  1  0.780874  0.467166  0.457184  1
  Pb  Pb22  1  0.719149  0.967108  0.542734  1
  Pb  Pb23  1  0.219325  0.533226  0.957208  1
  Pb  Pb24  1  0.718761  0.967008  0.957208  1
  Pb  Pb25  1  0.219114  0.532858  0.542739  1
  Pb  Pb26  1  0.280899  0.032721  0.456907  1
  Pb  Pb27  1  0.780873  0.467162  0.042812  1
  Pb  Pb28  1  0.572695  0.626318  0.750108  1
  Pb  Pb29  1  0.073113  0.873907  0.750091  1
  Pb  Pb30  1  0.426947  0.373537  0.249996  1
  Pb  Pb31  1  0.927707  0.125753  0.249995  1
  Pb  Pb32  1  0.345880  0.151927  0.750077  1
  Pb  Pb33  1  0.845924  0.347667  0.750007  1
  Pb  Pb34  1  0.653778  0.847933  0.250002  1
  Pb  Pb35  1  0.154160  0.652982  0.250002  1
