# generated using pymatgen
data_Nd17Er2TmSn16
_symmetry_space_group_name_H-M   'P 1'
_cell_length_a   8.25622000
_cell_length_b   8.40457759
_cell_length_c   15.94868500
_cell_angle_alpha   90.00000000
_cell_angle_beta   90.00000000
_cell_angle_gamma   89.96476183
_symmetry_Int_Tables_number   1
_chemical_formula_structural   Nd17Er2TmSn16
_chemical_formula_sum   'Nd17 Er2 Tm1 Sn16'
_cell_volume   1106.67970609
_cell_formula_units_Z   1
loop_
 _symmetry_equiv_pos_site_id
 _symmetry_equiv_pos_as_xyz
  1  'x, y, z'
loop_
 _atom_site_type_symbol
 _atom_site_label
 _atom_site_symmetry_multiplicity
 _atom_site_fract_x
 _atom_site_fract_y
 _atom_site_fract_z
 _atom_site_occupancy
  Nd  Nd0  1  0.018115  0.181220  0.401572  1
  Nd  Nd1  1  0.367289  0.838037  0.120667  1
  Nd  Nd2  1  0.133345  0.337013  0.620755  1
  Nd  Nd3  1  0.481472  0.681979  0.901971  1
  Nd  Nd4  1  0.867012  0.662101  0.121842  1
  Nd  Nd5  1  0.133345  0.337013  0.879245  1
  Nd  Nd6  1  0.481472  0.681979  0.598029  1
  Nd  Nd7  1  0.631681  0.162216  0.620402  1
  Nd  Nd8  1  0.803252  0.498016  0.750000  1
  Nd  Nd9  1  0.867012  0.662101  0.378158  1
  Nd  Nd10  1  0.018115  0.181220  0.098428  1
  Nd  Nd11  1  0.982350  0.819520  0.901825  1
  Nd  Nd12  1  0.631681  0.162216  0.879598  1
  Nd  Nd13  1  0.518290  0.318790  0.099092  1
  Nd  Nd14  1  0.367289  0.838037  0.379333  1
  Nd  Nd15  1  0.982350  0.819520  0.598175  1
  Nd  Nd16  1  0.518290  0.318790  0.400908  1
  Er  Er17  1  0.198645  0.502325  0.250000  1
  Er  Er18  1  0.698782  0.997903  0.250000  1
  Tm  Tm19  1  0.301486  0.002995  0.750000  1
  Sn  Sn20  1  0.792458  0.463625  0.541237  1
  Sn  Sn21  1  0.708011  0.964933  0.455458  1
  Sn  Sn22  1  0.674338  0.857832  0.750000  1
  Sn  Sn23  1  0.207222  0.534489  0.455528  1
  Sn  Sn24  1  0.292425  0.034472  0.955839  1
  Sn  Sn25  1  0.824568  0.351973  0.250000  1
  Sn  Sn26  1  0.792458  0.463625  0.958763  1
  Sn  Sn27  1  0.563133  0.616990  0.250000  1
  Sn  Sn28  1  0.207222  0.534489  0.044472  1
  Sn  Sn29  1  0.432747  0.382352  0.750000  1
  Sn  Sn30  1  0.178219  0.648781  0.750000  1
  Sn  Sn31  1  0.937666  0.114240  0.750000  1
  Sn  Sn32  1  0.292425  0.034472  0.544161  1
  Sn  Sn33  1  0.708011  0.964933  0.044542  1
  Sn  Sn34  1  0.323589  0.146671  0.250000  1
  Sn  Sn35  1  0.064239  0.883138  0.250000  1
