# generated using pymatgen
data_TbPu3(NbN2)4
_symmetry_space_group_name_H-M   'P 1'
_cell_length_a   3.30751600
_cell_length_b   5.68773830
_cell_length_c   10.97701226
_cell_angle_alpha   89.85924321
_cell_angle_beta   90.00000000
_cell_angle_gamma   90.00000000
_symmetry_Int_Tables_number   1
_chemical_formula_structural   TbPu3(NbN2)4
_chemical_formula_sum   'Tb1 Pu3 Nb4 N8'
_cell_volume   206.50206474
_cell_formula_units_Z   1
loop_
 _symmetry_equiv_pos_site_id
 _symmetry_equiv_pos_as_xyz
  1  'x, y, z'
loop_
 _atom_site_type_symbol
 _atom_site_label
 _atom_site_symmetry_multiplicity
 _atom_site_fract_x
 _atom_site_fract_y
 _atom_site_fract_z
 _atom_site_occupancy
  Tb  Tb0  1  0.250000  0.082711  0.642103  1
  Pu  Pu1  1  0.250000  0.579929  0.860005  1
  Pu  Pu2  1  0.750000  0.418997  0.140268  1
  Pu  Pu3  1  0.750000  0.920584  0.359434  1
  Nb  Nb4  1  0.250000  0.918232  0.103327  1
  Nb  Nb5  1  0.750000  0.080738  0.895708  1
  Nb  Nb6  1  0.750000  0.582632  0.603630  1
  Nb  Nb7  1  0.250000  0.418699  0.396097  1
  N  N8  1  0.250000  0.656171  0.244120  1
  N  N9  1  0.750000  0.343933  0.755353  1
  N  N10  1  0.750000  0.839556  0.745600  1
  N  N11  1  0.250000  0.155803  0.255652  1
  N  N12  1  0.250000  0.751199  0.506166  1
  N  N13  1  0.750000  0.251889  0.492679  1
  N  N14  1  0.750000  0.744957  0.005911  1
  N  N15  1  0.250000  0.253968  0.993949  1
