# generated using pymatgen
data_Zr24Ga3SiSe4
_symmetry_space_group_name_H-M   'P 1'
_cell_length_a   11.08013234
_cell_length_b   11.07862381
_cell_length_c   5.48978024
_cell_angle_alpha   90.03361175
_cell_angle_beta   89.99810497
_cell_angle_gamma   90.02827743
_symmetry_Int_Tables_number   1
_chemical_formula_structural   Zr24Ga3SiSe4
_chemical_formula_sum   'Zr24 Ga3 Si1 Se4'
_cell_volume   673.88469788
_cell_formula_units_Z   1
loop_
 _symmetry_equiv_pos_site_id
 _symmetry_equiv_pos_as_xyz
  1  'x, y, z'
loop_
 _atom_site_type_symbol
 _atom_site_label
 _atom_site_symmetry_multiplicity
 _atom_site_fract_x
 _atom_site_fract_y
 _atom_site_fract_z
 _atom_site_occupancy
  Zr  Zr0  1  0.919513  0.608892  0.539276  1
  Zr  Zr1  1  0.081063  0.394394  0.537970  1
  Zr  Zr2  1  0.893817  0.417873  0.037486  1
  Zr  Zr3  1  0.105518  0.583965  0.033003  1
  Zr  Zr4  1  0.582059  0.894481  0.965241  1
  Zr  Zr5  1  0.417668  0.105195  0.964649  1
  Zr  Zr6  1  0.605246  0.082479  0.463916  1
  Zr  Zr7  1  0.394928  0.917549  0.463691  1
  Zr  Zr8  1  0.861201  0.970421  0.717251  1
  Zr  Zr9  1  0.140258  0.022396  0.717617  1
  Zr  Zr10  1  0.526120  0.359255  0.216682  1
  Zr  Zr11  1  0.473764  0.641642  0.216388  1
  Zr  Zr12  1  0.639264  0.526261  0.781951  1
  Zr  Zr13  1  0.361309  0.474301  0.782360  1
  Zr  Zr14  1  0.974226  0.139407  0.282647  1
  Zr  Zr15  1  0.025530  0.860370  0.281888  1
  Zr  Zr16  1  0.819642  0.715883  0.005804  1
  Zr  Zr17  1  0.183215  0.284556  0.005237  1
  Zr  Zr18  1  0.784814  0.317115  0.505932  1
  Zr  Zr19  1  0.213287  0.684372  0.509746  1
  Zr  Zr20  1  0.681323  0.785879  0.490767  1
  Zr  Zr21  1  0.317938  0.214444  0.492502  1
  Zr  Zr22  1  0.714660  0.181216  0.991414  1
  Zr  Zr23  1  0.283490  0.817595  0.990680  1
  Ga  Ga24  1  0.704048  0.541144  0.289035  1
  Ga  Ga25  1  0.295923  0.460459  0.289608  1
  Ga  Ga26  1  0.959767  0.202378  0.789696  1
  Si  Si27  1  0.041091  0.794940  0.788608  1
  Se  Se28  1  0.792632  0.960354  0.212457  1
  Se  Se29  1  0.206821  0.040319  0.212914  1
  Se  Se30  1  0.540269  0.292982  0.711762  1
  Se  Se31  1  0.459594  0.707483  0.711819  1
