# generated using pymatgen
data_Ho2Tm3Sn3P
_symmetry_space_group_name_H-M   'P 1'
_cell_length_a   8.99274418
_cell_length_b   8.99274479
_cell_length_c   6.62199700
_cell_angle_alpha   90.00000000
_cell_angle_beta   90.00000000
_cell_angle_gamma   119.97735987
_symmetry_Int_Tables_number   1
_chemical_formula_structural   Ho2Tm3Sn3P
_chemical_formula_sum   'Ho4 Tm6 Sn6 P2'
_cell_volume   463.87733334
_cell_formula_units_Z   2
loop_
 _symmetry_equiv_pos_site_id
 _symmetry_equiv_pos_as_xyz
  1  'x, y, z'
loop_
 _atom_site_type_symbol
 _atom_site_label
 _atom_site_symmetry_multiplicity
 _atom_site_fract_x
 _atom_site_fract_y
 _atom_site_fract_z
 _atom_site_occupancy
  Ho  Ho0  1  0.757885  0.757885  0.750000  1
  Ho  Ho1  1  0.242063  0.999936  0.750000  1
  Ho  Ho2  1  0.999936  0.242063  0.750000  1
  Ho  Ho3  1  0.242066  0.242066  0.250000  1
  Tm  Tm4  1  0.666795  0.333372  0.000079  1
  Tm  Tm5  1  0.333372  0.666795  0.000079  1
  Tm  Tm6  1  0.333372  0.666795  0.499921  1
  Tm  Tm7  1  0.666795  0.333372  0.499921  1
  Tm  Tm8  1  0.758638  0.999904  0.250000  1
  Tm  Tm9  1  0.999904  0.758638  0.250000  1
  Sn  Sn10  1  0.399779  0.399779  0.750000  1
  Sn  Sn11  1  0.600271  0.000005  0.750000  1
  Sn  Sn12  1  0.000005  0.600271  0.750000  1
  Sn  Sn13  1  0.601554  0.601554  0.250000  1
  Sn  Sn14  1  0.399323  0.999364  0.250000  1
  Sn  Sn15  1  0.999364  0.399323  0.250000  1
  P  P16  1  0.999439  0.999439  0.001070  1
  P  P17  1  0.999439  0.999439  0.498930  1
