# generated using pymatgen
data_Tb2Tm11Lu3(Ga3Co)2
_symmetry_space_group_name_H-M   'P 1'
_cell_length_a   9.85082200
_cell_length_b   9.85082191
_cell_length_c   6.88344400
_cell_angle_alpha   90.00000000
_cell_angle_beta   90.00000000
_cell_angle_gamma   120.00000029
_symmetry_Int_Tables_number   1
_chemical_formula_structural   Tb2Tm11Lu3(Ga3Co)2
_chemical_formula_sum   'Tb2 Tm11 Lu3 Ga6 Co2'
_cell_volume   578.47068262
_cell_formula_units_Z   1
loop_
 _symmetry_equiv_pos_site_id
 _symmetry_equiv_pos_as_xyz
  1  'x, y, z'
loop_
 _atom_site_type_symbol
 _atom_site_label
 _atom_site_symmetry_multiplicity
 _atom_site_fract_x
 _atom_site_fract_y
 _atom_site_fract_z
 _atom_site_occupancy
  Tb  Tb0  1  0.000000  0.000000  0.767800  1
  Tb  Tb1  1  0.000000  0.000000  0.270316  1
  Tm  Tm2  1  0.174136  0.348272  0.988627  1
  Tm  Tm3  1  0.651728  0.825864  0.988627  1
  Tm  Tm4  1  0.174136  0.825864  0.988627  1
  Tm  Tm5  1  0.666667  0.333333  0.172911  1
  Tm  Tm6  1  0.333333  0.666667  0.671553  1
  Tm  Tm7  1  0.536768  0.073536  0.791997  1
  Tm  Tm8  1  0.926464  0.463232  0.791997  1
  Tm  Tm9  1  0.536768  0.463232  0.791997  1
  Tm  Tm10  1  0.463549  0.927097  0.293382  1
  Tm  Tm11  1  0.072903  0.536451  0.293382  1
  Tm  Tm12  1  0.463549  0.536451  0.293382  1
  Lu  Lu13  1  0.825603  0.651206  0.488700  1
  Lu  Lu14  1  0.348794  0.174397  0.488700  1
  Lu  Lu15  1  0.825603  0.174397  0.488700  1
  Ga  Ga16  1  0.835946  0.671893  0.040937  1
  Ga  Ga17  1  0.328107  0.164054  0.040937  1
  Ga  Ga18  1  0.835946  0.164054  0.040937  1
  Ga  Ga19  1  0.163672  0.327343  0.540120  1
  Ga  Ga20  1  0.672657  0.836328  0.540120  1
  Ga  Ga21  1  0.163672  0.836328  0.540120  1
  Co  Co22  1  0.666667  0.333333  0.555949  1
  Co  Co23  1  0.333333  0.666667  0.056251  1
