# generated using pymatgen
data_Ho19MgIr12
_symmetry_space_group_name_H-M   'P 1'
_cell_length_a   10.81726200
_cell_length_b   10.81726200
_cell_length_c   6.30297900
_cell_angle_alpha   90.00000000
_cell_angle_beta   90.00000000
_cell_angle_gamma   90.00000000
_symmetry_Int_Tables_number   1
_chemical_formula_structural   Ho19MgIr12
_chemical_formula_sum   'Ho19 Mg1 Ir12'
_cell_volume   737.53147241
_cell_formula_units_Z   1
loop_
 _symmetry_equiv_pos_site_id
 _symmetry_equiv_pos_as_xyz
  1  'x, y, z'
loop_
 _atom_site_type_symbol
 _atom_site_label
 _atom_site_symmetry_multiplicity
 _atom_site_fract_x
 _atom_site_fract_y
 _atom_site_fract_z
 _atom_site_occupancy
  Ho  Ho0  1  0.284831  0.085189  0.378925  1
  Ho  Ho1  1  0.290354  0.911864  0.879120  1
  Ho  Ho2  1  0.709646  0.088136  0.879120  1
  Ho  Ho3  1  0.715169  0.914811  0.378925  1
  Ho  Ho4  1  0.588768  0.791693  0.879101  1
  Ho  Ho5  1  0.588133  0.208057  0.377585  1
  Ho  Ho6  1  0.411867  0.791943  0.377585  1
  Ho  Ho7  1  0.411232  0.208307  0.879101  1
  Ho  Ho8  1  0.208057  0.411867  0.622415  1
  Ho  Ho9  1  0.208307  0.588768  0.120899  1
  Ho  Ho10  1  0.791693  0.411232  0.120899  1
  Ho  Ho11  1  0.791943  0.588133  0.622415  1
  Ho  Ho12  1  0.911864  0.709646  0.120880  1
  Ho  Ho13  1  0.914811  0.284831  0.621075  1
  Ho  Ho14  1  0.085189  0.715169  0.621075  1
  Ho  Ho15  1  0.088136  0.290354  0.120880  1
  Ho  Ho16  1  0.000000  0.000000  0.000000  1
  Ho  Ho17  1  0.500000  0.500000  0.000000  1
  Ho  Ho18  1  0.500000  0.500000  0.500000  1
  Mg  Mg19  1  0.000000  0.000000  0.500000  1
  Ir  Ir20  1  0.846188  0.153995  0.248347  1
  Ir  Ir21  1  0.846005  0.846188  0.751653  1
  Ir  Ir22  1  0.153995  0.153812  0.751653  1
  Ir  Ir23  1  0.153812  0.846005  0.248347  1
  Ir  Ir24  1  0.654197  0.346195  0.748690  1
  Ir  Ir25  1  0.653805  0.654197  0.251310  1
  Ir  Ir26  1  0.346195  0.345803  0.251310  1
  Ir  Ir27  1  0.345803  0.653805  0.748690  1
  Ir  Ir28  1  0.500000  0.000000  0.123191  1
  Ir  Ir29  1  0.500000  0.000000  0.620434  1
  Ir  Ir30  1  0.000000  0.500000  0.876809  1
  Ir  Ir31  1  0.000000  0.500000  0.379566  1
