# generated using pymatgen
data_Sm3(H6Rh)2
_symmetry_space_group_name_H-M   'P 1'
_cell_length_a   4.85250900
_cell_length_b   4.85250869
_cell_length_c   8.29937400
_cell_angle_alpha   90.00000000
_cell_angle_beta   90.00000000
_cell_angle_gamma   119.99999528
_symmetry_Int_Tables_number   1
_chemical_formula_structural   Sm3(H6Rh)2
_chemical_formula_sum   'Sm3 H12 Rh2'
_cell_volume   169.24219912
_cell_formula_units_Z   1
loop_
 _symmetry_equiv_pos_site_id
 _symmetry_equiv_pos_as_xyz
  1  'x, y, z'
loop_
 _atom_site_type_symbol
 _atom_site_label
 _atom_site_symmetry_multiplicity
 _atom_site_fract_x
 _atom_site_fract_y
 _atom_site_fract_z
 _atom_site_occupancy
  Sm  Sm0  1  0.000000  0.000000  0.000000  1
  Sm  Sm1  1  0.666667  0.333333  0.362634  1
  Sm  Sm2  1  0.333333  0.666667  0.637366  1
  H  H3  1  0.170346  0.829654  0.373908  1
  H  H4  1  0.659307  0.829654  0.373908  1
  H  H5  1  0.170346  0.340693  0.373908  1
  H  H6  1  0.829654  0.170346  0.626092  1
  H  H7  1  0.340693  0.170346  0.626092  1
  H  H8  1  0.829654  0.659307  0.626092  1
  H  H9  1  0.500497  0.000995  0.874193  1
  H  H10  1  0.500497  0.499503  0.874193  1
  H  H11  1  0.999005  0.499503  0.874193  1
  H  H12  1  0.499503  0.999005  0.125807  1
  H  H13  1  0.499503  0.500497  0.125807  1
  H  H14  1  0.000995  0.500497  0.125807  1
  Rh  Rh15  1  0.666667  0.333333  0.754619  1
  Rh  Rh16  1  0.333333  0.666667  0.245381  1
