# generated using pymatgen
data_Cr2B4MoW3
_symmetry_space_group_name_H-M   'P 1'
_cell_length_a   5.84537700
_cell_length_b   5.84537700
_cell_length_c   3.14250700
_cell_angle_alpha   90.00000000
_cell_angle_beta   90.00000000
_cell_angle_gamma   89.99884338
_symmetry_Int_Tables_number   1
_chemical_formula_structural   Cr2B4MoW3
_chemical_formula_sum   'Cr2 B4 Mo1 W3'
_cell_volume   107.37453758
_cell_formula_units_Z   1
loop_
 _symmetry_equiv_pos_site_id
 _symmetry_equiv_pos_as_xyz
  1  'x, y, z'
loop_
 _atom_site_type_symbol
 _atom_site_label
 _atom_site_symmetry_multiplicity
 _atom_site_fract_x
 _atom_site_fract_y
 _atom_site_fract_z
 _atom_site_occupancy
  Cr  Cr0  1  0.999960  0.000149  0.000000  1
  Cr  Cr1  1  0.499851  0.500040  0.000000  1
  B  B2  1  0.115185  0.614524  0.000000  1
  B  B3  1  0.885476  0.384815  0.000000  1
  B  B4  1  0.614466  0.885534  0.000000  1
  B  B5  1  0.384680  0.115320  0.000000  1
  Mo  Mo6  1  0.823849  0.676151  0.500000  1
  W  W7  1  0.676993  0.176660  0.500000  1
  W  W8  1  0.323340  0.823007  0.500000  1
  W  W9  1  0.176199  0.323801  0.500000  1
