# generated using pymatgen
data_Ho15ErMgAg3Rh4
_symmetry_space_group_name_H-M   'P 1'
_cell_length_a   9.51975180
_cell_length_b   9.53913229
_cell_length_c   9.52560000
_cell_angle_alpha   60.04691610
_cell_angle_beta   59.97967629
_cell_angle_gamma   60.06319728
_symmetry_Int_Tables_number   1
_chemical_formula_structural   Ho15ErMgAg3Rh4
_chemical_formula_sum   'Ho15 Er1 Mg1 Ag3 Rh4'
_cell_volume   612.07673522
_cell_formula_units_Z   1
loop_
 _symmetry_equiv_pos_site_id
 _symmetry_equiv_pos_as_xyz
  1  'x, y, z'
loop_
 _atom_site_type_symbol
 _atom_site_label
 _atom_site_symmetry_multiplicity
 _atom_site_fract_x
 _atom_site_fract_y
 _atom_site_fract_z
 _atom_site_occupancy
  Ho  Ho0  1  0.350649  0.348508  0.348561  1
  Ho  Ho1  1  0.350649  0.348508  0.952281  1
  Ho  Ho2  1  0.349077  0.954285  0.348319  1
  Ho  Ho3  1  0.937129  0.354036  0.354417  1
  Ho  Ho4  1  0.809464  0.188377  0.190263  1
  Ho  Ho5  1  0.185354  0.813052  0.813675  1
  Ho  Ho6  1  0.185354  0.813052  0.187918  1
  Ho  Ho7  1  0.809464  0.188377  0.811896  1
  Ho  Ho8  1  0.185749  0.186338  0.813956  1
  Ho  Ho9  1  0.809167  0.810294  0.190269  1
  Ho  Ho10  1  0.934169  0.564439  0.564938  1
  Ho  Ho11  1  0.565582  0.935009  0.934609  1
  Ho  Ho12  1  0.565582  0.935009  0.564799  1
  Ho  Ho13  1  0.934169  0.564439  0.936454  1
  Ho  Ho14  1  0.563990  0.565338  0.935336  1
  Er  Er15  1  0.934128  0.936201  0.564835  1
  Mg  Mg16  1  0.288716  0.571587  0.569848  1
  Ag  Ag17  1  0.583235  0.585802  0.583830  1
  Ag  Ag18  1  0.583235  0.585802  0.247132  1
  Ag  Ag19  1  0.584254  0.246626  0.584560  1
  Rh  Rh20  1  0.138654  0.145572  0.143792  1
  Rh  Rh21  1  0.138654  0.145572  0.571979  1
  Rh  Rh22  1  0.140592  0.571317  0.144044  1
  Rh  Rh23  1  0.572983  0.142455  0.142281  1
