# generated using pymatgen
data_YbEu(CuPt)2
_symmetry_space_group_name_H-M   'P 1'
_cell_length_a   5.35741594
_cell_length_b   5.61754402
_cell_length_c   5.35741619
_cell_angle_alpha   58.38040489
_cell_angle_beta   57.57907384
_cell_angle_gamma   58.38039349
_symmetry_Int_Tables_number   1
_chemical_formula_structural   YbEu(CuPt)2
_chemical_formula_sum   'Yb1 Eu1 Cu2 Pt2'
_cell_volume   109.06362223
_cell_formula_units_Z   1
loop_
 _symmetry_equiv_pos_site_id
 _symmetry_equiv_pos_as_xyz
  1  'x, y, z'
loop_
 _atom_site_type_symbol
 _atom_site_label
 _atom_site_symmetry_multiplicity
 _atom_site_fract_x
 _atom_site_fract_y
 _atom_site_fract_z
 _atom_site_occupancy
  Yb  Yb0  1  0.752834  0.747166  0.752834  1
  Eu  Eu1  1  0.002161  0.997839  0.002161  1
  Cu  Cu2  1  0.872831  0.377036  0.373096  1
  Cu  Cu3  1  0.373096  0.377036  0.872831  1
  Pt  Pt4  1  0.374539  0.874557  0.374539  1
  Pt  Pt5  1  0.374539  0.376364  0.374539  1
