# generated using pymatgen
data_LiDy24Tc7
_symmetry_space_group_name_H-M   'P 1'
_cell_length_a   6.27370057
_cell_length_b   9.22702500
_cell_length_c   14.86734900
_cell_angle_alpha   90.00000000
_cell_angle_beta   90.61938215
_cell_angle_gamma   90.00000000
_symmetry_Int_Tables_number   1
_chemical_formula_structural   LiDy24Tc7
_chemical_formula_sum   'Li1 Dy24 Tc7'
_cell_volume   860.58474648
_cell_formula_units_Z   1
loop_
 _symmetry_equiv_pos_site_id
 _symmetry_equiv_pos_as_xyz
  1  'x, y, z'
loop_
 _atom_site_type_symbol
 _atom_site_label
 _atom_site_symmetry_multiplicity
 _atom_site_fract_x
 _atom_site_fract_y
 _atom_site_fract_z
 _atom_site_occupancy
  Li  Li0  1  0.142734  0.750000  0.671646  1
  Dy  Dy1  1  0.537991  0.750000  0.354993  1
  Dy  Dy2  1  0.035624  0.250000  0.148119  1
  Dy  Dy3  1  0.461955  0.250000  0.646685  1
  Dy  Dy4  1  0.957999  0.750000  0.858392  1
  Dy  Dy5  1  0.778000  0.750000  0.108873  1
  Dy  Dy6  1  0.284339  0.250000  0.388618  1
  Dy  Dy7  1  0.223068  0.250000  0.892223  1
  Dy  Dy8  1  0.696121  0.750000  0.605756  1
  Dy  Dy9  1  0.453010  0.939631  0.794429  1
  Dy  Dy10  1  0.927776  0.072579  0.708305  1
  Dy  Dy11  1  0.565723  0.434529  0.212077  1
  Dy  Dy12  1  0.065869  0.565888  0.288912  1
  Dy  Dy13  1  0.565723  0.065471  0.212077  1
  Dy  Dy14  1  0.065869  0.934112  0.288912  1
  Dy  Dy15  1  0.453010  0.560369  0.794429  1
  Dy  Dy16  1  0.927776  0.427421  0.708305  1
  Dy  Dy17  1  0.240466  0.947304  0.524594  1
  Dy  Dy18  1  0.741779  0.066984  0.968990  1
  Dy  Dy19  1  0.754524  0.434868  0.464469  1
  Dy  Dy20  1  0.257840  0.564784  0.037361  1
  Dy  Dy21  1  0.754524  0.065132  0.464469  1
  Dy  Dy22  1  0.257840  0.935216  0.037361  1
  Dy  Dy23  1  0.240466  0.552696  0.524594  1
  Dy  Dy24  1  0.741779  0.433016  0.968990  1
  Tc  Tc25  1  0.931757  0.750000  0.448525  1
  Tc  Tc26  1  0.425840  0.250000  0.060872  1
  Tc  Tc27  1  0.073506  0.250000  0.558095  1
  Tc  Tc28  1  0.570013  0.750000  0.939845  1
  Tc  Tc29  1  0.359731  0.750000  0.185049  1
  Tc  Tc30  1  0.864501  0.250000  0.317592  1
  Tc  Tc31  1  0.642847  0.250000  0.816444  1
