# generated using pymatgen
data_Pr4Al4Pt3Rh
_symmetry_space_group_name_H-M   'P 1'
_cell_length_a   4.52769800
_cell_length_b   7.11855477
_cell_length_c   7.95724795
_cell_angle_alpha   90.25267586
_cell_angle_beta   90.00000000
_cell_angle_gamma   90.00000000
_symmetry_Int_Tables_number   1
_chemical_formula_structural   Pr4Al4Pt3Rh
_chemical_formula_sum   'Pr4 Al4 Pt3 Rh1'
_cell_volume   256.46490865
_cell_formula_units_Z   1
loop_
 _symmetry_equiv_pos_site_id
 _symmetry_equiv_pos_as_xyz
  1  'x, y, z'
loop_
 _atom_site_type_symbol
 _atom_site_label
 _atom_site_symmetry_multiplicity
 _atom_site_fract_x
 _atom_site_fract_y
 _atom_site_fract_z
 _atom_site_occupancy
  Pr  Pr0  1  0.250000  0.536288  0.179250  1
  Pr  Pr1  1  0.750000  0.462782  0.817375  1
  Pr  Pr2  1  0.750000  0.968417  0.680249  1
  Pr  Pr3  1  0.250000  0.038980  0.324021  1
  Al  Al4  1  0.250000  0.637077  0.564307  1
  Al  Al5  1  0.750000  0.358595  0.437003  1
  Al  Al6  1  0.750000  0.858107  0.064043  1
  Al  Al7  1  0.250000  0.142426  0.936481  1
  Pt  Pt8  1  0.250000  0.782857  0.882232  1
  Pt  Pt9  1  0.750000  0.217717  0.118035  1
  Pt  Pt10  1  0.750000  0.719273  0.381864  1
  Rh  Rh11  1  0.250000  0.277481  0.615139  1
