# generated using pymatgen
data_CsTbEr9(C2I9)2
_symmetry_space_group_name_H-M   'P 1'
_cell_length_a   11.45361675
_cell_length_b   11.46254713
_cell_length_c   11.45908232
_cell_angle_alpha   113.25336677
_cell_angle_beta   86.70438533
_cell_angle_gamma   120.12820528
_symmetry_Int_Tables_number   1
_chemical_formula_structural   CsTbEr9(C2I9)2
_chemical_formula_sum   'Cs1 Tb1 Er9 C4 I18'
_cell_volume   1176.61240071
_cell_formula_units_Z   1
loop_
 _symmetry_equiv_pos_site_id
 _symmetry_equiv_pos_as_xyz
  1  'x, y, z'
loop_
 _atom_site_type_symbol
 _atom_site_label
 _atom_site_symmetry_multiplicity
 _atom_site_fract_x
 _atom_site_fract_y
 _atom_site_fract_z
 _atom_site_occupancy
  Cs  Cs0  1  0.499919  0.999872  0.500216  1
  Tb  Tb1  1  0.895151  0.055565  0.999509  1
  Er  Er2  1  0.683077  0.727331  0.714888  1
  Er  Er3  1  0.275949  0.350616  0.015568  1
  Er  Er4  1  0.093337  0.385526  0.288574  1
  Er  Er5  1  0.964851  0.037611  0.322328  1
  Er  Er6  1  0.906848  0.613508  0.710813  1
  Er  Er7  1  0.101891  0.945430  0.000420  1
  Er  Er8  1  0.035735  0.962266  0.677741  1
  Er  Er9  1  0.317979  0.273032  0.285597  1
  Er  Er10  1  0.724528  0.649050  0.984389  1
  C  C11  1  0.152396  0.218816  0.119660  1
  C  C12  1  0.849103  0.780235  0.880177  1
  C  C13  1  0.925759  0.857101  0.803533  1
  C  C14  1  0.075734  0.142013  0.196390  1
  I  I15  1  0.452609  0.531390  0.832968  1
  I  I16  1  0.380272  0.041000  0.156970  1
  I  I17  1  0.780486  0.855873  0.502916  1
  I  I18  1  0.840228  0.312448  0.155963  1
  I  I19  1  0.548064  0.468946  0.167090  1
  I  I20  1  0.219965  0.144067  0.497360  1
  I  I21  1  0.315688  0.097186  0.829782  1
  I  I22  1  0.683419  0.901444  0.171669  1
  I  I23  1  0.972673  0.756776  0.169218  1
  I  I24  1  0.934963  0.296926  0.499022  1
  I  I25  1  0.029236  0.244566  0.829375  1
  I  I26  1  0.065536  0.703305  0.500970  1
  I  I27  1  0.259507  0.618034  0.181783  1
  I  I28  1  0.740395  0.381313  0.818059  1
  I  I29  1  0.645059  0.439360  0.504077  1
  I  I30  1  0.159633  0.692306  0.847386  1
  I  I31  1  0.615471  0.956597  0.839824  1
  I  I32  1  0.354542  0.560492  0.495766  1
