# generated using pymatgen
data_Ho12Si12Pt3Au
_symmetry_space_group_name_H-M   'P 1'
_cell_length_a   4.23973100
_cell_length_b   10.70079923
_cell_length_c   12.31458527
_cell_angle_alpha   90.02369392
_cell_angle_beta   90.00000000
_cell_angle_gamma   90.00000000
_symmetry_Int_Tables_number   1
_chemical_formula_structural   Ho12Si12Pt3Au
_chemical_formula_sum   'Ho12 Si12 Pt3 Au1'
_cell_volume   558.69433954
_cell_formula_units_Z   1
loop_
 _symmetry_equiv_pos_site_id
 _symmetry_equiv_pos_as_xyz
  1  'x, y, z'
loop_
 _atom_site_type_symbol
 _atom_site_label
 _atom_site_symmetry_multiplicity
 _atom_site_fract_x
 _atom_site_fract_y
 _atom_site_fract_z
 _atom_site_occupancy
  Ho  Ho0  1  0.250000  0.878736  0.021510  1
  Ho  Ho1  1  0.250000  0.623773  0.519819  1
  Ho  Ho2  1  0.750000  0.120744  0.980406  1
  Ho  Ho3  1  0.750000  0.378452  0.477646  1
  Ho  Ho4  1  0.250000  0.919865  0.600299  1
  Ho  Ho5  1  0.250000  0.580623  0.101634  1
  Ho  Ho6  1  0.750000  0.079922  0.398106  1
  Ho  Ho7  1  0.750000  0.419639  0.899504  1
  Ho  Ho8  1  0.250000  0.665439  0.802861  1
  Ho  Ho9  1  0.250000  0.839580  0.301110  1
  Ho  Ho10  1  0.750000  0.339140  0.198244  1
  Ho  Ho11  1  0.750000  0.158123  0.698544  1
  Si  Si12  1  0.250000  0.014505  0.822924  1
  Si  Si13  1  0.250000  0.484009  0.324257  1
  Si  Si14  1  0.750000  0.983674  0.177356  1
  Si  Si15  1  0.750000  0.524290  0.675781  1
  Si  Si16  1  0.250000  0.241291  0.847739  1
  Si  Si17  1  0.250000  0.253640  0.342068  1
  Si  Si18  1  0.750000  0.754471  0.157221  1
  Si  Si19  1  0.750000  0.749169  0.656606  1
  Si  Si20  1  0.250000  0.186152  0.535781  1
  Si  Si21  1  0.250000  0.305297  0.041767  1
  Si  Si22  1  0.750000  0.805249  0.458751  1
  Si  Si23  1  0.750000  0.694601  0.960260  1
  Pt  Pt24  1  0.250000  0.110322  0.180871  1
  Pt  Pt25  1  0.750000  0.611334  0.318271  1
  Pt  Pt26  1  0.750000  0.889290  0.819071  1
  Au  Au27  1  0.250000  0.388670  0.681591  1
