# generated using pymatgen
data_YbTm2Al3Ge2Pt
_symmetry_space_group_name_H-M   'P 1'
_cell_length_a   6.96161700
_cell_length_b   6.94196414
_cell_length_c   4.21242100
_cell_angle_alpha   90.00000000
_cell_angle_beta   90.00000000
_cell_angle_gamma   120.09369852
_symmetry_Int_Tables_number   1
_chemical_formula_structural   YbTm2Al3Ge2Pt
_chemical_formula_sum   'Yb1 Tm2 Al3 Ge2 Pt1'
_cell_volume   176.13435422
_cell_formula_units_Z   1
loop_
 _symmetry_equiv_pos_site_id
 _symmetry_equiv_pos_as_xyz
  1  'x, y, z'
loop_
 _atom_site_type_symbol
 _atom_site_label
 _atom_site_symmetry_multiplicity
 _atom_site_fract_x
 _atom_site_fract_y
 _atom_site_fract_z
 _atom_site_occupancy
  Yb  Yb0  1  0.417087  0.000000  0.000000  1
  Tm  Tm1  1  0.001319  0.415817  0.000000  1
  Tm  Tm2  1  0.585502  0.584183  0.000000  1
  Al  Al3  1  0.766806  0.000000  0.499999  1
  Al  Al4  1  0.232653  0.236034  0.499999  1
  Al  Al5  1  0.996618  0.763966  0.499999  1
  Ge  Ge6  1  0.670739  0.337468  0.499999  1
  Ge  Ge7  1  0.333271  0.662532  0.499999  1
  Pt  Pt8  1  0.996006  0.000000  0.000000  1
