# generated using pymatgen
data_Tb7YTi7Si16Mo5
_symmetry_space_group_name_H-M   'P 1'
_cell_length_a   6.81442379
_cell_length_b   7.01329738
_cell_length_c   13.23558120
_cell_angle_alpha   90.04955245
_cell_angle_beta   89.96507380
_cell_angle_gamma   89.95833012
_symmetry_Int_Tables_number   1
_chemical_formula_structural   Tb7YTi7Si16Mo5
_chemical_formula_sum   'Tb7 Y1 Ti7 Si16 Mo5'
_cell_volume   632.54882284
_cell_formula_units_Z   1
loop_
 _symmetry_equiv_pos_site_id
 _symmetry_equiv_pos_as_xyz
  1  'x, y, z'
loop_
 _atom_site_type_symbol
 _atom_site_label
 _atom_site_symmetry_multiplicity
 _atom_site_fract_x
 _atom_site_fract_y
 _atom_site_fract_z
 _atom_site_occupancy
  Tb  Tb0  1  0.503698  0.330233  0.096934  1
  Tb  Tb1  1  0.002924  0.170684  0.403259  1
  Tb  Tb2  1  0.496669  0.671505  0.596422  1
  Tb  Tb3  1  0.996646  0.829997  0.903258  1
  Tb  Tb4  1  0.495084  0.669395  0.901910  1
  Tb  Tb5  1  0.998097  0.830722  0.596011  1
  Tb  Tb6  1  0.503329  0.329264  0.404602  1
  Y  Y7  1  0.003354  0.170531  0.097256  1
  Ti  Ti8  1  0.836252  0.326792  0.626679  1
  Ti  Ti9  1  0.331751  0.173050  0.872783  1
  Ti  Ti10  1  0.167050  0.672441  0.126865  1
  Ti  Ti11  1  0.666775  0.829087  0.373419  1
  Ti  Ti12  1  0.166681  0.673125  0.374071  1
  Ti  Ti13  1  0.667551  0.827475  0.126806  1
  Ti  Ti14  1  0.832345  0.325490  0.871239  1
  Si  Si15  1  0.655748  0.040763  0.544914  1
  Si  Si16  1  0.158083  0.458030  0.956448  1
  Si  Si17  1  0.341216  0.959066  0.043803  1
  Si  Si18  1  0.841177  0.540429  0.456351  1
  Si  Si19  1  0.339058  0.958134  0.457701  1
  Si  Si20  1  0.842388  0.540778  0.044419  1
  Si  Si21  1  0.656716  0.040475  0.956216  1
  Si  Si22  1  0.161628  0.457815  0.544144  1
  Si  Si23  1  0.534303  0.370510  0.748161  1
  Si  Si24  1  0.037943  0.126509  0.749810  1
  Si  Si25  1  0.463594  0.628843  0.250297  1
  Si  Si26  1  0.964224  0.872733  0.250174  1
  Si  Si27  1  0.797973  0.622613  0.749132  1
  Si  Si28  1  0.300231  0.878784  0.749926  1
  Si  Si29  1  0.203275  0.377049  0.250594  1
  Si  Si30  1  0.701755  0.123639  0.249958  1
  Mo  Mo31  1  0.331344  0.171213  0.626416  1
  Mo  Mo32  1  0.662986  0.011506  0.749786  1
  Mo  Mo33  1  0.159528  0.488208  0.749732  1
  Mo  Mo34  1  0.338857  0.991143  0.250176  1
  Mo  Mo35  1  0.839769  0.511968  0.250324  1
