# generated using pymatgen
data_Sc6Al24FeTc(RuPt2)2
_symmetry_space_group_name_H-M   'P 1'
_cell_length_a   8.69930946
_cell_length_b   8.69930906
_cell_length_c   9.35664700
_cell_angle_alpha   90.20273821
_cell_angle_beta   89.79726838
_cell_angle_gamma   119.85077201
_symmetry_Int_Tables_number   1
_chemical_formula_structural   Sc6Al24FeTc(RuPt2)2
_chemical_formula_sum   'Sc6 Al24 Fe1 Tc1 Ru2 Pt4'
_cell_volume   614.14070365
_cell_formula_units_Z   1
loop_
 _symmetry_equiv_pos_site_id
 _symmetry_equiv_pos_as_xyz
  1  'x, y, z'
loop_
 _atom_site_type_symbol
 _atom_site_label
 _atom_site_symmetry_multiplicity
 _atom_site_fract_x
 _atom_site_fract_y
 _atom_site_fract_z
 _atom_site_occupancy
  Sc  Sc0  1  0.189667  0.382966  0.251912  1
  Sc  Sc1  1  0.810333  0.617034  0.748088  1
  Sc  Sc2  1  0.617034  0.810333  0.251912  1
  Sc  Sc3  1  0.382966  0.189667  0.748088  1
  Sc  Sc4  1  0.192061  0.807939  0.251041  1
  Sc  Sc5  1  0.807939  0.192061  0.748959  1
  Al  Al6  1  0.333392  0.666608  0.044443  1
  Al  Al7  1  0.666608  0.333392  0.955557  1
  Al  Al8  1  0.669513  0.330487  0.539842  1
  Al  Al9  1  0.330487  0.669513  0.460158  1
  Al  Al10  1  0.155064  0.319592  0.575434  1
  Al  Al11  1  0.844936  0.680408  0.424566  1
  Al  Al12  1  0.680408  0.844936  0.575434  1
  Al  Al13  1  0.838515  0.677941  0.082120  1
  Al  Al14  1  0.319592  0.155064  0.424566  1
  Al  Al15  1  0.161485  0.322059  0.917880  1
  Al  Al16  1  0.161024  0.838976  0.575914  1
  Al  Al17  1  0.322059  0.161485  0.082120  1
  Al  Al18  1  0.838976  0.161024  0.424086  1
  Al  Al19  1  0.677941  0.838515  0.917880  1
  Al  Al20  1  0.838355  0.161645  0.082288  1
  Al  Al21  1  0.161645  0.838355  0.917712  1
  Al  Al22  1  0.560861  0.121863  0.254015  1
  Al  Al23  1  0.439139  0.878137  0.745985  1
  Al  Al24  1  0.878137  0.439139  0.254015  1
  Al  Al25  1  0.121863  0.560861  0.745985  1
  Al  Al26  1  0.562497  0.437503  0.250505  1
  Al  Al27  1  0.437503  0.562497  0.749495  1
  Al  Al28  1  0.999376  0.000624  0.257328  1
  Al  Al29  1  0.000624  0.999376  0.742672  1
  Fe  Fe30  1  0.000000  0.000000  0.500000  1
  Tc  Tc31  1  0.000000  0.000000  0.000000  1
  Ru  Ru32  1  0.500000  0.000000  0.500000  1
  Ru  Ru33  1  0.000000  0.500000  0.500000  1
  Pt  Pt34  1  0.500000  0.000000  0.000000  1
  Pt  Pt35  1  0.000000  0.500000  0.000000  1
  Pt  Pt36  1  0.500000  0.500000  0.000000  1
  Pt  Pt37  1  0.500000  0.500000  0.500000  1
