# generated using pymatgen
data_Er3Th2Ni19
_symmetry_space_group_name_H-M   'P 1'
_cell_length_a   4.93286988
_cell_length_b   4.93286938
_cell_length_c   16.43287700
_cell_angle_alpha   81.36777983
_cell_angle_beta   81.36778071
_cell_angle_gamma   59.99999003
_symmetry_Int_Tables_number   1
_chemical_formula_structural   Er3Th2Ni19
_chemical_formula_sum   'Er3 Th2 Ni19'
_cell_volume   341.05243471
_cell_formula_units_Z   1
loop_
 _symmetry_equiv_pos_site_id
 _symmetry_equiv_pos_as_xyz
  1  'x, y, z'
loop_
 _atom_site_type_symbol
 _atom_site_label
 _atom_site_symmetry_multiplicity
 _atom_site_fract_x
 _atom_site_fract_y
 _atom_site_fract_z
 _atom_site_occupancy
  Er  Er0  1  0.000000  0.000000  0.000000  1
  Er  Er1  1  0.847518  0.847518  0.457446  1
  Er  Er2  1  0.152482  0.152482  0.542554  1
  Th  Th3  1  0.921065  0.921065  0.236806  1
  Th  Th4  1  0.078935  0.078935  0.763194  1
  Ni  Ni5  1  0.500000  0.500000  0.500000  1
  Ni  Ni6  1  0.749506  0.749507  0.751482  1
  Ni  Ni7  1  0.250493  0.250493  0.248519  1
  Ni  Ni8  1  0.666700  0.666700  0.999903  1
  Ni  Ni9  1  0.333300  0.333300  0.000097  1
  Ni  Ni10  1  0.583954  0.583954  0.248140  1
  Ni  Ni11  1  0.416046  0.416046  0.751860  1
  Ni  Ni12  1  0.375142  0.375142  0.373232  1
  Ni  Ni13  1  0.876482  0.375142  0.373232  1
  Ni  Ni14  1  0.375142  0.876482  0.373232  1
  Ni  Ni15  1  0.624858  0.624858  0.626768  1
  Ni  Ni16  1  0.123518  0.624858  0.626768  1
  Ni  Ni17  1  0.624858  0.123518  0.626768  1
  Ni  Ni18  1  0.459485  0.459485  0.121508  1
  Ni  Ni19  1  0.959522  0.459485  0.121508  1
  Ni  Ni20  1  0.459485  0.959522  0.121508  1
  Ni  Ni21  1  0.540515  0.540515  0.878492  1
  Ni  Ni22  1  0.040478  0.540515  0.878492  1
  Ni  Ni23  1  0.540515  0.040478  0.878492  1
