# generated using pymatgen
data_Sr4ZnCo7(AsO4)8
_symmetry_space_group_name_H-M   'P 1'
_cell_length_a   9.91158231
_cell_length_b   8.75349769
_cell_length_c   9.45918231
_cell_angle_alpha   88.34579894
_cell_angle_beta   89.98677978
_cell_angle_gamma   90.02476267
_symmetry_Int_Tables_number   1
_chemical_formula_structural   Sr4ZnCo7(AsO4)8
_chemical_formula_sum   'Sr4 Zn1 Co7 As8 O32'
_cell_volume   820.34611876
_cell_formula_units_Z   1
loop_
 _symmetry_equiv_pos_site_id
 _symmetry_equiv_pos_as_xyz
  1  'x, y, z'
loop_
 _atom_site_type_symbol
 _atom_site_label
 _atom_site_symmetry_multiplicity
 _atom_site_fract_x
 _atom_site_fract_y
 _atom_site_fract_z
 _atom_site_occupancy
  Sr  Sr0  1  0.917100  0.249754  0.615435  1
  Sr  Sr1  1  0.416873  0.750166  0.884911  1
  Sr  Sr2  1  0.083197  0.750285  0.384816  1
  Sr  Sr3  1  0.583062  0.249690  0.115042  1
  Zn  Zn4  1  0.573413  0.073500  0.720777  1
  Co  Co5  1  0.685013  0.574944  0.452296  1
  Co  Co6  1  0.185016  0.424864  0.047617  1
  Co  Co7  1  0.315024  0.424969  0.547715  1
  Co  Co8  1  0.814961  0.575245  0.952371  1
  Co  Co9  1  0.927094  0.073426  0.222510  1
  Co  Co10  1  0.426959  0.926606  0.277374  1
  Co  Co11  1  0.073037  0.926547  0.777454  1
  As  As12  1  0.416682  0.558113  0.249677  1
  As  As13  1  0.916691  0.441843  0.250357  1
  As  As14  1  0.583357  0.441447  0.750440  1
  As  As15  1  0.083310  0.558130  0.749641  1
  As  As16  1  0.204543  0.048416  0.062900  1
  As  As17  1  0.704194  0.951302  0.437106  1
  As  As18  1  0.795503  0.951702  0.936962  1
  As  As19  1  0.295737  0.048677  0.562852  1
  O  O20  1  0.429709  0.736838  0.167983  1
  O  O21  1  0.929662  0.263151  0.332057  1
  O  O22  1  0.569131  0.263095  0.832549  1
  O  O23  1  0.070322  0.736803  0.667935  1
  O  O24  1  0.634425  0.783398  0.497867  1
  O  O25  1  0.134562  0.216335  0.002218  1
  O  O26  1  0.364993  0.216671  0.501471  1
  O  O27  1  0.865441  0.783709  0.997777  1
  O  O28  1  0.701864  0.432153  0.617922  1
  O  O29  1  0.201777  0.567638  0.882046  1
  O  O30  1  0.298176  0.567669  0.382084  1
  O  O31  1  0.798227  0.432385  0.117953  1
  O  O32  1  0.707121  0.084909  0.568048  1
  O  O33  1  0.206512  0.914896  0.932142  1
  O  O34  1  0.293534  0.914979  0.432167  1
  O  O35  1  0.793542  0.084996  0.068023  1
  O  O36  1  0.874807  0.565073  0.382699  1
  O  O37  1  0.374791  0.434999  0.117300  1
  O  O38  1  0.125188  0.434930  0.617300  1
  O  O39  1  0.625251  0.564833  0.882670  1
  O  O40  1  0.897418  0.026728  0.802750  1
  O  O41  1  0.396886  0.973998  0.697660  1
  O  O42  1  0.102827  0.973277  0.197230  1
  O  O43  1  0.602779  0.026825  0.303010  1
  O  O44  1  0.934839  0.480584  0.812249  1
  O  O45  1  0.435036  0.519209  0.687781  1
  O  O46  1  0.065164  0.519401  0.187770  1
  O  O47  1  0.565128  0.480617  0.312212  1
  O  O48  1  0.631078  0.930071  0.880032  1
  O  O49  1  0.131241  0.069786  0.620259  1
  O  O50  1  0.369021  0.069911  0.120308  1
  O  O51  1  0.868780  0.930507  0.380277  1
