# generated using pymatgen
data_K3Li2ZrAs3
_symmetry_space_group_name_H-M   'P 1'
_cell_length_a   10.45444764
_cell_length_b   10.45444813
_cell_length_c   15.18666500
_cell_angle_alpha   90.00000000
_cell_angle_beta   90.00000000
_cell_angle_gamma   143.32167393
_symmetry_Int_Tables_number   1
_chemical_formula_structural   K3Li2ZrAs3
_chemical_formula_sum   'K12 Li8 Zr4 As12'
_cell_volume   991.45495553
_cell_formula_units_Z   4
loop_
 _symmetry_equiv_pos_site_id
 _symmetry_equiv_pos_as_xyz
  1  'x, y, z'
loop_
 _atom_site_type_symbol
 _atom_site_label
 _atom_site_symmetry_multiplicity
 _atom_site_fract_x
 _atom_site_fract_y
 _atom_site_fract_z
 _atom_site_occupancy
  K  K0  1  0.603957  0.948810  0.826073  1
  K  K1  1  0.285445  0.285445  0.319757  1
  K  K2  1  0.214555  0.214555  0.819757  1
  K  K3  1  0.714555  0.714555  0.680243  1
  K  K4  1  0.448810  0.103957  0.673927  1
  K  K5  1  0.896043  0.551190  0.326073  1
  K  K6  1  0.051190  0.396043  0.173927  1
  K  K7  1  0.396043  0.051190  0.173927  1
  K  K8  1  0.551190  0.896043  0.326073  1
  K  K9  1  0.103957  0.448810  0.673927  1
  K  K10  1  0.948810  0.603957  0.826073  1
  K  K11  1  0.785445  0.785445  0.180243  1
  Li  Li12  1  0.083250  0.916750  0.000000  1
  Li  Li13  1  0.583250  0.416750  0.500000  1
  Li  Li14  1  0.916750  0.083250  0.000000  1
  Li  Li15  1  0.750809  0.249191  0.000000  1
  Li  Li16  1  0.749191  0.250809  0.500000  1
  Li  Li17  1  0.249191  0.750809  0.000000  1
  Li  Li18  1  0.250809  0.749191  0.500000  1
  Li  Li19  1  0.416750  0.583250  0.500000  1
  Zr  Zr20  1  0.088002  0.911998  0.500000  1
  Zr  Zr21  1  0.411998  0.588002  0.000000  1
  Zr  Zr22  1  0.911998  0.088002  0.500000  1
  Zr  Zr23  1  0.588002  0.411998  0.000000  1
  As  As24  1  0.073451  0.400260  0.405745  1
  As  As25  1  0.900260  0.573451  0.094255  1
  As  As26  1  0.426549  0.099740  0.905745  1
  As  As27  1  0.599740  0.926549  0.594255  1
  As  As28  1  0.926549  0.599740  0.594255  1
  As  As29  1  0.099740  0.426549  0.905745  1
  As  As30  1  0.573451  0.900260  0.094255  1
  As  As31  1  0.400260  0.073451  0.405745  1
  As  As32  1  0.229748  0.229748  0.590491  1
  As  As33  1  0.729748  0.729748  0.909509  1
  As  As34  1  0.270252  0.270252  0.090491  1
  As  As35  1  0.770252  0.770252  0.409509  1
