# generated using pymatgen
data_Dy8Te3IrO24
_symmetry_space_group_name_H-M   'P 1'
_cell_length_a   5.30537670
_cell_length_b   9.15784247
_cell_length_c   9.99472625
_cell_angle_alpha   89.86356989
_cell_angle_beta   90.09116597
_cell_angle_gamma   89.99628749
_symmetry_Int_Tables_number   1
_chemical_formula_structural   Dy8Te3IrO24
_chemical_formula_sum   'Dy8 Te3 Ir1 O24'
_cell_volume   485.59981830
_cell_formula_units_Z   1
loop_
 _symmetry_equiv_pos_site_id
 _symmetry_equiv_pos_as_xyz
  1  'x, y, z'
loop_
 _atom_site_type_symbol
 _atom_site_label
 _atom_site_symmetry_multiplicity
 _atom_site_fract_x
 _atom_site_fract_y
 _atom_site_fract_z
 _atom_site_occupancy
  Dy  Dy0  1  0.020231  0.395900  0.038076  1
  Dy  Dy1  1  0.037737  0.282985  0.635921  1
  Dy  Dy2  1  0.459812  0.717954  0.132364  1
  Dy  Dy3  1  0.479401  0.605028  0.538673  1
  Dy  Dy4  1  0.519091  0.100954  0.965518  1
  Dy  Dy5  1  0.537022  0.219012  0.366493  1
  Dy  Dy6  1  0.961141  0.783902  0.866497  1
  Dy  Dy7  1  0.979587  0.897564  0.459052  1
  Te  Te8  1  0.460409  0.995214  0.647961  1
  Te  Te9  1  0.538646  0.494558  0.852683  1
  Te  Te10  1  0.960059  0.505951  0.352433  1
  Ir  Ir11  1  0.041150  0.003112  0.146308  1
  O  O12  1  0.085261  0.656094  0.472171  1
  O  O13  1  0.168053  0.552103  0.201119  1
  O  O14  1  0.189690  0.857734  0.262178  1
  O  O15  1  0.180326  0.859162  0.677133  1
  O  O16  1  0.231149  0.385781  0.432708  1
  O  O17  1  0.253113  0.085972  0.504544  1
  O  O18  1  0.248597  0.910861  0.003235  1
  O  O19  1  0.266212  0.612781  0.932394  1
  O  O20  1  0.324088  0.136646  0.181040  1
  O  O21  1  0.311336  0.140275  0.762938  1
  O  O22  1  0.330726  0.448959  0.701024  1
  O  O23  1  0.414959  0.343360  0.972928  1
  O  O24  1  0.587453  0.845793  0.527507  1
  O  O25  1  0.671616  0.950864  0.798860  1
  O  O26  1  0.685164  0.642280  0.739113  1
  O  O27  1  0.680163  0.641565  0.321050  1
  O  O28  1  0.729932  0.116062  0.566744  1
  O  O29  1  0.754235  0.415569  0.495562  1
  O  O30  1  0.744283  0.585201  0.995829  1
  O  O31  1  0.767768  0.883030  0.067212  1
  O  O32  1  0.820883  0.360874  0.821359  1
  O  O33  1  0.813267  0.358410  0.238730  1
  O  O34  1  0.831626  0.053055  0.295206  1
  O  O35  1  0.915813  0.155436  0.027436  1
