# generated using pymatgen
data_Tb5In3O
_symmetry_space_group_name_H-M   'P 1'
_cell_length_a   9.15999579
_cell_length_b   9.15999478
_cell_length_c   9.15999500
_cell_angle_alpha   127.02960746
_cell_angle_beta   127.02961054
_cell_angle_gamma   78.20237962
_symmetry_Int_Tables_number   1
_chemical_formula_structural   Tb5In3O
_chemical_formula_sum   'Tb10 In6 O2'
_cell_volume   474.49394932
_cell_formula_units_Z   2
loop_
 _symmetry_equiv_pos_site_id
 _symmetry_equiv_pos_as_xyz
  1  'x, y, z'
loop_
 _atom_site_type_symbol
 _atom_site_label
 _atom_site_symmetry_multiplicity
 _atom_site_fract_x
 _atom_site_fract_y
 _atom_site_fract_z
 _atom_site_occupancy
  Tb  Tb0  1  0.501356  0.308630  0.500000  1
  Tb  Tb1  1  0.808630  0.001356  0.500000  1
  Tb  Tb2  1  0.001356  0.501356  0.192725  1
  Tb  Tb3  1  0.308630  0.808630  0.807275  1
  Tb  Tb4  1  0.501157  0.693867  0.500000  1
  Tb  Tb5  1  0.193867  0.001157  0.500000  1
  Tb  Tb6  1  0.001157  0.501157  0.807289  1
  Tb  Tb7  1  0.693867  0.193867  0.192711  1
  Tb  Tb8  1  0.501332  0.501332  0.000000  1
  Tb  Tb9  1  0.001332  0.001332  0.000000  1
  In  In10  1  0.136617  0.365847  0.500000  1
  In  In11  1  0.865847  0.636617  0.500000  1
  In  In12  1  0.636617  0.136617  0.770770  1
  In  In13  1  0.365847  0.865847  0.229230  1
  In  In14  1  0.751382  0.751382  0.000000  1
  In  In15  1  0.251382  0.251382  0.000000  1
  O  O16  1  0.751231  0.251231  0.500000  1
  O  O17  1  0.251231  0.751231  0.500000  1
