# generated using pymatgen
data_Pr2Th6CrSe17
_symmetry_space_group_name_H-M   'P 1'
_cell_length_a   8.40669192
_cell_length_b   8.40669152
_cell_length_c   11.23856988
_cell_angle_alpha   80.60854165
_cell_angle_beta   80.60853618
_cell_angle_gamma   65.29710709
_symmetry_Int_Tables_number   1
_chemical_formula_structural   Pr2Th6CrSe17
_chemical_formula_sum   'Pr2 Th6 Cr1 Se17'
_cell_volume   707.89233826
_cell_formula_units_Z   1
loop_
 _symmetry_equiv_pos_site_id
 _symmetry_equiv_pos_as_xyz
  1  'x, y, z'
loop_
 _atom_site_type_symbol
 _atom_site_label
 _atom_site_symmetry_multiplicity
 _atom_site_fract_x
 _atom_site_fract_y
 _atom_site_fract_z
 _atom_site_occupancy
  Pr  Pr0  1  0.814516  0.305636  0.297197  1
  Pr  Pr1  1  0.694364  0.185484  0.702803  1
  Th  Th2  1  0.182833  0.696422  0.704951  1
  Th  Th3  1  0.303578  0.817167  0.295049  1
  Th  Th4  1  0.203101  0.204421  0.544632  1
  Th  Th5  1  0.795579  0.796899  0.455368  1
  Th  Th6  1  0.681341  0.679867  0.979434  1
  Th  Th7  1  0.320133  0.318659  0.020566  1
  Cr  Cr8  1  0.999442  0.000558  0.000000  1
  Se  Se9  1  0.826318  0.432478  0.533549  1
  Se  Se10  1  0.567522  0.173682  0.466451  1
  Se  Se11  1  0.180273  0.568136  0.466805  1
  Se  Se12  1  0.431864  0.819727  0.533195  1
  Se  Se13  1  0.946832  0.319465  0.023482  1
  Se  Se14  1  0.680534  0.053168  0.976518  1
  Se  Se15  1  0.052514  0.680614  0.973644  1
  Se  Se16  1  0.319386  0.947486  0.026356  1
  Se  Se17  1  0.219539  0.207818  0.277999  1
  Se  Se18  1  0.792182  0.780461  0.722001  1
  Se  Se19  1  0.062054  0.053217  0.777737  1
  Se  Se20  1  0.946783  0.937946  0.222263  1
  Se  Se21  1  0.292117  0.305686  0.759086  1
  Se  Se22  1  0.694314  0.707883  0.240914  1
  Se  Se23  1  0.512925  0.526027  0.834387  1
  Se  Se24  1  0.473973  0.487075  0.165613  1
  Se  Se25  1  0.005982  0.994018  0.500000  1
