# generated using pymatgen
data_Er11TmGaCo4Sn
_symmetry_space_group_name_H-M   'P 1'
_cell_length_a   8.24544400
_cell_length_b   8.24544289
_cell_length_c   8.24645439
_cell_angle_alpha   112.09460076
_cell_angle_beta   109.37978767
_cell_angle_gamma   106.97461169
_symmetry_Int_Tables_number   1
_chemical_formula_structural   Er11TmGaCo4Sn
_chemical_formula_sum   'Er11 Tm1 Ga1 Co4 Sn1'
_cell_volume   430.75620077
_cell_formula_units_Z   1
loop_
 _symmetry_equiv_pos_site_id
 _symmetry_equiv_pos_as_xyz
  1  'x, y, z'
loop_
 _atom_site_type_symbol
 _atom_site_label
 _atom_site_symmetry_multiplicity
 _atom_site_fract_x
 _atom_site_fract_y
 _atom_site_fract_z
 _atom_site_occupancy
  Er  Er0  1  0.031709  0.733138  0.298610  1
  Er  Er1  1  0.968128  0.266979  0.701295  1
  Er  Er2  1  0.565471  0.266901  0.298610  1
  Er  Er3  1  0.434316  0.733167  0.701295  1
  Er  Er4  1  0.674956  0.861097  0.186145  1
  Er  Er5  1  0.325046  0.511189  0.186145  1
  Er  Er6  1  0.325123  0.139115  0.813980  1
  Er  Er7  1  0.674866  0.488855  0.813980  1
  Er  Er8  1  0.180419  0.218604  0.399026  1
  Er  Er9  1  0.819699  0.218634  0.038332  1
  Er  Er10  1  0.180236  0.781337  0.961573  1
  Tm  Tm11  1  0.819467  0.781183  0.600649  1
  Ga  Ga12  1  0.999672  0.500087  0.499760  1
  Co  Co13  1  0.659704  0.499696  0.159400  1
  Co  Co14  1  0.340153  0.499928  0.840081  1
  Co  Co15  1  0.885505  0.885163  0.000327  1
  Co  Co16  1  0.115164  0.114822  0.000327  1
  Sn  Sn17  1  0.500364  0.000104  0.500468  1
