# generated using pymatgen
data_Sr5CaSi9(Pb3O11)3
_symmetry_space_group_name_H-M   'P 1'
_cell_length_a   10.18533100
_cell_length_b   10.18533041
_cell_length_c   10.61115600
_cell_angle_alpha   90.00000000
_cell_angle_beta   90.00000000
_cell_angle_gamma   119.99999867
_symmetry_Int_Tables_number   1
_chemical_formula_structural   Sr5CaSi9(Pb3O11)3
_chemical_formula_sum   'Sr5 Ca1 Si9 Pb9 O33'
_cell_volume   953.33075986
_cell_formula_units_Z   1
loop_
 _symmetry_equiv_pos_site_id
 _symmetry_equiv_pos_as_xyz
  1  'x, y, z'
loop_
 _atom_site_type_symbol
 _atom_site_label
 _atom_site_symmetry_multiplicity
 _atom_site_fract_x
 _atom_site_fract_y
 _atom_site_fract_z
 _atom_site_occupancy
  Sr  Sr0  1  0.000000  0.000000  0.162940  1
  Sr  Sr1  1  0.333333  0.666667  0.177475  1
  Sr  Sr2  1  0.000000  0.000000  0.837060  1
  Sr  Sr3  1  0.333333  0.666667  0.822525  1
  Sr  Sr4  1  0.000000  0.000000  0.500000  1
  Ca  Ca5  1  0.333333  0.666667  0.500000  1
  Si  Si6  1  0.265413  0.952693  0.353888  1
  Si  Si7  1  0.047307  0.312720  0.353888  1
  Si  Si8  1  0.643489  0.929524  0.000000  1
  Si  Si9  1  0.687280  0.734587  0.646112  1
  Si  Si10  1  0.286036  0.356511  0.000000  1
  Si  Si11  1  0.265413  0.952693  0.646112  1
  Si  Si12  1  0.070476  0.713964  0.000000  1
  Si  Si13  1  0.047307  0.312720  0.646112  1
  Si  Si14  1  0.687280  0.734587  0.353888  1
  Pb  Pb15  1  0.937760  0.608505  0.682379  1
  Pb  Pb16  1  0.391495  0.329256  0.317621  1
  Pb  Pb17  1  0.646158  0.588235  0.000000  1
  Pb  Pb18  1  0.942077  0.353842  0.000000  1
  Pb  Pb19  1  0.670744  0.062240  0.682379  1
  Pb  Pb20  1  0.411765  0.057923  0.000000  1
  Pb  Pb21  1  0.937760  0.608505  0.317621  1
  Pb  Pb22  1  0.391495  0.329256  0.682379  1
  Pb  Pb23  1  0.670744  0.062240  0.317621  1
  O  O24  1  0.175182  0.175861  0.000000  1
  O  O25  1  0.290032  0.031726  0.500000  1
  O  O26  1  0.968274  0.258305  0.500000  1
  O  O27  1  0.405514  0.422521  0.121610  1
  O  O28  1  0.130292  0.208817  0.331259  1
  O  O29  1  0.349951  0.093305  0.747645  1
  O  O30  1  0.168847  0.491007  0.650825  1
  O  O31  1  0.017007  0.594486  0.121610  1
  O  O32  1  0.322160  0.831153  0.349175  1
  O  O33  1  0.168847  0.491007  0.349175  1
  O  O34  1  0.791183  0.921474  0.331259  1
  O  O35  1  0.322160  0.831153  0.650825  1
  O  O36  1  0.906695  0.256646  0.747645  1
  O  O37  1  0.349951  0.093305  0.252355  1
  O  O38  1  0.000679  0.824818  0.000000  1
  O  O39  1  0.743354  0.650049  0.747645  1
  O  O40  1  0.743354  0.650049  0.252355  1
  O  O41  1  0.741695  0.709968  0.500000  1
  O  O42  1  0.545977  0.740918  0.000000  1
  O  O43  1  0.130292  0.208817  0.668741  1
  O  O44  1  0.577479  0.982993  0.878390  1
  O  O45  1  0.078526  0.869708  0.331259  1
  O  O46  1  0.906695  0.256646  0.252355  1
  O  O47  1  0.508993  0.677840  0.650825  1
  O  O48  1  0.078526  0.869708  0.668741  1
  O  O49  1  0.577479  0.982993  0.121610  1
  O  O50  1  0.259082  0.805059  0.000000  1
  O  O51  1  0.194941  0.454023  0.000000  1
  O  O52  1  0.508993  0.677840  0.349175  1
  O  O53  1  0.791183  0.921474  0.668741  1
  O  O54  1  0.824139  0.999321  0.000000  1
  O  O55  1  0.017007  0.594486  0.878390  1
  O  O56  1  0.405514  0.422521  0.878390  1
