# generated using pymatgen
data_Yb8As5I
_symmetry_space_group_name_H-M   'P 1'
_cell_length_a   7.79025500
_cell_length_b   7.79025518
_cell_length_c   7.79025506
_cell_angle_alpha   109.16752816
_cell_angle_beta   110.08033533
_cell_angle_gamma   109.16752633
_symmetry_Int_Tables_number   1
_chemical_formula_structural   Yb8As5I
_chemical_formula_sum   'Yb8 As5 I1'
_cell_volume   363.91189761
_cell_formula_units_Z   1
loop_
 _symmetry_equiv_pos_site_id
 _symmetry_equiv_pos_as_xyz
  1  'x, y, z'
loop_
 _atom_site_type_symbol
 _atom_site_label
 _atom_site_symmetry_multiplicity
 _atom_site_fract_x
 _atom_site_fract_y
 _atom_site_fract_z
 _atom_site_occupancy
  Yb  Yb0  1  0.157179  0.510547  0.989991  1
  Yb  Yb1  1  0.484528  0.989078  0.615352  1
  Yb  Yb2  1  0.384648  0.369176  0.373726  1
  Yb  Yb3  1  0.004550  0.130824  0.515472  1
  Yb  Yb4  1  0.853367  0.832812  0.842821  1
  Yb  Yb5  1  0.010009  0.667188  0.520555  1
  Yb  Yb6  1  0.626274  0.510922  0.995450  1
  Yb  Yb7  1  0.479445  0.989453  0.146633  1
  As  As8  1  0.111520  0.865926  0.242350  1
  As  As9  1  0.376424  0.634074  0.745593  1
  As  As10  1  0.254407  0.130830  0.888480  1
  As  As11  1  0.757650  0.369170  0.623576  1
  As  As12  1  0.625000  0.750000  0.375000  1
  I  I13  1  0.875000  0.250000  0.125000  1
