# generated using pymatgen
data_YLu15(In3Ir)2
_symmetry_space_group_name_H-M   'P 1'
_cell_length_a   10.22751800
_cell_length_b   10.22751815
_cell_length_c   6.93494300
_cell_angle_alpha   90.00000000
_cell_angle_beta   90.00000000
_cell_angle_gamma   120.00000599
_symmetry_Int_Tables_number   1
_chemical_formula_structural   YLu15(In3Ir)2
_chemical_formula_sum   'Y1 Lu15 In6 Ir2'
_cell_volume   628.22326078
_cell_formula_units_Z   1
loop_
 _symmetry_equiv_pos_site_id
 _symmetry_equiv_pos_as_xyz
  1  'x, y, z'
loop_
 _atom_site_type_symbol
 _atom_site_label
 _atom_site_symmetry_multiplicity
 _atom_site_fract_x
 _atom_site_fract_y
 _atom_site_fract_z
 _atom_site_occupancy
  Y  Y0  1  0.000000  0.000000  0.995285  1
  Lu  Lu1  1  0.467270  0.532730  0.481553  1
  Lu  Lu2  1  0.065461  0.532730  0.481553  1
  Lu  Lu3  1  0.467270  0.934539  0.481553  1
  Lu  Lu4  1  0.532890  0.467110  0.981026  1
  Lu  Lu5  1  0.934219  0.467110  0.981026  1
  Lu  Lu6  1  0.532890  0.065781  0.981026  1
  Lu  Lu7  1  0.822579  0.177421  0.275512  1
  Lu  Lu8  1  0.354842  0.177421  0.275512  1
  Lu  Lu9  1  0.822579  0.645158  0.275512  1
  Lu  Lu10  1  0.177571  0.822429  0.774307  1
  Lu  Lu11  1  0.644858  0.822429  0.774307  1
  Lu  Lu12  1  0.177571  0.355142  0.774307  1
  Lu  Lu13  1  0.333333  0.666667  0.101159  1
  Lu  Lu14  1  0.666667  0.333333  0.600334  1
  Lu  Lu15  1  0.000000  0.000000  0.495821  1
  In  In16  1  0.163379  0.836621  0.235774  1
  In  In17  1  0.673240  0.836621  0.235774  1
  In  In18  1  0.163379  0.326760  0.235774  1
  In  In19  1  0.837179  0.162821  0.732440  1
  In  In20  1  0.325642  0.162821  0.732440  1
  In  In21  1  0.837179  0.674358  0.732440  1
  Ir  Ir22  1  0.333333  0.666667  0.705866  1
  Ir  Ir23  1  0.666667  0.333333  0.204249  1
