# generated using pymatgen
data_Ce4SiPt3Rh7Au2
_symmetry_space_group_name_H-M   'P 1'
_cell_length_a   7.32173342
_cell_length_b   7.33038186
_cell_length_c   7.34357136
_cell_angle_alpha   107.98623753
_cell_angle_beta   110.29871278
_cell_angle_gamma   110.22671643
_symmetry_Int_Tables_number   1
_chemical_formula_structural   Ce4SiPt3Rh7Au2
_chemical_formula_sum   'Ce4 Si1 Pt3 Rh7 Au2'
_cell_volume   302.92081331
_cell_formula_units_Z   1
loop_
 _symmetry_equiv_pos_site_id
 _symmetry_equiv_pos_as_xyz
  1  'x, y, z'
loop_
 _atom_site_type_symbol
 _atom_site_label
 _atom_site_symmetry_multiplicity
 _atom_site_fract_x
 _atom_site_fract_y
 _atom_site_fract_z
 _atom_site_occupancy
  Ce  Ce0  1  0.003642  0.001821  0.501821  1
  Ce  Ce1  1  0.018331  0.509165  0.009165  1
  Ce  Ce2  1  0.491285  0.983101  0.990121  1
  Ce  Ce3  1  0.491285  0.508186  0.501165  1
  Si  Si4  1  0.000224  0.000112  0.000112  1
  Pt  Pt5  1  0.504157  0.252078  0.752078  1
  Pt  Pt6  1  0.248151  0.497300  0.748017  1
  Pt  Pt7  1  0.248151  0.750851  0.500135  1
  Rh  Rh8  1  0.502223  0.751111  0.251111  1
  Rh  Rh9  1  0.726884  0.723721  0.000371  1
  Rh  Rh10  1  0.275518  0.002157  0.277168  1
  Rh  Rh11  1  0.995989  0.268609  0.268764  1
  Rh  Rh12  1  0.275518  0.273361  0.998350  1
  Rh  Rh13  1  0.726884  0.003163  0.726514  1
  Rh  Rh14  1  0.995989  0.727380  0.727226  1
  Au  Au15  1  0.747884  0.250191  0.499194  1
  Au  Au16  1  0.747884  0.497694  0.248691  1
