# generated using pymatgen
data_Tm8InAgPt2
_symmetry_space_group_name_H-M   'P 1'
_cell_length_a   9.53022341
_cell_length_b   9.53022217
_cell_length_c   9.52000400
_cell_angle_alpha   60.03546129
_cell_angle_beta   60.03546558
_cell_angle_gamma   59.69591236
_symmetry_Int_Tables_number   1
_chemical_formula_structural   Tm8InAgPt2
_chemical_formula_sum   'Tm16 In2 Ag2 Pt4'
_cell_volume   610.31177000
_cell_formula_units_Z   2
loop_
 _symmetry_equiv_pos_site_id
 _symmetry_equiv_pos_as_xyz
  1  'x, y, z'
loop_
 _atom_site_type_symbol
 _atom_site_label
 _atom_site_symmetry_multiplicity
 _atom_site_fract_x
 _atom_site_fract_y
 _atom_site_fract_z
 _atom_site_occupancy
  Tm  Tm0  1  0.353379  0.353379  0.352161  1
  Tm  Tm1  1  0.353379  0.353379  0.941083  1
  Tm  Tm2  1  0.356523  0.935132  0.354174  1
  Tm  Tm3  1  0.935132  0.356523  0.354174  1
  Tm  Tm4  1  0.810138  0.190720  0.190284  1
  Tm  Tm5  1  0.190720  0.810138  0.808858  1
  Tm  Tm6  1  0.190720  0.810138  0.190284  1
  Tm  Tm7  1  0.810138  0.190720  0.808858  1
  Tm  Tm8  1  0.191388  0.191388  0.808612  1
  Tm  Tm9  1  0.811215  0.811215  0.188785  1
  Tm  Tm10  1  0.931311  0.562241  0.565667  1
  Tm  Tm11  1  0.562241  0.931311  0.940780  1
  Tm  Tm12  1  0.562241  0.931311  0.565667  1
  Tm  Tm13  1  0.931311  0.562241  0.940780  1
  Tm  Tm14  1  0.563927  0.563927  0.936073  1
  Tm  Tm15  1  0.935893  0.935893  0.564107  1
  In  In16  1  0.583440  0.255391  0.580584  1
  In  In17  1  0.255391  0.583440  0.580584  1
  Ag  Ag18  1  0.585493  0.585493  0.583458  1
  Ag  Ag19  1  0.585493  0.585493  0.245555  1
  Pt  Pt20  1  0.143819  0.143819  0.144009  1
  Pt  Pt21  1  0.143819  0.143819  0.568353  1
  Pt  Pt22  1  0.143092  0.569797  0.143556  1
  Pt  Pt23  1  0.569797  0.143092  0.143556  1
