# generated using pymatgen
data_SrNiSb12Os2Ru
_symmetry_space_group_name_H-M   'P 1'
_cell_length_a   8.17163209
_cell_length_b   8.12671904
_cell_length_c   8.11570156
_cell_angle_alpha   109.33253196
_cell_angle_beta   109.57066078
_cell_angle_gamma   109.63869808
_symmetry_Int_Tables_number   1
_chemical_formula_structural   SrNiSb12Os2Ru
_chemical_formula_sum   'Sr1 Ni1 Sb12 Os2 Ru1'
_cell_volume   414.22516569
_cell_formula_units_Z   1
loop_
 _symmetry_equiv_pos_site_id
 _symmetry_equiv_pos_as_xyz
  1  'x, y, z'
loop_
 _atom_site_type_symbol
 _atom_site_label
 _atom_site_symmetry_multiplicity
 _atom_site_fract_x
 _atom_site_fract_y
 _atom_site_fract_z
 _atom_site_occupancy
  Sr  Sr0  1  0.000000  0.000000  0.000000  1
  Ni  Ni1  1  0.500000  0.000000  0.000000  1
  Sb  Sb2  1  0.159514  0.817049  0.660962  1
  Sb  Sb3  1  0.840486  0.182951  0.339038  1
  Sb  Sb4  1  0.841955  0.501534  0.659882  1
  Sb  Sb5  1  0.158045  0.498466  0.340118  1
  Sb  Sb6  1  0.817881  0.658845  0.156974  1
  Sb  Sb7  1  0.182119  0.341155  0.843026  1
  Sb  Sb8  1  0.501463  0.660984  0.844170  1
  Sb  Sb9  1  0.498537  0.339016  0.155830  1
  Sb  Sb10  1  0.658383  0.156826  0.817606  1
  Sb  Sb11  1  0.341617  0.843174  0.182394  1
  Sb  Sb12  1  0.659884  0.842684  0.501729  1
  Sb  Sb13  1  0.340116  0.157316  0.498271  1
  Os  Os14  1  0.000000  0.000000  0.500000  1
  Os  Os15  1  0.500000  0.500000  0.500000  1
  Ru  Ru16  1  0.000000  0.500000  0.000000  1
