# generated using pymatgen
data_Y10GaBi5
_symmetry_space_group_name_H-M   'P 1'
_cell_length_a   8.21539300
_cell_length_b   9.45733400
_cell_length_c   12.08155500
_cell_angle_alpha   90.00000000
_cell_angle_beta   90.00000000
_cell_angle_gamma   90.00000000
_symmetry_Int_Tables_number   1
_chemical_formula_structural   Y10GaBi5
_chemical_formula_sum   'Y20 Ga2 Bi10'
_cell_volume   938.68506059
_cell_formula_units_Z   2
loop_
 _symmetry_equiv_pos_site_id
 _symmetry_equiv_pos_as_xyz
  1  'x, y, z'
loop_
 _atom_site_type_symbol
 _atom_site_label
 _atom_site_symmetry_multiplicity
 _atom_site_fract_x
 _atom_site_fract_y
 _atom_site_fract_z
 _atom_site_occupancy
  Y  Y0  1  0.963411  0.250000  0.009610  1
  Y  Y1  1  0.691602  0.546974  0.059986  1
  Y  Y2  1  0.691602  0.953025  0.059986  1
  Y  Y3  1  0.347679  0.750000  0.213991  1
  Y  Y4  1  0.324558  0.250000  0.213631  1
  Y  Y5  1  0.824559  0.250000  0.286369  1
  Y  Y6  1  0.847678  0.750000  0.286010  1
  Y  Y7  1  0.191601  0.546974  0.440014  1
  Y  Y8  1  0.191601  0.953025  0.440014  1
  Y  Y9  1  0.463411  0.250000  0.490390  1
  Y  Y10  1  0.523038  0.750000  0.509599  1
  Y  Y11  1  0.812677  0.067080  0.555771  1
  Y  Y12  1  0.812677  0.432920  0.555771  1
  Y  Y13  1  0.145910  0.250000  0.705587  1
  Y  Y14  1  0.187656  0.750000  0.720122  1
  Y  Y15  1  0.687657  0.750000  0.779878  1
  Y  Y16  1  0.645910  0.250000  0.794414  1
  Y  Y17  1  0.312676  0.067080  0.944230  1
  Y  Y18  1  0.312676  0.432920  0.944230  1
  Y  Y19  1  0.023037  0.750000  0.990401  1
  Ga  Ga20  1  0.586555  0.250000  0.039196  1
  Ga  Ga21  1  0.086555  0.250000  0.460803  1
  Bi  Bi22  1  0.062943  0.501843  0.176108  1
  Bi  Bi23  1  0.062943  0.998156  0.176108  1
  Bi  Bi24  1  0.562944  0.501843  0.323893  1
  Bi  Bi25  1  0.562944  0.998156  0.323893  1
  Bi  Bi26  1  0.911419  0.750000  0.541563  1
  Bi  Bi27  1  0.437666  0.003414  0.675381  1
  Bi  Bi28  1  0.437666  0.496586  0.675381  1
  Bi  Bi29  1  0.937667  0.003414  0.824619  1
  Bi  Bi30  1  0.937667  0.496586  0.824619  1
  Bi  Bi31  1  0.411419  0.750000  0.958437  1
