# generated using pymatgen
data_Lu2MnC2
_symmetry_space_group_name_H-M   'P 1'
_cell_length_a   4.90079000
_cell_length_b   6.24035400
_cell_length_c   9.49691700
_cell_angle_alpha   90.00000000
_cell_angle_beta   90.00000000
_cell_angle_gamma   90.00000000
_symmetry_Int_Tables_number   1
_chemical_formula_structural   Lu2MnC2
_chemical_formula_sum   'Lu8 Mn4 C8'
_cell_volume   290.44102620
_cell_formula_units_Z   4
loop_
 _symmetry_equiv_pos_site_id
 _symmetry_equiv_pos_as_xyz
  1  'x, y, z'
loop_
 _atom_site_type_symbol
 _atom_site_label
 _atom_site_symmetry_multiplicity
 _atom_site_fract_x
 _atom_site_fract_y
 _atom_site_fract_z
 _atom_site_occupancy
  Lu  Lu0  1  0.250000  0.819734  0.943672  1
  Lu  Lu1  1  0.250000  0.319734  0.556328  1
  Lu  Lu2  1  0.750000  0.180266  0.056328  1
  Lu  Lu3  1  0.750000  0.680266  0.443672  1
  Lu  Lu4  1  0.250000  0.471497  0.216711  1
  Lu  Lu5  1  0.250000  0.971497  0.283289  1
  Lu  Lu6  1  0.750000  0.528503  0.783289  1
  Lu  Lu7  1  0.750000  0.028503  0.716711  1
  Mn  Mn8  1  0.250000  0.273579  0.859438  1
  Mn  Mn9  1  0.250000  0.773579  0.640562  1
  Mn  Mn10  1  0.750000  0.726421  0.140562  1
  Mn  Mn11  1  0.750000  0.226421  0.359438  1
  C  C12  1  0.250000  0.039932  0.738588  1
  C  C13  1  0.250000  0.539932  0.761412  1
  C  C14  1  0.750000  0.960068  0.261412  1
  C  C15  1  0.750000  0.460068  0.238588  1
  C  C16  1  0.250000  0.687863  0.459935  1
  C  C17  1  0.250000  0.187863  0.040065  1
  C  C18  1  0.750000  0.312137  0.540065  1
  C  C19  1  0.750000  0.812137  0.959935  1
