# generated using pymatgen
data_Ho4ReTc2B16Mo
_symmetry_space_group_name_H-M   'P 1'
_cell_length_a   3.60421700
_cell_length_b   5.97502149
_cell_length_c   11.55707243
_cell_angle_alpha   90.08084568
_cell_angle_beta   90.00000000
_cell_angle_gamma   90.00000000
_symmetry_Int_Tables_number   1
_chemical_formula_structural   Ho4ReTc2B16Mo
_chemical_formula_sum   'Ho4 Re1 Tc2 B16 Mo1'
_cell_volume   248.88447406
_cell_formula_units_Z   1
loop_
 _symmetry_equiv_pos_site_id
 _symmetry_equiv_pos_as_xyz
  1  'x, y, z'
loop_
 _atom_site_type_symbol
 _atom_site_label
 _atom_site_symmetry_multiplicity
 _atom_site_fract_x
 _atom_site_fract_y
 _atom_site_fract_z
 _atom_site_occupancy
  Ho  Ho0  1  0.000000  0.628166  0.152336  1
  Ho  Ho1  1  0.000000  0.372754  0.847796  1
  Ho  Ho2  1  0.000000  0.127545  0.351953  1
  Ho  Ho3  1  0.000000  0.872673  0.648323  1
  Re  Re4  1  0.000000  0.869297  0.913978  1
  Tc  Tc5  1  0.000000  0.634998  0.412835  1
  Tc  Tc6  1  0.000000  0.364803  0.588338  1
  B  B7  1  0.500000  0.976251  0.194046  1
  B  B8  1  0.500000  0.021877  0.806249  1
  B  B9  1  0.500000  0.477437  0.308301  1
  B  B10  1  0.500000  0.523459  0.692115  1
  B  B11  1  0.500000  0.786313  0.315595  1
  B  B12  1  0.500000  0.212767  0.684842  1
  B  B13  1  0.500000  0.289816  0.186611  1
  B  B14  1  0.500000  0.711907  0.814440  1
  B  B15  1  0.500000  0.863804  0.469060  1
  B  B16  1  0.500000  0.136102  0.531133  1
  B  B17  1  0.500000  0.366913  0.031272  1
  B  B18  1  0.500000  0.635011  0.967383  1
  B  B19  1  0.500000  0.883876  0.046768  1
  B  B20  1  0.500000  0.113322  0.951287  1
  B  B21  1  0.500000  0.386550  0.453011  1
  B  B22  1  0.500000  0.613266  0.547362  1
  Mo  Mo23  1  0.000000  0.131095  0.084968  1
