# generated using pymatgen
data_Ho4Mg3ZnIr3Pt
_symmetry_space_group_name_H-M   'P 1'
_cell_length_a   4.06819800
_cell_length_b   7.06256677
_cell_length_c   8.47687343
_cell_angle_alpha   89.72004197
_cell_angle_beta   90.00000000
_cell_angle_gamma   90.00000000
_symmetry_Int_Tables_number   1
_chemical_formula_structural   Ho4Mg3ZnIr3Pt
_chemical_formula_sum   'Ho4 Mg3 Zn1 Ir3 Pt1'
_cell_volume   243.55394189
_cell_formula_units_Z   1
loop_
 _symmetry_equiv_pos_site_id
 _symmetry_equiv_pos_as_xyz
  1  'x, y, z'
loop_
 _atom_site_type_symbol
 _atom_site_label
 _atom_site_symmetry_multiplicity
 _atom_site_fract_x
 _atom_site_fract_y
 _atom_site_fract_z
 _atom_site_occupancy
  Ho  Ho0  1  0.250000  0.533050  0.176186  1
  Ho  Ho1  1  0.750000  0.456693  0.819976  1
  Ho  Ho2  1  0.250000  0.057874  0.327852  1
  Ho  Ho3  1  0.750000  0.963931  0.678989  1
  Mg  Mg4  1  0.250000  0.134863  0.939293  1
  Mg  Mg5  1  0.750000  0.864818  0.060235  1
  Mg  Mg6  1  0.250000  0.630053  0.558564  1
  Zn  Zn7  1  0.750000  0.362624  0.438681  1
  Ir  Ir8  1  0.250000  0.252658  0.625066  1
  Ir  Ir9  1  0.750000  0.249206  0.132741  1
  Ir  Ir10  1  0.250000  0.746281  0.870272  1
  Pt  Pt11  1  0.750000  0.747950  0.372146  1
