# generated using pymatgen
data_Tb2DyEr2Re2C7
_symmetry_space_group_name_H-M   'P 1'
_cell_length_a   8.36379486
_cell_length_b   8.30008810
_cell_length_c   3.41453000
_cell_angle_alpha   90.00000000
_cell_angle_beta   90.00000000
_cell_angle_gamma   122.70648274
_symmetry_Int_Tables_number   1
_chemical_formula_structural   Tb2DyEr2Re2C7
_chemical_formula_sum   'Tb2 Dy1 Er2 Re2 C7'
_cell_volume   199.45509816
_cell_formula_units_Z   1
loop_
 _symmetry_equiv_pos_site_id
 _symmetry_equiv_pos_as_xyz
  1  'x, y, z'
loop_
 _atom_site_type_symbol
 _atom_site_label
 _atom_site_symmetry_multiplicity
 _atom_site_fract_x
 _atom_site_fract_y
 _atom_site_fract_z
 _atom_site_occupancy
  Tb  Tb0  1  0.074646  0.329854  0.500000  1
  Tb  Tb1  1  0.925354  0.670146  0.500000  1
  Dy  Dy2  1  0.500000  0.500000  0.000000  1
  Er  Er3  1  0.660616  0.923440  0.500000  1
  Er  Er4  1  0.339384  0.076560  0.500000  1
  Re  Re5  1  0.715919  0.286020  0.000000  1
  Re  Re6  1  0.284081  0.713980  0.000000  1
  C  C7  1  0.628227  0.374346  0.500000  1
  C  C8  1  0.371773  0.625654  0.500000  1
  C  C9  1  0.000000  0.000000  0.000000  1
  C  C10  1  0.173830  0.165560  0.000000  1
  C  C11  1  0.826170  0.834440  0.000000  1
  C  C12  1  0.000000  0.500000  0.000000  1
  C  C13  1  0.500000  0.000000  0.000000  1
