# generated using pymatgen
data_Tb5Ho11Cd4TcPt3
_symmetry_space_group_name_H-M   'P 1'
_cell_length_a   9.69593586
_cell_length_b   9.69870811
_cell_length_c   9.69870764
_cell_angle_alpha   59.36872984
_cell_angle_beta   59.34591287
_cell_angle_gamma   59.34591051
_symmetry_Int_Tables_number   1
_chemical_formula_structural   Tb5Ho11Cd4TcPt3
_chemical_formula_sum   'Tb5 Ho11 Cd4 Tc1 Pt3'
_cell_volume   635.42455127
_cell_formula_units_Z   1
loop_
 _symmetry_equiv_pos_site_id
 _symmetry_equiv_pos_as_xyz
  1  'x, y, z'
loop_
 _atom_site_type_symbol
 _atom_site_label
 _atom_site_symmetry_multiplicity
 _atom_site_fract_x
 _atom_site_fract_y
 _atom_site_fract_z
 _atom_site_occupancy
  Tb  Tb0  1  0.555817  0.938578  0.938578  1
  Tb  Tb1  1  0.565003  0.935794  0.564497  1
  Tb  Tb2  1  0.938440  0.556211  0.937920  1
  Tb  Tb3  1  0.565003  0.564497  0.935794  1
  Tb  Tb4  1  0.938440  0.937920  0.556211  1
  Ho  Ho5  1  0.351361  0.351557  0.351557  1
  Ho  Ho6  1  0.350434  0.350761  0.948707  1
  Ho  Ho7  1  0.350434  0.948707  0.350761  1
  Ho  Ho8  1  0.948369  0.350766  0.350766  1
  Ho  Ho9  1  0.815512  0.187880  0.187880  1
  Ho  Ho10  1  0.188529  0.809932  0.809932  1
  Ho  Ho11  1  0.187649  0.815330  0.188229  1
  Ho  Ho12  1  0.810032  0.188778  0.809789  1
  Ho  Ho13  1  0.187649  0.188229  0.815330  1
  Ho  Ho14  1  0.810032  0.809789  0.188778  1
  Ho  Ho15  1  0.936495  0.564196  0.564196  1
  Cd  Cd16  1  0.580065  0.579781  0.579781  1
  Cd  Cd17  1  0.580426  0.580570  0.254931  1
  Cd  Cd18  1  0.580426  0.254931  0.580570  1
  Cd  Cd19  1  0.254350  0.580622  0.580622  1
  Tc  Tc20  1  0.143863  0.143815  0.143815  1
  Pt  Pt21  1  0.144462  0.144089  0.572873  1
  Pt  Pt22  1  0.144462  0.572873  0.144089  1
  Pt  Pt23  1  0.572749  0.144392  0.144392  1
