# generated using pymatgen
data_K4Hf3Zr5Se16
_symmetry_space_group_name_H-M   'P 1'
_cell_length_a   6.56087015
_cell_length_b   7.58175306
_cell_length_c   16.48047825
_cell_angle_alpha   89.99932384
_cell_angle_beta   90.02006254
_cell_angle_gamma   90.01464224
_symmetry_Int_Tables_number   1
_chemical_formula_structural   K4Hf3Zr5Se16
_chemical_formula_sum   'K4 Hf3 Zr5 Se16'
_cell_volume   819.78666143
_cell_formula_units_Z   1
loop_
 _symmetry_equiv_pos_site_id
 _symmetry_equiv_pos_as_xyz
  1  'x, y, z'
loop_
 _atom_site_type_symbol
 _atom_site_label
 _atom_site_symmetry_multiplicity
 _atom_site_fract_x
 _atom_site_fract_y
 _atom_site_fract_z
 _atom_site_occupancy
  K  K0  1  0.342305  0.000040  0.999802  1
  K  K1  1  0.657695  0.499960  0.500198  1
  K  K2  1  0.027464  0.999844  0.500017  1
  K  K3  1  0.972536  0.500156  0.999983  1
  Hf  Hf4  1  0.500000  0.250000  0.250000  1
  Hf  Hf5  1  0.500000  0.750000  0.750000  1
  Hf  Hf6  1  0.500000  0.750000  0.250000  1
  Zr  Zr7  1  0.000706  0.000045  0.248932  1
  Zr  Zr8  1  0.000610  0.001411  0.751071  1
  Zr  Zr9  1  0.999294  0.499955  0.251068  1
  Zr  Zr10  1  0.999390  0.498589  0.748929  1
  Zr  Zr11  1  0.500000  0.250000  0.750000  1
  Se  Se12  1  0.829885  0.248406  0.348650  1
  Se  Se13  1  0.829661  0.751610  0.651724  1
  Se  Se14  1  0.170064  0.748444  0.151383  1
  Se  Se15  1  0.165439  0.251512  0.849784  1
  Se  Se16  1  0.170115  0.251594  0.151350  1
  Se  Se17  1  0.170339  0.748390  0.848276  1
  Se  Se18  1  0.829936  0.751556  0.348617  1
  Se  Se19  1  0.834561  0.248488  0.650216  1
  Se  Se20  1  0.665068  0.000028  0.153111  1
  Se  Se21  1  0.667183  0.996691  0.847836  1
  Se  Se22  1  0.334932  0.499972  0.346889  1
  Se  Se23  1  0.332817  0.503309  0.652164  1
  Se  Se24  1  0.339800  0.999957  0.346074  1
  Se  Se25  1  0.338139  0.996946  0.653180  1
  Se  Se26  1  0.660200  0.500043  0.153926  1
  Se  Se27  1  0.661861  0.503054  0.846820  1
