# generated using pymatgen
data_Gd3Mg3Cu2Rh
_symmetry_space_group_name_H-M   'P 1'
_cell_length_a   7.48525100
_cell_length_b   7.48525167
_cell_length_c   4.19774100
_cell_angle_alpha   90.00000000
_cell_angle_beta   90.00000000
_cell_angle_gamma   120.00000148
_symmetry_Int_Tables_number   1
_chemical_formula_structural   Gd3Mg3Cu2Rh
_chemical_formula_sum   'Gd3 Mg3 Cu2 Rh1'
_cell_volume   203.68499605
_cell_formula_units_Z   1
loop_
 _symmetry_equiv_pos_site_id
 _symmetry_equiv_pos_as_xyz
  1  'x, y, z'
loop_
 _atom_site_type_symbol
 _atom_site_label
 _atom_site_symmetry_multiplicity
 _atom_site_fract_x
 _atom_site_fract_y
 _atom_site_fract_z
 _atom_site_occupancy
  Gd  Gd0  1  0.411988  0.000000  0.500000  1
  Gd  Gd1  1  0.000000  0.411988  0.500000  1
  Gd  Gd2  1  0.588012  0.588012  0.500000  1
  Mg  Mg3  1  0.757357  0.000000  0.000000  1
  Mg  Mg4  1  0.242643  0.242643  0.000000  1
  Mg  Mg5  1  0.000000  0.757357  0.000000  1
  Cu  Cu6  1  0.666666  0.333333  0.000000  1
  Cu  Cu7  1  0.000000  0.000000  0.500000  1
  Rh  Rh8  1  0.333334  0.666667  0.000000  1
