# generated using pymatgen
data_Y4Lu16(HgBi3)3
_symmetry_space_group_name_H-M   'P 1'
_cell_length_a   8.11051655
_cell_length_b   9.34290700
_cell_length_c   11.86534500
_cell_angle_alpha   90.00000000
_cell_angle_beta   90.14933412
_cell_angle_gamma   90.00000000
_symmetry_Int_Tables_number   1
_chemical_formula_structural   Y4Lu16(HgBi3)3
_chemical_formula_sum   'Y4 Lu16 Hg3 Bi9'
_cell_volume   899.10297748
_cell_formula_units_Z   1
loop_
 _symmetry_equiv_pos_site_id
 _symmetry_equiv_pos_as_xyz
  1  'x, y, z'
loop_
 _atom_site_type_symbol
 _atom_site_label
 _atom_site_symmetry_multiplicity
 _atom_site_fract_x
 _atom_site_fract_y
 _atom_site_fract_z
 _atom_site_occupancy
  Y  Y0  1  0.317198  0.250000  0.212634  1
  Y  Y1  1  0.805626  0.250000  0.279874  1
  Y  Y2  1  0.684021  0.750000  0.785730  1
  Y  Y3  1  0.185747  0.750000  0.714418  1
  Lu  Lu4  1  0.342314  0.750000  0.207161  1
  Lu  Lu5  1  0.851702  0.750000  0.291799  1
  Lu  Lu6  1  0.653859  0.250000  0.790240  1
  Lu  Lu7  1  0.156067  0.250000  0.717014  1
  Lu  Lu8  1  0.686239  0.560959  0.058087  1
  Lu  Lu9  1  0.187923  0.929212  0.441658  1
  Lu  Lu10  1  0.314853  0.061788  0.944000  1
  Lu  Lu11  1  0.808277  0.445232  0.561706  1
  Lu  Lu12  1  0.314853  0.438212  0.944000  1
  Lu  Lu13  1  0.808277  0.054768  0.561706  1
  Lu  Lu14  1  0.686239  0.939041  0.058087  1
  Lu  Lu15  1  0.187923  0.570788  0.441658  1
  Lu  Lu16  1  0.480084  0.250000  0.491943  1
  Lu  Lu17  1  0.967915  0.250000  0.007238  1
  Lu  Lu18  1  0.534070  0.750000  0.507007  1
  Lu  Lu19  1  0.032725  0.750000  0.991661  1
  Hg  Hg20  1  0.405468  0.750000  0.963008  1
  Hg  Hg21  1  0.904742  0.750000  0.538141  1
  Hg  Hg22  1  0.596057  0.250000  0.035795  1
  Bi  Bi23  1  0.095269  0.250000  0.458406  1
  Bi  Bi24  1  0.554688  0.996393  0.323403  1
  Bi  Bi25  1  0.055607  0.501925  0.176283  1
  Bi  Bi26  1  0.441882  0.496796  0.675991  1
  Bi  Bi27  1  0.944098  0.002566  0.822837  1
  Bi  Bi28  1  0.441882  0.003204  0.675991  1
  Bi  Bi29  1  0.944098  0.497434  0.822837  1
  Bi  Bi30  1  0.554688  0.503607  0.323403  1
  Bi  Bi31  1  0.055607  0.998075  0.176283  1
