# generated using pymatgen
data_Rb6H12OsPt
_symmetry_space_group_name_H-M   'P 1'
_cell_length_a   6.16143480
_cell_length_b   6.20430865
_cell_length_c   10.74443900
_cell_angle_alpha   55.00083702
_cell_angle_beta   89.81305992
_cell_angle_gamma   89.78620806
_symmetry_Int_Tables_number   1
_chemical_formula_structural   Rb6H12OsPt
_chemical_formula_sum   'Rb6 H12 Os1 Pt1'
_cell_volume   336.45309442
_cell_formula_units_Z   1
loop_
 _symmetry_equiv_pos_site_id
 _symmetry_equiv_pos_as_xyz
  1  'x, y, z'
loop_
 _atom_site_type_symbol
 _atom_site_label
 _atom_site_symmetry_multiplicity
 _atom_site_fract_x
 _atom_site_fract_y
 _atom_site_fract_z
 _atom_site_occupancy
  Rb  Rb0  1  0.500000  0.500000  0.000000  1
  Rb  Rb1  1  0.000000  0.500000  0.500000  1
  Rb  Rb2  1  0.998256  0.725842  0.772735  1
  Rb  Rb3  1  0.497813  0.225869  0.773437  1
  Rb  Rb4  1  0.001744  0.274158  0.227265  1
  Rb  Rb5  1  0.502187  0.774131  0.226563  1
  H  H6  1  0.699019  0.836469  0.486510  1
  H  H7  1  0.211544  0.176167  0.009171  1
  H  H8  1  0.300981  0.163531  0.513490  1
  H  H9  1  0.788456  0.823833  0.990829  1
  H  H10  1  0.813479  0.203133  0.008267  1
  H  H11  1  0.321467  0.814235  0.489236  1
  H  H12  1  0.186521  0.796867  0.991733  1
  H  H13  1  0.678533  0.185765  0.510764  1
  H  H14  1  0.995907  0.783757  0.198280  1
  H  H15  1  0.496709  0.208436  0.313534  1
  H  H16  1  0.004093  0.216243  0.801720  1
  H  H17  1  0.503291  0.791564  0.686466  1
  Os  Os18  1  0.000000  0.000000  0.000000  1
  Pt  Pt19  1  0.500000  0.000000  0.500000  1
