# generated using pymatgen
data_Dy2Ga(PIr2)6
_symmetry_space_group_name_H-M   'P 1'
_cell_length_a   9.69939100
_cell_length_b   9.69939274
_cell_length_c   3.94035400
_cell_angle_alpha   90.00000000
_cell_angle_beta   90.00000000
_cell_angle_gamma   120.00000611
_symmetry_Int_Tables_number   1
_chemical_formula_structural   Dy2Ga(PIr2)6
_chemical_formula_sum   'Dy2 Ga1 P6 Ir12'
_cell_volume   321.03682912
_cell_formula_units_Z   1
loop_
 _symmetry_equiv_pos_site_id
 _symmetry_equiv_pos_as_xyz
  1  'x, y, z'
loop_
 _atom_site_type_symbol
 _atom_site_label
 _atom_site_symmetry_multiplicity
 _atom_site_fract_x
 _atom_site_fract_y
 _atom_site_fract_z
 _atom_site_occupancy
  Dy  Dy0  1  0.666667  0.333333  0.000000  1
  Dy  Dy1  1  0.000000  0.000000  0.500000  1
  Ga  Ga2  1  0.333333  0.666667  0.000000  1
  P  P3  1  0.455875  0.068879  0.500000  1
  P  P4  1  0.931121  0.386996  0.500000  1
  P  P5  1  0.613004  0.544125  0.500000  1
  P  P6  1  0.740795  0.950163  0.000000  1
  P  P7  1  0.049837  0.790631  0.000000  1
  P  P8  1  0.209369  0.259205  0.000000  1
  Ir  Ir9  1  0.725810  0.127015  0.500000  1
  Ir  Ir10  1  0.872985  0.598795  0.500000  1
  Ir  Ir11  1  0.401205  0.274190  0.500000  1
  Ir  Ir12  1  0.788525  0.737151  0.000000  1
  Ir  Ir13  1  0.262849  0.051373  0.000000  1
  Ir  Ir14  1  0.948627  0.211475  0.000000  1
  Ir  Ir15  1  0.610575  0.788402  0.500000  1
  Ir  Ir16  1  0.211598  0.822173  0.500000  1
  Ir  Ir17  1  0.177827  0.389425  0.500000  1
  Ir  Ir18  1  0.502601  0.957530  0.000000  1
  Ir  Ir19  1  0.042470  0.545070  0.000000  1
  Ir  Ir20  1  0.454930  0.497399  0.000000  1
