# generated using pymatgen
data_Er4TiOs7
_symmetry_space_group_name_H-M   'P 1'
_cell_length_a   5.38544400
_cell_length_b   5.38544373
_cell_length_c   8.63772200
_cell_angle_alpha   90.00000000
_cell_angle_beta   90.00000000
_cell_angle_gamma   120.00000167
_symmetry_Int_Tables_number   1
_chemical_formula_structural   Er4TiOs7
_chemical_formula_sum   'Er4 Ti1 Os7'
_cell_volume   216.95659357
_cell_formula_units_Z   1
loop_
 _symmetry_equiv_pos_site_id
 _symmetry_equiv_pos_as_xyz
  1  'x, y, z'
loop_
 _atom_site_type_symbol
 _atom_site_label
 _atom_site_symmetry_multiplicity
 _atom_site_fract_x
 _atom_site_fract_y
 _atom_site_fract_z
 _atom_site_occupancy
  Er  Er0  1  0.333333  0.666667  0.428754  1
  Er  Er1  1  0.666667  0.333333  0.571246  1
  Er  Er2  1  0.666667  0.333333  0.937776  1
  Er  Er3  1  0.333333  0.666667  0.062224  1
  Ti  Ti4  1  0.000000  0.000000  0.500000  1
  Os  Os5  1  0.000000  0.000000  0.000000  1
  Os  Os6  1  0.827162  0.172838  0.250553  1
  Os  Os7  1  0.827162  0.654325  0.250553  1
  Os  Os8  1  0.345675  0.172838  0.250553  1
  Os  Os9  1  0.172838  0.827162  0.749447  1
  Os  Os10  1  0.172838  0.345675  0.749447  1
  Os  Os11  1  0.654325  0.827162  0.749447  1
