# generated using pymatgen
data_Yb2Cu6Ir
_symmetry_space_group_name_H-M   'P 1'
_cell_length_a   4.96423702
_cell_length_b   5.08808668
_cell_length_c   12.94799107
_cell_angle_alpha   78.14220747
_cell_angle_beta   78.94803097
_cell_angle_gamma   60.80197719
_symmetry_Int_Tables_number   1
_chemical_formula_structural   Yb2Cu6Ir
_chemical_formula_sum   'Yb4 Cu12 Ir2'
_cell_volume   277.79364829
_cell_formula_units_Z   2
loop_
 _symmetry_equiv_pos_site_id
 _symmetry_equiv_pos_as_xyz
  1  'x, y, z'
loop_
 _atom_site_type_symbol
 _atom_site_label
 _atom_site_symmetry_multiplicity
 _atom_site_fract_x
 _atom_site_fract_y
 _atom_site_fract_z
 _atom_site_occupancy
  Yb  Yb0  1  0.952237  0.951278  0.144248  1
  Yb  Yb1  1  0.047763  0.048722  0.855752  1
  Yb  Yb2  1  0.849458  0.851742  0.449341  1
  Yb  Yb3  1  0.150542  0.148258  0.550659  1
  Cu  Cu4  1  0.724196  0.717669  0.833939  1
  Cu  Cu5  1  0.275804  0.282331  0.166061  1
  Cu  Cu6  1  0.614726  0.605443  0.165105  1
  Cu  Cu7  1  0.385274  0.394557  0.834895  1
  Cu  Cu8  1  0.000000  0.500000  0.000000  1
  Cu  Cu9  1  0.500000  0.500000  0.000000  1
  Cu  Cu10  1  0.388874  0.389546  0.328545  1
  Cu  Cu11  1  0.893035  0.389546  0.328545  1
  Cu  Cu12  1  0.391245  0.891569  0.325941  1
  Cu  Cu13  1  0.611126  0.610454  0.671455  1
  Cu  Cu14  1  0.106965  0.610454  0.671455  1
  Cu  Cu15  1  0.608755  0.108431  0.674059  1
  Ir  Ir16  1  0.500000  0.500000  0.500000  1
  Ir  Ir17  1  0.500000  0.000000  0.000000  1
