# generated using pymatgen
data_Dy5Ho7Pb10
_symmetry_space_group_name_H-M   'P 1'
_cell_length_a   11.73587707
_cell_length_b   11.73446832
_cell_length_c   11.73498728
_cell_angle_alpha   146.87428979
_cell_angle_beta   132.77316002
_cell_angle_gamma   58.89179458
_symmetry_Int_Tables_number   1
_chemical_formula_structural   Dy5Ho7Pb10
_chemical_formula_sum   'Dy5 Ho7 Pb10'
_cell_volume   642.78929966
_cell_formula_units_Z   1
loop_
 _symmetry_equiv_pos_site_id
 _symmetry_equiv_pos_as_xyz
  1  'x, y, z'
loop_
 _atom_site_type_symbol
 _atom_site_label
 _atom_site_symmetry_multiplicity
 _atom_site_fract_x
 _atom_site_fract_y
 _atom_site_fract_z
 _atom_site_occupancy
  Dy  Dy0  1  0.696250  0.946274  0.250009  1
  Dy  Dy1  1  0.250358  0.637740  0.612583  1
  Dy  Dy2  1  0.680565  0.941123  0.739450  1
  Dy  Dy3  1  0.025162  0.137781  0.887415  1
  Dy  Dy4  1  0.974865  0.862204  0.112613  1
  Ho  Ho5  1  0.798324  0.558805  0.239430  1
  Ho  Ho6  1  0.201710  0.441120  0.760579  1
  Ho  Ho7  1  0.303748  0.053796  0.750010  1
  Ho  Ho8  1  0.319369  0.058854  0.260594  1
  Ho  Ho9  1  0.303735  0.553746  0.249952  1
  Ho  Ho10  1  0.749744  0.362306  0.387489  1
  Ho  Ho11  1  0.696222  0.446214  0.749965  1
  Pb  Pb12  1  0.480144  0.574069  0.905756  1
  Pb  Pb13  1  0.598497  0.794166  0.803994  1
  Pb  Pb14  1  0.668314  0.074473  0.594144  1
  Pb  Pb15  1  0.000095  0.749819  0.749870  1
  Pb  Pb16  1  0.990141  0.294647  0.695830  1
  Pb  Pb17  1  0.519943  0.425678  0.094237  1
  Pb  Pb18  1  0.009974  0.705502  0.304244  1
  Pb  Pb19  1  0.401287  0.205739  0.195782  1
  Pb  Pb20  1  0.331475  0.925732  0.405781  1
  Pb  Pb21  1  0.000079  0.250213  0.250274  1
