# generated using pymatgen
data_Y7HoTi12Si15As
_symmetry_space_group_name_H-M   'P 1'
_cell_length_a   7.06225908
_cell_length_b   7.05515741
_cell_length_c   12.97641355
_cell_angle_alpha   89.98793981
_cell_angle_beta   89.83503723
_cell_angle_gamma   89.92389304
_symmetry_Int_Tables_number   1
_chemical_formula_structural   Y7HoTi12Si15As
_chemical_formula_sum   'Y7 Ho1 Ti12 Si15 As1'
_cell_volume   646.55107572
_cell_formula_units_Z   1
loop_
 _symmetry_equiv_pos_site_id
 _symmetry_equiv_pos_as_xyz
  1  'x, y, z'
loop_
 _atom_site_type_symbol
 _atom_site_label
 _atom_site_symmetry_multiplicity
 _atom_site_fract_x
 _atom_site_fract_y
 _atom_site_fract_z
 _atom_site_occupancy
  Y  Y0  1  0.341694  0.002196  0.466080  1
  Y  Y1  1  0.497153  0.842142  0.717333  1
  Y  Y2  1  0.502622  0.159021  0.216353  1
  Y  Y3  1  0.840733  0.497081  0.283130  1
  Y  Y4  1  0.158758  0.501807  0.783424  1
  Y  Y5  1  0.660259  0.995353  0.967416  1
  Y  Y6  1  0.000274  0.343125  0.532118  1
  Ho  Ho7  1  0.998076  0.658956  0.033514  1
  Ti  Ti8  1  0.325441  0.326744  0.999770  1
  Ti  Ti9  1  0.173151  0.826683  0.249976  1
  Ti  Ti10  1  0.823429  0.173732  0.750281  1
  Ti  Ti11  1  0.673294  0.673088  0.500031  1
  Ti  Ti12  1  0.153430  0.009372  0.875851  1
  Ti  Ti13  1  0.491676  0.651899  0.125990  1
  Ti  Ti14  1  0.509284  0.347920  0.627109  1
  Ti  Ti15  1  0.654303  0.494308  0.874561  1
  Ti  Ti16  1  0.347612  0.507829  0.373700  1
  Ti  Ti17  1  0.847690  0.991680  0.375768  1
  Ti  Ti18  1  0.008318  0.151626  0.123927  1
  Ti  Ti19  1  0.989436  0.844190  0.623205  1
  Si  Si20  1  0.368396  0.702572  0.934459  1
  Si  Si21  1  0.629610  0.298034  0.434898  1
  Si  Si22  1  0.703109  0.370519  0.065725  1
  Si  Si23  1  0.297949  0.630337  0.565557  1
  Si  Si24  1  0.797760  0.869155  0.184394  1
  Si  Si25  1  0.130540  0.202435  0.315553  1
  Si  Si26  1  0.870293  0.797744  0.815412  1
  Si  Si27  1  0.290010  0.951973  0.064557  1
  Si  Si28  1  0.547450  0.789990  0.314410  1
  Si  Si29  1  0.460865  0.211720  0.819140  1
  Si  Si30  1  0.790282  0.547088  0.685297  1
  Si  Si31  1  0.209194  0.452934  0.185176  1
  Si  Si32  1  0.709280  0.046741  0.564237  1
  Si  Si33  1  0.953218  0.290914  0.935683  1
  Si  Si34  1  0.047416  0.710114  0.434988  1
  As  As35  1  0.197998  0.128977  0.680976  1
