# generated using pymatgen
data_Yb3Pa(Pt2Pb)2
_symmetry_space_group_name_H-M   'P 1'
_cell_length_a   7.89301087
_cell_length_b   7.89301087
_cell_length_c   7.30893700
_cell_angle_alpha   90.00000000
_cell_angle_beta   90.00000000
_cell_angle_gamma   92.96941540
_symmetry_Int_Tables_number   1
_chemical_formula_structural   Yb3Pa(Pt2Pb)2
_chemical_formula_sum   'Yb6 Pa2 Pt8 Pb4'
_cell_volume   454.73262544
_cell_formula_units_Z   2
loop_
 _symmetry_equiv_pos_site_id
 _symmetry_equiv_pos_as_xyz
  1  'x, y, z'
loop_
 _atom_site_type_symbol
 _atom_site_label
 _atom_site_symmetry_multiplicity
 _atom_site_fract_x
 _atom_site_fract_y
 _atom_site_fract_z
 _atom_site_occupancy
  Yb  Yb0  1  0.666397  0.666397  0.000000  1
  Yb  Yb1  1  0.830771  0.169229  0.500000  1
  Yb  Yb2  1  0.333603  0.333603  0.000000  1
  Yb  Yb3  1  0.169229  0.830771  0.500000  1
  Yb  Yb4  1  0.832781  0.167219  0.000000  1
  Yb  Yb5  1  0.167219  0.832781  0.000000  1
  Pa  Pa6  1  0.327122  0.327122  0.500000  1
  Pa  Pa7  1  0.672878  0.672878  0.500000  1
  Pt  Pt8  1  0.867476  0.867476  0.737323  1
  Pt  Pt9  1  0.132524  0.132524  0.737323  1
  Pt  Pt10  1  0.623939  0.376061  0.731903  1
  Pt  Pt11  1  0.623939  0.376061  0.268097  1
  Pt  Pt12  1  0.376061  0.623939  0.268097  1
  Pt  Pt13  1  0.132524  0.132524  0.262677  1
  Pt  Pt14  1  0.867476  0.867476  0.262677  1
  Pt  Pt15  1  0.376061  0.623939  0.731903  1
  Pb  Pb16  1  0.500000  0.000000  0.757115  1
  Pb  Pb17  1  0.500000  0.000000  0.242885  1
  Pb  Pb18  1  0.000000  0.500000  0.757115  1
  Pb  Pb19  1  0.000000  0.500000  0.242885  1
