# generated using pymatgen
data_Yb8PrPd6
_symmetry_space_group_name_H-M   'P 1'
_cell_length_a   7.57928349
_cell_length_b   7.62953557
_cell_length_c   7.57541692
_cell_angle_alpha   70.82154787
_cell_angle_beta   70.97179259
_cell_angle_gamma   70.99103309
_symmetry_Int_Tables_number   1
_chemical_formula_structural   Yb8PrPd6
_chemical_formula_sum   'Yb8 Pr1 Pd6'
_cell_volume   379.23466463
_cell_formula_units_Z   1
loop_
 _symmetry_equiv_pos_site_id
 _symmetry_equiv_pos_as_xyz
  1  'x, y, z'
loop_
 _atom_site_type_symbol
 _atom_site_label
 _atom_site_symmetry_multiplicity
 _atom_site_fract_x
 _atom_site_fract_y
 _atom_site_fract_z
 _atom_site_occupancy
  Yb  Yb0  1  0.997128  0.998233  0.002798  1
  Yb  Yb1  1  0.801727  0.798398  0.800417  1
  Yb  Yb2  1  0.201368  0.200711  0.199835  1
  Yb  Yb3  1  0.330132  0.605208  0.846005  1
  Yb  Yb4  1  0.846216  0.330755  0.601208  1
  Yb  Yb5  1  0.603484  0.839863  0.331576  1
  Yb  Yb6  1  0.669712  0.398760  0.155331  1
  Yb  Yb7  1  0.155519  0.668099  0.396893  1
  Pr  Pr8  1  0.398453  0.155168  0.666282  1
  Pd  Pd9  1  0.160201  0.955523  0.586903  1
  Pd  Pd10  1  0.593262  0.159677  0.957222  1
  Pd  Pd11  1  0.954593  0.590251  0.160594  1
  Pd  Pd12  1  0.833169  0.045582  0.411606  1
  Pd  Pd13  1  0.408648  0.843091  0.043051  1
  Pd  Pd14  1  0.046389  0.410682  0.840278  1
