# generated using pymatgen
data_Tb2Pr4IrBr10
_symmetry_space_group_name_H-M   'P 1'
_cell_length_a   7.57436348
_cell_length_b   9.53978257
_cell_length_c   9.62413254
_cell_angle_alpha   108.86642563
_cell_angle_beta   95.96274981
_cell_angle_gamma   105.44449323
_symmetry_Int_Tables_number   1
_chemical_formula_structural   Tb2Pr4IrBr10
_chemical_formula_sum   'Tb2 Pr4 Ir1 Br10'
_cell_volume   620.38014228
_cell_formula_units_Z   1
loop_
 _symmetry_equiv_pos_site_id
 _symmetry_equiv_pos_as_xyz
  1  'x, y, z'
loop_
 _atom_site_type_symbol
 _atom_site_label
 _atom_site_symmetry_multiplicity
 _atom_site_fract_x
 _atom_site_fract_y
 _atom_site_fract_z
 _atom_site_occupancy
  Tb  Tb0  1  0.360526  0.134392  0.676752  1
  Tb  Tb1  1  0.639474  0.865608  0.323248  1
  Pr  Pr2  1  0.029220  0.702437  0.404551  1
  Pr  Pr3  1  0.970780  0.297563  0.595449  1
  Pr  Pr4  1  0.869973  0.952952  0.751558  1
  Pr  Pr5  1  0.130027  0.047048  0.248442  1
  Ir  Ir6  1  0.000000  0.000000  0.500000  1
  Br  Br7  1  0.451883  0.828867  0.579335  1
  Br  Br8  1  0.548117  0.171133  0.420665  1
  Br  Br9  1  0.913687  0.632056  0.672956  1
  Br  Br10  1  0.086313  0.367944  0.327044  1
  Br  Br11  1  0.258684  0.086246  0.946521  1
  Br  Br12  1  0.741316  0.913754  0.053479  1
  Br  Br13  1  0.360609  0.445454  0.770512  1
  Br  Br14  1  0.639391  0.554546  0.229488  1
  Br  Br15  1  0.771299  0.253815  0.844936  1
  Br  Br16  1  0.228701  0.746185  0.155064  1
