# generated using pymatgen
data_Pr2Fe5Si4Mo
_symmetry_space_group_name_H-M   'P 1'
_cell_length_a   4.01494900
_cell_length_b   4.01494976
_cell_length_c   13.76039800
_cell_angle_alpha   90.00000000
_cell_angle_beta   90.00000000
_cell_angle_gamma   119.99998546
_symmetry_Int_Tables_number   1
_chemical_formula_structural   Pr2Fe5Si4Mo
_chemical_formula_sum   'Pr2 Fe5 Si4 Mo1'
_cell_volume   192.09755597
_cell_formula_units_Z   1
loop_
 _symmetry_equiv_pos_site_id
 _symmetry_equiv_pos_as_xyz
  1  'x, y, z'
loop_
 _atom_site_type_symbol
 _atom_site_label
 _atom_site_symmetry_multiplicity
 _atom_site_fract_x
 _atom_site_fract_y
 _atom_site_fract_z
 _atom_site_occupancy
  Pr  Pr0  1  0.000000  0.000000  0.251947  1
  Pr  Pr1  1  0.000000  0.000000  0.748053  1
  Fe  Fe2  1  0.666667  0.333334  0.060411  1
  Fe  Fe3  1  0.666667  0.333334  0.434370  1
  Fe  Fe4  1  0.000000  0.000000  0.500000  1
  Fe  Fe5  1  0.333334  0.666667  0.565631  1
  Fe  Fe6  1  0.333334  0.666667  0.939589  1
  Si  Si7  1  0.333334  0.666667  0.112407  1
  Si  Si8  1  0.333334  0.666667  0.398416  1
  Si  Si9  1  0.666667  0.333334  0.601584  1
  Si  Si10  1  0.666667  0.333334  0.887593  1
  Mo  Mo11  1  0.000000  0.000000  0.000000  1
