# generated using pymatgen
data_Tb3Ho9InNi5
_symmetry_space_group_name_H-M   'P 1'
_cell_length_a   8.30331621
_cell_length_b   8.30132961
_cell_length_c   8.30133100
_cell_angle_alpha   107.07333637
_cell_angle_beta   110.66814845
_cell_angle_gamma   110.68811726
_symmetry_Int_Tables_number   1
_chemical_formula_structural   Tb3Ho9InNi5
_chemical_formula_sum   'Tb3 Ho9 In1 Ni5'
_cell_volume   439.96068749
_cell_formula_units_Z   1
loop_
 _symmetry_equiv_pos_site_id
 _symmetry_equiv_pos_as_xyz
  1  'x, y, z'
loop_
 _atom_site_type_symbol
 _atom_site_label
 _atom_site_symmetry_multiplicity
 _atom_site_fract_x
 _atom_site_fract_y
 _atom_site_fract_z
 _atom_site_occupancy
  Tb  Tb0  1  0.478763  0.295409  0.183355  1
  Tb  Tb1  1  0.112856  0.295882  0.816973  1
  Tb  Tb2  1  0.887870  0.705518  0.182353  1
  Ho  Ho3  1  0.521470  0.704840  0.816630  1
  Ho  Ho4  1  0.306346  0.627350  0.321754  1
  Ho  Ho5  1  0.306346  0.984593  0.678995  1
  Ho  Ho6  1  0.694055  0.372737  0.678901  1
  Ho  Ho7  1  0.694055  0.015153  0.321316  1
  Ho  Ho8  1  0.190604  0.213081  0.402880  1
  Ho  Ho9  1  0.810473  0.788443  0.599519  1
  Ho  Ho10  1  0.190604  0.787723  0.977523  1
  Ho  Ho11  1  0.810473  0.210953  0.022031  1
  In  In12  1  0.999856  0.499900  0.499956  1
  Ni  Ni13  1  0.499406  0.626245  0.124217  1
  Ni  Ni14  1  0.499406  0.375190  0.873162  1
  Ni  Ni15  1  0.365556  0.999916  0.365638  1
  Ni  Ni16  1  0.632894  0.999049  0.633846  1
  Ni  Ni17  1  0.998967  0.998017  0.000951  1
