# generated using pymatgen
data_Dy5HoAl24(Ir3Os)2
_symmetry_space_group_name_H-M   'P 1'
_cell_length_a   8.82903504
_cell_length_b   8.82903615
_cell_length_c   9.49672302
_cell_angle_alpha   89.99378632
_cell_angle_beta   90.00621543
_cell_angle_gamma   119.99139593
_symmetry_Int_Tables_number   1
_chemical_formula_structural   Dy5HoAl24(Ir3Os)2
_chemical_formula_sum   'Dy5 Ho1 Al24 Ir6 Os2'
_cell_volume   641.16319192
_cell_formula_units_Z   1
loop_
 _symmetry_equiv_pos_site_id
 _symmetry_equiv_pos_as_xyz
  1  'x, y, z'
loop_
 _atom_site_type_symbol
 _atom_site_label
 _atom_site_symmetry_multiplicity
 _atom_site_fract_x
 _atom_site_fract_y
 _atom_site_fract_z
 _atom_site_occupancy
  Dy  Dy0  1  0.191761  0.383578  0.250107  1
  Dy  Dy1  1  0.808090  0.616070  0.749896  1
  Dy  Dy2  1  0.616422  0.808239  0.250107  1
  Dy  Dy3  1  0.383930  0.191910  0.749896  1
  Dy  Dy4  1  0.191824  0.808176  0.250109  1
  Ho  Ho5  1  0.807830  0.192170  0.749848  1
  Al  Al6  1  0.333314  0.666686  0.030707  1
  Al  Al7  1  0.666785  0.333215  0.969225  1
  Al  Al8  1  0.666738  0.333262  0.530877  1
  Al  Al9  1  0.333357  0.666643  0.469197  1
  Al  Al10  1  0.163527  0.327165  0.574995  1
  Al  Al11  1  0.836377  0.672806  0.425019  1
  Al  Al12  1  0.672835  0.836473  0.574995  1
  Al  Al13  1  0.836410  0.672926  0.074984  1
  Al  Al14  1  0.327194  0.163623  0.425019  1
  Al  Al15  1  0.163488  0.327044  0.925008  1
  Al  Al16  1  0.163619  0.836381  0.574946  1
  Al  Al17  1  0.327074  0.163590  0.074984  1
  Al  Al18  1  0.836385  0.163615  0.425180  1
  Al  Al19  1  0.672956  0.836512  0.925008  1
  Al  Al20  1  0.836425  0.163575  0.074804  1
  Al  Al21  1  0.163578  0.836422  0.925070  1
  Al  Al22  1  0.562139  0.124344  0.250061  1
  Al  Al23  1  0.438071  0.875772  0.749941  1
  Al  Al24  1  0.875656  0.437861  0.250061  1
  Al  Al25  1  0.124228  0.561929  0.749941  1
  Al  Al26  1  0.562218  0.437782  0.250071  1
  Al  Al27  1  0.437751  0.562249  0.749930  1
  Al  Al28  1  0.000042  0.999958  0.249989  1
  Al  Al29  1  0.999884  0.000116  0.750017  1
  Ir  Ir30  1  0.500112  0.000070  0.999893  1
  Ir  Ir31  1  0.999930  0.499888  0.999893  1
  Ir  Ir32  1  0.500113  0.000070  0.500109  1
  Ir  Ir33  1  0.500041  0.499959  0.999941  1
  Ir  Ir34  1  0.999930  0.499887  0.500109  1
  Ir  Ir35  1  0.500040  0.499960  0.500060  1
  Os  Os36  1  0.999963  0.000037  0.999873  1
  Os  Os37  1  0.999962  0.000038  0.500130  1
