# generated using pymatgen
data_YHo5Sn2(BRh6)2
_symmetry_space_group_name_H-M   'P 1'
_cell_length_a   5.81363300
_cell_length_b   5.81363337
_cell_length_c   13.83823300
_cell_angle_alpha   90.00000000
_cell_angle_beta   90.00000000
_cell_angle_gamma   120.00000361
_symmetry_Int_Tables_number   1
_chemical_formula_structural   YHo5Sn2(BRh6)2
_chemical_formula_sum   'Y1 Ho5 Sn2 B2 Rh12'
_cell_volume   405.04801363
_cell_formula_units_Z   1
loop_
 _symmetry_equiv_pos_site_id
 _symmetry_equiv_pos_as_xyz
  1  'x, y, z'
loop_
 _atom_site_type_symbol
 _atom_site_label
 _atom_site_symmetry_multiplicity
 _atom_site_fract_x
 _atom_site_fract_y
 _atom_site_fract_z
 _atom_site_occupancy
  Y  Y0  1  0.000000  0.000000  0.750000  1
  Ho  Ho1  1  0.000000  0.000000  0.250000  1
  Ho  Ho2  1  0.333333  0.666667  0.411664  1
  Ho  Ho3  1  0.666667  0.333333  0.911787  1
  Ho  Ho4  1  0.666667  0.333333  0.588213  1
  Ho  Ho5  1  0.333333  0.666667  0.088336  1
  Sn  Sn6  1  0.333333  0.666667  0.750000  1
  Sn  Sn7  1  0.666667  0.333333  0.250000  1
  B  B8  1  0.000000  0.000000  0.500016  1
  B  B9  1  0.000000  0.000000  0.999984  1
  Rh  Rh10  1  0.343986  0.171994  0.413123  1
  Rh  Rh11  1  0.828006  0.171994  0.413123  1
  Rh  Rh12  1  0.828006  0.656014  0.413123  1
  Rh  Rh13  1  0.172314  0.344626  0.913542  1
  Rh  Rh14  1  0.655374  0.827686  0.586458  1
  Rh  Rh15  1  0.655374  0.827686  0.913542  1
  Rh  Rh16  1  0.343986  0.171994  0.086877  1
  Rh  Rh17  1  0.172314  0.344626  0.586458  1
  Rh  Rh18  1  0.172314  0.827686  0.586458  1
  Rh  Rh19  1  0.828006  0.171994  0.086877  1
  Rh  Rh20  1  0.828006  0.656014  0.086877  1
  Rh  Rh21  1  0.172314  0.827686  0.913542  1
