# generated using pymatgen
data_CsDySb2Se5
_symmetry_space_group_name_H-M   'P 1'
_cell_length_a   4.11694200
_cell_length_b   12.37039900
_cell_length_c   22.94917800
_cell_angle_alpha   90.00000000
_cell_angle_beta   90.00000000
_cell_angle_gamma   90.00000000
_symmetry_Int_Tables_number   1
_chemical_formula_structural   CsDySb2Se5
_chemical_formula_sum   'Cs4 Dy4 Sb8 Se20'
_cell_volume   1168.76067584
_cell_formula_units_Z   4
loop_
 _symmetry_equiv_pos_site_id
 _symmetry_equiv_pos_as_xyz
  1  'x, y, z'
loop_
 _atom_site_type_symbol
 _atom_site_label
 _atom_site_symmetry_multiplicity
 _atom_site_fract_x
 _atom_site_fract_y
 _atom_site_fract_z
 _atom_site_occupancy
  Cs  Cs0  1  0.250000  0.492012  0.210933  1
  Cs  Cs1  1  0.750000  0.507988  0.789067  1
  Cs  Cs2  1  0.750000  0.992012  0.289067  1
  Cs  Cs3  1  0.250000  0.007988  0.710933  1
  Dy  Dy4  1  0.250000  0.363990  0.022444  1
  Dy  Dy5  1  0.750000  0.636010  0.977556  1
  Dy  Dy6  1  0.750000  0.863990  0.477556  1
  Dy  Dy7  1  0.250000  0.136010  0.522444  1
  Sb  Sb8  1  0.250000  0.810183  0.119503  1
  Sb  Sb9  1  0.750000  0.189817  0.880497  1
  Sb  Sb10  1  0.750000  0.310183  0.380497  1
  Sb  Sb11  1  0.250000  0.689817  0.619503  1
  Sb  Sb12  1  0.250000  0.596442  0.428531  1
  Sb  Sb13  1  0.750000  0.403558  0.571469  1
  Sb  Sb14  1  0.750000  0.096442  0.071469  1
  Sb  Sb15  1  0.250000  0.903558  0.928531  1
  Se  Se16  1  0.250000  0.803231  0.393300  1
  Se  Se17  1  0.750000  0.196769  0.606700  1
  Se  Se18  1  0.750000  0.303231  0.106700  1
  Se  Se19  1  0.250000  0.696769  0.893300  1
  Se  Se20  1  0.250000  0.257061  0.306717  1
  Se  Se21  1  0.750000  0.742939  0.693283  1
  Se  Se22  1  0.750000  0.757061  0.193283  1
  Se  Se23  1  0.250000  0.242939  0.806717  1
  Se  Se24  1  0.250000  0.356107  0.482371  1
  Se  Se25  1  0.750000  0.643893  0.517629  1
  Se  Se26  1  0.750000  0.856107  0.017629  1
  Se  Se27  1  0.250000  0.143893  0.982371  1
  Se  Se28  1  0.250000  0.026273  0.151268  1
  Se  Se29  1  0.750000  0.973727  0.848732  1
  Se  Se30  1  0.750000  0.526273  0.348732  1
  Se  Se31  1  0.250000  0.473727  0.651268  1
  Se  Se32  1  0.250000  0.583668  0.059226  1
  Se  Se33  1  0.750000  0.416332  0.940774  1
  Se  Se34  1  0.750000  0.083668  0.440774  1
  Se  Se35  1  0.250000  0.916332  0.559226  1
