# generated using pymatgen
data_Er10GaSb5
_symmetry_space_group_name_H-M   'P 1'
_cell_length_a   8.84474400
_cell_length_b   8.82509166
_cell_length_c   6.30969400
_cell_angle_alpha   90.00000000
_cell_angle_beta   90.00000000
_cell_angle_gamma   120.07369167
_symmetry_Int_Tables_number   1
_chemical_formula_structural   Er10GaSb5
_chemical_formula_sum   'Er10 Ga1 Sb5'
_cell_volume   426.20687432
_cell_formula_units_Z   1
loop_
 _symmetry_equiv_pos_site_id
 _symmetry_equiv_pos_as_xyz
  1  'x, y, z'
loop_
 _atom_site_type_symbol
 _atom_site_label
 _atom_site_symmetry_multiplicity
 _atom_site_fract_x
 _atom_site_fract_y
 _atom_site_fract_z
 _atom_site_occupancy
  Er  Er0  1  0.010296  0.764271  0.750000  1
  Er  Er1  1  0.999594  0.243401  0.250000  1
  Er  Er2  1  0.756193  0.756599  0.250000  1
  Er  Er3  1  0.751316  0.000000  0.750000  1
  Er  Er4  1  0.246026  0.235729  0.750000  1
  Er  Er5  1  0.244811  0.000000  0.250000  1
  Er  Er6  1  0.335010  0.674683  0.501615  1
  Er  Er7  1  0.660327  0.325317  0.998385  1
  Er  Er8  1  0.660327  0.325317  0.501615  1
  Er  Er9  1  0.335010  0.674683  0.998385  1
  Ga  Ga10  1  0.392093  0.000000  0.750000  1
  Sb  Sb11  1  0.389824  0.392732  0.250000  1
  Sb  Sb12  1  0.997092  0.607268  0.250000  1
  Sb  Sb13  1  0.001878  0.390550  0.750000  1
  Sb  Sb14  1  0.611327  0.609450  0.750000  1
  Sb  Sb15  1  0.608876  0.000000  0.250000  1
