# generated using pymatgen
data_Sm8AgSnPt23
_symmetry_space_group_name_H-M   'P 1'
_cell_length_a   8.50284700
_cell_length_b   8.50284700
_cell_length_c   8.51211200
_cell_angle_alpha   90.00000000
_cell_angle_beta   90.00000000
_cell_angle_gamma   90.00000000
_symmetry_Int_Tables_number   1
_chemical_formula_structural   Sm8AgSnPt23
_chemical_formula_sum   'Sm8 Ag1 Sn1 Pt23'
_cell_volume   615.41213870
_cell_formula_units_Z   1
loop_
 _symmetry_equiv_pos_site_id
 _symmetry_equiv_pos_as_xyz
  1  'x, y, z'
loop_
 _atom_site_type_symbol
 _atom_site_label
 _atom_site_symmetry_multiplicity
 _atom_site_fract_x
 _atom_site_fract_y
 _atom_site_fract_z
 _atom_site_occupancy
  Sm  Sm0  1  0.251006  0.251006  0.251384  1
  Sm  Sm1  1  0.752742  0.752742  0.749141  1
  Sm  Sm2  1  0.748994  0.748994  0.251384  1
  Sm  Sm3  1  0.752742  0.247258  0.749141  1
  Sm  Sm4  1  0.247258  0.247258  0.749141  1
  Sm  Sm5  1  0.251006  0.748994  0.251384  1
  Sm  Sm6  1  0.247258  0.752742  0.749141  1
  Sm  Sm7  1  0.748994  0.251006  0.251384  1
  Ag  Ag8  1  0.500000  0.500000  0.742011  1
  Sn  Sn9  1  0.000000  0.000000  0.001204  1
  Pt  Pt10  1  0.267281  0.500000  0.000026  1
  Pt  Pt11  1  0.732719  0.500000  0.000026  1
  Pt  Pt12  1  0.000000  0.268039  0.499728  1
  Pt  Pt13  1  0.500000  0.267281  0.000026  1
  Pt  Pt14  1  0.000000  0.731961  0.499728  1
  Pt  Pt15  1  0.500000  0.732719  0.000026  1
  Pt  Pt16  1  0.500000  0.000000  0.266850  1
  Pt  Pt17  1  0.268039  0.000000  0.499728  1
  Pt  Pt18  1  0.500000  0.000000  0.732618  1
  Pt  Pt19  1  0.731961  0.000000  0.499728  1
  Pt  Pt20  1  0.000000  0.500000  0.266850  1
  Pt  Pt21  1  0.000000  0.500000  0.732618  1
  Pt  Pt22  1  0.254834  0.500000  0.500140  1
  Pt  Pt23  1  0.745166  0.500000  0.500140  1
  Pt  Pt24  1  0.500000  0.254834  0.500140  1
  Pt  Pt25  1  0.500000  0.745166  0.500140  1
  Pt  Pt26  1  0.500000  0.500000  0.255601  1
  Pt  Pt27  1  0.314748  0.000000  0.999977  1
  Pt  Pt28  1  0.685252  0.000000  0.999977  1
  Pt  Pt29  1  0.000000  0.314748  0.999977  1
  Pt  Pt30  1  0.000000  0.685252  0.999977  1
  Pt  Pt31  1  0.000000  0.000000  0.315251  1
  Pt  Pt32  1  0.000000  0.000000  0.685414  1
