# generated using pymatgen
data_Li4Nd6Pt13
_symmetry_space_group_name_H-M   'P 1'
_cell_length_a   8.36863336
_cell_length_b   8.36863412
_cell_length_c   8.36863400
_cell_angle_alpha   109.47122277
_cell_angle_beta   109.47122461
_cell_angle_gamma   109.47121823
_symmetry_Int_Tables_number   1
_chemical_formula_structural   Li4Nd6Pt13
_chemical_formula_sum   'Li4 Nd6 Pt13'
_cell_volume   451.17163269
_cell_formula_units_Z   1
loop_
 _symmetry_equiv_pos_site_id
 _symmetry_equiv_pos_as_xyz
  1  'x, y, z'
loop_
 _atom_site_type_symbol
 _atom_site_label
 _atom_site_symmetry_multiplicity
 _atom_site_fract_x
 _atom_site_fract_y
 _atom_site_fract_z
 _atom_site_occupancy
  Li  Li0  1  0.000000  0.000000  0.500000  1
  Li  Li1  1  0.000000  0.500000  0.000000  1
  Li  Li2  1  0.500000  0.000000  0.000000  1
  Li  Li3  1  0.500000  0.500000  0.500000  1
  Nd  Nd4  1  0.695977  0.695977  0.000000  1
  Nd  Nd5  1  0.304023  0.000000  0.304023  1
  Nd  Nd6  1  0.000000  0.304023  0.304023  1
  Nd  Nd7  1  0.304023  0.304023  0.000000  1
  Nd  Nd8  1  0.695977  0.000000  0.695977  1
  Nd  Nd9  1  0.000000  0.695977  0.695977  1
  Pt  Pt10  1  0.331585  0.331585  0.663169  1
  Pt  Pt11  1  0.668415  0.000000  0.331585  1
  Pt  Pt12  1  0.000000  0.668415  0.331585  1
  Pt  Pt13  1  0.668415  0.331585  0.000000  1
  Pt  Pt14  1  0.331585  0.663169  0.331585  1
  Pt  Pt15  1  0.000000  0.331585  0.668415  1
  Pt  Pt16  1  0.331585  0.668415  0.000000  1
  Pt  Pt17  1  0.331585  0.000000  0.668415  1
  Pt  Pt18  1  0.663169  0.331585  0.331585  1
  Pt  Pt19  1  0.668415  0.668415  0.336831  1
  Pt  Pt20  1  0.668415  0.336831  0.668415  1
  Pt  Pt21  1  0.336831  0.668415  0.668415  1
  Pt  Pt22  1  0.000000  0.000000  0.000000  1
