# generated using pymatgen
data_Zr3V3Tc2Mo
_symmetry_space_group_name_H-M   'P 1'
_cell_length_a   5.23980734
_cell_length_b   5.26582107
_cell_length_c   12.86956700
_cell_angle_alpha   90.06657897
_cell_angle_beta   89.44554682
_cell_angle_gamma   120.04485372
_symmetry_Int_Tables_number   1
_chemical_formula_structural   Zr3V3Tc2Mo
_chemical_formula_sum   'Zr6 V6 Tc4 Mo2'
_cell_volume   307.36559234
_cell_formula_units_Z   2
loop_
 _symmetry_equiv_pos_site_id
 _symmetry_equiv_pos_as_xyz
  1  'x, y, z'
loop_
 _atom_site_type_symbol
 _atom_site_label
 _atom_site_symmetry_multiplicity
 _atom_site_fract_x
 _atom_site_fract_y
 _atom_site_fract_z
 _atom_site_occupancy
  Zr  Zr0  1  0.334089  0.664732  0.917669  1
  Zr  Zr1  1  0.001060  0.001283  0.248541  1
  Zr  Zr2  1  0.667104  0.332932  0.583244  1
  Zr  Zr3  1  0.332896  0.667068  0.666756  1
  Zr  Zr4  1  0.998940  0.998717  0.001458  1
  Zr  Zr5  1  0.665911  0.335268  0.332331  1
  V  V6  1  0.334415  0.670795  0.290163  1
  V  V7  1  0.000000  0.000000  0.625000  1
  V  V8  1  0.665585  0.329205  0.959837  1
  V  V9  1  0.000000  0.500000  0.125000  1
  V  V10  1  0.666372  0.834311  0.458194  1
  V  V11  1  0.333628  0.165689  0.791806  1
  Tc  Tc12  1  0.500000  0.500000  0.125000  1
  Tc  Tc13  1  0.166439  0.834376  0.457805  1
  Tc  Tc14  1  0.833561  0.165624  0.792195  1
  Tc  Tc15  1  0.500000  0.000000  0.125000  1
  Mo  Mo16  1  0.166728  0.334548  0.457672  1
  Mo  Mo17  1  0.833272  0.665452  0.792328  1
