# generated using pymatgen
data_Tm3Zn3C
_symmetry_space_group_name_H-M   'P 1'
_cell_length_a   9.03070530
_cell_length_b   9.03070545
_cell_length_c   9.03070600
_cell_angle_alpha   59.99999800
_cell_angle_beta   59.99999743
_cell_angle_gamma   59.99999886
_symmetry_Int_Tables_number   1
_chemical_formula_structural   Tm3Zn3C
_chemical_formula_sum   'Tm12 Zn12 C4'
_cell_volume   520.77488879
_cell_formula_units_Z   4
loop_
 _symmetry_equiv_pos_site_id
 _symmetry_equiv_pos_as_xyz
  1  'x, y, z'
loop_
 _atom_site_type_symbol
 _atom_site_label
 _atom_site_symmetry_multiplicity
 _atom_site_fract_x
 _atom_site_fract_y
 _atom_site_fract_z
 _atom_site_occupancy
  Tm  Tm0  1  0.446915  0.446915  0.053085  1
  Tm  Tm1  1  0.053085  0.446915  0.053085  1
  Tm  Tm2  1  0.446915  0.053085  0.053085  1
  Tm  Tm3  1  0.053085  0.053085  0.446915  1
  Tm  Tm4  1  0.446915  0.053085  0.446915  1
  Tm  Tm5  1  0.053085  0.446915  0.446915  1
  Tm  Tm6  1  0.803085  0.803085  0.196915  1
  Tm  Tm7  1  0.196915  0.803085  0.196915  1
  Tm  Tm8  1  0.803085  0.196915  0.196915  1
  Tm  Tm9  1  0.196915  0.196915  0.803085  1
  Tm  Tm10  1  0.803085  0.196915  0.803085  1
  Tm  Tm11  1  0.196915  0.803085  0.803085  1
  Zn  Zn12  1  0.827466  0.827466  0.517603  1
  Zn  Zn13  1  0.827466  0.517603  0.827466  1
  Zn  Zn14  1  0.517603  0.827466  0.827466  1
  Zn  Zn15  1  0.827466  0.827466  0.827466  1
  Zn  Zn16  1  0.422534  0.422534  0.732397  1
  Zn  Zn17  1  0.422534  0.732397  0.422534  1
  Zn  Zn18  1  0.732397  0.422534  0.422534  1
  Zn  Zn19  1  0.422534  0.422534  0.422534  1
  Zn  Zn20  1  0.625000  0.625000  0.125000  1
  Zn  Zn21  1  0.625000  0.125000  0.625000  1
  Zn  Zn22  1  0.125000  0.625000  0.625000  1
  Zn  Zn23  1  0.625000  0.625000  0.625000  1
  C  C24  1  0.125000  0.125000  0.625000  1
  C  C25  1  0.125000  0.625000  0.125000  1
  C  C26  1  0.625000  0.125000  0.125000  1
  C  C27  1  0.125000  0.125000  0.125000  1
