# generated using pymatgen
data_Li2Y4OsRu
_symmetry_space_group_name_H-M   'P 1'
_cell_length_a   4.97650300
_cell_length_b   6.92045800
_cell_length_c   14.75429101
_cell_angle_alpha   90.00000000
_cell_angle_beta   89.99686908
_cell_angle_gamma   90.00000000
_symmetry_Int_Tables_number   1
_chemical_formula_structural   Li2Y4OsRu
_chemical_formula_sum   'Li6 Y12 Os3 Ru3'
_cell_volume   508.13306026
_cell_formula_units_Z   3
loop_
 _symmetry_equiv_pos_site_id
 _symmetry_equiv_pos_as_xyz
  1  'x, y, z'
loop_
 _atom_site_type_symbol
 _atom_site_label
 _atom_site_symmetry_multiplicity
 _atom_site_fract_x
 _atom_site_fract_y
 _atom_site_fract_z
 _atom_site_occupancy
  Li  Li0  1  0.000020  0.500000  0.000331  1
  Li  Li1  1  0.499957  0.000000  0.166695  1
  Li  Li2  1  0.999973  0.500000  0.332933  1
  Li  Li3  1  0.500019  0.000000  0.499698  1
  Li  Li4  1  0.000055  0.500000  0.666712  1
  Li  Li5  1  0.500047  0.000000  0.833629  1
  Y  Y6  1  0.499987  0.251637  0.000531  1
  Y  Y7  1  0.499987  0.748364  0.000531  1
  Y  Y8  1  0.999604  0.247470  0.166648  1
  Y  Y9  1  0.999604  0.752529  0.166648  1
  Y  Y10  1  0.499591  0.251634  0.332789  1
  Y  Y11  1  0.499591  0.748365  0.332789  1
  Y  Y12  1  0.999990  0.246959  0.499459  1
  Y  Y13  1  0.999990  0.753039  0.499459  1
  Y  Y14  1  0.500373  0.251992  0.666681  1
  Y  Y15  1  0.500373  0.748007  0.666681  1
  Y  Y16  1  0.000363  0.246943  0.833887  1
  Y  Y17  1  0.000363  0.753056  0.833887  1
  Os  Os18  1  0.000003  0.000000  0.999356  1
  Os  Os19  1  0.499197  0.500000  0.166632  1
  Os  Os20  1  0.999199  0.000000  0.333968  1
  Ru  Ru21  1  0.500013  0.500000  0.500714  1
  Ru  Ru22  1  0.000902  0.000000  0.666673  1
  Ru  Ru23  1  0.500802  0.500000  0.832674  1
