# generated using pymatgen
data_Lu10Sn6PS
_symmetry_space_group_name_H-M   'P 1'
_cell_length_a   8.84624400
_cell_length_b   8.84624297
_cell_length_c   6.56207800
_cell_angle_alpha   90.00000000
_cell_angle_beta   90.00000000
_cell_angle_gamma   119.99998889
_symmetry_Int_Tables_number   1
_chemical_formula_structural   Lu10Sn6PS
_chemical_formula_sum   'Lu10 Sn6 P1 S1'
_cell_volume   444.72326174
_cell_formula_units_Z   1
loop_
 _symmetry_equiv_pos_site_id
 _symmetry_equiv_pos_as_xyz
  1  'x, y, z'
loop_
 _atom_site_type_symbol
 _atom_site_label
 _atom_site_symmetry_multiplicity
 _atom_site_fract_x
 _atom_site_fract_y
 _atom_site_fract_z
 _atom_site_occupancy
  Lu  Lu0  1  0.666667  0.333333  0.000000  1
  Lu  Lu1  1  0.333333  0.666667  0.000000  1
  Lu  Lu2  1  0.333333  0.666667  0.500000  1
  Lu  Lu3  1  0.666667  0.333333  0.500000  1
  Lu  Lu4  1  0.757935  0.757935  0.749047  1
  Lu  Lu5  1  0.242065  0.000000  0.749047  1
  Lu  Lu6  1  0.000000  0.242065  0.749047  1
  Lu  Lu7  1  0.242065  0.242065  0.250953  1
  Lu  Lu8  1  0.757935  0.000000  0.250953  1
  Lu  Lu9  1  0.000000  0.757935  0.250953  1
  Sn  Sn10  1  0.398596  0.398596  0.750019  1
  Sn  Sn11  1  0.601404  0.000000  0.750019  1
  Sn  Sn12  1  0.000000  0.601404  0.750019  1
  Sn  Sn13  1  0.601404  0.601404  0.249981  1
  Sn  Sn14  1  0.398596  0.000000  0.249981  1
  Sn  Sn15  1  0.000000  0.398596  0.249981  1
  P  P16  1  0.000000  0.000000  0.500000  1
  S  S17  1  0.000000  0.000000  0.000000  1
