# generated using pymatgen
data_Mg2GaCu3
_symmetry_space_group_name_H-M   'P 1'
_cell_length_a   5.04012000
_cell_length_b   5.04011917
_cell_length_c   8.08663600
_cell_angle_alpha   90.00000000
_cell_angle_beta   90.00000000
_cell_angle_gamma   120.00000545
_symmetry_Int_Tables_number   1
_chemical_formula_structural   Mg2GaCu3
_chemical_formula_sum   'Mg4 Ga2 Cu6'
_cell_volume   177.90173539
_cell_formula_units_Z   2
loop_
 _symmetry_equiv_pos_site_id
 _symmetry_equiv_pos_as_xyz
  1  'x, y, z'
loop_
 _atom_site_type_symbol
 _atom_site_label
 _atom_site_symmetry_multiplicity
 _atom_site_fract_x
 _atom_site_fract_y
 _atom_site_fract_z
 _atom_site_occupancy
  Mg  Mg0  1  0.333333  0.666667  0.437317  1
  Mg  Mg1  1  0.666667  0.333333  0.562683  1
  Mg  Mg2  1  0.666667  0.333333  0.937317  1
  Mg  Mg3  1  0.333333  0.666667  0.062683  1
  Ga  Ga4  1  0.000000  0.000000  0.500000  1
  Ga  Ga5  1  0.000000  0.000000  0.000000  1
  Cu  Cu6  1  0.829314  0.170686  0.250000  1
  Cu  Cu7  1  0.829314  0.658629  0.250000  1
  Cu  Cu8  1  0.341371  0.170686  0.250000  1
  Cu  Cu9  1  0.170686  0.829314  0.750000  1
  Cu  Cu10  1  0.170686  0.341371  0.750000  1
  Cu  Cu11  1  0.658629  0.829314  0.750000  1
