# generated using pymatgen
data_Tb8In3Pd8Pb
_symmetry_space_group_name_H-M   'P 1'
_cell_length_a   7.80839500
_cell_length_b   7.80839500
_cell_length_c   7.45767700
_cell_angle_alpha   90.00000000
_cell_angle_beta   90.00000000
_cell_angle_gamma   90.00000000
_symmetry_Int_Tables_number   1
_chemical_formula_structural   Tb8In3Pd8Pb
_chemical_formula_sum   'Tb8 In3 Pd8 Pb1'
_cell_volume   454.70226656
_cell_formula_units_Z   1
loop_
 _symmetry_equiv_pos_site_id
 _symmetry_equiv_pos_as_xyz
  1  'x, y, z'
loop_
 _atom_site_type_symbol
 _atom_site_label
 _atom_site_symmetry_multiplicity
 _atom_site_fract_x
 _atom_site_fract_y
 _atom_site_fract_z
 _atom_site_occupancy
  Tb  Tb0  1  0.166904  0.171607  0.998747  1
  Tb  Tb1  1  0.833096  0.828393  0.998747  1
  Tb  Tb2  1  0.671607  0.333096  0.501253  1
  Tb  Tb3  1  0.328393  0.666904  0.501253  1
  Tb  Tb4  1  0.677370  0.327018  0.998959  1
  Tb  Tb5  1  0.322630  0.672982  0.998959  1
  Tb  Tb6  1  0.827018  0.822630  0.501041  1
  Tb  Tb7  1  0.172982  0.177370  0.501041  1
  In  In8  1  0.500000  0.000000  0.750000  1
  In  In9  1  0.000000  0.500000  0.250000  1
  In  In10  1  0.000000  0.500000  0.750000  1
  Pd  Pd11  1  0.369713  0.378209  0.243693  1
  Pd  Pd12  1  0.625988  0.628599  0.756130  1
  Pd  Pd13  1  0.630287  0.621791  0.243693  1
  Pd  Pd14  1  0.871401  0.125988  0.743870  1
  Pd  Pd15  1  0.878209  0.130287  0.256307  1
  Pd  Pd16  1  0.374012  0.371401  0.756130  1
  Pd  Pd17  1  0.121791  0.869713  0.256307  1
  Pd  Pd18  1  0.128599  0.874012  0.743870  1
  Pb  Pb19  1  0.500000  0.000000  0.250000  1
