# generated using pymatgen
data_Ta2TlS4
_symmetry_space_group_name_H-M   'P 1'
_cell_length_a   3.40704900
_cell_length_b   5.81584602
_cell_length_c   16.17886800
_cell_angle_alpha   90.00000000
_cell_angle_beta   90.00000000
_cell_angle_gamma   90.00506376
_symmetry_Int_Tables_number   1
_chemical_formula_structural   Ta2TlS4
_chemical_formula_sum   'Ta4 Tl2 S8'
_cell_volume   320.58220335
_cell_formula_units_Z   2
loop_
 _symmetry_equiv_pos_site_id
 _symmetry_equiv_pos_as_xyz
  1  'x, y, z'
loop_
 _atom_site_type_symbol
 _atom_site_label
 _atom_site_symmetry_multiplicity
 _atom_site_fract_x
 _atom_site_fract_y
 _atom_site_fract_z
 _atom_site_occupancy
  Ta  Ta0  1  0.999957  0.000240  0.750210  1
  Ta  Ta1  1  0.499957  0.500240  0.749790  1
  Ta  Ta2  1  0.000043  0.999760  0.249790  1
  Ta  Ta3  1  0.500043  0.499760  0.250210  1
  Tl  Tl4  1  0.000000  0.000000  0.500000  1
  Tl  Tl5  1  0.500000  0.500000  0.000000  1
  S  S6  1  0.499973  0.167320  0.654913  1
  S  S7  1  0.999958  0.664566  0.654502  1
  S  S8  1  0.000042  0.335434  0.345498  1
  S  S9  1  0.500027  0.832680  0.345087  1
  S  S10  1  0.000027  0.332680  0.154913  1
  S  S11  1  0.500042  0.835434  0.154502  1
  S  S12  1  0.499958  0.164566  0.845498  1
  S  S13  1  0.999973  0.667320  0.845087  1
