# generated using pymatgen
data_Ta13Sb3
_symmetry_space_group_name_H-M   'P 1'
_cell_length_a   5.33569600
_cell_length_b   5.32308800
_cell_length_c   10.58340600
_cell_angle_alpha   90.00000000
_cell_angle_beta   90.00000000
_cell_angle_gamma   90.00000000
_symmetry_Int_Tables_number   1
_chemical_formula_structural   Ta13Sb3
_chemical_formula_sum   'Ta13 Sb3'
_cell_volume   300.59391202
_cell_formula_units_Z   1
loop_
 _symmetry_equiv_pos_site_id
 _symmetry_equiv_pos_as_xyz
  1  'x, y, z'
loop_
 _atom_site_type_symbol
 _atom_site_label
 _atom_site_symmetry_multiplicity
 _atom_site_fract_x
 _atom_site_fract_y
 _atom_site_fract_z
 _atom_site_occupancy
  Ta  Ta0  1  0.500000  0.500000  0.500000  1
  Ta  Ta1  1  0.500000  0.000000  0.622276  1
  Ta  Ta2  1  0.500000  0.000000  0.124316  1
  Ta  Ta3  1  0.746139  0.500000  0.253660  1
  Ta  Ta4  1  0.746139  0.500000  0.746340  1
  Ta  Ta5  1  0.000000  0.744018  0.500000  1
  Ta  Ta6  1  0.000000  0.750593  0.000000  1
  Ta  Ta7  1  0.500000  0.000000  0.377724  1
  Ta  Ta8  1  0.500000  0.000000  0.875684  1
  Ta  Ta9  1  0.253861  0.500000  0.253660  1
  Ta  Ta10  1  0.253861  0.500000  0.746340  1
  Ta  Ta11  1  0.000000  0.255982  0.500000  1
  Ta  Ta12  1  0.000000  0.249407  0.000000  1
  Sb  Sb13  1  0.500000  0.500000  0.000000  1
  Sb  Sb14  1  0.000000  0.000000  0.250529  1
  Sb  Sb15  1  0.000000  0.000000  0.749471  1
