# generated using pymatgen
data_Y2Nb3P7Rh9
_symmetry_space_group_name_H-M   'P 1'
_cell_length_a   3.93315000
_cell_length_b   9.64882664
_cell_length_c   9.64930007
_cell_angle_alpha   119.98613348
_cell_angle_beta   89.99949603
_cell_angle_gamma   89.99984875
_symmetry_Int_Tables_number   1
_chemical_formula_structural   Y2Nb3P7Rh9
_chemical_formula_sum   'Y2 Nb3 P7 Rh9'
_cell_volume   317.17731837
_cell_formula_units_Z   1
loop_
 _symmetry_equiv_pos_site_id
 _symmetry_equiv_pos_as_xyz
  1  'x, y, z'
loop_
 _atom_site_type_symbol
 _atom_site_label
 _atom_site_symmetry_multiplicity
 _atom_site_fract_x
 _atom_site_fract_y
 _atom_site_fract_z
 _atom_site_occupancy
  Y  Y0  1  0.260478  0.666669  0.333462  1
  Y  Y1  1  0.761962  0.333331  0.666599  1
  Nb  Nb2  1  0.762286  0.094999  0.873801  1
  Nb  Nb3  1  0.762278  0.126133  0.221104  1
  Nb  Nb4  1  0.762291  0.778703  0.904887  1
  P  P5  1  0.262680  0.000022  0.000017  1
  P  P6  1  0.761498  0.876971  0.590001  1
  P  P7  1  0.761431  0.410090  0.286931  1
  P  P8  1  0.761457  0.713096  0.123304  1
  P  P9  1  0.262377  0.116962  0.416220  1
  P  P10  1  0.262405  0.583795  0.700772  1
  P  P11  1  0.262372  0.299195  0.883017  1
  Rh  Rh12  1  0.261901  0.883764  0.162715  1
  Rh  Rh13  1  0.261907  0.837138  0.721051  1
  Rh  Rh14  1  0.261899  0.279070  0.116321  1
  Rh  Rh15  1  0.761765  0.610360  0.556763  1
  Rh  Rh16  1  0.761777  0.443236  0.053503  1
  Rh  Rh17  1  0.761755  0.946529  0.389652  1
  Rh  Rh18  1  0.261819  0.367898  0.438783  1
  Rh  Rh19  1  0.261832  0.561068  0.928956  1
  Rh  Rh20  1  0.261830  0.070972  0.632140  1
