# generated using pymatgen
data_LaPa(CuAs2)2
_symmetry_space_group_name_H-M   'P 1'
_cell_length_a   4.04612400
_cell_length_b   4.04612400
_cell_length_c   9.82971300
_cell_angle_alpha   90.00000000
_cell_angle_beta   90.00000000
_cell_angle_gamma   90.00000000
_symmetry_Int_Tables_number   1
_chemical_formula_structural   LaPa(CuAs2)2
_chemical_formula_sum   'La1 Pa1 Cu2 As4'
_cell_volume   160.92340542
_cell_formula_units_Z   1
loop_
 _symmetry_equiv_pos_site_id
 _symmetry_equiv_pos_as_xyz
  1  'x, y, z'
loop_
 _atom_site_type_symbol
 _atom_site_label
 _atom_site_symmetry_multiplicity
 _atom_site_fract_x
 _atom_site_fract_y
 _atom_site_fract_z
 _atom_site_occupancy
  La  La0  1  0.500000  0.000000  0.229317  1
  Pa  Pa1  1  0.000000  0.500000  0.758979  1
  Cu  Cu2  1  0.500000  0.500000  0.507464  1
  Cu  Cu3  1  0.000000  0.000000  0.507464  1
  As  As4  1  0.500000  0.000000  0.671874  1
  As  As5  1  0.000000  0.500000  0.358657  1
  As  As6  1  0.000000  0.000000  0.983124  1
  As  As7  1  0.500000  0.500000  0.983124  1
