# generated using pymatgen
data_Dy5Si6P6Ir19
_symmetry_space_group_name_H-M   'P 1'
_cell_length_a   12.80479900
_cell_length_b   12.80479856
_cell_length_c   3.95179800
_cell_angle_alpha   90.00000000
_cell_angle_beta   90.00000000
_cell_angle_gamma   119.99999856
_symmetry_Int_Tables_number   1
_chemical_formula_structural   Dy5Si6P6Ir19
_chemical_formula_sum   'Dy5 Si6 P6 Ir19'
_cell_volume   561.13956516
_cell_formula_units_Z   1
loop_
 _symmetry_equiv_pos_site_id
 _symmetry_equiv_pos_as_xyz
  1  'x, y, z'
loop_
 _atom_site_type_symbol
 _atom_site_label
 _atom_site_symmetry_multiplicity
 _atom_site_fract_x
 _atom_site_fract_y
 _atom_site_fract_z
 _atom_site_occupancy
  Dy  Dy0  1  0.333333  0.666667  0.500000  1
  Dy  Dy1  1  0.666667  0.333333  0.500000  1
  Dy  Dy2  1  0.001549  0.816023  0.000000  1
  Dy  Dy3  1  0.183977  0.185526  0.000000  1
  Dy  Dy4  1  0.814474  0.998451  0.000000  1
  Si  Si5  1  0.000771  0.635804  0.500000  1
  Si  Si6  1  0.364196  0.364968  0.500000  1
  Si  Si7  1  0.635032  0.999229  0.500000  1
  Si  Si8  1  0.519653  0.682217  0.000000  1
  Si  Si9  1  0.317783  0.837436  0.000000  1
  Si  Si10  1  0.162564  0.480347  0.000000  1
  P  P11  1  0.483636  0.177535  0.000000  1
  P  P12  1  0.693899  0.516364  0.000000  1
  P  P13  1  0.822465  0.306101  0.000000  1
  P  P14  1  0.996322  0.176366  0.500000  1
  P  P15  1  0.823634  0.819956  0.500000  1
  P  P16  1  0.180044  0.003678  0.500000  1
  Ir  Ir17  1  0.515296  0.868998  0.000000  1
  Ir  Ir18  1  0.131002  0.646299  0.000000  1
  Ir  Ir19  1  0.353701  0.484704  0.000000  1
  Ir  Ir20  1  0.494468  0.368312  0.000000  1
  Ir  Ir21  1  0.873844  0.505532  0.000000  1
  Ir  Ir22  1  0.631688  0.126156  0.000000  1
  Ir  Ir23  1  0.014368  0.457409  0.500000  1
  Ir  Ir24  1  0.542591  0.556959  0.500000  1
  Ir  Ir25  1  0.443041  0.985632  0.500000  1
  Ir  Ir26  1  0.993693  0.277705  0.000000  1
  Ir  Ir27  1  0.722295  0.715988  0.000000  1
  Ir  Ir28  1  0.284012  0.006307  0.000000  1
  Ir  Ir29  1  0.632608  0.808755  0.500000  1
  Ir  Ir30  1  0.191245  0.823853  0.500000  1
  Ir  Ir31  1  0.176147  0.367392  0.500000  1
  Ir  Ir32  1  0.381724  0.182695  0.500000  1
  Ir  Ir33  1  0.800971  0.618276  0.500000  1
  Ir  Ir34  1  0.817305  0.199029  0.500000  1
  Ir  Ir35  1  0.000000  0.000000  0.500000  1
