# generated using pymatgen
data_Y3ThCdRh
_symmetry_space_group_name_H-M   'P 1'
_cell_length_a   9.77803637
_cell_length_b   9.77803607
_cell_length_c   9.77803600
_cell_angle_alpha   60.00000024
_cell_angle_beta   60.00000124
_cell_angle_gamma   59.99999983
_symmetry_Int_Tables_number   1
_chemical_formula_structural   Y3ThCdRh
_chemical_formula_sum   'Y12 Th4 Cd4 Rh4'
_cell_volume   661.05854236
_cell_formula_units_Z   4
loop_
 _symmetry_equiv_pos_site_id
 _symmetry_equiv_pos_as_xyz
  1  'x, y, z'
loop_
 _atom_site_type_symbol
 _atom_site_label
 _atom_site_symmetry_multiplicity
 _atom_site_fract_x
 _atom_site_fract_y
 _atom_site_fract_z
 _atom_site_occupancy
  Y  Y0  1  0.812221  0.187779  0.187779  1
  Y  Y1  1  0.187779  0.812221  0.812221  1
  Y  Y2  1  0.187779  0.812221  0.187779  1
  Y  Y3  1  0.812221  0.187779  0.812221  1
  Y  Y4  1  0.187779  0.187779  0.812221  1
  Y  Y5  1  0.812221  0.812221  0.187779  1
  Y  Y6  1  0.935093  0.564907  0.564907  1
  Y  Y7  1  0.564907  0.935093  0.935093  1
  Y  Y8  1  0.564907  0.935093  0.564907  1
  Y  Y9  1  0.935093  0.564907  0.935093  1
  Y  Y10  1  0.564907  0.564907  0.935093  1
  Y  Y11  1  0.935093  0.935093  0.564907  1
  Th  Th12  1  0.349682  0.349682  0.349682  1
  Th  Th13  1  0.349682  0.349682  0.950953  1
  Th  Th14  1  0.349682  0.950953  0.349682  1
  Th  Th15  1  0.950953  0.349682  0.349682  1
  Cd  Cd16  1  0.582768  0.582768  0.582768  1
  Cd  Cd17  1  0.582768  0.582768  0.251697  1
  Cd  Cd18  1  0.582768  0.251697  0.582768  1
  Cd  Cd19  1  0.251697  0.582768  0.582768  1
  Rh  Rh20  1  0.145194  0.145194  0.145194  1
  Rh  Rh21  1  0.145194  0.145194  0.564418  1
  Rh  Rh22  1  0.145194  0.564418  0.145194  1
  Rh  Rh23  1  0.564418  0.145194  0.145194  1
