# generated using pymatgen
data_Er3ThMgRu
_symmetry_space_group_name_H-M   'P 1'
_cell_length_a   9.70406765
_cell_length_b   9.70406768
_cell_length_c   9.70406700
_cell_angle_alpha   59.99999891
_cell_angle_beta   59.99999880
_cell_angle_gamma   59.99999931
_symmetry_Int_Tables_number   1
_chemical_formula_structural   Er3ThMgRu
_chemical_formula_sum   'Er12 Th4 Mg4 Ru4'
_cell_volume   646.16943452
_cell_formula_units_Z   4
loop_
 _symmetry_equiv_pos_site_id
 _symmetry_equiv_pos_as_xyz
  1  'x, y, z'
loop_
 _atom_site_type_symbol
 _atom_site_label
 _atom_site_symmetry_multiplicity
 _atom_site_fract_x
 _atom_site_fract_y
 _atom_site_fract_z
 _atom_site_occupancy
  Er  Er0  1  0.814072  0.185928  0.185928  1
  Er  Er1  1  0.185928  0.814072  0.814072  1
  Er  Er2  1  0.185928  0.814072  0.185928  1
  Er  Er3  1  0.814072  0.185928  0.814072  1
  Er  Er4  1  0.185928  0.185928  0.814072  1
  Er  Er5  1  0.814072  0.814072  0.185928  1
  Er  Er6  1  0.934691  0.565309  0.565309  1
  Er  Er7  1  0.565309  0.934691  0.934691  1
  Er  Er8  1  0.565309  0.934691  0.565309  1
  Er  Er9  1  0.934691  0.565309  0.934691  1
  Er  Er10  1  0.565309  0.565309  0.934691  1
  Er  Er11  1  0.934691  0.934691  0.565309  1
  Th  Th12  1  0.346790  0.346790  0.346790  1
  Th  Th13  1  0.346790  0.346790  0.959629  1
  Th  Th14  1  0.346790  0.959629  0.346790  1
  Th  Th15  1  0.959629  0.346790  0.346790  1
  Mg  Mg16  1  0.580135  0.580135  0.580135  1
  Mg  Mg17  1  0.580135  0.580135  0.259596  1
  Mg  Mg18  1  0.580135  0.259596  0.580135  1
  Mg  Mg19  1  0.259596  0.580135  0.580135  1
  Ru  Ru20  1  0.143174  0.143174  0.143174  1
  Ru  Ru21  1  0.143174  0.143174  0.570478  1
  Ru  Ru22  1  0.143174  0.570478  0.143174  1
  Ru  Ru23  1  0.570478  0.143174  0.143174  1
