# generated using pymatgen
data_Dy3TmMnOsC4
_symmetry_space_group_name_H-M   'P 1'
_cell_length_a   5.06168300
_cell_length_b   6.40450785
_cell_length_c   9.67531521
_cell_angle_alpha   90.71852864
_cell_angle_beta   90.00000000
_cell_angle_gamma   90.00000000
_symmetry_Int_Tables_number   1
_chemical_formula_structural   Dy3TmMnOsC4
_chemical_formula_sum   'Dy6 Tm2 Mn2 Os2 C8'
_cell_volume   313.62572362
_cell_formula_units_Z   2
loop_
 _symmetry_equiv_pos_site_id
 _symmetry_equiv_pos_as_xyz
  1  'x, y, z'
loop_
 _atom_site_type_symbol
 _atom_site_label
 _atom_site_symmetry_multiplicity
 _atom_site_fract_x
 _atom_site_fract_y
 _atom_site_fract_z
 _atom_site_occupancy
  Dy  Dy0  1  0.750000  0.819104  0.052660  1
  Dy  Dy1  1  0.250000  0.180896  0.947340  1
  Dy  Dy2  1  0.250000  0.525128  0.216891  1
  Dy  Dy3  1  0.750000  0.474872  0.783109  1
  Dy  Dy4  1  0.750000  0.974575  0.711501  1
  Dy  Dy5  1  0.250000  0.025425  0.288499  1
  Tm  Tm6  1  0.250000  0.680924  0.557176  1
  Tm  Tm7  1  0.750000  0.319076  0.442824  1
  Mn  Mn8  1  0.250000  0.728752  0.859787  1
  Mn  Mn9  1  0.750000  0.271248  0.140213  1
  Os  Os10  1  0.750000  0.773743  0.362579  1
  Os  Os11  1  0.250000  0.226257  0.637421  1
  C  C12  1  0.250000  0.469608  0.763219  1
  C  C13  1  0.750000  0.530392  0.236781  1
  C  C14  1  0.750000  0.046036  0.256417  1
  C  C15  1  0.250000  0.953964  0.743583  1
  C  C16  1  0.250000  0.813102  0.037915  1
  C  C17  1  0.750000  0.186898  0.962085  1
  C  C18  1  0.750000  0.672873  0.550643  1
  C  C19  1  0.250000  0.327127  0.449357  1
