# generated using pymatgen
data_Y2Al2PdRu
_symmetry_space_group_name_H-M   'P 1'
_cell_length_a   4.26642900
_cell_length_b   6.97174600
_cell_length_c   7.95344700
_cell_angle_alpha   90.00000000
_cell_angle_beta   90.00000000
_cell_angle_gamma   90.00000000
_symmetry_Int_Tables_number   1
_chemical_formula_structural   Y2Al2PdRu
_chemical_formula_sum   'Y4 Al4 Pd2 Ru2'
_cell_volume   236.57098071
_cell_formula_units_Z   2
loop_
 _symmetry_equiv_pos_site_id
 _symmetry_equiv_pos_as_xyz
  1  'x, y, z'
loop_
 _atom_site_type_symbol
 _atom_site_label
 _atom_site_symmetry_multiplicity
 _atom_site_fract_x
 _atom_site_fract_y
 _atom_site_fract_z
 _atom_site_occupancy
  Y  Y0  1  0.250000  0.033346  0.323208  1
  Y  Y1  1  0.250000  0.533346  0.176792  1
  Y  Y2  1  0.750000  0.974429  0.685883  1
  Y  Y3  1  0.750000  0.474429  0.814117  1
  Al  Al4  1  0.250000  0.140635  0.935145  1
  Al  Al5  1  0.250000  0.640635  0.564855  1
  Al  Al6  1  0.750000  0.854085  0.057770  1
  Al  Al7  1  0.750000  0.354085  0.442230  1
  Pd  Pd8  1  0.750000  0.726832  0.379365  1
  Pd  Pd9  1  0.750000  0.226832  0.120635  1
  Ru  Ru10  1  0.250000  0.270673  0.616817  1
  Ru  Ru11  1  0.250000  0.770673  0.883183  1
