# generated using pymatgen
data_CsRbCoBr4
_symmetry_space_group_name_H-M   'P 1'
_cell_length_a   7.79907700
_cell_length_b   10.21887000
_cell_length_c   13.61341700
_cell_angle_alpha   90.00000000
_cell_angle_beta   90.00000000
_cell_angle_gamma   90.00000000
_symmetry_Int_Tables_number   1
_chemical_formula_structural   CsRbCoBr4
_chemical_formula_sum   'Cs4 Rb4 Co4 Br16'
_cell_volume   1084.95875893
_cell_formula_units_Z   4
loop_
 _symmetry_equiv_pos_site_id
 _symmetry_equiv_pos_as_xyz
  1  'x, y, z'
loop_
 _atom_site_type_symbol
 _atom_site_label
 _atom_site_symmetry_multiplicity
 _atom_site_fract_x
 _atom_site_fract_y
 _atom_site_fract_z
 _atom_site_occupancy
  Cs  Cs0  1  0.250000  0.641496  0.910187  1
  Cs  Cs1  1  0.750000  0.358504  0.089813  1
  Cs  Cs2  1  0.750000  0.858504  0.410187  1
  Cs  Cs3  1  0.250000  0.141496  0.589813  1
  Rb  Rb4  1  0.250000  0.984680  0.173094  1
  Rb  Rb5  1  0.750000  0.015320  0.826906  1
  Rb  Rb6  1  0.750000  0.515320  0.673094  1
  Rb  Rb7  1  0.250000  0.484680  0.326906  1
  Co  Co8  1  0.250000  0.732642  0.577741  1
  Co  Co9  1  0.750000  0.267358  0.422259  1
  Co  Co10  1  0.750000  0.767358  0.077741  1
  Co  Co11  1  0.250000  0.232642  0.922259  1
  Br  Br12  1  0.997691  0.815107  0.656937  1
  Br  Br13  1  0.002309  0.184893  0.343063  1
  Br  Br14  1  0.002309  0.684893  0.156937  1
  Br  Br15  1  0.497691  0.184893  0.343063  1
  Br  Br16  1  0.997691  0.315107  0.843063  1
  Br  Br17  1  0.502309  0.815107  0.656937  1
  Br  Br18  1  0.502309  0.315107  0.843063  1
  Br  Br19  1  0.497691  0.684893  0.156937  1
  Br  Br20  1  0.250000  0.498525  0.587492  1
  Br  Br21  1  0.750000  0.501475  0.412508  1
  Br  Br22  1  0.750000  0.001475  0.087492  1
  Br  Br23  1  0.250000  0.998525  0.912508  1
  Br  Br24  1  0.250000  0.312853  0.088600  1
  Br  Br25  1  0.750000  0.687147  0.911400  1
  Br  Br26  1  0.750000  0.187147  0.588600  1
  Br  Br27  1  0.250000  0.812853  0.411400  1
