# generated using pymatgen
data_Ca8HoEr(Sn3H)2
_symmetry_space_group_name_H-M   'P 1'
_cell_length_a   9.41038810
_cell_length_b   9.42574126
_cell_length_c   9.41985048
_cell_angle_alpha   129.12713244
_cell_angle_beta   129.17237599
_cell_angle_gamma   74.71116845
_symmetry_Int_Tables_number   1
_chemical_formula_structural   Ca8HoEr(Sn3H)2
_chemical_formula_sum   'Ca8 Ho1 Er1 Sn6 H2'
_cell_volume   489.68368324
_cell_formula_units_Z   1
loop_
 _symmetry_equiv_pos_site_id
 _symmetry_equiv_pos_as_xyz
  1  'x, y, z'
loop_
 _atom_site_type_symbol
 _atom_site_label
 _atom_site_symmetry_multiplicity
 _atom_site_fract_x
 _atom_site_fract_y
 _atom_site_fract_z
 _atom_site_occupancy
  Ca  Ca0  1  0.498292  0.500865  0.000407  1
  Ca  Ca1  1  0.185516  0.685235  0.173828  1
  Ca  Ca2  1  0.008819  0.186459  0.499814  1
  Ca  Ca3  1  0.685267  0.507801  0.498085  1
  Ca  Ca4  1  0.489801  0.989738  0.177305  1
  Ca  Ca5  1  0.812347  0.312273  0.822075  1
  Ca  Ca6  1  0.988975  0.813173  0.499948  1
  Ca  Ca7  1  0.312594  0.488725  0.499537  1
  Ho  Ho8  1  0.515233  0.013201  0.824724  1
  Er  Er9  1  0.001293  0.997660  0.999915  1
  Sn  Sn10  1  0.251424  0.241044  0.995384  1
  Sn  Sn11  1  0.747276  0.759567  0.994866  1
  Sn  Sn12  1  0.870799  0.362589  0.234917  1
  Sn  Sn13  1  0.122368  0.631495  0.755551  1
  Sn  Sn14  1  0.365522  0.123906  0.495771  1
  Sn  Sn15  1  0.632277  0.873724  0.511429  1
  H  H16  1  0.262468  0.762600  0.514440  1
  H  H17  1  0.749727  0.249943  0.502004  1
