# generated using pymatgen
data_Tb4TmPt9
_symmetry_space_group_name_H-M   'P 1'
_cell_length_a   9.79028100
_cell_length_b   9.79028100
_cell_length_c   5.78445600
_cell_angle_alpha   90.00000000
_cell_angle_beta   90.00000000
_cell_angle_gamma   90.00000000
_symmetry_Int_Tables_number   1
_chemical_formula_structural   Tb4TmPt9
_chemical_formula_sum   'Tb8 Tm2 Pt18'
_cell_volume   554.43780573
_cell_formula_units_Z   2
loop_
 _symmetry_equiv_pos_site_id
 _symmetry_equiv_pos_as_xyz
  1  'x, y, z'
loop_
 _atom_site_type_symbol
 _atom_site_label
 _atom_site_symmetry_multiplicity
 _atom_site_fract_x
 _atom_site_fract_y
 _atom_site_fract_z
 _atom_site_occupancy
  Tb  Tb0  1  0.452792  0.808566  0.000000  1
  Tb  Tb1  1  0.547208  0.191434  0.000000  1
  Tb  Tb2  1  0.191434  0.547208  0.000000  1
  Tb  Tb3  1  0.808566  0.452792  0.000000  1
  Tb  Tb4  1  0.308566  0.047208  0.500000  1
  Tb  Tb5  1  0.691434  0.952792  0.500000  1
  Tb  Tb6  1  0.952792  0.691434  0.500000  1
  Tb  Tb7  1  0.047208  0.308566  0.500000  1
  Tm  Tm8  1  0.500000  0.500000  0.500000  1
  Tm  Tm9  1  0.000000  0.000000  0.000000  1
  Pt  Pt10  1  0.191410  0.808590  0.250460  1
  Pt  Pt11  1  0.808590  0.191410  0.749540  1
  Pt  Pt12  1  0.808590  0.191410  0.250460  1
  Pt  Pt13  1  0.191410  0.808590  0.749540  1
  Pt  Pt14  1  0.440536  0.779830  0.500000  1
  Pt  Pt15  1  0.559464  0.220170  0.500000  1
  Pt  Pt16  1  0.220170  0.559464  0.500000  1
  Pt  Pt17  1  0.779830  0.440536  0.500000  1
  Pt  Pt18  1  0.308590  0.308590  0.249540  1
  Pt  Pt19  1  0.691410  0.691410  0.750460  1
  Pt  Pt20  1  0.691410  0.691410  0.249540  1
  Pt  Pt21  1  0.308590  0.308590  0.750460  1
  Pt  Pt22  1  0.279830  0.059464  0.000000  1
  Pt  Pt23  1  0.720170  0.940536  0.000000  1
  Pt  Pt24  1  0.940536  0.720170  0.000000  1
  Pt  Pt25  1  0.059464  0.279830  0.000000  1
  Pt  Pt26  1  0.000000  0.000000  0.500000  1
  Pt  Pt27  1  0.500000  0.500000  0.000000  1
