# generated using pymatgen
data_Er2Lu3P12Ru18Pt
_symmetry_space_group_name_H-M   'P 1'
_cell_length_a   12.54768119
_cell_length_b   12.55032753
_cell_length_c   3.97227300
_cell_angle_alpha   90.00000000
_cell_angle_beta   90.00000000
_cell_angle_gamma   120.53947354
_symmetry_Int_Tables_number   1
_chemical_formula_structural   Er2Lu3P12Ru18Pt
_chemical_formula_sum   'Er2 Lu3 P12 Ru18 Pt1'
_cell_volume   538.76779613
_cell_formula_units_Z   1
loop_
 _symmetry_equiv_pos_site_id
 _symmetry_equiv_pos_as_xyz
  1  'x, y, z'
loop_
 _atom_site_type_symbol
 _atom_site_label
 _atom_site_symmetry_multiplicity
 _atom_site_fract_x
 _atom_site_fract_y
 _atom_site_fract_z
 _atom_site_occupancy
  Er  Er0  1  0.998334  0.815918  0.500000  1
  Er  Er1  1  0.668654  0.329615  0.000000  1
  Lu  Lu2  1  0.182193  0.182184  0.500000  1
  Lu  Lu3  1  0.816186  0.998352  0.500000  1
  Lu  Lu4  1  0.329506  0.668512  0.000000  1
  P  P5  1  0.812464  0.812855  0.000000  1
  P  P6  1  0.183097  0.002261  0.000000  1
  P  P7  1  0.002374  0.183401  0.000000  1
  P  P8  1  0.173257  0.480658  0.500000  1
  P  P9  1  0.517863  0.700558  0.500000  1
  P  P10  1  0.306294  0.832079  0.500000  1
  P  P11  1  0.700725  0.518539  0.500000  1
  P  P12  1  0.832501  0.306195  0.500000  1
  P  P13  1  0.480415  0.172979  0.500000  1
  P  P14  1  0.363257  0.363173  0.000000  1
  P  P15  1  0.627521  0.000202  0.000000  1
  P  P16  1  0.000139  0.627332  0.000000  1
  Ru  Ru17  1  0.446313  0.002514  0.000000  1
  Ru  Ru18  1  0.002472  0.446172  0.000000  1
  Ru  Ru19  1  0.710133  0.710568  0.500000  1
  Ru  Ru20  1  0.282494  0.002873  0.500000  1
  Ru  Ru21  1  0.002905  0.282182  0.500000  1
  Ru  Ru22  1  0.186998  0.378716  0.000000  1
  Ru  Ru23  1  0.620997  0.807271  0.000000  1
  Ru  Ru24  1  0.189762  0.816797  0.000000  1
  Ru  Ru25  1  0.806499  0.620865  0.000000  1
  Ru  Ru26  1  0.816993  0.188748  0.000000  1
  Ru  Ru27  1  0.378212  0.186701  0.000000  1
  Ru  Ru28  1  0.367316  0.496024  0.500000  1
  Ru  Ru29  1  0.507140  0.877304  0.500000  1
  Ru  Ru30  1  0.129739  0.636605  0.500000  1
  Ru  Ru31  1  0.878237  0.507926  0.500000  1
  Ru  Ru32  1  0.636739  0.128803  0.500000  1
  Ru  Ru33  1  0.495280  0.367357  0.500000  1
  Ru  Ru34  1  0.997113  0.997921  0.000000  1
  Pt  Pt35  1  0.549879  0.549838  0.000000  1
