# generated using pymatgen
data_EuDy3(WO6)2
_symmetry_space_group_name_H-M   'P 1'
_cell_length_a   5.42452500
_cell_length_b   7.72898301
_cell_length_c   11.56147745
_cell_angle_alpha   75.36965496
_cell_angle_beta   90.00000000
_cell_angle_gamma   90.00000000
_symmetry_Int_Tables_number   1
_chemical_formula_structural   EuDy3(WO6)2
_chemical_formula_sum   'Eu2 Dy6 W4 O24'
_cell_volume   469.01019406
_cell_formula_units_Z   2
loop_
 _symmetry_equiv_pos_site_id
 _symmetry_equiv_pos_as_xyz
  1  'x, y, z'
loop_
 _atom_site_type_symbol
 _atom_site_label
 _atom_site_symmetry_multiplicity
 _atom_site_fract_x
 _atom_site_fract_y
 _atom_site_fract_z
 _atom_site_occupancy
  Eu  Eu0  1  0.683882  0.500000  0.750000  1
  Eu  Eu1  1  0.316118  0.500000  0.250000  1
  Dy  Dy2  1  0.741690  0.000000  0.750000  1
  Dy  Dy3  1  0.258310  0.000000  0.250000  1
  Dy  Dy4  1  0.187205  0.796717  0.576769  1
  Dy  Dy5  1  0.812795  0.796717  0.076769  1
  Dy  Dy6  1  0.187205  0.203283  0.923231  1
  Dy  Dy7  1  0.812795  0.203283  0.423231  1
  W  W8  1  0.253061  0.725338  0.885008  1
  W  W9  1  0.746939  0.725338  0.385008  1
  W  W10  1  0.253061  0.274662  0.614992  1
  W  W11  1  0.746939  0.274662  0.114992  1
  O  O12  1  0.040908  0.940122  0.896281  1
  O  O13  1  0.529152  0.849733  0.929914  1
  O  O14  1  0.959092  0.940122  0.396281  1
  O  O15  1  0.456417  0.791029  0.728219  1
  O  O16  1  0.470848  0.849733  0.429914  1
  O  O17  1  0.984306  0.717255  0.770283  1
  O  O18  1  0.543583  0.791029  0.228219  1
  O  O19  1  0.854015  0.637519  0.546053  1
  O  O20  1  0.354963  0.490690  0.888764  1
  O  O21  1  0.015694  0.717255  0.270283  1
  O  O22  1  0.354963  0.509310  0.611236  1
  O  O23  1  0.854015  0.362481  0.953947  1
  O  O24  1  0.145985  0.637519  0.046053  1
  O  O25  1  0.645037  0.490690  0.388764  1
  O  O26  1  0.984306  0.282745  0.729717  1
  O  O27  1  0.645037  0.509310  0.111236  1
  O  O28  1  0.145985  0.362481  0.453947  1
  O  O29  1  0.456417  0.208971  0.771781  1
  O  O30  1  0.015694  0.282745  0.229717  1
  O  O31  1  0.529152  0.150267  0.570086  1
  O  O32  1  0.543583  0.208971  0.271781  1
  O  O33  1  0.040908  0.059878  0.603719  1
  O  O34  1  0.470848  0.150267  0.070086  1
  O  O35  1  0.959092  0.059878  0.103719  1
