# generated using pymatgen
data_Sm2LuIn3(TeO6)3
_symmetry_space_group_name_H-M   'P 1'
_cell_length_a   9.06425280
_cell_length_b   9.06425344
_cell_length_c   5.17982711
_cell_angle_alpha   89.68261883
_cell_angle_beta   90.31737755
_cell_angle_gamma   119.96168319
_symmetry_Int_Tables_number   1
_chemical_formula_structural   Sm2LuIn3(TeO6)3
_chemical_formula_sum   'Sm2 Lu1 In3 Te3 O18'
_cell_volume   368.69615783
_cell_formula_units_Z   1
loop_
 _symmetry_equiv_pos_site_id
 _symmetry_equiv_pos_as_xyz
  1  'x, y, z'
loop_
 _atom_site_type_symbol
 _atom_site_label
 _atom_site_symmetry_multiplicity
 _atom_site_fract_x
 _atom_site_fract_y
 _atom_site_fract_z
 _atom_site_occupancy
  Sm  Sm0  1  0.615994  0.002769  0.000960  1
  Sm  Sm1  1  0.002769  0.615994  0.999040  1
  Lu  Lu2  1  0.376417  0.376417  0.000000  1
  In  In3  1  0.285259  0.998527  0.502108  1
  In  In4  1  0.998527  0.285259  0.497892  1
  In  In5  1  0.715466  0.715466  0.500000  1
  Te  Te6  1  0.003132  0.003132  0.000000  1
  Te  Te7  1  0.334610  0.662151  0.498330  1
  Te  Te8  1  0.662151  0.334610  0.501670  1
  O  O9  1  0.089971  0.886353  0.787327  1
  O  O10  1  0.120885  0.210598  0.791451  1
  O  O11  1  0.799201  0.916524  0.785264  1
  O  O12  1  0.210598  0.120885  0.208549  1
  O  O13  1  0.916524  0.799201  0.214736  1
  O  O14  1  0.886353  0.089971  0.212673  1
  O  O15  1  0.458302  0.585671  0.720228  1
  O  O16  1  0.399008  0.858812  0.718179  1
  O  O17  1  0.129211  0.533196  0.699547  1
  O  O18  1  0.858812  0.399008  0.281821  1
  O  O19  1  0.533196  0.129211  0.300453  1
  O  O20  1  0.585671  0.458302  0.279772  1
  O  O21  1  0.234641  0.768197  0.281301  1
  O  O22  1  0.236321  0.460617  0.273737  1
  O  O23  1  0.543359  0.774809  0.295180  1
  O  O24  1  0.460617  0.236321  0.726263  1
  O  O25  1  0.774809  0.543359  0.704820  1
  O  O26  1  0.768197  0.234641  0.718699  1
