# generated using pymatgen
data_Tm6Lu2Tc(B8Ru)3
_symmetry_space_group_name_H-M   'P 1'
_cell_length_a   3.61807100
_cell_length_b   9.05618142
_cell_length_c   11.43330617
_cell_angle_alpha   89.93180892
_cell_angle_beta   90.00000000
_cell_angle_gamma   90.00000000
_symmetry_Int_Tables_number   1
_chemical_formula_structural   Tm6Lu2Tc(B8Ru)3
_chemical_formula_sum   'Tm6 Lu2 Tc1 B24 Ru3'
_cell_volume   374.62238558
_cell_formula_units_Z   1
loop_
 _symmetry_equiv_pos_site_id
 _symmetry_equiv_pos_as_xyz
  1  'x, y, z'
loop_
 _atom_site_type_symbol
 _atom_site_label
 _atom_site_symmetry_multiplicity
 _atom_site_fract_x
 _atom_site_fract_y
 _atom_site_fract_z
 _atom_site_occupancy
  Tm  Tm0  1  0.000000  0.323668  0.413186  1
  Tm  Tm1  1  0.000000  0.677562  0.583395  1
  Tm  Tm2  1  0.000000  0.819408  0.087851  1
  Tm  Tm3  1  0.000000  0.178030  0.915163  1
  Tm  Tm4  1  0.000000  0.943244  0.372254  1
  Tm  Tm5  1  0.000000  0.057206  0.628198  1
  Lu  Lu6  1  0.000000  0.444250  0.127943  1
  Lu  Lu7  1  0.000000  0.556655  0.871827  1
  Tc  Tc8  1  0.000000  0.637339  0.320696  1
  B  B9  1  0.500000  0.552599  0.433519  1
  B  B10  1  0.500000  0.446681  0.567129  1
  B  B11  1  0.500000  0.053794  0.066492  1
  B  B12  1  0.500000  0.945977  0.933792  1
  B  B13  1  0.500000  0.748806  0.419659  1
  B  B14  1  0.500000  0.251657  0.580352  1
  B  B15  1  0.500000  0.249533  0.079871  1
  B  B16  1  0.500000  0.750323  0.919981  1
  B  B17  1  0.500000  0.791810  0.265235  1
  B  B18  1  0.500000  0.208797  0.734830  1
  B  B19  1  0.500000  0.291914  0.233474  1
  B  B20  1  0.500000  0.708316  0.765719  1
  B  B21  1  0.500000  0.630389  0.184463  1
  B  B22  1  0.500000  0.369268  0.815913  1
  B  B23  1  0.500000  0.131543  0.314769  1
  B  B24  1  0.500000  0.868959  0.684811  1
  B  B25  1  0.500000  0.982391  0.212428  1
  B  B26  1  0.500000  0.017623  0.787995  1
  B  B27  1  0.500000  0.480962  0.286888  1
  B  B28  1  0.500000  0.517988  0.713110  1
  B  B29  1  0.500000  0.604251  0.028260  1
  B  B30  1  0.500000  0.395216  0.970788  1
  B  B31  1  0.500000  0.106982  0.470818  1
  B  B32  1  0.500000  0.894708  0.529711  1
  Ru  Ru33  1  0.000000  0.362178  0.680012  1
  Ru  Ru34  1  0.000000  0.138256  0.178391  1
  Ru  Ru35  1  0.000000  0.861718  0.821076  1
