# generated using pymatgen
data_Nd16AlHg3Ru4
_symmetry_space_group_name_H-M   'P 1'
_cell_length_a   9.89305912
_cell_length_b   9.89305859
_cell_length_c   9.89305947
_cell_angle_alpha   59.72456196
_cell_angle_beta   59.72455468
_cell_angle_gamma   59.72456271
_symmetry_Int_Tables_number   1
_chemical_formula_structural   Nd16AlHg3Ru4
_chemical_formula_sum   'Nd16 Al1 Hg3 Ru4'
_cell_volume   680.37990774
_cell_formula_units_Z   1
loop_
 _symmetry_equiv_pos_site_id
 _symmetry_equiv_pos_as_xyz
  1  'x, y, z'
loop_
 _atom_site_type_symbol
 _atom_site_label
 _atom_site_symmetry_multiplicity
 _atom_site_fract_x
 _atom_site_fract_y
 _atom_site_fract_z
 _atom_site_occupancy
  Nd  Nd0  1  0.347980  0.347980  0.347980  1
  Nd  Nd1  1  0.347981  0.347981  0.956702  1
  Nd  Nd2  1  0.347981  0.956702  0.347981  1
  Nd  Nd3  1  0.956702  0.347981  0.347981  1
  Nd  Nd4  1  0.807563  0.191935  0.191935  1
  Nd  Nd5  1  0.194220  0.807489  0.807489  1
  Nd  Nd6  1  0.191935  0.807563  0.191935  1
  Nd  Nd7  1  0.807489  0.194220  0.807489  1
  Nd  Nd8  1  0.191935  0.191935  0.807563  1
  Nd  Nd9  1  0.807489  0.807489  0.194220  1
  Nd  Nd10  1  0.934968  0.562771  0.562771  1
  Nd  Nd11  1  0.560076  0.940979  0.940979  1
  Nd  Nd12  1  0.562771  0.934968  0.562771  1
  Nd  Nd13  1  0.940979  0.560076  0.940979  1
  Nd  Nd14  1  0.562771  0.562771  0.934968  1
  Nd  Nd15  1  0.940979  0.940979  0.560076  1
  Al  Al16  1  0.576689  0.576689  0.576689  1
  Hg  Hg17  1  0.583679  0.583679  0.254551  1
  Hg  Hg18  1  0.583679  0.254551  0.583679  1
  Hg  Hg19  1  0.254551  0.583679  0.583679  1
  Ru  Ru20  1  0.137449  0.137449  0.137449  1
  Ru  Ru21  1  0.137256  0.137256  0.585622  1
  Ru  Ru22  1  0.137256  0.585622  0.137256  1
  Ru  Ru23  1  0.585622  0.137256  0.137256  1
