# generated using pymatgen
data_Ce3Th(Tc3Os)2
_symmetry_space_group_name_H-M   'P 1'
_cell_length_a   5.23839600
_cell_length_b   5.23839599
_cell_length_c   9.52053200
_cell_angle_alpha   90.00000000
_cell_angle_beta   90.00000000
_cell_angle_gamma   120.00000006
_symmetry_Int_Tables_number   1
_chemical_formula_structural   Ce3Th(Tc3Os)2
_chemical_formula_sum   'Ce3 Th1 Tc6 Os2'
_cell_volume   226.24995420
_cell_formula_units_Z   1
loop_
 _symmetry_equiv_pos_site_id
 _symmetry_equiv_pos_as_xyz
  1  'x, y, z'
loop_
 _atom_site_type_symbol
 _atom_site_label
 _atom_site_symmetry_multiplicity
 _atom_site_fract_x
 _atom_site_fract_y
 _atom_site_fract_z
 _atom_site_occupancy
  Ce  Ce0  1  0.333333  0.666667  0.439711  1
  Ce  Ce1  1  0.666667  0.333333  0.562617  1
  Ce  Ce2  1  0.666667  0.333333  0.934526  1
  Th  Th3  1  0.333333  0.666667  0.062802  1
  Tc  Tc4  1  0.830583  0.169417  0.251237  1
  Tc  Tc5  1  0.830583  0.661168  0.251237  1
  Tc  Tc6  1  0.338832  0.169417  0.251237  1
  Tc  Tc7  1  0.169280  0.830720  0.749037  1
  Tc  Tc8  1  0.169280  0.338560  0.749037  1
  Tc  Tc9  1  0.661440  0.830720  0.749037  1
  Os  Os10  1  0.000000  0.000000  0.500435  1
  Os  Os11  1  0.000000  0.000000  0.999085  1
