# generated using pymatgen
data_Yb4Sm3Th(ReC2)4
_symmetry_space_group_name_H-M   'P 1'
_cell_length_a   5.21848700
_cell_length_b   6.54132112
_cell_length_c   10.30853545
_cell_angle_alpha   89.90699552
_cell_angle_beta   90.00000000
_cell_angle_gamma   90.00000000
_symmetry_Int_Tables_number   1
_chemical_formula_structural   Yb4Sm3Th(ReC2)4
_chemical_formula_sum   'Yb4 Sm3 Th1 Re4 C8'
_cell_volume   351.88963286
_cell_formula_units_Z   1
loop_
 _symmetry_equiv_pos_site_id
 _symmetry_equiv_pos_as_xyz
  1  'x, y, z'
loop_
 _atom_site_type_symbol
 _atom_site_label
 _atom_site_symmetry_multiplicity
 _atom_site_fract_x
 _atom_site_fract_y
 _atom_site_fract_z
 _atom_site_occupancy
  Yb  Yb0  1  0.250000  0.534916  0.232436  1
  Yb  Yb1  1  0.750000  0.467501  0.767339  1
  Yb  Yb2  1  0.750000  0.965339  0.727139  1
  Yb  Yb3  1  0.250000  0.033905  0.274624  1
  Sm  Sm4  1  0.250000  0.698127  0.552942  1
  Sm  Sm5  1  0.750000  0.301326  0.447830  1
  Sm  Sm6  1  0.750000  0.798108  0.052562  1
  Th  Th7  1  0.250000  0.199844  0.950293  1
  Re  Re8  1  0.250000  0.727816  0.859110  1
  Re  Re9  1  0.750000  0.270252  0.141108  1
  Re  Re10  1  0.750000  0.770311  0.357842  1
  Re  Re11  1  0.250000  0.228682  0.640660  1
  C  C12  1  0.250000  0.465145  0.757124  1
  C  C13  1  0.750000  0.532560  0.242982  1
  C  C14  1  0.750000  0.034998  0.258130  1
  C  C15  1  0.250000  0.964660  0.742957  1
  C  C16  1  0.250000  0.819808  0.035789  1
  C  C17  1  0.750000  0.186559  0.960258  1
  C  C18  1  0.750000  0.689389  0.535659  1
  C  C19  1  0.250000  0.310752  0.463216  1
