# generated using pymatgen
data_Dy7LuRe2(B12Ir)2
_symmetry_space_group_name_H-M   'P 1'
_cell_length_a   3.66696600
_cell_length_b   9.14779894
_cell_length_c   11.54059230
_cell_angle_alpha   90.36425324
_cell_angle_beta   90.00000000
_cell_angle_gamma   90.00000000
_symmetry_Int_Tables_number   1
_chemical_formula_structural   Dy7LuRe2(B12Ir)2
_chemical_formula_sum   'Dy7 Lu1 Re2 B24 Ir2'
_cell_volume   387.11751066
_cell_formula_units_Z   1
loop_
 _symmetry_equiv_pos_site_id
 _symmetry_equiv_pos_as_xyz
  1  'x, y, z'
loop_
 _atom_site_type_symbol
 _atom_site_label
 _atom_site_symmetry_multiplicity
 _atom_site_fract_x
 _atom_site_fract_y
 _atom_site_fract_z
 _atom_site_occupancy
  Dy  Dy0  1  0.000000  0.317816  0.409986  1
  Dy  Dy1  1  0.000000  0.682135  0.590425  1
  Dy  Dy2  1  0.000000  0.826079  0.082095  1
  Dy  Dy3  1  0.000000  0.173647  0.917165  1
  Dy  Dy4  1  0.000000  0.945987  0.372345  1
  Dy  Dy5  1  0.000000  0.054048  0.628226  1
  Dy  Dy6  1  0.000000  0.441978  0.125068  1
  Lu  Lu7  1  0.000000  0.558808  0.873803  1
  Re  Re8  1  0.000000  0.138451  0.179426  1
  Re  Re9  1  0.000000  0.859996  0.820410  1
  B  B10  1  0.500000  0.554038  0.433913  1
  B  B11  1  0.500000  0.446322  0.566690  1
  B  B12  1  0.500000  0.053065  0.067021  1
  B  B13  1  0.500000  0.945667  0.932647  1
  B  B14  1  0.500000  0.748778  0.421129  1
  B  B15  1  0.500000  0.251590  0.579312  1
  B  B16  1  0.500000  0.247814  0.080458  1
  B  B17  1  0.500000  0.750463  0.919112  1
  B  B18  1  0.500000  0.790504  0.265932  1
  B  B19  1  0.500000  0.210139  0.734359  1
  B  B20  1  0.500000  0.292113  0.233962  1
  B  B21  1  0.500000  0.706493  0.766318  1
  B  B22  1  0.500000  0.631688  0.183729  1
  B  B23  1  0.500000  0.370002  0.816451  1
  B  B24  1  0.500000  0.132107  0.314485  1
  B  B25  1  0.500000  0.867398  0.685809  1
  B  B26  1  0.500000  0.983229  0.212789  1
  B  B27  1  0.500000  0.016258  0.787391  1
  B  B28  1  0.500000  0.482551  0.287225  1
  B  B29  1  0.500000  0.518211  0.713712  1
  B  B30  1  0.500000  0.605470  0.028089  1
  B  B31  1  0.500000  0.396199  0.969194  1
  B  B32  1  0.500000  0.109088  0.470730  1
  B  B33  1  0.500000  0.890911  0.529739  1
  Ir  Ir34  1  0.000000  0.636159  0.322041  1
  Ir  Ir35  1  0.000000  0.364799  0.678809  1
