# generated using pymatgen
data_Gd2HoSn3IrRh2
_symmetry_space_group_name_H-M   'P 1'
_cell_length_a   7.49307628
_cell_length_b   7.52056171
_cell_length_c   3.96768400
_cell_angle_alpha   90.00000000
_cell_angle_beta   90.00000000
_cell_angle_gamma   120.02372131
_symmetry_Int_Tables_number   1
_chemical_formula_structural   Gd2HoSn3IrRh2
_chemical_formula_sum   'Gd2 Ho1 Sn3 Ir1 Rh2'
_cell_volume   193.58614940
_cell_formula_units_Z   1
loop_
 _symmetry_equiv_pos_site_id
 _symmetry_equiv_pos_as_xyz
  1  'x, y, z'
loop_
 _atom_site_type_symbol
 _atom_site_label
 _atom_site_symmetry_multiplicity
 _atom_site_fract_x
 _atom_site_fract_y
 _atom_site_fract_z
 _atom_site_occupancy
  Gd  Gd0  1  0.591665  0.589426  0.000000  1
  Gd  Gd1  1  0.411772  0.002955  0.000000  1
  Ho  Ho2  1  0.995598  0.406329  0.000000  1
  Sn  Sn3  1  0.254981  0.258657  0.500000  1
  Sn  Sn4  1  0.002252  0.743317  0.500000  1
  Sn  Sn5  1  0.743671  0.999352  0.500000  1
  Ir  Ir6  1  0.668615  0.333988  0.500000  1
  Rh  Rh7  1  0.330521  0.664267  0.500000  1
  Rh  Rh8  1  0.000923  0.001708  0.000000  1
