# generated using pymatgen
data_Tb5DyAl24(CoOs3)2
_symmetry_space_group_name_H-M   'P 1'
_cell_length_a   8.77070800
_cell_length_b   8.77262067
_cell_length_c   9.54186200
_cell_angle_alpha   90.00000000
_cell_angle_beta   90.00000000
_cell_angle_gamma   119.99278042
_symmetry_Int_Tables_number   1
_chemical_formula_structural   Tb5DyAl24(CoOs3)2
_chemical_formula_sum   'Tb5 Dy1 Al24 Co2 Os6'
_cell_volume   635.85685310
_cell_formula_units_Z   1
loop_
 _symmetry_equiv_pos_site_id
 _symmetry_equiv_pos_as_xyz
  1  'x, y, z'
loop_
 _atom_site_type_symbol
 _atom_site_label
 _atom_site_symmetry_multiplicity
 _atom_site_fract_x
 _atom_site_fract_y
 _atom_site_fract_z
 _atom_site_occupancy
  Tb  Tb0  1  0.806433  0.612867  0.750000  1
  Tb  Tb1  1  0.612717  0.806353  0.250000  1
  Tb  Tb2  1  0.387094  0.193546  0.750000  1
  Tb  Tb3  1  0.193636  0.806353  0.250000  1
  Tb  Tb4  1  0.806452  0.193546  0.750000  1
  Dy  Dy5  1  0.193903  0.387806  0.250000  1
  Al  Al6  1  0.333288  0.666578  0.014983  1
  Al  Al7  1  0.666658  0.333314  0.985245  1
  Al  Al8  1  0.666658  0.333314  0.514755  1
  Al  Al9  1  0.333288  0.666578  0.485017  1
  Al  Al10  1  0.159577  0.319154  0.575768  1
  Al  Al11  1  0.840407  0.680814  0.424038  1
  Al  Al12  1  0.680800  0.840404  0.575931  1
  Al  Al13  1  0.840407  0.680814  0.075962  1
  Al  Al14  1  0.319059  0.159663  0.423954  1
  Al  Al15  1  0.159577  0.319154  0.924232  1
  Al  Al16  1  0.159604  0.840404  0.575931  1
  Al  Al17  1  0.319059  0.159663  0.076046  1
  Al  Al18  1  0.840604  0.159663  0.423954  1
  Al  Al19  1  0.680800  0.840404  0.924069  1
  Al  Al20  1  0.840604  0.159663  0.076046  1
  Al  Al21  1  0.159604  0.840404  0.924069  1
  Al  Al22  1  0.561538  0.123077  0.250000  1
  Al  Al23  1  0.438471  0.876942  0.750000  1
  Al  Al24  1  0.877159  0.438429  0.250000  1
  Al  Al25  1  0.123047  0.561491  0.750000  1
  Al  Al26  1  0.561270  0.438429  0.250000  1
  Al  Al27  1  0.438444  0.561491  0.750000  1
  Al  Al28  1  0.000209  0.000417  0.250000  1
  Al  Al29  1  0.999984  0.999967  0.750000  1
  Co  Co30  1  0.999965  0.999930  0.999983  1
  Co  Co31  1  0.999965  0.999930  0.500017  1
  Os  Os32  1  0.499971  0.999941  0.000061  1
  Os  Os33  1  0.000088  0.499889  0.000136  1
  Os  Os34  1  0.499971  0.999941  0.499939  1
  Os  Os35  1  0.499800  0.499889  0.000136  1
  Os  Os36  1  0.000088  0.499889  0.499864  1
  Os  Os37  1  0.499800  0.499889  0.499864  1
