# generated using pymatgen
data_Zr(AgTe)4
_symmetry_space_group_name_H-M   'P 1'
_cell_length_a   8.02156259
_cell_length_b   8.02156323
_cell_length_c   8.02156293
_cell_angle_alpha   131.79556912
_cell_angle_beta   131.79556661
_cell_angle_gamma   70.55209460
_symmetry_Int_Tables_number   1
_chemical_formula_structural   Zr(AgTe)4
_chemical_formula_sum   'Zr1 Ag4 Te4'
_cell_volume   281.07842022
_cell_formula_units_Z   1
loop_
 _symmetry_equiv_pos_site_id
 _symmetry_equiv_pos_as_xyz
  1  'x, y, z'
loop_
 _atom_site_type_symbol
 _atom_site_label
 _atom_site_symmetry_multiplicity
 _atom_site_fract_x
 _atom_site_fract_y
 _atom_site_fract_z
 _atom_site_occupancy
  Zr  Zr0  1  0.000000  0.000000  0.000000  1
  Ag  Ag1  1  0.500000  0.000000  0.500000  1
  Ag  Ag2  1  0.000000  0.500000  0.500000  1
  Ag  Ag3  1  0.755992  0.755992  0.000000  1
  Ag  Ag4  1  0.244008  0.244008  0.000000  1
  Te  Te5  1  0.371701  0.371701  0.496279  1
  Te  Te6  1  0.628299  0.124580  0.000000  1
  Te  Te7  1  0.875420  0.875420  0.503721  1
  Te  Te8  1  0.124580  0.628299  0.000000  1
