# generated using pymatgen
data_TbErSiPd14
_symmetry_space_group_name_H-M   'P 1'
_cell_length_a   8.93036900
_cell_length_b   8.93036900
_cell_length_c   7.07997400
_cell_angle_alpha   90.00000000
_cell_angle_beta   90.00000000
_cell_angle_gamma   90.00000000
_symmetry_Int_Tables_number   1
_chemical_formula_structural   TbErSiPd14
_chemical_formula_sum   'Tb2 Er2 Si2 Pd28'
_cell_volume   564.63847903
_cell_formula_units_Z   2
loop_
 _symmetry_equiv_pos_site_id
 _symmetry_equiv_pos_as_xyz
  1  'x, y, z'
loop_
 _atom_site_type_symbol
 _atom_site_label
 _atom_site_symmetry_multiplicity
 _atom_site_fract_x
 _atom_site_fract_y
 _atom_site_fract_z
 _atom_site_occupancy
  Tb  Tb0  1  0.500000  0.000000  0.934515  1
  Tb  Tb1  1  0.000000  0.500000  0.065485  1
  Er  Er2  1  0.000000  0.000000  0.500000  1
  Er  Er3  1  0.500000  0.500000  0.500000  1
  Si  Si4  1  0.500000  0.000000  0.447958  1
  Si  Si5  1  0.000000  0.500000  0.552042  1
  Pd  Pd6  1  0.334382  0.834382  0.616034  1
  Pd  Pd7  1  0.334382  0.165618  0.616034  1
  Pd  Pd8  1  0.665618  0.834382  0.616034  1
  Pd  Pd9  1  0.665618  0.165618  0.616034  1
  Pd  Pd10  1  0.165618  0.665618  0.383966  1
  Pd  Pd11  1  0.165618  0.334382  0.383966  1
  Pd  Pd12  1  0.834382  0.665618  0.383966  1
  Pd  Pd13  1  0.834382  0.334382  0.383966  1
  Pd  Pd14  1  0.500000  0.769833  0.256638  1
  Pd  Pd15  1  0.500000  0.230167  0.256638  1
  Pd  Pd16  1  0.269833  0.000000  0.256638  1
  Pd  Pd17  1  0.730167  0.000000  0.256638  1
  Pd  Pd18  1  0.000000  0.730167  0.743362  1
  Pd  Pd19  1  0.000000  0.269833  0.743362  1
  Pd  Pd20  1  0.230167  0.500000  0.743362  1
  Pd  Pd21  1  0.769833  0.500000  0.743362  1
  Pd  Pd22  1  0.500000  0.349160  0.851942  1
  Pd  Pd23  1  0.500000  0.650840  0.851942  1
  Pd  Pd24  1  0.849160  0.000000  0.851942  1
  Pd  Pd25  1  0.150840  0.000000  0.851942  1
  Pd  Pd26  1  0.000000  0.150840  0.148058  1
  Pd  Pd27  1  0.000000  0.849160  0.148058  1
  Pd  Pd28  1  0.650840  0.500000  0.148058  1
  Pd  Pd29  1  0.349160  0.500000  0.148058  1
  Pd  Pd30  1  0.250000  0.750000  0.000000  1
  Pd  Pd31  1  0.250000  0.250000  0.000000  1
  Pd  Pd32  1  0.750000  0.750000  0.000000  1
  Pd  Pd33  1  0.750000  0.250000  0.000000  1
