# generated using pymatgen
data_Tm8Hf12Si15Pd
_symmetry_space_group_name_H-M   'P 1'
_cell_length_a   7.23821137
_cell_length_b   7.24934184
_cell_length_c   13.29439100
_cell_angle_alpha   89.75361292
_cell_angle_beta   89.95366127
_cell_angle_gamma   89.95931068
_symmetry_Int_Tables_number   1
_chemical_formula_structural   Tm8Hf12Si15Pd
_chemical_formula_sum   'Tm8 Hf12 Si15 Pd1'
_cell_volume   697.58000180
_cell_formula_units_Z   1
loop_
 _symmetry_equiv_pos_site_id
 _symmetry_equiv_pos_as_xyz
  1  'x, y, z'
loop_
 _atom_site_type_symbol
 _atom_site_label
 _atom_site_symmetry_multiplicity
 _atom_site_fract_x
 _atom_site_fract_y
 _atom_site_fract_z
 _atom_site_occupancy
  Tm  Tm0  1  0.992900  0.347756  0.214545  1
  Tm  Tm1  1  0.005318  0.655141  0.715332  1
  Tm  Tm2  1  0.155960  0.497235  0.465485  1
  Tm  Tm3  1  0.504704  0.842559  0.032907  1
  Tm  Tm4  1  0.844228  0.502996  0.965551  1
  Tm  Tm5  1  0.496586  0.155076  0.537223  1
  Tm  Tm6  1  0.344667  0.997146  0.784806  1
  Tm  Tm7  1  0.661362  0.998824  0.283318  1
  Hf  Hf8  1  0.175052  0.176086  0.998900  1
  Hf  Hf9  1  0.826947  0.825057  0.500129  1
  Hf  Hf10  1  0.324582  0.678778  0.249958  1
  Hf  Hf11  1  0.675859  0.324572  0.750273  1
  Hf  Hf12  1  0.147144  0.001776  0.373967  1
  Hf  Hf13  1  0.852439  0.002369  0.875586  1
  Hf  Hf14  1  0.503492  0.649245  0.625144  1
  Hf  Hf15  1  0.352972  0.496801  0.874270  1
  Hf  Hf16  1  0.494189  0.349824  0.124728  1
  Hf  Hf17  1  0.647131  0.507374  0.379630  1
  Hf  Hf18  1  0.997352  0.147675  0.626153  1
  Hf  Hf19  1  0.999888  0.849775  0.122720  1
  Si  Si20  1  0.639964  0.706142  0.819039  1
  Si  Si21  1  0.204827  0.860714  0.567929  1
  Si  Si22  1  0.140471  0.794609  0.930763  1
  Si  Si23  1  0.795044  0.140013  0.067993  1
  Si  Si24  1  0.857000  0.201113  0.434219  1
  Si  Si25  1  0.295599  0.360505  0.682558  1
  Si  Si26  1  0.703905  0.639993  0.181242  1
  Si  Si27  1  0.294072  0.044963  0.182157  1
  Si  Si28  1  0.703859  0.951009  0.685987  1
  Si  Si29  1  0.449048  0.798741  0.436285  1
  Si  Si30  1  0.202911  0.549004  0.063164  1
  Si  Si31  1  0.548654  0.202566  0.935407  1
  Si  Si32  1  0.797419  0.450900  0.566173  1
  Si  Si33  1  0.048310  0.298104  0.814723  1
  Si  Si34  1  0.950610  0.704363  0.313388  1
  Pd  Pd35  1  0.365535  0.291197  0.318341  1
