# generated using pymatgen
data_MgV3(SiOs3)2
_symmetry_space_group_name_H-M   'P 1'
_cell_length_a   4.26409200
_cell_length_b   6.01183500
_cell_length_c   12.77564700
_cell_angle_alpha   89.99998598
_cell_angle_beta   90.00130869
_cell_angle_gamma   90.00002297
_symmetry_Int_Tables_number   1
_chemical_formula_structural   MgV3(SiOs3)2
_chemical_formula_sum   'Mg2 V6 Si4 Os12'
_cell_volume   327.50393474
_cell_formula_units_Z   2
loop_
 _symmetry_equiv_pos_site_id
 _symmetry_equiv_pos_as_xyz
  1  'x, y, z'
loop_
 _atom_site_type_symbol
 _atom_site_label
 _atom_site_symmetry_multiplicity
 _atom_site_fract_x
 _atom_site_fract_y
 _atom_site_fract_z
 _atom_site_occupancy
  Mg  Mg0  1  0.000025  0.000000  0.998878  1
  Mg  Mg1  1  0.499753  0.500000  0.167813  1
  V  V2  1  0.999960  0.500000  0.003675  1
  V  V3  1  0.499799  0.000001  0.163015  1
  V  V4  1  0.999760  0.500000  0.329359  1
  V  V5  1  0.499990  0.000000  0.499915  1
  V  V6  1  0.000257  0.500000  0.666756  1
  V  V7  1  0.500193  0.000000  0.837319  1
  Si  Si8  1  0.999777  0.000000  0.335498  1
  Si  Si9  1  0.500004  0.500000  0.500710  1
  Si  Si10  1  0.000248  0.000000  0.665970  1
  Si  Si11  1  0.500240  0.500000  0.831141  1
  Os  Os12  1  0.500023  0.254180  0.995026  1
  Os  Os13  1  0.500023  0.745820  0.995026  1
  Os  Os14  1  0.999780  0.245528  0.171663  1
  Os  Os15  1  0.999781  0.754473  0.171663  1
  Os  Os16  1  0.499821  0.246798  0.339629  1
  Os  Os17  1  0.499822  0.753203  0.339629  1
  Os  Os18  1  0.999995  0.249860  0.501709  1
  Os  Os19  1  0.999995  0.750140  0.501708  1
  Os  Os20  1  0.500188  0.250200  0.664983  1
  Os  Os21  1  0.500189  0.749800  0.664983  1
  Os  Os22  1  0.000190  0.253120  0.826967  1
  Os  Os23  1  0.000190  0.746881  0.826967  1
