# generated using pymatgen
data_K2Rb2Nb11Al2O20F
_symmetry_space_group_name_H-M   'P 1'
_cell_length_a   8.99270417
_cell_length_b   8.99270433
_cell_length_c   8.99270400
_cell_angle_alpha   120.62409008
_cell_angle_beta   120.62409069
_cell_angle_gamma   88.92239915
_symmetry_Int_Tables_number   1
_chemical_formula_structural   K2Rb2Nb11Al2O20F
_chemical_formula_sum   'K2 Rb2 Nb11 Al2 O20 F1'
_cell_volume   509.27977761
_cell_formula_units_Z   1
loop_
 _symmetry_equiv_pos_site_id
 _symmetry_equiv_pos_as_xyz
  1  'x, y, z'
loop_
 _atom_site_type_symbol
 _atom_site_label
 _atom_site_symmetry_multiplicity
 _atom_site_fract_x
 _atom_site_fract_y
 _atom_site_fract_z
 _atom_site_occupancy
  K  K0  1  0.499840  0.806732  0.306573  1
  K  K1  1  0.193268  0.500160  0.693427  1
  Rb  Rb2  1  0.811380  0.500164  0.311544  1
  Rb  Rb3  1  0.499836  0.188620  0.688456  1
  Nb  Nb4  1  0.999091  0.676189  0.000000  1
  Nb  Nb5  1  0.676074  0.998559  0.000000  1
  Nb  Nb6  1  0.676029  0.676233  0.677316  1
  Nb  Nb7  1  0.001082  0.001286  0.677316  1
  Nb  Nb8  1  0.998714  0.998918  0.322684  1
  Nb  Nb9  1  0.323767  0.323971  0.322684  1
  Nb  Nb10  1  0.323811  0.000909  0.000000  1
  Nb  Nb11  1  0.000157  0.999843  0.000000  1
  Nb  Nb12  1  0.684827  0.685280  0.000000  1
  Nb  Nb13  1  0.314720  0.315173  0.000000  1
  Nb  Nb14  1  0.001441  0.323926  0.000000  1
  Al  Al15  1  0.750210  0.249790  0.500000  1
  Al  Al16  1  0.250210  0.749790  0.500000  1
  O  O17  1  0.159715  0.490538  0.000000  1
  O  O18  1  0.841204  0.510438  0.000000  1
  O  O19  1  0.167094  0.828089  0.661500  1
  O  O20  1  0.167005  0.505353  0.338846  1
  O  O21  1  0.158659  0.159856  0.669206  1
  O  O22  1  0.509350  0.510547  0.669206  1
  O  O23  1  0.829949  0.831326  0.661273  1
  O  O24  1  0.170025  0.829975  0.000000  1
  O  O25  1  0.509462  0.840285  0.000000  1
  O  O26  1  0.831306  0.168694  0.000000  1
  O  O27  1  0.489562  0.158796  0.000000  1
  O  O28  1  0.168674  0.170051  0.338727  1
  O  O29  1  0.833411  0.494406  0.661500  1
  O  O30  1  0.489453  0.490650  0.330794  1
  O  O31  1  0.840144  0.841341  0.330794  1
  O  O32  1  0.505594  0.166589  0.338500  1
  O  O33  1  0.833493  0.171840  0.338846  1
  O  O34  1  0.828160  0.166507  0.661154  1
  O  O35  1  0.494647  0.832995  0.661154  1
  O  O36  1  0.171911  0.832906  0.338500  1
  F  F37  1  0.496726  0.503274  0.000000  1
