# generated using pymatgen
data_Lu10In8NiAgAu2
_symmetry_space_group_name_H-M   'P 1'
_cell_length_a   3.58826700
_cell_length_b   8.06335462
_cell_length_c   17.98775201
_cell_angle_alpha   89.94792130
_cell_angle_beta   90.00000000
_cell_angle_gamma   90.00000000
_symmetry_Int_Tables_number   1
_chemical_formula_structural   Lu10In8NiAgAu2
_chemical_formula_sum   'Lu10 In8 Ni1 Ag1 Au2'
_cell_volume   520.44785536
_cell_formula_units_Z   1
loop_
 _symmetry_equiv_pos_site_id
 _symmetry_equiv_pos_as_xyz
  1  'x, y, z'
loop_
 _atom_site_type_symbol
 _atom_site_label
 _atom_site_symmetry_multiplicity
 _atom_site_fract_x
 _atom_site_fract_y
 _atom_site_fract_z
 _atom_site_occupancy
  Lu  Lu0  1  0.000000  0.878589  0.079990  1
  Lu  Lu1  1  0.000000  0.732946  0.283799  1
  Lu  Lu2  1  0.000000  0.739434  0.782021  1
  Lu  Lu3  1  0.000000  0.385843  0.411428  1
  Lu  Lu4  1  0.000000  0.120473  0.921358  1
  Lu  Lu5  1  0.000000  0.238844  0.715880  1
  Lu  Lu6  1  0.000000  0.497350  0.002091  1
  Lu  Lu7  1  0.000000  0.281627  0.224717  1
  Lu  Lu8  1  0.000000  0.620614  0.578098  1
  Lu  Lu9  1  0.000000  0.000572  0.497917  1
  In  In10  1  0.500000  0.208193  0.070383  1
  In  In11  1  0.500000  0.420992  0.853852  1
  In  In12  1  0.500000  0.578604  0.150636  1
  In  In13  1  0.500000  0.079219  0.351484  1
  In  In14  1  0.500000  0.920871  0.644720  1
  In  In15  1  0.500000  0.788764  0.935317  1
  In  In16  1  0.500000  0.707015  0.431749  1
  In  In17  1  0.500000  0.293088  0.561461  1
  Ni  Ni18  1  0.500000  0.474934  0.304125  1
  Ag  Ag19  1  0.500000  0.973526  0.199802  1
  Au  Au20  1  0.500000  0.029941  0.803345  1
  Au  Au21  1  0.500000  0.528565  0.695829  1
