# generated using pymatgen
data_Tb2Lu3(TcO6)2
_symmetry_space_group_name_H-M   'P 1'
_cell_length_a   6.74836885
_cell_length_b   6.74836830
_cell_length_c   7.43942879
_cell_angle_alpha   74.08877587
_cell_angle_beta   74.08877621
_cell_angle_gamma   49.44502600
_symmetry_Int_Tables_number   1
_chemical_formula_structural   Tb2Lu3(TcO6)2
_chemical_formula_sum   'Tb2 Lu3 Tc2 O12'
_cell_volume   245.40704017
_cell_formula_units_Z   1
loop_
 _symmetry_equiv_pos_site_id
 _symmetry_equiv_pos_as_xyz
  1  'x, y, z'
loop_
 _atom_site_type_symbol
 _atom_site_label
 _atom_site_symmetry_multiplicity
 _atom_site_fract_x
 _atom_site_fract_y
 _atom_site_fract_z
 _atom_site_occupancy
  Tb  Tb0  1  0.695592  0.695592  0.643366  1
  Tb  Tb1  1  0.304408  0.304408  0.356634  1
  Lu  Lu2  1  0.684135  0.684135  0.175923  1
  Lu  Lu3  1  0.315865  0.315865  0.824077  1
  Lu  Lu4  1  0.000000  0.000000  0.500000  1
  Tc  Tc5  1  0.786053  0.213947  0.000000  1
  Tc  Tc6  1  0.213947  0.786053  0.000000  1
  O  O7  1  0.999851  0.999851  0.207993  1
  O  O8  1  0.000149  0.000149  0.792007  1
  O  O9  1  0.583953  0.082820  0.082331  1
  O  O10  1  0.416047  0.917180  0.917669  1
  O  O11  1  0.917180  0.416047  0.917669  1
  O  O12  1  0.082820  0.583953  0.082331  1
  O  O13  1  0.501331  0.501331  0.178562  1
  O  O14  1  0.498669  0.498669  0.821438  1
  O  O15  1  0.403173  0.898341  0.422328  1
  O  O16  1  0.596827  0.101659  0.577672  1
  O  O17  1  0.101659  0.596827  0.577672  1
  O  O18  1  0.898341  0.403173  0.422328  1
