# generated using pymatgen
data_Tm16Tl2ZnInRh4
_symmetry_space_group_name_H-M   'P 1'
_cell_length_a   9.49148792
_cell_length_b   9.49148765
_cell_length_c   9.48724801
_cell_angle_alpha   59.96765732
_cell_angle_beta   59.96765873
_cell_angle_gamma   60.01845063
_symmetry_Int_Tables_number   1
_chemical_formula_structural   Tm16Tl2ZnInRh4
_chemical_formula_sum   'Tm16 Tl2 Zn1 In1 Rh4'
_cell_volume   604.14589299
_cell_formula_units_Z   1
loop_
 _symmetry_equiv_pos_site_id
 _symmetry_equiv_pos_as_xyz
  1  'x, y, z'
loop_
 _atom_site_type_symbol
 _atom_site_label
 _atom_site_symmetry_multiplicity
 _atom_site_fract_x
 _atom_site_fract_y
 _atom_site_fract_z
 _atom_site_occupancy
  Tm  Tm0  1  0.061150  0.061150  0.439153  1
  Tm  Tm1  1  0.436446  0.069258  0.436513  1
  Tm  Tm2  1  0.062250  0.438531  0.060981  1
  Tm  Tm3  1  0.054260  0.646396  0.647090  1
  Tm  Tm4  1  0.436104  0.436104  0.068689  1
  Tm  Tm5  1  0.646396  0.054260  0.647090  1
  Tm  Tm6  1  0.188357  0.811324  0.188561  1
  Tm  Tm7  1  0.188965  0.188965  0.811642  1
  Tm  Tm8  1  0.810972  0.810972  0.189940  1
  Tm  Tm9  1  0.438531  0.062250  0.060981  1
  Tm  Tm10  1  0.811324  0.188357  0.188561  1
  Tm  Tm11  1  0.069258  0.436446  0.436513  1
  Tm  Tm12  1  0.809918  0.190230  0.811480  1
  Tm  Tm13  1  0.190230  0.809918  0.811480  1
  Tm  Tm14  1  0.646567  0.646567  0.054453  1
  Tm  Tm15  1  0.651209  0.651209  0.651893  1
  Tl  Tl16  1  0.752559  0.413737  0.415226  1
  Tl  Tl17  1  0.413737  0.752559  0.415226  1
  Zn  Zn18  1  0.414434  0.414434  0.416135  1
  In  In19  1  0.416489  0.416489  0.747266  1
  Rh  Rh20  1  0.858254  0.858254  0.428328  1
  Rh  Rh21  1  0.856051  0.856051  0.856070  1
  Rh  Rh22  1  0.428173  0.858366  0.858366  1
  Rh  Rh23  1  0.858366  0.428173  0.858366  1
