# generated using pymatgen
data_Dy3Y3ZrCo17P12
_symmetry_space_group_name_H-M   'P 1'
_cell_length_a   3.71692200
_cell_length_b   10.60811201
_cell_length_c   12.33550102
_cell_angle_alpha   89.99394157
_cell_angle_beta   90.00000000
_cell_angle_gamma   90.00000000
_symmetry_Int_Tables_number   1
_chemical_formula_structural   Dy3Y3ZrCo17P12
_chemical_formula_sum   'Dy3 Y3 Zr1 Co17 P12'
_cell_volume   486.38294212
_cell_formula_units_Z   1
loop_
 _symmetry_equiv_pos_site_id
 _symmetry_equiv_pos_as_xyz
  1  'x, y, z'
loop_
 _atom_site_type_symbol
 _atom_site_label
 _atom_site_symmetry_multiplicity
 _atom_site_fract_x
 _atom_site_fract_y
 _atom_site_fract_z
 _atom_site_occupancy
  Dy  Dy0  1  0.500000  0.178749  0.207337  1
  Dy  Dy1  1  0.000000  0.683039  0.795909  1
  Dy  Dy2  1  0.000000  0.316902  0.795820  1
  Y  Y3  1  0.000000  0.499924  0.528849  1
  Y  Y4  1  0.500000  0.000103  0.478137  1
  Y  Y5  1  0.500000  0.821121  0.207165  1
  Zr  Zr6  1  0.500000  0.499970  0.154146  1
  Co  Co7  1  0.000000  0.999997  0.837063  1
  Co  Co8  1  0.500000  0.499993  0.702976  1
  Co  Co9  1  0.000000  0.000263  0.296399  1
  Co  Co10  1  0.000000  0.500000  0.982993  1
  Co  Co11  1  0.500000  0.000004  0.013425  1
  Co  Co12  1  0.500000  0.326988  0.988067  1
  Co  Co13  1  0.500000  0.673049  0.988013  1
  Co  Co14  1  0.000000  0.161231  0.001595  1
  Co  Co15  1  0.000000  0.838762  0.001544  1
  Co  Co16  1  0.500000  0.294101  0.434571  1
  Co  Co17  1  0.500000  0.705838  0.434615  1
  Co  Co18  1  0.000000  0.202052  0.570404  1
  Co  Co19  1  0.000000  0.797963  0.570430  1
  Co  Co20  1  0.500000  0.880419  0.707835  1
  Co  Co21  1  0.500000  0.119652  0.707813  1
  Co  Co22  1  0.000000  0.622552  0.297807  1
  Co  Co23  1  0.000000  0.377280  0.297772  1
  P  P24  1  0.500000  0.499997  0.881403  1
  P  P25  1  0.000000  0.000197  0.116236  1
  P  P26  1  0.500000  0.500016  0.361242  1
  P  P27  1  0.000000  0.000005  0.655614  1
  P  P28  1  0.500000  0.308548  0.617963  1
  P  P29  1  0.500000  0.691421  0.617970  1
  P  P30  1  0.000000  0.188713  0.386497  1
  P  P31  1  0.000000  0.811316  0.386644  1
  P  P32  1  0.500000  0.852332  0.888735  1
  P  P33  1  0.500000  0.147676  0.888719  1
  P  P34  1  0.000000  0.664947  0.099093  1
  P  P35  1  0.000000  0.334881  0.099201  1
