# generated using pymatgen
data_Ho2ErIn4IrPd
_symmetry_space_group_name_H-M   'P 1'
_cell_length_a   7.97568105
_cell_length_b   7.97547096
_cell_length_c   3.71440500
_cell_angle_alpha   90.00000000
_cell_angle_beta   90.00000000
_cell_angle_gamma   119.97299908
_symmetry_Int_Tables_number   1
_chemical_formula_structural   Ho2ErIn4IrPd
_chemical_formula_sum   'Ho2 Er1 In4 Ir1 Pd1'
_cell_volume   204.67372871
_cell_formula_units_Z   1
loop_
 _symmetry_equiv_pos_site_id
 _symmetry_equiv_pos_as_xyz
  1  'x, y, z'
loop_
 _atom_site_type_symbol
 _atom_site_label
 _atom_site_symmetry_multiplicity
 _atom_site_fract_x
 _atom_site_fract_y
 _atom_site_fract_z
 _atom_site_occupancy
  Ho  Ho0  1  0.704665  0.953143  0.500000  1
  Ho  Ho1  1  0.248644  0.295308  0.500000  1
  Er  Er2  1  0.046419  0.752021  0.500000  1
  In  In3  1  0.928196  0.337539  0.000000  1
  In  In4  1  0.408973  0.071843  0.000000  1
  In  In5  1  0.663402  0.591297  0.000000  1
  In  In6  1  0.332974  0.666816  0.000000  1
  Ir  Ir7  1  0.000149  0.999196  0.000000  1
  Pd  Pd8  1  0.666581  0.332836  0.500000  1
