# generated using pymatgen
data_Tm8Sc12Sn15Ge
_symmetry_space_group_name_H-M   'P 1'
_cell_length_a   7.61353590
_cell_length_b   7.89369008
_cell_length_c   14.75726400
_cell_angle_alpha   90.00000000
_cell_angle_beta   90.00000000
_cell_angle_gamma   89.58442285
_symmetry_Int_Tables_number   1
_chemical_formula_structural   Tm8Sc12Sn15Ge
_chemical_formula_sum   'Tm8 Sc12 Sn15 Ge1'
_cell_volume   886.87189852
_cell_formula_units_Z   1
loop_
 _symmetry_equiv_pos_site_id
 _symmetry_equiv_pos_as_xyz
  1  'x, y, z'
loop_
 _atom_site_type_symbol
 _atom_site_label
 _atom_site_symmetry_multiplicity
 _atom_site_fract_x
 _atom_site_fract_y
 _atom_site_fract_z
 _atom_site_occupancy
  Tm  Tm0  1  0.990319  0.178493  0.093607  1
  Tm  Tm1  1  0.008189  0.828521  0.902818  1
  Tm  Tm2  1  0.507676  0.680041  0.905666  1
  Tm  Tm3  1  0.008189  0.828521  0.597182  1
  Tm  Tm4  1  0.492940  0.320825  0.092871  1
  Tm  Tm5  1  0.990319  0.178493  0.406393  1
  Tm  Tm6  1  0.492940  0.320825  0.407129  1
  Tm  Tm7  1  0.507676  0.680041  0.594334  1
  Sc  Sc8  1  0.167641  0.493060  0.750000  1
  Sc  Sc9  1  0.833223  0.504618  0.250000  1
  Sc  Sc10  1  0.332244  0.996327  0.250000  1
  Sc  Sc11  1  0.678464  0.006764  0.750000  1
  Sc  Sc12  1  0.325954  0.157512  0.630542  1
  Sc  Sc13  1  0.661005  0.840176  0.373352  1
  Sc  Sc14  1  0.160678  0.660444  0.372866  1
  Sc  Sc15  1  0.661005  0.840176  0.126648  1
  Sc  Sc16  1  0.849393  0.330324  0.631919  1
  Sc  Sc17  1  0.325954  0.157512  0.869458  1
  Sc  Sc18  1  0.849393  0.330324  0.868081  1
  Sc  Sc19  1  0.160678  0.660444  0.127134  1
  Sn  Sn20  1  0.969130  0.877002  0.250000  1
  Sn  Sn21  1  0.471034  0.621936  0.250000  1
  Sn  Sn22  1  0.530142  0.376120  0.750000  1
  Sn  Sn23  1  0.309996  0.848335  0.750000  1
  Sn  Sn24  1  0.688799  0.153777  0.250000  1
  Sn  Sn25  1  0.189647  0.346687  0.250000  1
  Sn  Sn26  1  0.811028  0.651047  0.750000  1
  Sn  Sn27  1  0.183515  0.458653  0.542313  1
  Sn  Sn28  1  0.816910  0.541489  0.460411  1
  Sn  Sn29  1  0.314723  0.957389  0.458382  1
  Sn  Sn30  1  0.816910  0.541489  0.039589  1
  Sn  Sn31  1  0.682297  0.044378  0.542888  1
  Sn  Sn32  1  0.183515  0.458653  0.957687  1
  Sn  Sn33  1  0.682297  0.044378  0.957112  1
  Sn  Sn34  1  0.314723  0.957389  0.041618  1
  Ge  Ge35  1  0.031455  0.127837  0.750000  1
