# generated using pymatgen
data_Dy3Lu2Sc5(Si5Ir2)4
_symmetry_space_group_name_H-M   'P 1'
_cell_length_a   12.49034240
_cell_length_b   12.48955540
_cell_length_c   4.16558500
_cell_angle_alpha   90.00000000
_cell_angle_beta   90.00000000
_cell_angle_gamma   89.90384911
_symmetry_Int_Tables_number   1
_chemical_formula_structural   Dy3Lu2Sc5(Si5Ir2)4
_chemical_formula_sum   'Dy3 Lu2 Sc5 Si20 Ir8'
_cell_volume   649.82544329
_cell_formula_units_Z   1
loop_
 _symmetry_equiv_pos_site_id
 _symmetry_equiv_pos_as_xyz
  1  'x, y, z'
loop_
 _atom_site_type_symbol
 _atom_site_label
 _atom_site_symmetry_multiplicity
 _atom_site_fract_x
 _atom_site_fract_y
 _atom_site_fract_z
 _atom_site_occupancy
  Dy  Dy0  1  0.115927  0.615034  0.500000  1
  Dy  Dy1  1  0.384829  0.116028  0.500000  1
  Dy  Dy2  1  0.615134  0.883925  0.500000  1
  Lu  Lu3  1  0.999955  0.000251  0.000000  1
  Lu  Lu4  1  0.884006  0.384970  0.500000  1
  Sc  Sc5  1  0.500224  0.499976  0.000000  1
  Sc  Sc6  1  0.673215  0.174657  0.500000  1
  Sc  Sc7  1  0.327036  0.825594  0.500000  1
  Sc  Sc8  1  0.174225  0.326883  0.500000  1
  Sc  Sc9  1  0.825498  0.672747  0.500000  1
  Si  Si10  1  0.567070  0.068212  0.000000  1
  Si  Si11  1  0.432958  0.931818  0.000000  1
  Si  Si12  1  0.067789  0.433119  0.000000  1
  Si  Si13  1  0.931964  0.566552  0.000000  1
  Si  Si14  1  0.665879  0.698694  0.000000  1
  Si  Si15  1  0.334273  0.300800  0.000000  1
  Si  Si16  1  0.165978  0.800423  0.000000  1
  Si  Si17  1  0.833764  0.200015  0.000000  1
  Si  Si18  1  0.300880  0.665528  0.000000  1
  Si  Si19  1  0.699589  0.334214  0.000000  1
  Si  Si20  1  0.199153  0.166321  0.000000  1
  Si  Si21  1  0.800361  0.833792  0.000000  1
  Si  Si22  1  0.651073  0.507156  0.500000  1
  Si  Si23  1  0.349407  0.492756  0.500000  1
  Si  Si24  1  0.154524  0.993335  0.500000  1
  Si  Si25  1  0.845399  0.006802  0.500000  1
  Si  Si26  1  0.492891  0.650393  0.500000  1
  Si  Si27  1  0.507269  0.349545  0.500000  1
  Si  Si28  1  0.006704  0.155267  0.500000  1
  Si  Si29  1  0.993134  0.845303  0.500000  1
  Ir  Ir30  1  0.744711  0.518945  0.000000  1
  Ir  Ir31  1  0.256117  0.479976  0.000000  1
  Ir  Ir32  1  0.245450  0.979950  0.000000  1
  Ir  Ir33  1  0.754495  0.020243  0.000000  1
  Ir  Ir34  1  0.480025  0.743384  0.000000  1
  Ir  Ir35  1  0.520211  0.256557  0.000000  1
  Ir  Ir36  1  0.018964  0.246788  0.000000  1
  Ir  Ir37  1  0.979919  0.754049  0.000000  1
