# generated using pymatgen
data_Cs4NaScTe4
_symmetry_space_group_name_H-M   'P 1'
_cell_length_a   9.58203769
_cell_length_b   9.58203738
_cell_length_c   9.58203828
_cell_angle_alpha   132.70148839
_cell_angle_beta   129.60975584
_cell_angle_gamma   71.59487349
_symmetry_Int_Tables_number   1
_chemical_formula_structural   Cs4NaScTe4
_chemical_formula_sum   'Cs4 Na1 Sc1 Te4'
_cell_volume   487.41733939
_cell_formula_units_Z   1
loop_
 _symmetry_equiv_pos_site_id
 _symmetry_equiv_pos_as_xyz
  1  'x, y, z'
loop_
 _atom_site_type_symbol
 _atom_site_label
 _atom_site_symmetry_multiplicity
 _atom_site_fract_x
 _atom_site_fract_y
 _atom_site_fract_z
 _atom_site_occupancy
  Cs  Cs0  1  0.977523  0.635158  0.319643  1
  Cs  Cs1  1  0.684486  0.864842  0.842365  1
  Cs  Cs2  1  0.315514  0.157880  0.180357  1
  Cs  Cs3  1  0.022477  0.342120  0.657635  1
  Na  Na4  1  0.500000  0.250000  0.750000  1
  Sc  Sc5  1  0.500000  0.750000  0.250000  1
  Te  Te6  1  0.589481  0.427832  0.225184  1
  Te  Te7  1  0.202648  0.864297  0.274816  1
  Te  Te8  1  0.797352  0.072168  0.661649  1
  Te  Te9  1  0.410519  0.635703  0.838351  1
