# generated using pymatgen
data_CaTbPrGa8Ag3
_symmetry_space_group_name_H-M   'P 1'
_cell_length_a   4.38347416
_cell_length_b   8.44335226
_cell_length_c   8.44335374
_cell_angle_alpha   70.00368070
_cell_angle_beta   74.95477323
_cell_angle_gamma   74.95476809
_symmetry_Int_Tables_number   1
_chemical_formula_structural   CaTbPrGa8Ag3
_chemical_formula_sum   'Ca1 Tb1 Pr1 Ga8 Ag3'
_cell_volume   278.52438581
_cell_formula_units_Z   1
loop_
 _symmetry_equiv_pos_site_id
 _symmetry_equiv_pos_as_xyz
  1  'x, y, z'
loop_
 _atom_site_type_symbol
 _atom_site_label
 _atom_site_symmetry_multiplicity
 _atom_site_fract_x
 _atom_site_fract_y
 _atom_site_fract_z
 _atom_site_occupancy
  Ca  Ca0  1  0.198139  0.801861  0.801861  1
  Tb  Tb1  1  0.799174  0.200826  0.200826  1
  Pr  Pr2  1  0.500303  0.499697  0.499697  1
  Ga  Ga3  1  0.358196  0.358619  0.924987  1
  Ga  Ga4  1  0.644353  0.636253  0.075044  1
  Ga  Ga5  1  0.358196  0.924987  0.358619  1
  Ga  Ga6  1  0.644353  0.075044  0.636253  1
  Ga  Ga7  1  0.160208  0.470186  0.209397  1
  Ga  Ga8  1  0.838073  0.528229  0.795626  1
  Ga  Ga9  1  0.160208  0.209397  0.470186  1
  Ga  Ga10  1  0.838073  0.795626  0.528229  1
  Ag  Ag11  1  0.499536  0.000464  0.000464  1
  Ag  Ag12  1  0.000594  0.803633  0.195178  1
  Ag  Ag13  1  0.000594  0.195178  0.803633  1
