# generated using pymatgen
data_Zr10Al4As2S
_symmetry_space_group_name_H-M   'P 1'
_cell_length_a   8.20603899
_cell_length_b   8.20429420
_cell_length_c   5.75723200
_cell_angle_alpha   90.08001151
_cell_angle_beta   89.84002481
_cell_angle_gamma   120.00705543
_symmetry_Int_Tables_number   1
_chemical_formula_structural   Zr10Al4As2S
_chemical_formula_sum   'Zr10 Al4 As2 S1'
_cell_volume   335.64995250
_cell_formula_units_Z   1
loop_
 _symmetry_equiv_pos_site_id
 _symmetry_equiv_pos_as_xyz
  1  'x, y, z'
loop_
 _atom_site_type_symbol
 _atom_site_label
 _atom_site_symmetry_multiplicity
 _atom_site_fract_x
 _atom_site_fract_y
 _atom_site_fract_z
 _atom_site_occupancy
  Zr  Zr0  1  0.998297  0.745600  0.239622  1
  Zr  Zr1  1  0.252699  0.254400  0.239622  1
  Zr  Zr2  1  0.749249  0.000000  0.236693  1
  Zr  Zr3  1  0.999561  0.256301  0.759668  1
  Zr  Zr4  1  0.743260  0.743699  0.759668  1
  Zr  Zr5  1  0.249717  0.000000  0.773206  1
  Zr  Zr6  1  0.332702  0.658576  0.498759  1
  Zr  Zr7  1  0.674128  0.341424  0.498759  1
  Zr  Zr8  1  0.668450  0.334984  0.998411  1
  Zr  Zr9  1  0.333465  0.665016  0.998411  1
  Al  Al10  1  0.397522  0.000000  0.261698  1
  Al  Al11  1  0.002234  0.610910  0.749427  1
  Al  Al12  1  0.391324  0.389090  0.749427  1
  Al  Al13  1  0.601931  0.000000  0.743828  1
  As  As14  1  0.999945  0.394356  0.244337  1
  As  As15  1  0.605589  0.605644  0.244337  1
  S  S16  1  0.999927  0.000000  0.504126  1
