# generated using pymatgen
data_Ga6Ir3Ru2Rh
_symmetry_space_group_name_H-M   'P 1'
_cell_length_a   4.26068900
_cell_length_b   6.10430700
_cell_length_c   12.98766100
_cell_angle_alpha   90.00000000
_cell_angle_beta   90.00006660
_cell_angle_gamma   90.00000000
_symmetry_Int_Tables_number   1
_chemical_formula_structural   Ga6Ir3Ru2Rh
_chemical_formula_sum   'Ga12 Ir6 Ru4 Rh2'
_cell_volume   337.79027839
_cell_formula_units_Z   2
loop_
 _symmetry_equiv_pos_site_id
 _symmetry_equiv_pos_as_xyz
  1  'x, y, z'
loop_
 _atom_site_type_symbol
 _atom_site_label
 _atom_site_symmetry_multiplicity
 _atom_site_fract_x
 _atom_site_fract_y
 _atom_site_fract_z
 _atom_site_occupancy
  Ga  Ga0  1  0.499999  0.250736  0.998557  1
  Ga  Ga1  1  0.499999  0.749263  0.998557  1
  Ga  Ga2  1  0.000090  0.249248  0.168113  1
  Ga  Ga3  1  0.000090  0.750752  0.168113  1
  Ga  Ga4  1  0.500104  0.247907  0.335268  1
  Ga  Ga5  1  0.500104  0.752093  0.335268  1
  Ga  Ga6  1  0.000011  0.249671  0.500308  1
  Ga  Ga7  1  0.000011  0.750328  0.500308  1
  Ga  Ga8  1  0.499904  0.250317  0.666356  1
  Ga  Ga9  1  0.499904  0.749683  0.666356  1
  Ga  Ga10  1  0.999902  0.252059  0.831406  1
  Ga  Ga11  1  0.999902  0.747941  0.831406  1
  Ir  Ir12  1  0.999994  0.500000  0.002934  1
  Ir  Ir13  1  0.500074  0.000000  0.163731  1
  Ir  Ir14  1  0.000098  0.500000  0.331290  1
  Ir  Ir15  1  0.500005  0.000000  0.500041  1
  Ir  Ir16  1  0.999912  0.500000  0.666624  1
  Ir  Ir17  1  0.499906  0.000000  0.835381  1
  Ru  Ru18  1  0.000093  0.000000  0.330190  1
  Ru  Ru19  1  0.500004  0.500000  0.498693  1
  Ru  Ru20  1  0.999896  0.000000  0.667963  1
  Ru  Ru21  1  0.499922  0.500000  0.836469  1
  Rh  Rh22  1  0.000035  0.000000  0.000775  1
  Rh  Rh23  1  0.500041  0.500000  0.165892  1
