# generated using pymatgen
data_Tm6Lu4AlSb5
_symmetry_space_group_name_H-M   'P 1'
_cell_length_a   8.76847300
_cell_length_b   8.78440568
_cell_length_c   6.25801100
_cell_angle_alpha   90.00000000
_cell_angle_beta   90.00000000
_cell_angle_gamma   119.94002364
_symmetry_Int_Tables_number   1
_chemical_formula_structural   Tm6Lu4AlSb5
_chemical_formula_sum   'Tm6 Lu4 Al1 Sb5'
_cell_volume   417.70094791
_cell_formula_units_Z   1
loop_
 _symmetry_equiv_pos_site_id
 _symmetry_equiv_pos_as_xyz
  1  'x, y, z'
loop_
 _atom_site_type_symbol
 _atom_site_label
 _atom_site_symmetry_multiplicity
 _atom_site_fract_x
 _atom_site_fract_y
 _atom_site_fract_z
 _atom_site_occupancy
  Tm  Tm0  1  0.246930  0.000000  0.250000  1
  Tm  Tm1  1  0.759489  0.000000  0.750000  1
  Tm  Tm2  1  0.990173  0.234813  0.250000  1
  Tm  Tm3  1  0.755360  0.765187  0.250000  1
  Tm  Tm4  1  0.243386  0.242549  0.750000  1
  Tm  Tm5  1  0.000836  0.757451  0.750000  1
  Lu  Lu6  1  0.338889  0.674047  0.001852  1
  Lu  Lu7  1  0.664843  0.325953  0.498148  1
  Lu  Lu8  1  0.664843  0.325953  0.001852  1
  Lu  Lu9  1  0.338889  0.674047  0.498148  1
  Al  Al10  1  0.602326  0.000000  0.250000  1
  Sb  Sb11  1  0.394174  0.000000  0.750000  1
  Sb  Sb12  1  0.997715  0.608445  0.250000  1
  Sb  Sb13  1  0.389269  0.391555  0.250000  1
  Sb  Sb14  1  0.609491  0.606105  0.750000  1
  Sb  Sb15  1  0.003386  0.393895  0.750000  1
