# generated using pymatgen
data_Rb2Si(TeO4)3
_symmetry_space_group_name_H-M   'P 1'
_cell_length_a   6.95471076
_cell_length_b   6.95471155
_cell_length_c   6.95471115
_cell_angle_alpha   62.45146843
_cell_angle_beta   62.45146120
_cell_angle_gamma   62.45146499
_symmetry_Int_Tables_number   1
_chemical_formula_structural   Rb2Si(TeO4)3
_chemical_formula_sum   'Rb2 Si1 Te3 O12'
_cell_volume   250.85988870
_cell_formula_units_Z   1
loop_
 _symmetry_equiv_pos_site_id
 _symmetry_equiv_pos_as_xyz
  1  'x, y, z'
loop_
 _atom_site_type_symbol
 _atom_site_label
 _atom_site_symmetry_multiplicity
 _atom_site_fract_x
 _atom_site_fract_y
 _atom_site_fract_z
 _atom_site_occupancy
  Rb  Rb0  1  0.368518  0.368518  0.368518  1
  Rb  Rb1  1  0.631482  0.631482  0.631482  1
  Si  Si2  1  0.000000  0.000000  0.000000  1
  Te  Te3  1  0.500000  0.000000  0.000000  1
  Te  Te4  1  0.000000  0.000000  0.500000  1
  Te  Te5  1  0.000000  0.500000  0.000000  1
  O  O6  1  0.935079  0.331733  0.331733  1
  O  O7  1  0.302114  0.935643  0.935643  1
  O  O8  1  0.331733  0.331733  0.935079  1
  O  O9  1  0.935643  0.935643  0.302114  1
  O  O10  1  0.935643  0.302114  0.935643  1
  O  O11  1  0.331733  0.935079  0.331733  1
  O  O12  1  0.064921  0.668267  0.668267  1
  O  O13  1  0.697886  0.064357  0.064357  1
  O  O14  1  0.668267  0.668267  0.064921  1
  O  O15  1  0.064357  0.064357  0.697886  1
  O  O16  1  0.064357  0.697886  0.064357  1
  O  O17  1  0.668267  0.064921  0.668267  1
