# generated using pymatgen
data_Ta2SiTe4
_symmetry_space_group_name_H-M   'P 1'
_cell_length_a   7.92271900
_cell_length_b   6.39535757
_cell_length_c   16.22960568
_cell_angle_alpha   74.37451385
_cell_angle_beta   90.00000000
_cell_angle_gamma   90.00000000
_symmetry_Int_Tables_number   1
_chemical_formula_structural   Ta2SiTe4
_chemical_formula_sum   'Ta8 Si4 Te16'
_cell_volume   791.94070129
_cell_formula_units_Z   4
loop_
 _symmetry_equiv_pos_site_id
 _symmetry_equiv_pos_as_xyz
  1  'x, y, z'
loop_
 _atom_site_type_symbol
 _atom_site_label
 _atom_site_symmetry_multiplicity
 _atom_site_fract_x
 _atom_site_fract_y
 _atom_site_fract_z
 _atom_site_occupancy
  Ta  Ta0  1  0.035217  0.644964  0.249996  1
  Ta  Ta1  1  0.535217  0.355036  0.250004  1
  Ta  Ta2  1  0.964783  0.355036  0.750004  1
  Ta  Ta3  1  0.464783  0.644964  0.749996  1
  Ta  Ta4  1  0.786336  0.855141  0.750027  1
  Ta  Ta5  1  0.286336  0.144859  0.749973  1
  Ta  Ta6  1  0.213664  0.144859  0.249973  1
  Ta  Ta7  1  0.713664  0.855141  0.250027  1
  Si  Si8  1  0.625552  0.249958  0.750067  1
  Si  Si9  1  0.125552  0.750042  0.749933  1
  Si  Si10  1  0.374448  0.750042  0.249933  1
  Si  Si11  1  0.874448  0.249958  0.250067  1
  Te  Te12  1  0.985846  0.889275  0.371636  1
  Te  Te13  1  0.485846  0.110725  0.128364  1
  Te  Te14  1  0.014154  0.110725  0.628364  1
  Te  Te15  1  0.514154  0.889275  0.871636  1
  Te  Te16  1  0.763065  0.610748  0.128451  1
  Te  Te17  1  0.263065  0.389252  0.371549  1
  Te  Te18  1  0.236935  0.389252  0.871549  1
  Te  Te19  1  0.736935  0.610748  0.628451  1
  Te  Te20  1  0.485860  0.944331  0.371634  1
  Te  Te21  1  0.985860  0.055669  0.128366  1
  Te  Te22  1  0.514140  0.055669  0.628366  1
  Te  Te23  1  0.014140  0.944331  0.871634  1
  Te  Te24  1  0.262927  0.555426  0.128382  1
  Te  Te25  1  0.762927  0.444574  0.371618  1
  Te  Te26  1  0.737073  0.444574  0.871618  1
  Te  Te27  1  0.237073  0.555426  0.628382  1
