# generated using pymatgen
data_LiSn5Ir3
_symmetry_space_group_name_H-M   'P 1'
_cell_length_a   5.53270500
_cell_length_b   9.91701900
_cell_length_c   12.93678600
_cell_angle_alpha   90.00000000
_cell_angle_beta   90.00000000
_cell_angle_gamma   90.00000000
_symmetry_Int_Tables_number   1
_chemical_formula_structural   LiSn5Ir3
_chemical_formula_sum   'Li4 Sn20 Ir12'
_cell_volume   709.81480589
_cell_formula_units_Z   4
loop_
 _symmetry_equiv_pos_site_id
 _symmetry_equiv_pos_as_xyz
  1  'x, y, z'
loop_
 _atom_site_type_symbol
 _atom_site_label
 _atom_site_symmetry_multiplicity
 _atom_site_fract_x
 _atom_site_fract_y
 _atom_site_fract_z
 _atom_site_occupancy
  Li  Li0  1  0.596344  0.109006  0.250000  1
  Li  Li1  1  0.597187  0.390520  0.750000  1
  Li  Li2  1  0.403656  0.609006  0.250000  1
  Li  Li3  1  0.402813  0.890520  0.750000  1
  Sn  Sn4  1  0.867420  0.128350  0.063071  1
  Sn  Sn5  1  0.626294  0.825111  0.111494  1
  Sn  Sn6  1  0.132521  0.871301  0.563066  1
  Sn  Sn7  1  0.626931  0.675102  0.611301  1
  Sn  Sn8  1  0.867420  0.128350  0.436929  1
  Sn  Sn9  1  0.132580  0.628350  0.063071  1
  Sn  Sn10  1  0.373706  0.325111  0.111494  1
  Sn  Sn11  1  0.626294  0.825111  0.388506  1
  Sn  Sn12  1  0.132521  0.871301  0.936934  1
  Sn  Sn13  1  0.373069  0.175102  0.888699  1
  Sn  Sn14  1  0.626931  0.675102  0.888699  1
  Sn  Sn15  1  0.373706  0.325111  0.388506  1
  Sn  Sn16  1  0.373069  0.175102  0.611301  1
  Sn  Sn17  1  0.867479  0.371301  0.936934  1
  Sn  Sn18  1  0.842913  0.424759  0.250000  1
  Sn  Sn19  1  0.158143  0.575559  0.750000  1
  Sn  Sn20  1  0.132580  0.628350  0.436929  1
  Sn  Sn21  1  0.841857  0.075559  0.750000  1
  Sn  Sn22  1  0.157087  0.924759  0.250000  1
  Sn  Sn23  1  0.867479  0.371301  0.563066  1
  Ir  Ir24  1  0.093033  0.304004  0.750000  1
  Ir  Ir25  1  0.906967  0.804004  0.750000  1
  Ir  Ir26  1  0.648190  0.549631  0.421319  1
  Ir  Ir27  1  0.352268  0.450474  0.921265  1
  Ir  Ir28  1  0.648190  0.549631  0.078681  1
  Ir  Ir29  1  0.647732  0.950474  0.921265  1
  Ir  Ir30  1  0.351810  0.049631  0.078681  1
  Ir  Ir31  1  0.351810  0.049631  0.421319  1
  Ir  Ir32  1  0.647732  0.950474  0.578735  1
  Ir  Ir33  1  0.906887  0.696214  0.250000  1
  Ir  Ir34  1  0.352268  0.450474  0.578735  1
  Ir  Ir35  1  0.093113  0.196214  0.250000  1
