# generated using pymatgen
data_Tb6ReO12
_symmetry_space_group_name_H-M   'P 1'
_cell_length_a   6.51211447
_cell_length_b   6.51211369
_cell_length_c   6.51211316
_cell_angle_alpha   98.70118121
_cell_angle_beta   98.70117343
_cell_angle_gamma   98.70118743
_symmetry_Int_Tables_number   1
_chemical_formula_structural   Tb6ReO12
_chemical_formula_sum   'Tb6 Re1 O12'
_cell_volume   265.52170773
_cell_formula_units_Z   1
loop_
 _symmetry_equiv_pos_site_id
 _symmetry_equiv_pos_as_xyz
  1  'x, y, z'
loop_
 _atom_site_type_symbol
 _atom_site_label
 _atom_site_symmetry_multiplicity
 _atom_site_fract_x
 _atom_site_fract_y
 _atom_site_fract_z
 _atom_site_occupancy
  Tb  Tb0  1  0.855900  0.389089  0.686128  1
  Tb  Tb1  1  0.610911  0.313872  0.144100  1
  Tb  Tb2  1  0.313872  0.144100  0.610911  1
  Tb  Tb3  1  0.686128  0.855900  0.389089  1
  Tb  Tb4  1  0.389089  0.686128  0.855900  1
  Tb  Tb5  1  0.144100  0.610911  0.313872  1
  Re  Re6  1  0.000000  0.000000  0.000000  1
  O  O7  1  0.927769  0.035287  0.705252  1
  O  O8  1  0.964713  0.294748  0.072231  1
  O  O9  1  0.591089  0.177110  0.434190  1
  O  O10  1  0.822890  0.565810  0.408911  1
  O  O11  1  0.294748  0.072231  0.964713  1
  O  O12  1  0.565810  0.408911  0.822890  1
  O  O13  1  0.434190  0.591089  0.177110  1
  O  O14  1  0.705252  0.927769  0.035287  1
  O  O15  1  0.177110  0.434190  0.591089  1
  O  O16  1  0.408911  0.822890  0.565810  1
  O  O17  1  0.035287  0.705252  0.927769  1
  O  O18  1  0.072231  0.964713  0.294748  1
