# generated using pymatgen
data_Tb2Gd4PuO12
_symmetry_space_group_name_H-M   'P 1'
_cell_length_a   6.55031875
_cell_length_b   6.52848518
_cell_length_c   6.56788000
_cell_angle_alpha   98.55350754
_cell_angle_beta   98.92585929
_cell_angle_gamma   98.55644690
_symmetry_Int_Tables_number   1
_chemical_formula_structural   Tb2Gd4PuO12
_chemical_formula_sum   'Tb2 Gd4 Pu1 O12'
_cell_volume   270.09984535
_cell_formula_units_Z   1
loop_
 _symmetry_equiv_pos_site_id
 _symmetry_equiv_pos_as_xyz
  1  'x, y, z'
loop_
 _atom_site_type_symbol
 _atom_site_label
 _atom_site_symmetry_multiplicity
 _atom_site_fract_x
 _atom_site_fract_y
 _atom_site_fract_z
 _atom_site_occupancy
  Tb  Tb0  1  0.852724  0.387278  0.679961  1
  Tb  Tb1  1  0.610566  0.313310  0.143013  1
  Gd  Gd2  1  0.315992  0.144916  0.611606  1
  Gd  Gd3  1  0.686139  0.855419  0.388887  1
  Gd  Gd4  1  0.390827  0.685620  0.857647  1
  Gd  Gd5  1  0.146354  0.610782  0.318797  1
  Pu  Pu6  1  0.999593  0.000915  0.999597  1
  O  O7  1  0.927973  0.046806  0.690268  1
  O  O8  1  0.957892  0.305043  0.068965  1
  O  O9  1  0.588258  0.179095  0.432449  1
  O  O10  1  0.821760  0.562613  0.408038  1
  O  O11  1  0.309736  0.070398  0.957446  1
  O  O12  1  0.571225  0.411556  0.824053  1
  O  O13  1  0.431631  0.584657  0.177071  1
  O  O14  1  0.690241  0.934153  0.044997  1
  O  O15  1  0.176674  0.434790  0.593474  1
  O  O16  1  0.413779  0.821174  0.567346  1
  O  O17  1  0.037279  0.695901  0.927332  1
  O  O18  1  0.071358  0.955572  0.309052  1
