# generated using pymatgen
data_Rb2Zr7BeBr18
_symmetry_space_group_name_H-M   'P 1'
_cell_length_a   11.10329066
_cell_length_b   11.10329079
_cell_length_c   11.10328980
_cell_angle_alpha   55.86109909
_cell_angle_beta   55.86110565
_cell_angle_gamma   55.86109954
_symmetry_Int_Tables_number   1
_chemical_formula_structural   Rb2Zr7BeBr18
_chemical_formula_sum   'Rb2 Zr7 Be1 Br18'
_cell_volume   875.05332002
_cell_formula_units_Z   1
loop_
 _symmetry_equiv_pos_site_id
 _symmetry_equiv_pos_as_xyz
  1  'x, y, z'
loop_
 _atom_site_type_symbol
 _atom_site_label
 _atom_site_symmetry_multiplicity
 _atom_site_fract_x
 _atom_site_fract_y
 _atom_site_fract_z
 _atom_site_occupancy
  Rb  Rb0  1  0.775775  0.775775  0.775775  1
  Rb  Rb1  1  0.224225  0.224225  0.224225  1
  Zr  Zr2  1  0.159167  0.899614  0.795104  1
  Zr  Zr3  1  0.840833  0.100386  0.204896  1
  Zr  Zr4  1  0.100386  0.204896  0.840833  1
  Zr  Zr5  1  0.204896  0.840833  0.100386  1
  Zr  Zr6  1  0.899614  0.795104  0.159167  1
  Zr  Zr7  1  0.795104  0.159167  0.899614  1
  Zr  Zr8  1  0.500000  0.500000  0.500000  1
  Be  Be9  1  0.000000  0.000000  0.000000  1
  Br  Br10  1  0.223892  0.468634  0.643422  1
  Br  Br11  1  0.776108  0.531366  0.356578  1
  Br  Br12  1  0.346994  0.053646  0.934393  1
  Br  Br13  1  0.653006  0.946354  0.065607  1
  Br  Br14  1  0.934393  0.346994  0.053646  1
  Br  Br15  1  0.711553  0.877257  0.415089  1
  Br  Br16  1  0.356578  0.776108  0.531366  1
  Br  Br17  1  0.584911  0.288447  0.122743  1
  Br  Br18  1  0.288447  0.122743  0.584911  1
  Br  Br19  1  0.122743  0.584911  0.288447  1
  Br  Br20  1  0.946354  0.065607  0.653006  1
  Br  Br21  1  0.415089  0.711553  0.877257  1
  Br  Br22  1  0.877257  0.415089  0.711553  1
  Br  Br23  1  0.065607  0.653006  0.946354  1
  Br  Br24  1  0.468634  0.643422  0.223892  1
  Br  Br25  1  0.643422  0.223892  0.468634  1
  Br  Br26  1  0.531366  0.356578  0.776108  1
  Br  Br27  1  0.053646  0.934393  0.346994  1
