# generated using pymatgen
data_Zr2Pa(ZnPd)3
_symmetry_space_group_name_H-M   'P 1'
_cell_length_a   7.28690360
_cell_length_b   7.28690551
_cell_length_c   3.61057800
_cell_angle_alpha   90.00000000
_cell_angle_beta   90.00000000
_cell_angle_gamma   120.42804293
_symmetry_Int_Tables_number   1
_chemical_formula_structural   Zr2Pa(ZnPd)3
_chemical_formula_sum   'Zr2 Pa1 Zn3 Pd3'
_cell_volume   165.31189366
_cell_formula_units_Z   1
loop_
 _symmetry_equiv_pos_site_id
 _symmetry_equiv_pos_as_xyz
  1  'x, y, z'
loop_
 _atom_site_type_symbol
 _atom_site_label
 _atom_site_symmetry_multiplicity
 _atom_site_fract_x
 _atom_site_fract_y
 _atom_site_fract_z
 _atom_site_occupancy
  Zr  Zr0  1  0.402661  0.002946  0.000000  1
  Zr  Zr1  1  0.002946  0.402661  0.000000  1
  Pa  Pa2  1  0.596131  0.596131  0.000000  1
  Zn  Zn3  1  0.247639  0.247639  0.500000  1
  Zn  Zn4  1  0.739149  0.015475  0.500000  1
  Zn  Zn5  1  0.015475  0.739149  0.500000  1
  Pd  Pd6  1  0.992381  0.992381  0.000000  1
  Pd  Pd7  1  0.665265  0.338356  0.500000  1
  Pd  Pd8  1  0.338356  0.665265  0.500000  1
