# generated using pymatgen
data_ReI5Br6
_symmetry_space_group_name_H-M   'P 1'
_cell_length_a   7.95890923
_cell_length_b   8.26190834
_cell_length_c   8.98726571
_cell_angle_alpha   92.46858467
_cell_angle_beta   111.79033491
_cell_angle_gamma   92.40355312
_symmetry_Int_Tables_number   1
_chemical_formula_structural   ReI5Br6
_chemical_formula_sum   'Re1 I5 Br6'
_cell_volume   547.16027492
_cell_formula_units_Z   1
loop_
 _symmetry_equiv_pos_site_id
 _symmetry_equiv_pos_as_xyz
  1  'x, y, z'
loop_
 _atom_site_type_symbol
 _atom_site_label
 _atom_site_symmetry_multiplicity
 _atom_site_fract_x
 _atom_site_fract_y
 _atom_site_fract_z
 _atom_site_occupancy
  Re  Re0  1  0.000000  0.500000  0.500000  1
  I  I1  1  0.000000  0.000000  0.000000  1
  I  I2  1  0.558636  0.822042  0.238247  1
  I  I3  1  0.356369  0.095610  0.248668  1
  I  I4  1  0.643632  0.904391  0.751333  1
  I  I5  1  0.441364  0.177958  0.761752  1
  Br  Br6  1  0.765067  0.551794  0.223747  1
  Br  Br7  1  0.229727  0.481094  0.376612  1
  Br  Br8  1  0.920792  0.206883  0.440518  1
  Br  Br9  1  0.079208  0.793116  0.559483  1
  Br  Br10  1  0.770272  0.518905  0.623387  1
  Br  Br11  1  0.234933  0.448207  0.776252  1
