# generated using pymatgen
data_Sr10Sn5PbF2
_symmetry_space_group_name_H-M   'P 1'
_cell_length_a   8.66862929
_cell_length_b   8.66849051
_cell_length_c   10.09133021
_cell_angle_alpha   115.43534112
_cell_angle_beta   115.43639731
_cell_angle_gamma   89.99998838
_symmetry_Int_Tables_number   1
_chemical_formula_structural   Sr10Sn5PbF2
_chemical_formula_sum   'Sr10 Sn5 Pb1 F2'
_cell_volume   602.38919023
_cell_formula_units_Z   1
loop_
 _symmetry_equiv_pos_site_id
 _symmetry_equiv_pos_as_xyz
  1  'x, y, z'
loop_
 _atom_site_type_symbol
 _atom_site_label
 _atom_site_symmetry_multiplicity
 _atom_site_fract_x
 _atom_site_fract_y
 _atom_site_fract_z
 _atom_site_occupancy
  Sr  Sr0  1  0.000876  0.000877  0.001752  1
  Sr  Sr1  1  0.499124  0.499123  0.998248  1
  Sr  Sr2  1  0.488853  0.310482  0.301663  1
  Sr  Sr3  1  0.991184  0.488854  0.301670  1
  Sr  Sr4  1  0.310490  0.812804  0.301664  1
  Sr  Sr5  1  0.812810  0.991177  0.301670  1
  Sr  Sr6  1  0.189513  0.011146  0.698330  1
  Sr  Sr7  1  0.687190  0.189518  0.698337  1
  Sr  Sr8  1  0.011140  0.508823  0.698330  1
  Sr  Sr9  1  0.508825  0.687196  0.698336  1
  Sn  Sn10  1  0.622433  0.122435  0.999981  1
  Sn  Sn11  1  0.122451  0.377566  0.000019  1
  Sn  Sn12  1  0.877546  0.622436  0.999981  1
  Sn  Sn13  1  0.377566  0.877564  0.000019  1
  Sn  Sn14  1  0.250003  0.250000  0.500000  1
  Pb  Pb15  1  0.749997  0.750000  0.500000  1
  F  F16  1  0.749997  0.250000  0.500000  1
  F  F17  1  0.250003  0.750000  0.500000  1
