# generated using pymatgen
data_Tm10In8Cu3Au
_symmetry_space_group_name_H-M   'P 1'
_cell_length_a   3.56553500
_cell_length_b   8.01181205
_cell_length_c   17.94925300
_cell_angle_alpha   89.99357088
_cell_angle_beta   90.00000000
_cell_angle_gamma   90.00000000
_symmetry_Int_Tables_number   1
_chemical_formula_structural   Tm10In8Cu3Au
_chemical_formula_sum   'Tm10 In8 Cu3 Au1'
_cell_volume   512.74547089
_cell_formula_units_Z   1
loop_
 _symmetry_equiv_pos_site_id
 _symmetry_equiv_pos_as_xyz
  1  'x, y, z'
loop_
 _atom_site_type_symbol
 _atom_site_label
 _atom_site_symmetry_multiplicity
 _atom_site_fract_x
 _atom_site_fract_y
 _atom_site_fract_z
 _atom_site_occupancy
  Tm  Tm0  1  0.000000  0.499314  0.501716  1
  Tm  Tm1  1  0.000000  0.000259  0.998309  1
  Tm  Tm2  1  0.000000  0.743643  0.284098  1
  Tm  Tm3  1  0.000000  0.262251  0.719275  1
  Tm  Tm4  1  0.000000  0.763628  0.779637  1
  Tm  Tm5  1  0.000000  0.231300  0.220468  1
  Tm  Tm6  1  0.000000  0.621260  0.077870  1
  Tm  Tm7  1  0.000000  0.380801  0.915372  1
  Tm  Tm8  1  0.000000  0.880947  0.583895  1
  Tm  Tm9  1  0.000000  0.116984  0.418508  1
  In  In10  1  0.500000  0.708003  0.929560  1
  In  In11  1  0.500000  0.289515  0.065257  1
  In  In12  1  0.500000  0.791166  0.434102  1
  In  In13  1  0.500000  0.207474  0.569318  1
  In  In14  1  0.500000  0.579658  0.651149  1
  In  In15  1  0.500000  0.416167  0.353363  1
  In  In16  1  0.500000  0.922678  0.149852  1
  In  In17  1  0.500000  0.080014  0.848028  1
  Cu  Cu18  1  0.500000  0.475569  0.801859  1
  Cu  Cu19  1  0.500000  0.975384  0.697127  1
  Cu  Cu20  1  0.500000  0.026139  0.304247  1
  Au  Au21  1  0.500000  0.527846  0.196992  1
