# generated using pymatgen
data_Na5CaVAs4
_symmetry_space_group_name_H-M   'P 1'
_cell_length_a   9.39460009
_cell_length_b   9.39460050
_cell_length_c   7.30123486
_cell_angle_alpha   90.75789260
_cell_angle_beta   90.75789878
_cell_angle_gamma   120.26488882
_symmetry_Int_Tables_number   1
_chemical_formula_structural   Na5CaVAs4
_chemical_formula_sum   'Na10 Ca2 V2 As8'
_cell_volume   556.37152843
_cell_formula_units_Z   2
loop_
 _symmetry_equiv_pos_site_id
 _symmetry_equiv_pos_as_xyz
  1  'x, y, z'
loop_
 _atom_site_type_symbol
 _atom_site_label
 _atom_site_symmetry_multiplicity
 _atom_site_fract_x
 _atom_site_fract_y
 _atom_site_fract_z
 _atom_site_occupancy
  Na  Na0  1  0.534506  0.473636  0.611308  1
  Na  Na1  1  0.942482  0.472687  0.612835  1
  Na  Na2  1  0.473636  0.534506  0.111308  1
  Na  Na3  1  0.472687  0.942482  0.112835  1
  Na  Na4  1  0.136834  0.853398  0.784858  1
  Na  Na5  1  0.710224  0.847780  0.807292  1
  Na  Na6  1  0.147916  0.291173  0.774862  1
  Na  Na7  1  0.853398  0.136834  0.284858  1
  Na  Na8  1  0.291173  0.147916  0.274862  1
  Na  Na9  1  0.847780  0.710224  0.307292  1
  Ca  Ca10  1  0.531185  0.056149  0.609476  1
  Ca  Ca11  1  0.056149  0.531185  0.109476  1
  V  V12  1  0.330860  0.664734  0.499712  1
  V  V13  1  0.664734  0.330860  0.999712  1
  As  As14  1  0.324059  0.666467  0.826988  1
  As  As15  1  0.666467  0.324059  0.326988  1
  As  As16  1  0.809500  0.197523  0.892520  1
  As  As17  1  0.391355  0.192907  0.880821  1
  As  As18  1  0.812003  0.612622  0.913329  1
  As  As19  1  0.197523  0.809500  0.392520  1
  As  As20  1  0.612622  0.812003  0.413329  1
  As  As21  1  0.192907  0.391355  0.380821  1
