# generated using pymatgen
data_Nd8Y11Si16Pd
_symmetry_space_group_name_H-M   'P 1'
_cell_length_a   7.75863783
_cell_length_b   7.75863783
_cell_length_c   14.26618537
_cell_angle_alpha   90.36719870
_cell_angle_beta   89.63280130
_cell_angle_gamma   89.99119444
_symmetry_Int_Tables_number   1
_chemical_formula_structural   Nd8Y11Si16Pd
_chemical_formula_sum   'Nd8 Y11 Si16 Pd1'
_cell_volume   858.73858160
_cell_formula_units_Z   1
loop_
 _symmetry_equiv_pos_site_id
 _symmetry_equiv_pos_as_xyz
  1  'x, y, z'
loop_
 _atom_site_type_symbol
 _atom_site_label
 _atom_site_symmetry_multiplicity
 _atom_site_fract_x
 _atom_site_fract_y
 _atom_site_fract_z
 _atom_site_occupancy
  Nd  Nd0  1  0.625606  0.998053  0.459056  1
  Nd  Nd1  1  0.362925  0.009357  0.956417  1
  Nd  Nd2  1  0.998053  0.625606  0.540944  1
  Nd  Nd3  1  0.488398  0.862086  0.211742  1
  Nd  Nd4  1  0.502252  0.136450  0.698843  1
  Nd  Nd5  1  0.862086  0.488398  0.788258  1
  Nd  Nd6  1  0.136450  0.502252  0.301157  1
  Nd  Nd7  1  0.009357  0.362925  0.043583  1
  Y  Y8  1  0.486990  0.368612  0.127379  1
  Y  Y9  1  0.001902  0.139885  0.619800  1
  Y  Y10  1  0.862978  0.011491  0.872309  1
  Y  Y11  1  0.139885  0.001902  0.380200  1
  Y  Y12  1  0.505172  0.628635  0.619908  1
  Y  Y13  1  0.368612  0.486990  0.872621  1
  Y  Y14  1  0.628635  0.505172  0.380092  1
  Y  Y15  1  0.011491  0.862978  0.127691  1
  Y  Y16  1  0.184997  0.812696  0.748102  1
  Y  Y17  1  0.812696  0.184997  0.251898  1
  Y  Y18  1  0.686697  0.686697  0.000000  1
  Si  Si19  1  0.283820  0.916230  0.562338  1
  Si  Si20  1  0.710509  0.068495  0.061903  1
  Si  Si21  1  0.916230  0.283820  0.437662  1
  Si  Si22  1  0.426422  0.215737  0.316507  1
  Si  Si23  1  0.570457  0.790557  0.808051  1
  Si  Si24  1  0.215737  0.426422  0.683493  1
  Si  Si25  1  0.790557  0.570457  0.191949  1
  Si  Si26  1  0.068495  0.710509  0.938097  1
  Si  Si27  1  0.796414  0.844195  0.687225  1
  Si  Si28  1  0.201396  0.158283  0.194126  1
  Si  Si29  1  0.844195  0.796414  0.312775  1
  Si  Si30  1  0.346472  0.710319  0.437421  1
  Si  Si31  1  0.657499  0.299200  0.942651  1
  Si  Si32  1  0.710319  0.346472  0.562579  1
  Si  Si33  1  0.299200  0.657499  0.057349  1
  Si  Si34  1  0.158283  0.201396  0.805874  1
  Pd  Pd35  1  0.328812  0.328812  0.500000  1
