# generated using pymatgen
data_Pr2Th2(Al8Pt3)3
_symmetry_space_group_name_H-M   'P 1'
_cell_length_a   7.60828925
_cell_length_b   7.62157414
_cell_length_c   13.29895112
_cell_angle_alpha   84.51269471
_cell_angle_beta   79.05333212
_cell_angle_gamma   59.92577790
_symmetry_Int_Tables_number   1
_chemical_formula_structural   Pr2Th2(Al8Pt3)3
_chemical_formula_sum   'Pr2 Th2 Al24 Pt9'
_cell_volume   655.20817926
_cell_formula_units_Z   1
loop_
 _symmetry_equiv_pos_site_id
 _symmetry_equiv_pos_as_xyz
  1  'x, y, z'
loop_
 _atom_site_type_symbol
 _atom_site_label
 _atom_site_symmetry_multiplicity
 _atom_site_fract_x
 _atom_site_fract_y
 _atom_site_fract_z
 _atom_site_occupancy
  Pr  Pr0  1  0.733747  0.497943  0.808485  1
  Pr  Pr1  1  0.266253  0.502057  0.191515  1
  Th  Th2  1  0.395489  0.167956  0.806010  1
  Th  Th3  1  0.604511  0.832044  0.193990  1
  Al  Al4  1  0.688080  0.832673  0.945554  1
  Al  Al5  1  0.311920  0.167327  0.054446  1
  Al  Al6  1  0.145631  0.833429  0.560456  1
  Al  Al7  1  0.854369  0.166571  0.439544  1
  Al  Al8  1  0.481485  0.167231  0.557134  1
  Al  Al9  1  0.518515  0.832769  0.442866  1
  Al  Al10  1  0.212384  0.167589  0.335018  1
  Al  Al11  1  0.787616  0.832411  0.664982  1
  Al  Al12  1  0.437838  0.509941  0.665078  1
  Al  Al13  1  0.562162  0.490059  0.334922  1
  Al  Al14  1  0.108897  0.158874  0.663788  1
  Al  Al15  1  0.891103  0.841126  0.336212  1
  Al  Al16  1  0.349532  0.503068  0.946363  1
  Al  Al17  1  0.650468  0.496932  0.053637  1
  Al  Al18  1  0.014603  0.165220  0.955462  1
  Al  Al19  1  0.985397  0.834780  0.044538  1
  Al  Al20  1  0.185973  0.500464  0.441660  1
  Al  Al21  1  0.814027  0.499536  0.558340  1
  Al  Al22  1  0.736409  0.164603  0.183946  1
  Al  Al23  1  0.263591  0.835397  0.816054  1
  Al  Al24  1  0.061997  0.634336  0.814604  1
  Al  Al25  1  0.938003  0.365664  0.185396  1
  Al  Al26  1  0.860897  0.038000  0.815515  1
  Al  Al27  1  0.139103  0.962000  0.184485  1
  Pt  Pt28  1  0.122463  0.492287  0.637289  1
  Pt  Pt29  1  0.877537  0.507713  0.362711  1
  Pt  Pt30  1  0.656902  0.169741  0.999630  1
  Pt  Pt31  1  0.343098  0.830259  0.000370  1
  Pt  Pt32  1  0.539832  0.164499  0.362473  1
  Pt  Pt33  1  0.460168  0.835501  0.637527  1
  Pt  Pt34  1  0.779575  0.172942  0.636788  1
  Pt  Pt35  1  0.220425  0.827058  0.363212  1
  Pt  Pt36  1  0.000000  0.500000  0.000000  1
