# generated using pymatgen
data_Y5HoCrB14W
_symmetry_space_group_name_H-M   'P 1'
_cell_length_a   8.12839635
_cell_length_b   8.12839435
_cell_length_c   9.42759919
_cell_angle_alpha   89.97749989
_cell_angle_beta   90.02249879
_cell_angle_gamma   155.49987373
_symmetry_Int_Tables_number   1
_chemical_formula_structural   Y5HoCrB14W
_chemical_formula_sum   'Y5 Ho1 Cr1 B14 W1'
_cell_volume   258.30913877
_cell_formula_units_Z   1
loop_
 _symmetry_equiv_pos_site_id
 _symmetry_equiv_pos_as_xyz
  1  'x, y, z'
loop_
 _atom_site_type_symbol
 _atom_site_label
 _atom_site_symmetry_multiplicity
 _atom_site_fract_x
 _atom_site_fract_y
 _atom_site_fract_z
 _atom_site_occupancy
  Y  Y0  1  0.894409  0.105591  0.435841  1
  Y  Y1  1  0.106761  0.893239  0.556269  1
  Y  Y2  1  0.894410  0.105590  0.064122  1
  Y  Y3  1  0.241144  0.758856  0.249981  1
  Y  Y4  1  0.754397  0.245603  0.750123  1
  Ho  Ho5  1  0.106566  0.893434  0.944384  1
  Cr  Cr6  1  0.053101  0.946899  0.249750  1
  B  B7  1  0.727120  0.272880  0.465775  1
  B  B8  1  0.272301  0.727699  0.531287  1
  B  B9  1  0.726872  0.273128  0.034001  1
  B  B10  1  0.272055  0.727945  0.968637  1
  B  B11  1  0.630771  0.369229  0.151797  1
  B  B12  1  0.365199  0.634801  0.854027  1
  B  B13  1  0.630776  0.369224  0.347718  1
  B  B14  1  0.365212  0.634788  0.645998  1
  B  B15  1  0.521960  0.478040  0.097295  1
  B  B16  1  0.481057  0.518943  0.909390  1
  B  B17  1  0.521814  0.478186  0.402343  1
  B  B18  1  0.480832  0.519168  0.590774  1
  B  B19  1  0.460535  0.539465  0.249914  1
  B  B20  1  0.545527  0.454473  0.750436  1
  W  W21  1  0.947180  0.052820  0.750139  1
