# generated using pymatgen
data_Nd2Eu2ReTcC4
_symmetry_space_group_name_H-M   'P 1'
_cell_length_a   5.38737500
_cell_length_b   6.63851600
_cell_length_c   10.39559300
_cell_angle_alpha   90.00000000
_cell_angle_beta   90.00000000
_cell_angle_gamma   90.00000000
_symmetry_Int_Tables_number   1
_chemical_formula_structural   Nd2Eu2ReTcC4
_chemical_formula_sum   'Nd4 Eu4 Re2 Tc2 C8'
_cell_volume   371.78980869
_cell_formula_units_Z   2
loop_
 _symmetry_equiv_pos_site_id
 _symmetry_equiv_pos_as_xyz
  1  'x, y, z'
loop_
 _atom_site_type_symbol
 _atom_site_label
 _atom_site_symmetry_multiplicity
 _atom_site_fract_x
 _atom_site_fract_y
 _atom_site_fract_z
 _atom_site_occupancy
  Nd  Nd0  1  0.250000  0.807521  0.048805  1
  Nd  Nd1  1  0.750000  0.692479  0.548805  1
  Nd  Nd2  1  0.250000  0.306061  0.450027  1
  Nd  Nd3  1  0.750000  0.193939  0.950027  1
  Eu  Eu4  1  0.250000  0.466555  0.777057  1
  Eu  Eu5  1  0.750000  0.033445  0.277057  1
  Eu  Eu6  1  0.250000  0.966511  0.721736  1
  Eu  Eu7  1  0.750000  0.533489  0.221736  1
  Re  Re8  1  0.250000  0.771138  0.355029  1
  Re  Re9  1  0.750000  0.728862  0.855029  1
  Tc  Tc10  1  0.250000  0.270679  0.145041  1
  Tc  Tc11  1  0.750000  0.229321  0.645041  1
  C  C12  1  0.250000  0.693217  0.531829  1
  C  C13  1  0.750000  0.806783  0.031829  1
  C  C14  1  0.250000  0.192643  0.969717  1
  C  C15  1  0.750000  0.307357  0.469717  1
  C  C16  1  0.250000  0.033852  0.258004  1
  C  C17  1  0.750000  0.466148  0.758004  1
  C  C18  1  0.250000  0.535997  0.242754  1
  C  C19  1  0.750000  0.964003  0.742754  1
