# generated using pymatgen
data_Er20Fe3CoBi8
_symmetry_space_group_name_H-M   'P 1'
_cell_length_a   7.89130700
_cell_length_b   8.87882600
_cell_length_c   12.37569000
_cell_angle_alpha   90.00000000
_cell_angle_beta   89.99769487
_cell_angle_gamma   90.00000000
_symmetry_Int_Tables_number   1
_chemical_formula_structural   Er20Fe3CoBi8
_chemical_formula_sum   'Er20 Fe3 Co1 Bi8'
_cell_volume   867.10942422
_cell_formula_units_Z   1
loop_
 _symmetry_equiv_pos_site_id
 _symmetry_equiv_pos_as_xyz
  1  'x, y, z'
loop_
 _atom_site_type_symbol
 _atom_site_label
 _atom_site_symmetry_multiplicity
 _atom_site_fract_x
 _atom_site_fract_y
 _atom_site_fract_z
 _atom_site_occupancy
  Er  Er0  1  0.654752  0.750000  0.701002  1
  Er  Er1  1  0.344903  0.250000  0.300137  1
  Er  Er2  1  0.154865  0.250000  0.797812  1
  Er  Er3  1  0.847126  0.750000  0.197982  1
  Er  Er4  1  0.119068  0.750000  0.814643  1
  Er  Er5  1  0.882852  0.250000  0.185736  1
  Er  Er6  1  0.619986  0.250000  0.686089  1
  Er  Er7  1  0.382147  0.750000  0.316444  1
  Er  Er8  1  0.555669  0.750000  0.995449  1
  Er  Er9  1  0.440714  0.250000  0.005019  1
  Er  Er10  1  0.053480  0.250000  0.504116  1
  Er  Er11  1  0.941189  0.750000  0.495280  1
  Er  Er12  1  0.828393  0.463700  0.936386  1
  Er  Er13  1  0.172314  0.536577  0.063251  1
  Er  Er14  1  0.328507  0.532846  0.563661  1
  Er  Er15  1  0.172314  0.963423  0.063251  1
  Er  Er16  1  0.674235  0.458777  0.435291  1
  Er  Er17  1  0.828393  0.036300  0.936386  1
  Er  Er18  1  0.674235  0.041223  0.435291  1
  Er  Er19  1  0.328507  0.967154  0.563661  1
  Fe  Fe20  1  0.930288  0.750000  0.990390  1
  Fe  Fe21  1  0.069371  0.250000  0.007399  1
  Fe  Fe22  1  0.430849  0.250000  0.508985  1
  Co  Co23  1  0.565057  0.750000  0.494437  1
  Bi  Bi24  1  0.932657  0.005971  0.673034  1
  Bi  Bi25  1  0.067329  0.992173  0.326993  1
  Bi  Bi26  1  0.433065  0.993604  0.827053  1
  Bi  Bi27  1  0.067329  0.507827  0.326993  1
  Bi  Bi28  1  0.567342  0.006721  0.173871  1
  Bi  Bi29  1  0.932657  0.494029  0.673034  1
  Bi  Bi30  1  0.567342  0.493279  0.173871  1
  Bi  Bi31  1  0.433065  0.506396  0.827053  1
