# generated using pymatgen
data_ErCu2HgPt2
_symmetry_space_group_name_H-M   'P 1'
_cell_length_a   5.21767937
_cell_length_b   5.50992784
_cell_length_c   5.21767848
_cell_angle_alpha   58.12919999
_cell_angle_beta   58.32165520
_cell_angle_gamma   58.12920268
_symmetry_Int_Tables_number   1
_chemical_formula_structural   ErCu2HgPt2
_chemical_formula_sum   'Er1 Cu2 Hg1 Pt2'
_cell_volume   101.67637851
_cell_formula_units_Z   1
loop_
 _symmetry_equiv_pos_site_id
 _symmetry_equiv_pos_as_xyz
  1  'x, y, z'
loop_
 _atom_site_type_symbol
 _atom_site_label
 _atom_site_symmetry_multiplicity
 _atom_site_fract_x
 _atom_site_fract_y
 _atom_site_fract_z
 _atom_site_occupancy
  Er  Er0  1  0.744709  0.755291  0.744709  1
  Cu  Cu1  1  0.878876  0.371022  0.379080  1
  Cu  Cu2  1  0.379080  0.371022  0.878876  1
  Hg  Hg3  1  0.992494  0.007506  0.992494  1
  Pt  Pt4  1  0.377420  0.871496  0.377420  1
  Pt  Pt5  1  0.377420  0.373662  0.377420  1
