# generated using pymatgen
data_NaMn(SeO4)2
_symmetry_space_group_name_H-M   'P 1'
_cell_length_a   4.96603801
_cell_length_b   4.96603695
_cell_length_c   7.44793940
_cell_angle_alpha   87.56572654
_cell_angle_beta   87.56573049
_cell_angle_gamma   68.65113944
_symmetry_Int_Tables_number   1
_chemical_formula_structural   NaMn(SeO4)2
_chemical_formula_sum   'Na1 Mn1 Se2 O8'
_cell_volume   170.84741991
_cell_formula_units_Z   1
loop_
 _symmetry_equiv_pos_site_id
 _symmetry_equiv_pos_as_xyz
  1  'x, y, z'
loop_
 _atom_site_type_symbol
 _atom_site_label
 _atom_site_symmetry_multiplicity
 _atom_site_fract_x
 _atom_site_fract_y
 _atom_site_fract_z
 _atom_site_occupancy
  Na  Na0  1  0.000000  0.000000  0.500000  1
  Mn  Mn1  1  0.000000  0.000000  0.000000  1
  Se  Se2  1  0.361629  0.361629  0.776391  1
  Se  Se3  1  0.638371  0.638371  0.223609  1
  O  O4  1  0.275969  0.275969  0.583391  1
  O  O5  1  0.724031  0.724031  0.416609  1
  O  O6  1  0.724489  0.235038  0.791880  1
  O  O7  1  0.275511  0.764962  0.208120  1
  O  O8  1  0.764962  0.275511  0.208120  1
  O  O9  1  0.235038  0.724489  0.791880  1
  O  O10  1  0.233457  0.233457  0.964722  1
  O  O11  1  0.766543  0.766543  0.035278  1
