# generated using pymatgen
data_Sm3Y(AuCl6)4
_symmetry_space_group_name_H-M   'P 1'
_cell_length_a   8.04767030
_cell_length_b   10.00239093
_cell_length_c   14.25827975
_cell_angle_alpha   102.85419822
_cell_angle_beta   97.23333700
_cell_angle_gamma   113.01207549
_symmetry_Int_Tables_number   1
_chemical_formula_structural   Sm3Y(AuCl6)4
_chemical_formula_sum   'Sm3 Y1 Au4 Cl24'
_cell_volume   1000.52502869
_cell_formula_units_Z   1
loop_
 _symmetry_equiv_pos_site_id
 _symmetry_equiv_pos_as_xyz
  1  'x, y, z'
loop_
 _atom_site_type_symbol
 _atom_site_label
 _atom_site_symmetry_multiplicity
 _atom_site_fract_x
 _atom_site_fract_y
 _atom_site_fract_z
 _atom_site_occupancy
  Sm  Sm0  1  0.578390  0.927873  0.623323  1
  Sm  Sm1  1  0.420912  0.071520  0.376192  1
  Sm  Sm2  1  0.970319  0.315060  0.872423  1
  Y  Y3  1  0.030860  0.685150  0.128034  1
  Au  Au4  1  0.288976  0.633730  0.763367  1
  Au  Au5  1  0.711409  0.366755  0.236390  1
  Au  Au6  1  0.499942  0.499897  0.499914  1
  Au  Au7  1  0.000029  0.999599  0.000324  1
  Cl  Cl8  1  0.596240  0.732856  0.750957  1
  Cl  Cl9  1  0.404077  0.267317  0.249112  1
  Cl  Cl10  1  0.276827  0.848050  0.732005  1
  Cl  Cl11  1  0.723271  0.152229  0.268027  1
  Cl  Cl12  1  0.979558  0.536355  0.772038  1
  Cl  Cl13  1  0.020231  0.465881  0.226828  1
  Cl  Cl14  1  0.299902  0.415823  0.790741  1
  Cl  Cl15  1  0.702874  0.585125  0.208752  1
  Cl  Cl16  1  0.687946  0.372845  0.501968  1
  Cl  Cl17  1  0.311992  0.627107  0.497986  1
  Cl  Cl18  1  0.754914  0.733086  0.532835  1
  Cl  Cl19  1  0.244866  0.266595  0.467026  1
  Cl  Cl20  1  0.789895  0.103099  0.976309  1
  Cl  Cl21  1  0.208077  0.894658  0.024851  1
  Cl  Cl22  1  0.779259  0.790435  0.030558  1
  Cl  Cl23  1  0.222469  0.208688  0.970184  1
  Cl  Cl24  1  0.621801  0.195736  0.745902  1
  Cl  Cl25  1  0.374203  0.803129  0.252835  1
  Cl  Cl26  1  0.938917  0.059234  0.731461  1
  Cl  Cl27  1  0.060432  0.936668  0.266236  1
  Cl  Cl28  1  0.717888  0.047737  0.482477  1
  Cl  Cl29  1  0.281804  0.952121  0.517262  1
  Cl  Cl30  1  0.773951  0.439186  0.979725  1
  Cl  Cl31  1  0.227770  0.566458  0.023958  1
