# generated using pymatgen
data_K2Sn(BrO3)6
_symmetry_space_group_name_H-M   'P 1'
_cell_length_a   7.89270874
_cell_length_b   7.89270761
_cell_length_c   7.89270700
_cell_angle_alpha   96.73993196
_cell_angle_beta   96.73993099
_cell_angle_gamma   96.73993732
_symmetry_Int_Tables_number   1
_chemical_formula_structural   K2Sn(BrO3)6
_chemical_formula_sum   'K2 Sn1 Br6 O18'
_cell_volume   480.59677454
_cell_formula_units_Z   1
loop_
 _symmetry_equiv_pos_site_id
 _symmetry_equiv_pos_as_xyz
  1  'x, y, z'
loop_
 _atom_site_type_symbol
 _atom_site_label
 _atom_site_symmetry_multiplicity
 _atom_site_fract_x
 _atom_site_fract_y
 _atom_site_fract_z
 _atom_site_occupancy
  K  K0  1  0.820350  0.820350  0.820350  1
  K  K1  1  0.179650  0.179650  0.179650  1
  Sn  Sn2  1  0.500000  0.500000  0.500000  1
  Br  Br3  1  0.294014  0.839308  0.684988  1
  Br  Br4  1  0.160692  0.315012  0.705986  1
  Br  Br5  1  0.839308  0.684988  0.294014  1
  Br  Br6  1  0.684988  0.294014  0.839308  1
  Br  Br7  1  0.705986  0.160692  0.315012  1
  Br  Br8  1  0.315012  0.705986  0.160692  1
  O  O9  1  0.293080  0.361405  0.889751  1
  O  O10  1  0.361405  0.889751  0.293080  1
  O  O11  1  0.110249  0.706920  0.638595  1
  O  O12  1  0.106943  0.679364  0.088896  1
  O  O13  1  0.305277  0.310511  0.544564  1
  O  O14  1  0.679364  0.088896  0.106943  1
  O  O15  1  0.889751  0.293080  0.361405  1
  O  O16  1  0.320636  0.911104  0.893057  1
  O  O17  1  0.694723  0.689489  0.455436  1
  O  O18  1  0.310511  0.544564  0.305277  1
  O  O19  1  0.706920  0.638595  0.110249  1
  O  O20  1  0.689489  0.455436  0.694723  1
  O  O21  1  0.638595  0.110249  0.706920  1
  O  O22  1  0.088896  0.106943  0.679364  1
  O  O23  1  0.911104  0.893057  0.320636  1
  O  O24  1  0.544564  0.305277  0.310511  1
  O  O25  1  0.893057  0.320636  0.911104  1
  O  O26  1  0.455436  0.694723  0.689489  1
