# generated using pymatgen
data_Pr6ScFe(Co4P3)4
_symmetry_space_group_name_H-M   'P 1'
_cell_length_a   3.78206300
_cell_length_b   10.74066700
_cell_length_c   12.52042800
_cell_angle_alpha   90.00000000
_cell_angle_beta   90.00000000
_cell_angle_gamma   90.00000000
_symmetry_Int_Tables_number   1
_chemical_formula_structural   Pr6ScFe(Co4P3)4
_chemical_formula_sum   'Pr6 Sc1 Fe1 Co16 P12'
_cell_volume   508.60331445
_cell_formula_units_Z   1
loop_
 _symmetry_equiv_pos_site_id
 _symmetry_equiv_pos_as_xyz
  1  'x, y, z'
loop_
 _atom_site_type_symbol
 _atom_site_label
 _atom_site_symmetry_multiplicity
 _atom_site_fract_x
 _atom_site_fract_y
 _atom_site_fract_z
 _atom_site_occupancy
  Pr  Pr0  1  0.000000  0.500000  0.527549  1
  Pr  Pr1  1  0.500000  0.000000  0.479348  1
  Pr  Pr2  1  0.500000  0.820436  0.207113  1
  Pr  Pr3  1  0.500000  0.179564  0.207113  1
  Pr  Pr4  1  0.000000  0.682488  0.795110  1
  Pr  Pr5  1  0.000000  0.317512  0.795110  1
  Sc  Sc6  1  0.500000  0.500000  0.150348  1
  Fe  Fe7  1  0.000000  0.000000  0.842439  1
  Co  Co8  1  0.500000  0.500000  0.704747  1
  Co  Co9  1  0.000000  0.000000  0.294588  1
  Co  Co10  1  0.000000  0.500000  0.985046  1
  Co  Co11  1  0.500000  0.000000  0.010312  1
  Co  Co12  1  0.500000  0.326931  0.990612  1
  Co  Co13  1  0.500000  0.673069  0.990612  1
  Co  Co14  1  0.000000  0.162364  0.000686  1
  Co  Co15  1  0.000000  0.837636  0.000686  1
  Co  Co16  1  0.500000  0.295401  0.433597  1
  Co  Co17  1  0.500000  0.704599  0.433597  1
  Co  Co18  1  0.000000  0.202209  0.570445  1
  Co  Co19  1  0.000000  0.797791  0.570445  1
  Co  Co20  1  0.500000  0.882429  0.709115  1
  Co  Co21  1  0.500000  0.117571  0.709115  1
  Co  Co22  1  0.000000  0.619644  0.298363  1
  Co  Co23  1  0.000000  0.380356  0.298363  1
  P  P24  1  0.500000  0.500000  0.886948  1
  P  P25  1  0.000000  0.000000  0.111409  1
  P  P26  1  0.500000  0.500000  0.352769  1
  P  P27  1  0.000000  0.000000  0.661583  1
  P  P28  1  0.500000  0.302557  0.615298  1
  P  P29  1  0.500000  0.697443  0.615298  1
  P  P30  1  0.000000  0.194734  0.388763  1
  P  P31  1  0.000000  0.805266  0.388763  1
  P  P32  1  0.500000  0.852820  0.890851  1
  P  P33  1  0.500000  0.147180  0.890851  1
  P  P34  1  0.000000  0.661329  0.096503  1
  P  P35  1  0.000000  0.338671  0.096503  1
