# generated using pymatgen
data_Li3Tb8Sc8Si16Ru
_symmetry_space_group_name_H-M   'P 1'
_cell_length_a   6.89268100
_cell_length_b   7.37090467
_cell_length_c   14.01419200
_cell_angle_alpha   90.00000000
_cell_angle_beta   90.00000000
_cell_angle_gamma   90.15543679
_symmetry_Int_Tables_number   1
_chemical_formula_structural   Li3Tb8Sc8Si16Ru
_chemical_formula_sum   'Li3 Tb8 Sc8 Si16 Ru1'
_cell_volume   711.99253295
_cell_formula_units_Z   1
loop_
 _symmetry_equiv_pos_site_id
 _symmetry_equiv_pos_as_xyz
  1  'x, y, z'
loop_
 _atom_site_type_symbol
 _atom_site_label
 _atom_site_symmetry_multiplicity
 _atom_site_fract_x
 _atom_site_fract_y
 _atom_site_fract_z
 _atom_site_occupancy
  Li  Li0  1  0.842781  0.494886  0.250000  1
  Li  Li1  1  0.341765  0.004728  0.250000  1
  Li  Li2  1  0.658931  0.993334  0.750000  1
  Tb  Tb3  1  0.015180  0.182792  0.096407  1
  Tb  Tb4  1  0.988066  0.821925  0.900390  1
  Tb  Tb5  1  0.489658  0.679059  0.900718  1
  Tb  Tb6  1  0.988066  0.821925  0.599610  1
  Tb  Tb7  1  0.515435  0.319449  0.098264  1
  Tb  Tb8  1  0.015180  0.182792  0.403593  1
  Tb  Tb9  1  0.515435  0.319449  0.401736  1
  Tb  Tb10  1  0.489658  0.679059  0.599282  1
  Sc  Sc11  1  0.330951  0.176268  0.626766  1
  Sc  Sc12  1  0.670824  0.821955  0.374243  1
  Sc  Sc13  1  0.171052  0.677122  0.375685  1
  Sc  Sc14  1  0.670824  0.821955  0.125757  1
  Sc  Sc15  1  0.822492  0.322954  0.628173  1
  Sc  Sc16  1  0.330951  0.176268  0.873234  1
  Sc  Sc17  1  0.822492  0.322954  0.871827  1
  Sc  Sc18  1  0.171052  0.677122  0.124315  1
  Si  Si19  1  0.035868  0.121533  0.750000  1
  Si  Si20  1  0.971438  0.893254  0.250000  1
  Si  Si21  1  0.470312  0.604662  0.250000  1
  Si  Si22  1  0.514265  0.404569  0.750000  1
  Si  Si23  1  0.277526  0.868590  0.750000  1
  Si  Si24  1  0.721411  0.117763  0.250000  1
  Si  Si25  1  0.217179  0.382807  0.250000  1
  Si  Si26  1  0.795713  0.616994  0.750000  1
  Si  Si27  1  0.153417  0.465222  0.547153  1
  Si  Si28  1  0.842106  0.538168  0.467130  1
  Si  Si29  1  0.343072  0.961610  0.466022  1
  Si  Si30  1  0.842106  0.538168  0.032870  1
  Si  Si31  1  0.658594  0.036945  0.535802  1
  Si  Si32  1  0.153417  0.465222  0.952847  1
  Si  Si33  1  0.658594  0.036945  0.964198  1
  Si  Si34  1  0.343072  0.961610  0.033978  1
  Ru  Ru35  1  0.151112  0.489939  0.750000  1
