# generated using pymatgen
data_Dy8Tm2OsRu3
_symmetry_space_group_name_H-M   'P 1'
_cell_length_a   6.34804388
_cell_length_b   7.28043825
_cell_length_c   8.46288545
_cell_angle_alpha   96.68140279
_cell_angle_beta   112.09685985
_cell_angle_gamma   90.00786470
_symmetry_Int_Tables_number   1
_chemical_formula_structural   Dy8Tm2OsRu3
_chemical_formula_sum   'Dy8 Tm2 Os1 Ru3'
_cell_volume   359.52575406
_cell_formula_units_Z   1
loop_
 _symmetry_equiv_pos_site_id
 _symmetry_equiv_pos_as_xyz
  1  'x, y, z'
loop_
 _atom_site_type_symbol
 _atom_site_label
 _atom_site_symmetry_multiplicity
 _atom_site_fract_x
 _atom_site_fract_y
 _atom_site_fract_z
 _atom_site_occupancy
  Dy  Dy0  1  0.793045  0.083093  0.814316  1
  Dy  Dy1  1  0.976088  0.415841  0.183381  1
  Dy  Dy2  1  0.206989  0.915766  0.185425  1
  Dy  Dy3  1  0.023219  0.584030  0.814899  1
  Dy  Dy4  1  0.207596  0.185557  0.567474  1
  Dy  Dy5  1  0.639530  0.315603  0.434594  1
  Dy  Dy6  1  0.793619  0.814806  0.432895  1
  Dy  Dy7  1  0.359538  0.685062  0.566270  1
  Tm  Tm8  1  0.422981  0.250003  0.999199  1
  Tm  Tm9  1  0.577497  0.750033  0.999950  1
  Os  Os10  1  0.602826  0.424971  0.782657  1
  Ru  Ru11  1  0.822064  0.075467  0.218792  1
  Ru  Ru12  1  0.396585  0.575377  0.218386  1
  Ru  Ru13  1  0.178423  0.924393  0.781762  1
