# generated using pymatgen
data_La6Al5Ga3Cl2
_symmetry_space_group_name_H-M   'P 1'
_cell_length_a   8.19998518
_cell_length_b   8.18927622
_cell_length_c   8.21540987
_cell_angle_alpha   119.22504746
_cell_angle_beta   119.35506486
_cell_angle_gamma   91.02160301
_symmetry_Int_Tables_number   1
_chemical_formula_structural   La6Al5Ga3Cl2
_chemical_formula_sum   'La6 Al5 Ga3 Cl2'
_cell_volume   394.92475845
_cell_formula_units_Z   1
loop_
 _symmetry_equiv_pos_site_id
 _symmetry_equiv_pos_as_xyz
  1  'x, y, z'
loop_
 _atom_site_type_symbol
 _atom_site_label
 _atom_site_symmetry_multiplicity
 _atom_site_fract_x
 _atom_site_fract_y
 _atom_site_fract_z
 _atom_site_occupancy
  La  La0  1  0.659984  0.161433  0.822720  1
  La  La1  1  0.158172  0.338659  0.497982  1
  La  La2  1  0.840327  0.657292  0.497402  1
  La  La3  1  0.752593  0.751549  0.004197  1
  La  La4  1  0.340099  0.841524  0.183194  1
  La  La5  1  0.250943  0.249595  0.000015  1
  Al  Al6  1  0.947480  0.447521  0.793636  1
  Al  Al7  1  0.839037  0.060330  0.499279  1
  Al  Al8  1  0.342166  0.843239  0.785289  1
  Al  Al9  1  0.441930  0.654389  0.498749  1
  Al  Al10  1  0.560209  0.340022  0.498843  1
  Ga  Ga11  1  0.054901  0.553990  0.213599  1
  Ga  Ga12  1  0.157286  0.944797  0.499509  1
  Ga  Ga13  1  0.656036  0.155685  0.207358  1
  Cl  Cl14  1  0.499529  0.499775  0.999022  1
  Cl  Cl15  1  0.999308  0.000200  0.999206  1
