# generated using pymatgen
data_Dy4Ga18CoRu5
_symmetry_space_group_name_H-M   'P 1'
_cell_length_a   7.49621949
_cell_length_b   7.49622731
_cell_length_c   9.69549800
_cell_angle_alpha   90.26504347
_cell_angle_beta   90.26504160
_cell_angle_gamma   119.81156453
_symmetry_Int_Tables_number   1
_chemical_formula_structural   Dy4Ga18CoRu5
_chemical_formula_sum   'Dy4 Ga18 Co1 Ru5'
_cell_volume   472.70350631
_cell_formula_units_Z   1
loop_
 _symmetry_equiv_pos_site_id
 _symmetry_equiv_pos_as_xyz
  1  'x, y, z'
loop_
 _atom_site_type_symbol
 _atom_site_label
 _atom_site_symmetry_multiplicity
 _atom_site_fract_x
 _atom_site_fract_y
 _atom_site_fract_z
 _atom_site_occupancy
  Dy  Dy0  1  0.996774  0.667936  0.249470  1
  Dy  Dy1  1  0.003226  0.332064  0.750530  1
  Dy  Dy2  1  0.667936  0.996774  0.249470  1
  Dy  Dy3  1  0.332064  0.003226  0.750530  1
  Ga  Ga4  1  0.123973  0.123973  0.246172  1
  Ga  Ga5  1  0.876027  0.876027  0.753828  1
  Ga  Ga6  1  0.005407  0.328767  0.074629  1
  Ga  Ga7  1  0.994593  0.671233  0.925371  1
  Ga  Ga8  1  0.993902  0.665377  0.576496  1
  Ga  Ga9  1  0.334623  0.006098  0.423504  1
  Ga  Ga10  1  0.006098  0.334623  0.423504  1
  Ga  Ga11  1  0.665377  0.993902  0.576496  1
  Ga  Ga12  1  0.671233  0.994593  0.925371  1
  Ga  Ga13  1  0.328767  0.005407  0.074629  1
  Ga  Ga14  1  0.337544  0.337544  0.560219  1
  Ga  Ga15  1  0.662456  0.662456  0.439781  1
  Ga  Ga16  1  0.667740  0.667740  0.058995  1
  Ga  Ga17  1  0.332260  0.332260  0.941005  1
  Ga  Ga18  1  0.337589  0.549502  0.249265  1
  Ga  Ga19  1  0.662411  0.450498  0.750735  1
  Ga  Ga20  1  0.549502  0.337590  0.249265  1
  Ga  Ga21  1  0.450498  0.662410  0.750735  1
  Co  Co22  1  0.000000  0.000000  0.000000  1
  Ru  Ru23  1  0.674828  0.325172  0.000000  1
  Ru  Ru24  1  0.325172  0.674828  0.000000  1
  Ru  Ru25  1  0.325238  0.674762  0.500000  1
  Ru  Ru26  1  0.674762  0.325238  0.500000  1
  Ru  Ru27  1  0.000000  0.000000  0.500000  1
