# generated using pymatgen
data_Yb2Co3Si(P2Ru3)3
_symmetry_space_group_name_H-M   'P 1'
_cell_length_a   9.33470000
_cell_length_b   9.33470057
_cell_length_c   3.82194800
_cell_angle_alpha   90.00000000
_cell_angle_beta   90.00000000
_cell_angle_gamma   119.99999796
_symmetry_Int_Tables_number   1
_chemical_formula_structural   Yb2Co3Si(P2Ru3)3
_chemical_formula_sum   'Yb2 Co3 Si1 P6 Ru9'
_cell_volume   288.41388951
_cell_formula_units_Z   1
loop_
 _symmetry_equiv_pos_site_id
 _symmetry_equiv_pos_as_xyz
  1  'x, y, z'
loop_
 _atom_site_type_symbol
 _atom_site_label
 _atom_site_symmetry_multiplicity
 _atom_site_fract_x
 _atom_site_fract_y
 _atom_site_fract_z
 _atom_site_occupancy
  Yb  Yb0  1  0.333333  0.666667  0.500000  1
  Yb  Yb1  1  0.000000  0.000000  0.000000  1
  Co  Co2  1  0.828177  0.607569  0.000000  1
  Co  Co3  1  0.392431  0.220607  0.000000  1
  Co  Co4  1  0.779393  0.171823  0.000000  1
  Si  Si5  1  0.666667  0.333333  0.000000  1
  P  P6  1  0.780370  0.729813  0.500000  1
  P  P7  1  0.270187  0.050557  0.500000  1
  P  P8  1  0.949443  0.219630  0.500000  1
  P  P9  1  0.079592  0.637562  0.000000  1
  P  P10  1  0.362438  0.442030  0.000000  1
  P  P11  1  0.557970  0.920408  0.000000  1
  Ru  Ru12  1  0.088134  0.393142  0.000000  1
  Ru  Ru13  1  0.606858  0.694992  0.000000  1
  Ru  Ru14  1  0.305008  0.911866  0.000000  1
  Ru  Ru15  1  0.052103  0.771144  0.500000  1
  Ru  Ru16  1  0.228856  0.280959  0.500000  1
  Ru  Ru17  1  0.719041  0.947897  0.500000  1
  Ru  Ru18  1  0.869986  0.419862  0.500000  1
  Ru  Ru19  1  0.580138  0.450123  0.500000  1
  Ru  Ru20  1  0.549877  0.130014  0.500000  1
