# generated using pymatgen
data_BaMo6HS7
_symmetry_space_group_name_H-M   'P 1'
_cell_length_a   6.61471459
_cell_length_b   6.61471515
_cell_length_c   6.61471421
_cell_angle_alpha   90.65328860
_cell_angle_beta   90.65328680
_cell_angle_gamma   90.65328055
_symmetry_Int_Tables_number   1
_chemical_formula_structural   BaMo6HS7
_chemical_formula_sum   'Ba1 Mo6 H1 S7'
_cell_volume   289.36632926
_cell_formula_units_Z   1
loop_
 _symmetry_equiv_pos_site_id
 _symmetry_equiv_pos_as_xyz
  1  'x, y, z'
loop_
 _atom_site_type_symbol
 _atom_site_label
 _atom_site_symmetry_multiplicity
 _atom_site_fract_x
 _atom_site_fract_y
 _atom_site_fract_z
 _atom_site_occupancy
  Ba  Ba0  1  0.029260  0.029260  0.029260  1
  Mo  Mo1  1  0.552147  0.228005  0.408679  1
  Mo  Mo2  1  0.228005  0.408679  0.552147  1
  Mo  Mo3  1  0.408679  0.552147  0.228005  1
  Mo  Mo4  1  0.435041  0.761667  0.582871  1
  Mo  Mo5  1  0.761667  0.582871  0.435041  1
  Mo  Mo6  1  0.582871  0.435041  0.761667  1
  H  H7  1  0.285223  0.285223  0.285223  1
  S  S8  1  0.757054  0.757054  0.757054  1
  S  S9  1  0.382999  0.120728  0.724900  1
  S  S10  1  0.120728  0.724900  0.382999  1
  S  S11  1  0.724900  0.382999  0.120728  1
  S  S12  1  0.601579  0.872112  0.257735  1
  S  S13  1  0.872112  0.257735  0.601579  1
  S  S14  1  0.257735  0.601579  0.872112  1
