# generated using pymatgen
data_Pr3Pa5(ZnIr)8
_symmetry_space_group_name_H-M   'P 1'
_cell_length_a   3.91417100
_cell_length_b   7.37535069
_cell_length_c   16.55125680
_cell_angle_alpha   90.12476713
_cell_angle_beta   90.00000000
_cell_angle_gamma   90.00000000
_symmetry_Int_Tables_number   1
_chemical_formula_structural   Pr3Pa5(ZnIr)8
_chemical_formula_sum   'Pr3 Pa5 Zn8 Ir8'
_cell_volume   477.80690083
_cell_formula_units_Z   1
loop_
 _symmetry_equiv_pos_site_id
 _symmetry_equiv_pos_as_xyz
  1  'x, y, z'
loop_
 _atom_site_type_symbol
 _atom_site_label
 _atom_site_symmetry_multiplicity
 _atom_site_fract_x
 _atom_site_fract_y
 _atom_site_fract_z
 _atom_site_occupancy
  Pr  Pr0  1  0.250000  0.555658  0.787291  1
  Pr  Pr1  1  0.750000  0.337002  0.440314  1
  Pr  Pr2  1  0.250000  0.678451  0.559510  1
  Pa  Pa3  1  0.750000  0.438545  0.215573  1
  Pa  Pa4  1  0.750000  0.944866  0.282425  1
  Pa  Pa5  1  0.750000  0.825059  0.062085  1
  Pa  Pa6  1  0.250000  0.053973  0.716018  1
  Pa  Pa7  1  0.250000  0.166995  0.940824  1
  Zn  Zn8  1  0.250000  0.011138  0.438867  1
  Zn  Zn9  1  0.750000  0.501295  0.940174  1
  Zn  Zn10  1  0.750000  0.005671  0.556119  1
  Zn  Zn11  1  0.250000  0.610689  0.343862  1
  Zn  Zn12  1  0.750000  0.389629  0.657157  1
  Zn  Zn13  1  0.750000  0.876403  0.849458  1
  Zn  Zn14  1  0.250000  0.488085  0.061838  1
  Zn  Zn15  1  0.250000  0.107854  0.151146  1
  Ir  Ir16  1  0.250000  0.243903  0.575913  1
  Ir  Ir17  1  0.750000  0.232779  0.058035  1
  Ir  Ir18  1  0.250000  0.237839  0.301391  1
  Ir  Ir19  1  0.750000  0.229280  0.820293  1
  Ir  Ir20  1  0.250000  0.766779  0.948678  1
  Ir  Ir21  1  0.750000  0.792553  0.687784  1
  Ir  Ir22  1  0.750000  0.773405  0.420956  1
  Ir  Ir23  1  0.250000  0.732150  0.184288  1
