# generated using pymatgen
data_YTh2As4Pd7
_symmetry_space_group_name_H-M   'P 1'
_cell_length_a   8.23128589
_cell_length_b   8.23128638
_cell_length_c   9.73277323
_cell_angle_alpha   55.39963936
_cell_angle_beta   55.39963685
_cell_angle_gamma   29.60348289
_symmetry_Int_Tables_number   1
_chemical_formula_structural   YTh2As4Pd7
_chemical_formula_sum   'Y1 Th2 As4 Pd7'
_cell_volume   263.64873782
_cell_formula_units_Z   1
loop_
 _symmetry_equiv_pos_site_id
 _symmetry_equiv_pos_as_xyz
  1  'x, y, z'
loop_
 _atom_site_type_symbol
 _atom_site_label
 _atom_site_symmetry_multiplicity
 _atom_site_fract_x
 _atom_site_fract_y
 _atom_site_fract_z
 _atom_site_occupancy
  Y  Y0  1  0.320409  0.320409  0.674203  1
  Th  Th1  1  0.676827  0.676827  0.331399  1
  Th  Th2  1  0.001825  0.001825  0.995987  1
  As  As3  1  0.343324  0.343324  0.250106  1
  As  As4  1  0.661802  0.661802  0.745505  1
  As  As5  1  0.890712  0.890712  0.822767  1
  As  As6  1  0.106410  0.106410  0.174166  1
  Pd  Pd7  1  0.308793  0.308793  0.022421  1
  Pd  Pd8  1  0.690536  0.690536  0.979098  1
  Pd  Pd9  1  0.511828  0.511828  0.705200  1
  Pd  Pd10  1  0.835381  0.835381  0.430040  1
  Pd  Pd11  1  0.488039  0.488039  0.296953  1
  Pd  Pd12  1  0.164902  0.164902  0.570359  1
  Pd  Pd13  1  0.999212  0.999212  0.501796  1
