# generated using pymatgen
data_Lu8In2IrRu
_symmetry_space_group_name_H-M   'P 1'
_cell_length_a   9.45549173
_cell_length_b   9.48366533
_cell_length_c   9.45549129
_cell_angle_alpha   59.90138460
_cell_angle_beta   59.80340487
_cell_angle_gamma   59.90137978
_symmetry_Int_Tables_number   1
_chemical_formula_structural   Lu8In2IrRu
_chemical_formula_sum   'Lu16 In4 Ir2 Ru2'
_cell_volume   597.76842762
_cell_formula_units_Z   2
loop_
 _symmetry_equiv_pos_site_id
 _symmetry_equiv_pos_as_xyz
  1  'x, y, z'
loop_
 _atom_site_type_symbol
 _atom_site_label
 _atom_site_symmetry_multiplicity
 _atom_site_fract_x
 _atom_site_fract_y
 _atom_site_fract_z
 _atom_site_occupancy
  Lu  Lu0  1  0.808125  0.191875  0.808125  1
  Lu  Lu1  1  0.941193  0.557901  0.559901  1
  Lu  Lu2  1  0.558525  0.941475  0.558525  1
  Lu  Lu3  1  0.806340  0.192855  0.191119  1
  Lu  Lu4  1  0.192075  0.807925  0.192075  1
  Lu  Lu5  1  0.349690  0.953199  0.349690  1
  Lu  Lu6  1  0.941193  0.941007  0.559901  1
  Lu  Lu7  1  0.559901  0.941007  0.941193  1
  Lu  Lu8  1  0.191119  0.809687  0.806340  1
  Lu  Lu9  1  0.350060  0.348450  0.953041  1
  Lu  Lu10  1  0.559901  0.557901  0.941193  1
  Lu  Lu11  1  0.349690  0.347423  0.349690  1
  Lu  Lu12  1  0.191119  0.192855  0.806340  1
  Lu  Lu13  1  0.806340  0.809687  0.191119  1
  Lu  Lu14  1  0.940406  0.559594  0.940406  1
  Lu  Lu15  1  0.953041  0.348450  0.350060  1
  In  In16  1  0.583375  0.583545  0.583375  1
  In  In17  1  0.583375  0.249707  0.583375  1
  In  In18  1  0.583121  0.583273  0.250334  1
  In  In19  1  0.250334  0.583273  0.583121  1
  Ir  Ir20  1  0.140594  0.578483  0.140594  1
  Ir  Ir21  1  0.140594  0.140329  0.140594  1
  Ru  Ru22  1  0.140829  0.140053  0.579065  1
  Ru  Ru23  1  0.579065  0.140053  0.140829  1
