# generated using pymatgen
data_Pr2Er3(SnPb)2
_symmetry_space_group_name_H-M   'P 1'
_cell_length_a   8.15347700
_cell_length_b   8.33837100
_cell_length_c   15.70048500
_cell_angle_alpha   90.00000000
_cell_angle_beta   90.00000000
_cell_angle_gamma   90.00000000
_symmetry_Int_Tables_number   1
_chemical_formula_structural   Pr2Er3(SnPb)2
_chemical_formula_sum   'Pr8 Er12 Sn8 Pb8'
_cell_volume   1067.42441736
_cell_formula_units_Z   4
loop_
 _symmetry_equiv_pos_site_id
 _symmetry_equiv_pos_as_xyz
  1  'x, y, z'
loop_
 _atom_site_type_symbol
 _atom_site_label
 _atom_site_symmetry_multiplicity
 _atom_site_fract_x
 _atom_site_fract_y
 _atom_site_fract_z
 _atom_site_occupancy
  Pr  Pr0  1  0.516053  0.323500  0.900382  1
  Pr  Pr1  1  0.016053  0.176500  0.599618  1
  Pr  Pr2  1  0.483947  0.676500  0.400382  1
  Pr  Pr3  1  0.983947  0.823500  0.099618  1
  Pr  Pr4  1  0.483947  0.676500  0.099618  1
  Pr  Pr5  1  0.983947  0.823500  0.400382  1
  Pr  Pr6  1  0.516053  0.323500  0.599618  1
  Pr  Pr7  1  0.016053  0.176500  0.900382  1
  Er  Er8  1  0.357070  0.837682  0.873975  1
  Er  Er9  1  0.857070  0.662318  0.626025  1
  Er  Er10  1  0.642930  0.162318  0.373975  1
  Er  Er11  1  0.142930  0.337682  0.126025  1
  Er  Er12  1  0.642930  0.162318  0.126025  1
  Er  Er13  1  0.142930  0.337682  0.373975  1
  Er  Er14  1  0.357070  0.837682  0.626025  1
  Er  Er15  1  0.857070  0.662318  0.873975  1
  Er  Er16  1  0.189580  0.502439  0.750000  1
  Er  Er17  1  0.689580  0.997561  0.750000  1
  Er  Er18  1  0.810420  0.497561  0.250000  1
  Er  Er19  1  0.310420  0.002439  0.250000  1
  Sn  Sn20  1  0.553530  0.626543  0.750000  1
  Sn  Sn21  1  0.053530  0.873457  0.750000  1
  Sn  Sn22  1  0.446470  0.373457  0.250000  1
  Sn  Sn23  1  0.946470  0.126543  0.250000  1
  Sn  Sn24  1  0.323134  0.144642  0.750000  1
  Sn  Sn25  1  0.823134  0.355358  0.750000  1
  Sn  Sn26  1  0.676866  0.855358  0.250000  1
  Sn  Sn27  1  0.176866  0.644642  0.250000  1
  Pb  Pb28  1  0.305398  0.043047  0.041886  1
  Pb  Pb29  1  0.805398  0.456953  0.458114  1
  Pb  Pb30  1  0.694602  0.956953  0.541886  1
  Pb  Pb31  1  0.194602  0.543047  0.958114  1
  Pb  Pb32  1  0.694602  0.956953  0.958114  1
  Pb  Pb33  1  0.194602  0.543047  0.541886  1
  Pb  Pb34  1  0.305398  0.043047  0.458114  1
  Pb  Pb35  1  0.805398  0.456953  0.041886  1
