# generated using pymatgen
data_Ac8Cd3Si12Pt
_symmetry_space_group_name_H-M   'P 1'
_cell_length_a   11.89645325
_cell_length_b   10.18649757
_cell_length_c   8.67727500
_cell_angle_alpha   77.74169056
_cell_angle_beta   56.85066641
_cell_angle_gamma   45.46074823
_symmetry_Int_Tables_number   1
_chemical_formula_structural   Ac8Cd3Si12Pt
_chemical_formula_sum   'Ac8 Cd3 Si12 Pt1'
_cell_volume   601.13914414
_cell_formula_units_Z   1
loop_
 _symmetry_equiv_pos_site_id
 _symmetry_equiv_pos_as_xyz
  1  'x, y, z'
loop_
 _atom_site_type_symbol
 _atom_site_label
 _atom_site_symmetry_multiplicity
 _atom_site_fract_x
 _atom_site_fract_y
 _atom_site_fract_z
 _atom_site_occupancy
  Ac  Ac0  1  0.373723  0.379056  0.628260  1
  Ac  Ac1  1  0.628260  0.618963  0.373723  1
  Ac  Ac2  1  0.872292  0.870583  0.627818  1
  Ac  Ac3  1  0.627818  0.629307  0.872292  1
  Ac  Ac4  1  0.879442  0.869389  0.122713  1
  Ac  Ac5  1  0.122713  0.128456  0.879442  1
  Ac  Ac6  1  0.369982  0.375870  0.124605  1
  Ac  Ac7  1  0.124605  0.129543  0.369982  1
  Cd  Cd8  1  0.832638  0.167362  0.832638  1
  Cd  Cd9  1  0.167513  0.832487  0.167513  1
  Cd  Cd10  1  0.417475  0.082525  0.417475  1
  Si  Si11  1  0.660117  0.339883  0.660117  1
  Si  Si12  1  0.340320  0.659680  0.340320  1
  Si  Si13  1  0.591632  0.908368  0.591632  1
  Si  Si14  1  0.918756  0.581244  0.918756  1
  Si  Si15  1  0.337578  0.660193  0.822119  1
  Si  Si16  1  0.181109  0.821976  0.659290  1
  Si  Si17  1  0.822119  0.180108  0.337578  1
  Si  Si18  1  0.659290  0.337623  0.181109  1
  Si  Si19  1  0.918789  0.583105  0.412133  1
  Si  Si20  1  0.064765  0.431799  0.593382  1
  Si  Si21  1  0.412133  0.085973  0.918789  1
  Si  Si22  1  0.593382  0.910054  0.064765  1
  Pt  Pt23  1  0.083549  0.416451  0.083549  1
