# generated using pymatgen
data_Li4Ac2ThPb4
_symmetry_space_group_name_H-M   'P 1'
_cell_length_a   4.97188391
_cell_length_b   7.30974683
_cell_length_c   9.16491700
_cell_angle_alpha   113.50253219
_cell_angle_beta   105.73839315
_cell_angle_gamma   90.00000037
_symmetry_Int_Tables_number   1
_chemical_formula_structural   Li4Ac2ThPb4
_chemical_formula_sum   'Li4 Ac2 Th1 Pb4'
_cell_volume   291.78347824
_cell_formula_units_Z   1
loop_
 _symmetry_equiv_pos_site_id
 _symmetry_equiv_pos_as_xyz
  1  'x, y, z'
loop_
 _atom_site_type_symbol
 _atom_site_label
 _atom_site_symmetry_multiplicity
 _atom_site_fract_x
 _atom_site_fract_y
 _atom_site_fract_z
 _atom_site_occupancy
  Li  Li0  1  0.671249  0.983391  0.342498  1
  Li  Li1  1  0.328751  0.016609  0.657502  1
  Li  Li2  1  0.328751  0.640894  0.657502  1
  Li  Li3  1  0.671249  0.359106  0.342498  1
  Ac  Ac4  1  0.130708  0.630708  0.261413  1
  Ac  Ac5  1  0.869292  0.369292  0.738587  1
  Th  Th6  1  0.000000  0.000000  0.000000  1
  Pb  Pb7  1  0.500000  0.711798  0.000000  1
  Pb  Pb8  1  0.500000  0.288202  0.000000  1
  Pb  Pb9  1  0.790804  0.790804  0.581606  1
  Pb  Pb10  1  0.209196  0.209196  0.418394  1
