# generated using pymatgen
data_Tb16InAg3IrRh3
_symmetry_space_group_name_H-M   'P 1'
_cell_length_a   9.57201908
_cell_length_b   9.64660122
_cell_length_c   9.61013300
_cell_angle_alpha   60.12498704
_cell_angle_beta   59.86820567
_cell_angle_gamma   60.05162167
_symmetry_Int_Tables_number   1
_chemical_formula_structural   Tb16InAg3IrRh3
_chemical_formula_sum   'Tb16 In1 Ag3 Ir1 Rh3'
_cell_volume   627.67482503
_cell_formula_units_Z   1
loop_
 _symmetry_equiv_pos_site_id
 _symmetry_equiv_pos_as_xyz
  1  'x, y, z'
loop_
 _atom_site_type_symbol
 _atom_site_label
 _atom_site_symmetry_multiplicity
 _atom_site_fract_x
 _atom_site_fract_y
 _atom_site_fract_z
 _atom_site_occupancy
  Tb  Tb0  1  0.811572  0.808684  0.189872  1
  Tb  Tb1  1  0.810882  0.190677  0.808595  1
  Tb  Tb2  1  0.187984  0.189303  0.811356  1
  Tb  Tb3  1  0.649365  0.052733  0.648950  1
  Tb  Tb4  1  0.067404  0.060918  0.435839  1
  Tb  Tb5  1  0.440147  0.435835  0.062009  1
  Tb  Tb6  1  0.649441  0.649261  0.649493  1
  Tb  Tb7  1  0.810882  0.190677  0.189846  1
  Tb  Tb8  1  0.188132  0.812405  0.811314  1
  Tb  Tb9  1  0.054571  0.647436  0.648997  1
  Tb  Tb10  1  0.437649  0.062599  0.063260  1
  Tb  Tb11  1  0.437649  0.062599  0.436492  1
  Tb  Tb12  1  0.067173  0.435494  0.060278  1
  Tb  Tb13  1  0.649441  0.649261  0.051804  1
  Tb  Tb14  1  0.188132  0.812405  0.188150  1
  Tb  Tb15  1  0.067173  0.435494  0.437056  1
  In  In16  1  0.736917  0.420694  0.421194  1
  Ag  Ag17  1  0.416230  0.417583  0.418166  1
  Ag  Ag18  1  0.416230  0.417583  0.748021  1
  Ag  Ag19  1  0.415912  0.748533  0.417777  1
  Ir  Ir20  1  0.856176  0.427498  0.858163  1
  Rh  Rh21  1  0.856898  0.857445  0.858435  1
  Rh  Rh22  1  0.856898  0.857445  0.427223  1
  Rh  Rh23  1  0.427144  0.857438  0.857709  1
