# generated using pymatgen
data_ScU3Se20
_symmetry_space_group_name_H-M   'P 1'
_cell_length_a   3.99045556
_cell_length_b   9.18769045
_cell_length_c   18.04170965
_cell_angle_alpha   89.84432848
_cell_angle_beta   90.04227626
_cell_angle_gamma   90.09062921
_symmetry_Int_Tables_number   1
_chemical_formula_structural   ScU3Se20
_chemical_formula_sum   'Sc1 U3 Se20'
_cell_volume   661.46102549
_cell_formula_units_Z   1
loop_
 _symmetry_equiv_pos_site_id
 _symmetry_equiv_pos_as_xyz
  1  'x, y, z'
loop_
 _atom_site_type_symbol
 _atom_site_label
 _atom_site_symmetry_multiplicity
 _atom_site_fract_x
 _atom_site_fract_y
 _atom_site_fract_z
 _atom_site_occupancy
  Sc  Sc0  1  0.363811  0.248053  0.599695  1
  U  U1  1  0.631956  0.748867  0.421360  1
  U  U2  1  0.884163  0.745810  0.908129  1
  U  U3  1  0.120350  0.244114  0.090290  1
  Se  Se4  1  0.615770  0.435582  0.161514  1
  Se  Se5  1  0.370394  0.763714  0.026633  1
  Se  Se6  1  0.146225  0.751587  0.528796  1
  Se  Se7  1  0.132107  0.935346  0.346341  1
  Se  Se8  1  0.065267  0.993315  0.000168  1
  Se  Se9  1  0.608294  0.755150  0.754846  1
  Se  Se10  1  0.632912  0.264178  0.972034  1
  Se  Se11  1  0.077058  0.249766  0.737519  1
  Se  Se12  1  0.502374  0.459166  0.490603  1
  Se  Se13  1  0.494946  0.038249  0.490185  1
  Se  Se14  1  0.389721  0.563257  0.833223  1
  Se  Se15  1  0.935193  0.493989  0.999423  1
  Se  Se16  1  0.131900  0.562930  0.346181  1
  Se  Se17  1  0.390798  0.938311  0.837930  1
  Se  Se18  1  0.862644  0.062837  0.657367  1
  Se  Se19  1  0.888987  0.749338  0.266985  1
  Se  Se20  1  0.614357  0.059332  0.165154  1
  Se  Se21  1  0.865181  0.433650  0.654794  1
  Se  Se22  1  0.878184  0.248845  0.467420  1
  Se  Se23  1  0.397408  0.249407  0.243407  1
