# generated using pymatgen
data_HoTmFe2(P3Rh4)2
_symmetry_space_group_name_H-M   'P 1'
_cell_length_a   3.84358700
_cell_length_b   10.72630700
_cell_length_c   12.39909200
_cell_angle_alpha   90.00000000
_cell_angle_beta   90.00000000
_cell_angle_gamma   90.00000000
_symmetry_Int_Tables_number   1
_chemical_formula_structural   HoTmFe2(P3Rh4)2
_chemical_formula_sum   'Ho2 Tm2 Fe4 P12 Rh16'
_cell_volume   511.18349281
_cell_formula_units_Z   2
loop_
 _symmetry_equiv_pos_site_id
 _symmetry_equiv_pos_as_xyz
  1  'x, y, z'
loop_
 _atom_site_type_symbol
 _atom_site_label
 _atom_site_symmetry_multiplicity
 _atom_site_fract_x
 _atom_site_fract_y
 _atom_site_fract_z
 _atom_site_occupancy
  Ho  Ho0  1  0.750000  0.417461  0.290736  1
  Ho  Ho1  1  0.750000  0.082539  0.790736  1
  Tm  Tm2  1  0.250000  0.582551  0.709261  1
  Tm  Tm3  1  0.250000  0.917449  0.209261  1
  Fe  Fe4  1  0.250000  0.461893  0.933204  1
  Fe  Fe5  1  0.250000  0.038107  0.433204  1
  Fe  Fe6  1  0.750000  0.538208  0.066652  1
  Fe  Fe7  1  0.750000  0.961792  0.566652  1
  P  P8  1  0.250000  0.429747  0.106090  1
  P  P9  1  0.250000  0.070253  0.606090  1
  P  P10  1  0.750000  0.570341  0.893707  1
  P  P11  1  0.750000  0.929659  0.393707  1
  P  P12  1  0.250000  0.270333  0.870267  1
  P  P13  1  0.250000  0.229667  0.370267  1
  P  P14  1  0.750000  0.729915  0.129865  1
  P  P15  1  0.750000  0.770085  0.629865  1
  P  P16  1  0.250000  0.600674  0.388536  1
  P  P17  1  0.250000  0.899326  0.888536  1
  P  P18  1  0.750000  0.399536  0.611556  1
  P  P19  1  0.750000  0.100464  0.111556  1
  Rh  Rh20  1  0.250000  0.715668  0.989418  1
  Rh  Rh21  1  0.250000  0.784332  0.489418  1
  Rh  Rh22  1  0.750000  0.284334  0.010602  1
  Rh  Rh23  1  0.750000  0.215666  0.510602  1
  Rh  Rh24  1  0.250000  0.408372  0.479393  1
  Rh  Rh25  1  0.250000  0.091628  0.979393  1
  Rh  Rh26  1  0.750000  0.591607  0.521060  1
  Rh  Rh27  1  0.750000  0.908393  0.021060  1
  Rh  Rh28  1  0.250000  0.230875  0.176058  1
  Rh  Rh29  1  0.250000  0.269125  0.676058  1
  Rh  Rh30  1  0.750000  0.768782  0.823781  1
  Rh  Rh31  1  0.750000  0.731218  0.323781  1
  Rh  Rh32  1  0.250000  0.882296  0.700384  1
  Rh  Rh33  1  0.250000  0.617704  0.200384  1
  Rh  Rh34  1  0.750000  0.117292  0.299431  1
  Rh  Rh35  1  0.750000  0.382708  0.799431  1
