# generated using pymatgen
data_Y4Ho3Er(B6Os)4
_symmetry_space_group_name_H-M   'P 1'
_cell_length_a   3.64987200
_cell_length_b   9.14684008
_cell_length_c   11.53176900
_cell_angle_alpha   90.00711325
_cell_angle_beta   90.00000000
_cell_angle_gamma   90.00000000
_symmetry_Int_Tables_number   1
_chemical_formula_structural   Y4Ho3Er(B6Os)4
_chemical_formula_sum   'Y4 Ho3 Er1 B24 Os4'
_cell_volume   384.98574692
_cell_formula_units_Z   1
loop_
 _symmetry_equiv_pos_site_id
 _symmetry_equiv_pos_as_xyz
  1  'x, y, z'
loop_
 _atom_site_type_symbol
 _atom_site_label
 _atom_site_symmetry_multiplicity
 _atom_site_fract_x
 _atom_site_fract_y
 _atom_site_fract_z
 _atom_site_occupancy
  Y  Y0  1  0.000000  0.322283  0.413944  1
  Y  Y1  1  0.000000  0.677768  0.586201  1
  Y  Y2  1  0.000000  0.822153  0.085975  1
  Y  Y3  1  0.000000  0.177865  0.913849  1
  Ho  Ho4  1  0.000000  0.944212  0.372867  1
  Ho  Ho5  1  0.000000  0.055792  0.627237  1
  Ho  Ho6  1  0.000000  0.444257  0.126958  1
  Er  Er7  1  0.000000  0.555794  0.872824  1
  B  B8  1  0.500000  0.554285  0.432822  1
  B  B9  1  0.500000  0.445805  0.567318  1
  B  B10  1  0.500000  0.054239  0.067144  1
  B  B11  1  0.500000  0.945570  0.932773  1
  B  B12  1  0.500000  0.748484  0.419594  1
  B  B13  1  0.500000  0.251577  0.580489  1
  B  B14  1  0.500000  0.248549  0.080347  1
  B  B15  1  0.500000  0.751140  0.919549  1
  B  B16  1  0.500000  0.791396  0.266518  1
  B  B17  1  0.500000  0.208733  0.733532  1
  B  B18  1  0.500000  0.291437  0.233407  1
  B  B19  1  0.500000  0.708261  0.766647  1
  B  B20  1  0.500000  0.631756  0.185116  1
  B  B21  1  0.500000  0.368536  0.814951  1
  B  B22  1  0.500000  0.131800  0.314789  1
  B  B23  1  0.500000  0.868110  0.685263  1
  B  B24  1  0.500000  0.983692  0.213278  1
  B  B25  1  0.500000  0.016196  0.786749  1
  B  B26  1  0.500000  0.483678  0.286666  1
  B  B27  1  0.500000  0.516516  0.713560  1
  B  B28  1  0.500000  0.606938  0.029199  1
  B  B29  1  0.500000  0.393318  0.970243  1
  B  B30  1  0.500000  0.107257  0.470458  1
  B  B31  1  0.500000  0.892734  0.529630  1
  Os  Os32  1  0.000000  0.637920  0.320927  1
  Os  Os33  1  0.000000  0.362304  0.679230  1
  Os  Os34  1  0.000000  0.137971  0.178942  1
  Os  Os35  1  0.000000  0.861674  0.821005  1
