# generated using pymatgen
data_NaYbMoH9
_symmetry_space_group_name_H-M   'P 1'
_cell_length_a   8.63536300
_cell_length_b   8.63536212
_cell_length_c   5.22866700
_cell_angle_alpha   90.00000000
_cell_angle_beta   90.00000000
_cell_angle_gamma   119.99999955
_symmetry_Int_Tables_number   1
_chemical_formula_structural   NaYbMoH9
_chemical_formula_sum   'Na3 Yb3 Mo3 H27'
_cell_volume   337.66245209
_cell_formula_units_Z   3
loop_
 _symmetry_equiv_pos_site_id
 _symmetry_equiv_pos_as_xyz
  1  'x, y, z'
loop_
 _atom_site_type_symbol
 _atom_site_label
 _atom_site_symmetry_multiplicity
 _atom_site_fract_x
 _atom_site_fract_y
 _atom_site_fract_z
 _atom_site_occupancy
  Na  Na0  1  0.000000  0.588376  0.000000  1
  Na  Na1  1  0.411624  0.411624  0.000000  1
  Na  Na2  1  0.588376  0.000000  0.000000  1
  Yb  Yb3  1  0.000000  0.269800  0.500000  1
  Yb  Yb4  1  0.730200  0.730200  0.500000  1
  Yb  Yb5  1  0.269800  0.000000  0.500000  1
  Mo  Mo6  1  0.666667  0.333333  0.500000  1
  Mo  Mo7  1  0.333333  0.666667  0.500000  1
  Mo  Mo8  1  0.000000  0.000000  0.000000  1
  H  H9  1  0.810158  0.332830  0.741720  1
  H  H10  1  0.667170  0.477327  0.741720  1
  H  H11  1  0.522673  0.189842  0.741720  1
  H  H12  1  0.189842  0.522673  0.258280  1
  H  H13  1  0.522673  0.189842  0.258280  1
  H  H14  1  0.810158  0.332830  0.258280  1
  H  H15  1  0.667170  0.477327  0.258280  1
  H  H16  1  0.332830  0.810158  0.741720  1
  H  H17  1  0.477327  0.667170  0.741720  1
  H  H18  1  0.200943  0.000000  0.000000  1
  H  H19  1  0.799057  0.799057  0.000000  1
  H  H20  1  0.000000  0.200943  0.000000  1
  H  H21  1  0.853628  0.000000  0.237767  1
  H  H22  1  0.146372  0.146372  0.762233  1
  H  H23  1  0.000000  0.853628  0.762233  1
  H  H24  1  0.000000  0.853628  0.237767  1
  H  H25  1  0.146372  0.146372  0.237767  1
  H  H26  1  0.853628  0.000000  0.762233  1
  H  H27  1  0.137101  0.673816  0.500000  1
  H  H28  1  0.536716  0.862899  0.500000  1
  H  H29  1  0.326184  0.463284  0.500000  1
  H  H30  1  0.463284  0.326184  0.500000  1
  H  H31  1  0.862899  0.536716  0.500000  1
  H  H32  1  0.673816  0.137101  0.500000  1
  H  H33  1  0.189842  0.522673  0.741720  1
  H  H34  1  0.332830  0.810158  0.258280  1
  H  H35  1  0.477327  0.667170  0.258280  1
