# generated using pymatgen
data_TaBe9VMo
_symmetry_space_group_name_H-M   'P 1'
_cell_length_a   7.34895271
_cell_length_b   7.34895219
_cell_length_c   7.34895090
_cell_angle_alpha   34.98640840
_cell_angle_beta   34.98641879
_cell_angle_gamma   34.98642075
_symmetry_Int_Tables_number   1
_chemical_formula_structural   TaBe9VMo
_chemical_formula_sum   'Ta1 Be9 V1 Mo1'
_cell_volume   116.50592123
_cell_formula_units_Z   1
loop_
 _symmetry_equiv_pos_site_id
 _symmetry_equiv_pos_as_xyz
  1  'x, y, z'
loop_
 _atom_site_type_symbol
 _atom_site_label
 _atom_site_symmetry_multiplicity
 _atom_site_fract_x
 _atom_site_fract_y
 _atom_site_fract_z
 _atom_site_occupancy
  Ta  Ta0  1  0.999259  0.999259  0.999259  1
  Be  Be1  1  0.414903  0.921544  0.414903  1
  Be  Be2  1  0.414903  0.414903  0.921544  1
  Be  Be3  1  0.921544  0.414903  0.414903  1
  Be  Be4  1  0.585577  0.077769  0.585577  1
  Be  Be5  1  0.585577  0.585577  0.077769  1
  Be  Be6  1  0.077769  0.585577  0.585577  1
  Be  Be7  1  0.666613  0.666613  0.666613  1
  Be  Be8  1  0.334793  0.334793  0.334793  1
  Be  Be9  1  0.499627  0.499627  0.499627  1
  V  V10  1  0.142862  0.142862  0.142862  1
  Mo  Mo11  1  0.856574  0.856574  0.856574  1
