# generated using pymatgen
data_Hf10Si2(SnSb)3
_symmetry_space_group_name_H-M   'P 1'
_cell_length_a   8.59681900
_cell_length_b   8.59681906
_cell_length_c   5.79613100
_cell_angle_alpha   90.00000000
_cell_angle_beta   90.00000000
_cell_angle_gamma   119.99999593
_symmetry_Int_Tables_number   1
_chemical_formula_structural   Hf10Si2(SnSb)3
_chemical_formula_sum   'Hf10 Si2 Sn3 Sb3'
_cell_volume   370.97480141
_cell_formula_units_Z   1
loop_
 _symmetry_equiv_pos_site_id
 _symmetry_equiv_pos_as_xyz
  1  'x, y, z'
loop_
 _atom_site_type_symbol
 _atom_site_label
 _atom_site_symmetry_multiplicity
 _atom_site_fract_x
 _atom_site_fract_y
 _atom_site_fract_z
 _atom_site_occupancy
  Hf  Hf0  1  0.666667  0.333333  0.997803  1
  Hf  Hf1  1  0.333333  0.666667  0.997803  1
  Hf  Hf2  1  0.333333  0.666667  0.502197  1
  Hf  Hf3  1  0.666667  0.333333  0.502197  1
  Hf  Hf4  1  0.735153  0.735153  0.750000  1
  Hf  Hf5  1  0.264847  0.000000  0.750000  1
  Hf  Hf6  1  0.000000  0.264847  0.750000  1
  Hf  Hf7  1  0.255375  0.255375  0.250000  1
  Hf  Hf8  1  0.744625  0.000000  0.250000  1
  Hf  Hf9  1  0.000000  0.744625  0.250000  1
  Si  Si10  1  0.000000  0.000000  0.509106  1
  Si  Si11  1  0.000000  0.000000  0.990894  1
  Sn  Sn12  1  0.390794  0.390794  0.750000  1
  Sn  Sn13  1  0.609206  0.000000  0.750000  1
  Sn  Sn14  1  0.000000  0.609206  0.750000  1
  Sb  Sb15  1  0.600974  0.600974  0.250000  1
  Sb  Sb16  1  0.399026  0.000000  0.250000  1
  Sb  Sb17  1  0.000000  0.399026  0.250000  1
