# generated using pymatgen
data_CaPaBr6
_symmetry_space_group_name_H-M   'P 1'
_cell_length_a   7.44199669
_cell_length_b   7.44199759
_cell_length_c   14.24557231
_cell_angle_alpha   84.26183169
_cell_angle_beta   84.26183114
_cell_angle_gamma   119.76147367
_symmetry_Int_Tables_number   1
_chemical_formula_structural   CaPaBr6
_chemical_formula_sum   'Ca2 Pa2 Br12'
_cell_volume   671.16909550
_cell_formula_units_Z   2
loop_
 _symmetry_equiv_pos_site_id
 _symmetry_equiv_pos_as_xyz
  1  'x, y, z'
loop_
 _atom_site_type_symbol
 _atom_site_label
 _atom_site_symmetry_multiplicity
 _atom_site_fract_x
 _atom_site_fract_y
 _atom_site_fract_z
 _atom_site_occupancy
  Ca  Ca0  1  0.174282  0.334539  0.998155  1
  Ca  Ca1  1  0.334539  0.174282  0.498155  1
  Pa  Pa2  1  0.667050  0.840321  0.499225  1
  Pa  Pa3  1  0.840321  0.667050  0.999225  1
  Br  Br4  1  0.562998  0.693198  0.884442  1
  Br  Br5  1  0.693198  0.562998  0.384442  1
  Br  Br6  1  0.907999  0.414003  0.882124  1
  Br  Br7  1  0.592860  0.088763  0.617011  1
  Br  Br8  1  0.414003  0.907999  0.382124  1
  Br  Br9  1  0.031078  0.188213  0.385178  1
  Br  Br10  1  0.188213  0.031078  0.885178  1
  Br  Br11  1  0.946943  0.820068  0.614112  1
  Br  Br12  1  0.088763  0.592860  0.117011  1
  Br  Br13  1  0.473567  0.324115  0.114352  1
  Br  Br14  1  0.324115  0.473567  0.614352  1
  Br  Br15  1  0.820068  0.946943  0.114112  1
