# generated using pymatgen
data_CsEr6Tm4(C2I9)2
_symmetry_space_group_name_H-M   'P 1'
_cell_length_a   11.39718338
_cell_length_b   11.40576003
_cell_length_c   11.42596827
_cell_angle_alpha   113.21922651
_cell_angle_beta   86.74387839
_cell_angle_gamma   119.99545180
_symmetry_Int_Tables_number   1
_chemical_formula_structural   CsEr6Tm4(C2I9)2
_chemical_formula_sum   'Cs1 Er6 Tm4 C4 I18'
_cell_volume   1163.66507893
_cell_formula_units_Z   1
loop_
 _symmetry_equiv_pos_site_id
 _symmetry_equiv_pos_as_xyz
  1  'x, y, z'
loop_
 _atom_site_type_symbol
 _atom_site_label
 _atom_site_symmetry_multiplicity
 _atom_site_fract_x
 _atom_site_fract_y
 _atom_site_fract_z
 _atom_site_occupancy
  Cs  Cs0  1  0.500027  0.999996  0.499971  1
  Er  Er1  1  0.907302  0.613763  0.711477  1
  Er  Er2  1  0.103257  0.945209  0.000836  1
  Er  Er3  1  0.035510  0.962803  0.678020  1
  Er  Er4  1  0.317399  0.272760  0.285241  1
  Er  Er5  1  0.724316  0.649350  0.985086  1
  Er  Er6  1  0.896836  0.055054  0.999277  1
  Tm  Tm7  1  0.683956  0.727844  0.715748  1
  Tm  Tm8  1  0.274781  0.349962  0.015475  1
  Tm  Tm9  1  0.092970  0.384485  0.287344  1
  Tm  Tm10  1  0.964618  0.037456  0.321121  1
  C  C11  1  0.150902  0.218421  0.118531  1
  C  C12  1  0.848716  0.781569  0.881480  1
  C  C13  1  0.925618  0.858767  0.804532  1
  C  C14  1  0.073930  0.141218  0.195373  1
  I  I15  1  0.451642  0.531051  0.832473  1
  I  I16  1  0.382458  0.041275  0.157876  1
  I  I17  1  0.779329  0.855902  0.502534  1
  I  I18  1  0.840065  0.309351  0.153614  1
  I  I19  1  0.547466  0.469050  0.166707  1
  I  I20  1  0.219187  0.143716  0.497024  1
  I  I21  1  0.317081  0.098253  0.830053  1
  I  I22  1  0.683816  0.903503  0.171526  1
  I  I23  1  0.973374  0.756926  0.170758  1
  I  I24  1  0.935131  0.296468  0.498199  1
  I  I25  1  0.027775  0.245062  0.830855  1
  I  I26  1  0.065640  0.702924  0.500457  1
  I  I27  1  0.258907  0.617281  0.181068  1
  I  I28  1  0.740663  0.380764  0.818634  1
  I  I29  1  0.644926  0.440133  0.504754  1
  I  I30  1  0.161151  0.691357  0.847187  1
  I  I31  1  0.617953  0.957538  0.841557  1
  I  I32  1  0.353296  0.560791  0.495211  1
