# generated using pymatgen
data_Ba8Y3Lu(WO6)4
_symmetry_space_group_name_H-M   'P 1'
_cell_length_a   8.51716906
_cell_length_b   8.51716906
_cell_length_c   8.51716906
_cell_angle_alpha   90.11810713
_cell_angle_beta   90.11810713
_cell_angle_gamma   90.11810713
_symmetry_Int_Tables_number   1
_chemical_formula_structural   Ba8Y3Lu(WO6)4
_chemical_formula_sum   'Ba8 Y3 Lu1 W4 O24'
_cell_volume   617.84997171
_cell_formula_units_Z   1
loop_
 _symmetry_equiv_pos_site_id
 _symmetry_equiv_pos_as_xyz
  1  'x, y, z'
loop_
 _atom_site_type_symbol
 _atom_site_label
 _atom_site_symmetry_multiplicity
 _atom_site_fract_x
 _atom_site_fract_y
 _atom_site_fract_z
 _atom_site_occupancy
  Ba  Ba0  1  0.497931  0.497931  0.497931  1
  Ba  Ba1  1  0.002069  0.002069  0.002069  1
  Ba  Ba2  1  0.001905  0.002647  0.496211  1
  Ba  Ba3  1  0.002647  0.496211  0.001905  1
  Ba  Ba4  1  0.496211  0.001905  0.002647  1
  Ba  Ba5  1  0.498095  0.497353  0.003789  1
  Ba  Ba6  1  0.497353  0.003789  0.498095  1
  Ba  Ba7  1  0.003789  0.498095  0.497353  1
  Y  Y8  1  0.250000  0.750000  0.750000  1
  Y  Y9  1  0.750000  0.250000  0.750000  1
  Y  Y10  1  0.750000  0.750000  0.250000  1
  Lu  Lu11  1  0.250000  0.250000  0.250000  1
  W  W12  1  0.750000  0.750000  0.750000  1
  W  W13  1  0.750000  0.250000  0.250000  1
  W  W14  1  0.250000  0.750000  0.250000  1
  W  W15  1  0.250000  0.250000  0.750000  1
  O  O16  1  0.243958  0.256574  0.508992  1
  O  O17  1  0.241618  0.743094  0.489201  1
  O  O18  1  0.756122  0.259306  0.481068  1
  O  O19  1  0.762261  0.742496  0.513206  1
  O  O20  1  0.256574  0.508992  0.243958  1
  O  O21  1  0.743094  0.489201  0.241618  1
  O  O22  1  0.259306  0.481068  0.756122  1
  O  O23  1  0.742496  0.513206  0.762261  1
  O  O24  1  0.508992  0.243958  0.256574  1
  O  O25  1  0.489201  0.241618  0.743094  1
  O  O26  1  0.481068  0.756122  0.259306  1
  O  O27  1  0.513206  0.762261  0.742496  1
  O  O28  1  0.256042  0.243426  0.991008  1
  O  O29  1  0.258382  0.756906  0.010799  1
  O  O30  1  0.743878  0.240694  0.018932  1
  O  O31  1  0.737739  0.757504  0.986794  1
  O  O32  1  0.243426  0.991008  0.256042  1
  O  O33  1  0.756906  0.010799  0.258382  1
  O  O34  1  0.240694  0.018932  0.743878  1
  O  O35  1  0.757504  0.986794  0.737739  1
  O  O36  1  0.991008  0.256042  0.243426  1
  O  O37  1  0.010799  0.258382  0.756906  1
  O  O38  1  0.018932  0.743878  0.240694  1
  O  O39  1  0.986794  0.737739  0.757504  1
