# generated using pymatgen
data_Nd3Y5(AgIr)2
_symmetry_space_group_name_H-M   'P 1'
_cell_length_a   9.68848067
_cell_length_b   9.68848141
_cell_length_c   9.68848100
_cell_angle_alpha   59.99999798
_cell_angle_beta   59.99999546
_cell_angle_gamma   60.00000146
_symmetry_Int_Tables_number   1
_chemical_formula_structural   Nd3Y5(AgIr)2
_chemical_formula_sum   'Nd6 Y10 Ag4 Ir4'
_cell_volume   643.06084162
_cell_formula_units_Z   2
loop_
 _symmetry_equiv_pos_site_id
 _symmetry_equiv_pos_as_xyz
  1  'x, y, z'
loop_
 _atom_site_type_symbol
 _atom_site_label
 _atom_site_symmetry_multiplicity
 _atom_site_fract_x
 _atom_site_fract_y
 _atom_site_fract_z
 _atom_site_occupancy
  Nd  Nd0  1  0.938901  0.561099  0.561099  1
  Nd  Nd1  1  0.561099  0.938901  0.938901  1
  Nd  Nd2  1  0.561099  0.938901  0.561099  1
  Nd  Nd3  1  0.938901  0.561099  0.938901  1
  Nd  Nd4  1  0.561099  0.561099  0.938901  1
  Nd  Nd5  1  0.938901  0.938901  0.561099  1
  Y  Y6  1  0.350940  0.350940  0.350940  1
  Y  Y7  1  0.350940  0.350940  0.947181  1
  Y  Y8  1  0.350940  0.947181  0.350940  1
  Y  Y9  1  0.947181  0.350940  0.350940  1
  Y  Y10  1  0.812969  0.187031  0.187031  1
  Y  Y11  1  0.187031  0.812969  0.812969  1
  Y  Y12  1  0.187031  0.812969  0.187031  1
  Y  Y13  1  0.812969  0.187031  0.812969  1
  Y  Y14  1  0.187031  0.187031  0.812969  1
  Y  Y15  1  0.812969  0.812969  0.187031  1
  Ag  Ag16  1  0.580133  0.580133  0.580133  1
  Ag  Ag17  1  0.580133  0.580133  0.259600  1
  Ag  Ag18  1  0.580133  0.259600  0.580133  1
  Ag  Ag19  1  0.259600  0.580133  0.580133  1
  Ir  Ir20  1  0.142144  0.142144  0.142144  1
  Ir  Ir21  1  0.142144  0.142144  0.573569  1
  Ir  Ir22  1  0.142144  0.573569  0.142144  1
  Ir  Ir23  1  0.573569  0.142144  0.142144  1
