# generated using pymatgen
data_Na3La8Tb9Sn16
_symmetry_space_group_name_H-M   'P 1'
_cell_length_a   8.05264100
_cell_length_b   8.40462412
_cell_length_c   15.88898000
_cell_angle_alpha   90.00000000
_cell_angle_beta   90.00000000
_cell_angle_gamma   89.95063002
_symmetry_Int_Tables_number   1
_chemical_formula_structural   Na3La8Tb9Sn16
_chemical_formula_sum   'Na3 La8 Tb9 Sn16'
_cell_volume   1075.35656396
_cell_formula_units_Z   1
loop_
 _symmetry_equiv_pos_site_id
 _symmetry_equiv_pos_as_xyz
  1  'x, y, z'
loop_
 _atom_site_type_symbol
 _atom_site_label
 _atom_site_symmetry_multiplicity
 _atom_site_fract_x
 _atom_site_fract_y
 _atom_site_fract_z
 _atom_site_occupancy
  Na  Na0  1  0.666790  0.003390  0.750000  1
  Na  Na1  1  0.832868  0.502819  0.250000  1
  Na  Na2  1  0.333265  0.997941  0.250000  1
  La  La3  1  0.498337  0.317059  0.902116  1
  La  La4  1  0.993123  0.176251  0.596844  1
  La  La5  1  0.506281  0.681253  0.402831  1
  La  La6  1  0.006185  0.818053  0.097051  1
  La  La7  1  0.506281  0.681253  0.097169  1
  La  La8  1  0.006185  0.818053  0.402949  1
  La  La9  1  0.498337  0.317059  0.597884  1
  La  La10  1  0.993123  0.176251  0.903156  1
  Tb  Tb11  1  0.338656  0.832919  0.873792  1
  Tb  Tb12  1  0.833843  0.673795  0.625872  1
  Tb  Tb13  1  0.662728  0.172799  0.374553  1
  Tb  Tb14  1  0.160811  0.328867  0.124720  1
  Tb  Tb15  1  0.662728  0.172799  0.125447  1
  Tb  Tb16  1  0.160811  0.328867  0.375280  1
  Tb  Tb17  1  0.338656  0.832919  0.626208  1
  Tb  Tb18  1  0.833843  0.673795  0.874128  1
  Tb  Tb19  1  0.167846  0.499600  0.750000  1
  Sn  Sn20  1  0.326810  0.040819  0.036323  1
  Sn  Sn21  1  0.825894  0.460867  0.463325  1
  Sn  Sn22  1  0.672233  0.958958  0.535952  1
  Sn  Sn23  1  0.173552  0.536386  0.958944  1
  Sn  Sn24  1  0.672233  0.958958  0.964048  1
  Sn  Sn25  1  0.173552  0.536386  0.541056  1
  Sn  Sn26  1  0.326810  0.040819  0.463677  1
  Sn  Sn27  1  0.825894  0.460867  0.036675  1
  Sn  Sn28  1  0.532588  0.611202  0.750000  1
  Sn  Sn29  1  0.034904  0.880487  0.750000  1
  Sn  Sn30  1  0.463320  0.387232  0.250000  1
  Sn  Sn31  1  0.963852  0.114356  0.250000  1
  Sn  Sn32  1  0.292385  0.140191  0.750000  1
  Sn  Sn33  1  0.802444  0.366353  0.750000  1
  Sn  Sn34  1  0.706878  0.867973  0.250000  1
  Sn  Sn35  1  0.205958  0.632402  0.250000  1
