# generated using pymatgen
data_La2Lu2Zn10SiGe
_symmetry_space_group_name_H-M   'P 1'
_cell_length_a   8.28616357
_cell_length_b   8.28616415
_cell_length_c   8.82706500
_cell_angle_alpha   90.00000000
_cell_angle_beta   90.00000000
_cell_angle_gamma   149.55149794
_symmetry_Int_Tables_number   1
_chemical_formula_structural   La2Lu2Zn10SiGe
_chemical_formula_sum   'La2 Lu2 Zn10 Si1 Ge1'
_cell_volume   307.13469107
_cell_formula_units_Z   1
loop_
 _symmetry_equiv_pos_site_id
 _symmetry_equiv_pos_as_xyz
  1  'x, y, z'
loop_
 _atom_site_type_symbol
 _atom_site_label
 _atom_site_symmetry_multiplicity
 _atom_site_fract_x
 _atom_site_fract_y
 _atom_site_fract_z
 _atom_site_occupancy
  La  La0  1  0.000074  0.999926  0.498415  1
  La  La1  1  0.000074  0.999926  0.001585  1
  Lu  Lu2  1  0.200375  0.799625  0.250000  1
  Lu  Lu3  1  0.798579  0.201421  0.750000  1
  Zn  Zn4  1  0.811072  0.188928  0.390955  1
  Zn  Zn5  1  0.188756  0.811244  0.608305  1
  Zn  Zn6  1  0.811072  0.188928  0.109045  1
  Zn  Zn7  1  0.188756  0.811244  0.891695  1
  Zn  Zn8  1  0.653486  0.346514  0.473322  1
  Zn  Zn9  1  0.344794  0.655206  0.523013  1
  Zn  Zn10  1  0.653486  0.346514  0.026678  1
  Zn  Zn11  1  0.344794  0.655206  0.976987  1
  Zn  Zn12  1  0.402411  0.597589  0.250000  1
  Zn  Zn13  1  0.601205  0.398795  0.750000  1
  Si  Si14  1  0.560021  0.439979  0.250000  1
  Ge  Ge15  1  0.441041  0.558959  0.750000  1
