# generated using pymatgen
data_Zr4NbSiSn3
_symmetry_space_group_name_H-M   'P 1'
_cell_length_a   8.62679000
_cell_length_b   8.62678888
_cell_length_c   5.82554000
_cell_angle_alpha   90.00000000
_cell_angle_beta   90.00000000
_cell_angle_gamma   120.00000429
_symmetry_Int_Tables_number   1
_chemical_formula_structural   Zr4NbSiSn3
_chemical_formula_sum   'Zr8 Nb2 Si2 Sn6'
_cell_volume   375.46131563
_cell_formula_units_Z   2
loop_
 _symmetry_equiv_pos_site_id
 _symmetry_equiv_pos_as_xyz
  1  'x, y, z'
loop_
 _atom_site_type_symbol
 _atom_site_label
 _atom_site_symmetry_multiplicity
 _atom_site_fract_x
 _atom_site_fract_y
 _atom_site_fract_z
 _atom_site_occupancy
  Zr  Zr0  1  0.333333  0.666667  0.500000  1
  Zr  Zr1  1  0.666667  0.333333  0.500000  1
  Zr  Zr2  1  0.740820  0.740820  0.749415  1
  Zr  Zr3  1  0.259180  0.000000  0.749415  1
  Zr  Zr4  1  0.000000  0.259180  0.749415  1
  Zr  Zr5  1  0.259180  0.259180  0.250585  1
  Zr  Zr6  1  0.740820  0.000000  0.250585  1
  Zr  Zr7  1  0.000000  0.740820  0.250585  1
  Nb  Nb8  1  0.666667  0.333333  0.000000  1
  Nb  Nb9  1  0.333333  0.666667  0.000000  1
  Si  Si10  1  0.000000  0.000000  0.000000  1
  Si  Si11  1  0.000000  0.000000  0.500000  1
  Sn  Sn12  1  0.395728  0.395728  0.755676  1
  Sn  Sn13  1  0.604272  0.000000  0.755676  1
  Sn  Sn14  1  0.000000  0.604272  0.755676  1
  Sn  Sn15  1  0.604272  0.604272  0.244324  1
  Sn  Sn16  1  0.395728  0.000000  0.244324  1
  Sn  Sn17  1  0.000000  0.395728  0.244324  1
