# generated using pymatgen
data_Na3Sr8Ho9Sn16
_symmetry_space_group_name_H-M   'P 1'
_cell_length_a   8.04476900
_cell_length_b   8.54659741
_cell_length_c   16.24487600
_cell_angle_alpha   90.00000000
_cell_angle_beta   90.00000000
_cell_angle_gamma   89.88107892
_symmetry_Int_Tables_number   1
_chemical_formula_structural   Na3Sr8Ho9Sn16
_chemical_formula_sum   'Na3 Sr8 Ho9 Sn16'
_cell_volume   1116.92057225
_cell_formula_units_Z   1
loop_
 _symmetry_equiv_pos_site_id
 _symmetry_equiv_pos_as_xyz
  1  'x, y, z'
loop_
 _atom_site_type_symbol
 _atom_site_label
 _atom_site_symmetry_multiplicity
 _atom_site_fract_x
 _atom_site_fract_y
 _atom_site_fract_z
 _atom_site_occupancy
  Na  Na0  1  0.337953  0.993019  0.750000  1
  Na  Na1  1  0.161851  0.491800  0.250000  1
  Na  Na2  1  0.661894  0.007243  0.250000  1
  Sr  Sr3  1  0.503813  0.680127  0.595272  1
  Sr  Sr4  1  0.007274  0.824457  0.906696  1
  Sr  Sr5  1  0.492692  0.321551  0.096646  1
  Sr  Sr6  1  0.993451  0.180891  0.403960  1
  Sr  Sr7  1  0.492692  0.321551  0.403354  1
  Sr  Sr8  1  0.993451  0.180891  0.096040  1
  Sr  Sr9  1  0.503813  0.680127  0.904728  1
  Sr  Sr10  1  0.007274  0.824457  0.593304  1
  Ho  Ho11  1  0.672821  0.163829  0.623707  1
  Ho  Ho12  1  0.176265  0.330534  0.876971  1
  Ho  Ho13  1  0.325640  0.831919  0.123208  1
  Ho  Ho14  1  0.826863  0.665884  0.376782  1
  Ho  Ho15  1  0.325640  0.831919  0.376792  1
  Ho  Ho16  1  0.826863  0.665884  0.123218  1
  Ho  Ho17  1  0.672821  0.163829  0.876293  1
  Ho  Ho18  1  0.176265  0.330534  0.623029  1
  Ho  Ho19  1  0.840380  0.506634  0.750000  1
  Sn  Sn20  1  0.661189  0.956857  0.460299  1
  Sn  Sn21  1  0.160714  0.540079  0.038565  1
  Sn  Sn22  1  0.340356  0.042571  0.960453  1
  Sn  Sn23  1  0.837428  0.461627  0.544603  1
  Sn  Sn24  1  0.340356  0.042571  0.539547  1
  Sn  Sn25  1  0.837428  0.461627  0.955397  1
  Sn  Sn26  1  0.661189  0.956857  0.039701  1
  Sn  Sn27  1  0.160714  0.540079  0.461435  1
  Sn  Sn28  1  0.476096  0.376554  0.750000  1
  Sn  Sn29  1  0.969445  0.134269  0.750000  1
  Sn  Sn30  1  0.528076  0.629430  0.250000  1
  Sn  Sn31  1  0.028302  0.870402  0.250000  1
  Sn  Sn32  1  0.723043  0.873960  0.750000  1
  Sn  Sn33  1  0.210057  0.616612  0.750000  1
  Sn  Sn34  1  0.282952  0.115395  0.250000  1
  Sn  Sn35  1  0.782942  0.384031  0.250000  1
