# generated using pymatgen
data_Ba2NiPtO6
_symmetry_space_group_name_H-M   'P 1'
_cell_length_a   5.83456200
_cell_length_b   5.83414793
_cell_length_c   14.35222895
_cell_angle_alpha   90.00963621
_cell_angle_beta   89.98645285
_cell_angle_gamma   119.99912001
_symmetry_Int_Tables_number   1
_chemical_formula_structural   Ba2NiPtO6
_chemical_formula_sum   'Ba6 Ni3 Pt3 O18'
_cell_volume   423.09658445
_cell_formula_units_Z   3
loop_
 _symmetry_equiv_pos_site_id
 _symmetry_equiv_pos_as_xyz
  1  'x, y, z'
loop_
 _atom_site_type_symbol
 _atom_site_label
 _atom_site_symmetry_multiplicity
 _atom_site_fract_x
 _atom_site_fract_y
 _atom_site_fract_z
 _atom_site_occupancy
  Ba  Ba0  1  0.000011  0.000035  0.248603  1
  Ba  Ba1  1  0.000017  0.000006  0.751309  1
  Ba  Ba2  1  0.333328  0.666693  0.089277  1
  Ba  Ba3  1  0.666711  0.333415  0.910959  1
  Ba  Ba4  1  0.333319  0.666593  0.406125  1
  Ba  Ba5  1  0.666617  0.333218  0.593780  1
  Ni  Ni6  1  0.999913  0.999814  0.000077  1
  Ni  Ni7  1  0.333141  0.666468  0.653027  1
  Ni  Ni8  1  0.666521  0.332750  0.346907  1
  Pt  Pt9  1  0.000005  0.000005  0.499950  1
  Pt  Pt10  1  0.333367  0.666721  0.841183  1
  Pt  Pt11  1  0.666700  0.333441  0.158806  1
  O  O12  1  0.513119  0.486288  0.246629  1
  O  O13  1  0.513422  0.026673  0.246512  1
  O  O14  1  0.973155  0.486345  0.246617  1
  O  O15  1  0.026863  0.513426  0.753426  1
  O  O16  1  0.486659  0.973267  0.753421  1
  O  O17  1  0.486649  0.513442  0.753445  1
  O  O18  1  0.830510  0.170181  0.081851  1
  O  O19  1  0.830339  0.660887  0.082067  1
  O  O20  1  0.339611  0.170047  0.081878  1
  O  O21  1  0.660536  0.830290  0.918157  1
  O  O22  1  0.169721  0.339411  0.918075  1
  O  O23  1  0.169644  0.830244  0.918141  1
  O  O24  1  0.840031  0.160272  0.420471  1
  O  O25  1  0.840117  0.680360  0.420147  1
  O  O26  1  0.320187  0.160262  0.420412  1
  O  O27  1  0.679950  0.839816  0.579532  1
  O  O28  1  0.159934  0.319782  0.579711  1
  O  O29  1  0.159902  0.839848  0.579504  1
