# generated using pymatgen
data_TbEu2YF10
_symmetry_space_group_name_H-M   'P 1'
_cell_length_a   8.24131575
_cell_length_b   8.24131511
_cell_length_c   5.80632489
_cell_angle_alpha   89.08805058
_cell_angle_beta   89.08803524
_cell_angle_gamma   149.42854964
_symmetry_Int_Tables_number   1
_chemical_formula_structural   TbEu2YF10
_chemical_formula_sum   'Tb1 Eu2 Y1 F10'
_cell_volume   200.21126322
_cell_formula_units_Z   1
loop_
 _symmetry_equiv_pos_site_id
 _symmetry_equiv_pos_as_xyz
  1  'x, y, z'
loop_
 _atom_site_type_symbol
 _atom_site_label
 _atom_site_symmetry_multiplicity
 _atom_site_fract_x
 _atom_site_fract_y
 _atom_site_fract_z
 _atom_site_occupancy
  Tb  Tb0  1  0.075615  0.924385  0.750000  1
  Eu  Eu1  1  0.323464  0.676536  0.750000  1
  Eu  Eu2  1  0.676611  0.323389  0.250000  1
  Y  Y3  1  0.924297  0.075703  0.250000  1
  F  F4  1  0.728295  0.806901  0.602286  1
  F  F5  1  0.806715  0.728548  0.103043  1
  F  F6  1  0.801169  0.180422  0.003017  1
  F  F7  1  0.622400  0.377600  0.750000  1
  F  F8  1  0.819578  0.198831  0.496983  1
  F  F9  1  0.180656  0.801084  0.502649  1
  F  F10  1  0.377734  0.622266  0.250000  1
  F  F11  1  0.198916  0.819344  0.997351  1
  F  F12  1  0.193099  0.271705  0.897714  1
  F  F13  1  0.271452  0.193285  0.396957  1
