# generated using pymatgen
data_Lu3Sc7Si5Te
_symmetry_space_group_name_H-M   'P 1'
_cell_length_a   8.11070600
_cell_length_b   8.14308869
_cell_length_c   5.93279200
_cell_angle_alpha   90.00000000
_cell_angle_beta   90.00000000
_cell_angle_gamma   119.86853849
_symmetry_Int_Tables_number   1
_chemical_formula_structural   Lu3Sc7Si5Te
_chemical_formula_sum   'Lu3 Sc7 Si5 Te1'
_cell_volume   339.79060174
_cell_formula_units_Z   1
loop_
 _symmetry_equiv_pos_site_id
 _symmetry_equiv_pos_as_xyz
  1  'x, y, z'
loop_
 _atom_site_type_symbol
 _atom_site_label
 _atom_site_symmetry_multiplicity
 _atom_site_fract_x
 _atom_site_fract_y
 _atom_site_fract_z
 _atom_site_occupancy
  Lu  Lu0  1  0.755506  0.755959  0.250000  1
  Lu  Lu1  1  0.999545  0.244041  0.250000  1
  Lu  Lu2  1  0.240230  0.000000  0.250000  1
  Sc  Sc3  1  0.675749  0.345609  0.001845  1
  Sc  Sc4  1  0.330139  0.654391  0.498155  1
  Sc  Sc5  1  0.330139  0.654391  0.001845  1
  Sc  Sc6  1  0.675749  0.345609  0.498155  1
  Sc  Sc7  1  0.766667  0.000000  0.750000  1
  Sc  Sc8  1  0.984442  0.742561  0.750000  1
  Sc  Sc9  1  0.241881  0.257439  0.750000  1
  Si  Si10  1  0.398821  0.395613  0.250000  1
  Si  Si11  1  0.003207  0.604387  0.250000  1
  Si  Si12  1  0.998762  0.393627  0.750000  1
  Si  Si13  1  0.605135  0.606373  0.750000  1
  Si  Si14  1  0.603330  0.000000  0.250000  1
  Te  Te15  1  0.390699  0.000000  0.750000  1
