# generated using pymatgen
data_La3Y(Ga5Pd3)2
_symmetry_space_group_name_H-M   'P 1'
_cell_length_a   8.74645057
_cell_length_b   8.74471273
_cell_length_c   8.74471300
_cell_angle_alpha   140.64524371
_cell_angle_beta   107.86880139
_cell_angle_gamma   85.40464651
_symmetry_Int_Tables_number   1
_chemical_formula_structural   La3Y(Ga5Pd3)2
_chemical_formula_sum   'La3 Y1 Ga10 Pd6'
_cell_volume   389.74383882
_cell_formula_units_Z   1
loop_
 _symmetry_equiv_pos_site_id
 _symmetry_equiv_pos_as_xyz
  1  'x, y, z'
loop_
 _atom_site_type_symbol
 _atom_site_label
 _atom_site_symmetry_multiplicity
 _atom_site_fract_x
 _atom_site_fract_y
 _atom_site_fract_z
 _atom_site_occupancy
  La  La0  1  0.636552  0.861968  0.774582  1
  La  La1  1  0.363552  0.138240  0.225312  1
  La  La2  1  0.087144  0.361618  0.725525  1
  Y  Y3  1  0.913239  0.638392  0.274846  1
  Ga  Ga4  1  0.288395  0.039200  0.748837  1
  Ga  Ga5  1  0.710870  0.957855  0.250038  1
  Ga  Ga6  1  0.710870  0.460832  0.753015  1
  Ga  Ga7  1  0.288395  0.539558  0.249194  1
  Ga  Ga8  1  0.433123  0.597089  0.836034  1
  Ga  Ga9  1  0.568633  0.404396  0.164237  1
  Ga  Ga10  1  0.762938  0.097526  0.665411  1
  Ga  Ga11  1  0.239657  0.902670  0.336988  1
  Ga  Ga12  1  0.998848  0.749623  0.747290  1
  Ga  Ga13  1  0.998848  0.251558  0.249226  1
  Pd  Pd14  1  0.239175  0.643689  0.595487  1
  Pd  Pd15  1  0.758399  0.355433  0.402965  1
  Pd  Pd16  1  0.045541  0.143961  0.901580  1
  Pd  Pd17  1  0.953932  0.855853  0.098078  1
  Pd  Pd18  1  0.500944  0.750246  0.250656  1
  Pd  Pd19  1  0.500944  0.250289  0.750698  1
