# generated using pymatgen
data_Nd10Sn3Bi4Pb
_symmetry_space_group_name_H-M   'P 1'
_cell_length_a   8.46327000
_cell_length_b   8.49008100
_cell_length_c   16.16496200
_cell_angle_alpha   90.00000000
_cell_angle_beta   90.00000000
_cell_angle_gamma   90.00000000
_symmetry_Int_Tables_number   1
_chemical_formula_structural   Nd10Sn3Bi4Pb
_chemical_formula_sum   'Nd20 Sn6 Bi8 Pb2'
_cell_volume   1161.51471964
_cell_formula_units_Z   2
loop_
 _symmetry_equiv_pos_site_id
 _symmetry_equiv_pos_as_xyz
  1  'x, y, z'
loop_
 _atom_site_type_symbol
 _atom_site_label
 _atom_site_symmetry_multiplicity
 _atom_site_fract_x
 _atom_site_fract_y
 _atom_site_fract_z
 _atom_site_occupancy
  Nd  Nd0  1  0.044250  0.173757  0.393187  1
  Nd  Nd1  1  0.383884  0.836598  0.121700  1
  Nd  Nd2  1  0.116116  0.336598  0.621700  1
  Nd  Nd3  1  0.455750  0.673757  0.893187  1
  Nd  Nd4  1  0.884401  0.665233  0.121585  1
  Nd  Nd5  1  0.116116  0.336598  0.878300  1
  Nd  Nd6  1  0.212660  0.497179  0.250000  1
  Nd  Nd7  1  0.709546  0.001658  0.250000  1
  Nd  Nd8  1  0.455750  0.673757  0.606813  1
  Nd  Nd9  1  0.287340  0.997179  0.750000  1
  Nd  Nd10  1  0.615599  0.165233  0.621585  1
  Nd  Nd11  1  0.790454  0.501658  0.750000  1
  Nd  Nd12  1  0.884401  0.665233  0.378415  1
  Nd  Nd13  1  0.044250  0.173757  0.106813  1
  Nd  Nd14  1  0.959617  0.823953  0.892405  1
  Nd  Nd15  1  0.615599  0.165233  0.878415  1
  Nd  Nd16  1  0.540383  0.323953  0.107595  1
  Nd  Nd17  1  0.383884  0.836598  0.378300  1
  Nd  Nd18  1  0.959617  0.823953  0.607595  1
  Nd  Nd19  1  0.540383  0.323953  0.392405  1
  Sn  Sn20  1  0.580846  0.623262  0.250000  1
  Sn  Sn21  1  0.418088  0.378923  0.750000  1
  Sn  Sn22  1  0.156635  0.639706  0.750000  1
  Sn  Sn23  1  0.919154  0.123262  0.750000  1
  Sn  Sn24  1  0.343365  0.139706  0.250000  1
  Sn  Sn25  1  0.081912  0.878923  0.250000  1
  Bi  Bi26  1  0.773358  0.476849  0.544213  1
  Bi  Bi27  1  0.726642  0.976849  0.455787  1
  Bi  Bi28  1  0.226069  0.524087  0.455563  1
  Bi  Bi29  1  0.273931  0.024087  0.955563  1
  Bi  Bi30  1  0.773358  0.476849  0.955787  1
  Bi  Bi31  1  0.226069  0.524087  0.044437  1
  Bi  Bi32  1  0.273931  0.024087  0.544437  1
  Bi  Bi33  1  0.726642  0.976849  0.044213  1
  Pb  Pb34  1  0.654789  0.858316  0.750000  1
  Pb  Pb35  1  0.845211  0.358316  0.250000  1
