# generated using pymatgen
data_CdHg2Ir4PbO14
_symmetry_space_group_name_H-M   'P 1'
_cell_length_a   7.29773906
_cell_length_b   7.32730850
_cell_length_c   7.25954800
_cell_angle_alpha   60.30544174
_cell_angle_beta   60.17296480
_cell_angle_gamma   60.59775903
_symmetry_Int_Tables_number   1
_chemical_formula_structural   CdHg2Ir4PbO14
_chemical_formula_sum   'Cd1 Hg2 Ir4 Pb1 O14'
_cell_volume   276.71001480
_cell_formula_units_Z   1
loop_
 _symmetry_equiv_pos_site_id
 _symmetry_equiv_pos_as_xyz
  1  'x, y, z'
loop_
 _atom_site_type_symbol
 _atom_site_label
 _atom_site_symmetry_multiplicity
 _atom_site_fract_x
 _atom_site_fract_y
 _atom_site_fract_z
 _atom_site_occupancy
  Cd  Cd0  1  0.625000  0.125000  0.125000  1
  Hg  Hg1  1  0.125000  0.125000  0.625000  1
  Hg  Hg2  1  0.125000  0.125000  0.125000  1
  Ir  Ir3  1  0.125000  0.625000  0.625000  1
  Ir  Ir4  1  0.625000  0.125000  0.625000  1
  Ir  Ir5  1  0.625000  0.625000  0.125000  1
  Ir  Ir6  1  0.625000  0.625000  0.625000  1
  Pb  Pb7  1  0.125000  0.625000  0.125000  1
  O  O8  1  0.708499  0.695469  0.298016  1
  O  O9  1  0.305562  0.308575  0.692931  1
  O  O10  1  0.690035  0.306252  0.701820  1
  O  O11  1  0.300800  0.690342  0.299323  1
  O  O12  1  0.300800  0.690342  0.709535  1
  O  O13  1  0.690035  0.306252  0.301893  1
  O  O14  1  0.541501  0.554531  0.951984  1
  O  O15  1  0.944438  0.941425  0.557069  1
  O  O16  1  0.559965  0.943748  0.548180  1
  O  O17  1  0.949200  0.559658  0.950677  1
  O  O18  1  0.949200  0.559658  0.540465  1
  O  O19  1  0.559965  0.943748  0.948107  1
  O  O20  1  0.250808  0.231751  0.258720  1
  O  O21  1  0.999192  0.018249  0.991280  1
