# generated using pymatgen
data_Li3As3Pd10
_symmetry_space_group_name_H-M   'P 1'
_cell_length_a   4.11726500
_cell_length_b   5.46614911
_cell_length_c   10.57264785
_cell_angle_alpha   90.07066791
_cell_angle_beta   90.00000000
_cell_angle_gamma   90.00000000
_symmetry_Int_Tables_number   1
_chemical_formula_structural   Li3As3Pd10
_chemical_formula_sum   'Li3 As3 Pd10'
_cell_volume   237.94343769
_cell_formula_units_Z   1
loop_
 _symmetry_equiv_pos_site_id
 _symmetry_equiv_pos_as_xyz
  1  'x, y, z'
loop_
 _atom_site_type_symbol
 _atom_site_label
 _atom_site_symmetry_multiplicity
 _atom_site_fract_x
 _atom_site_fract_y
 _atom_site_fract_z
 _atom_site_occupancy
  Li  Li0  1  0.000000  0.836168  0.643986  1
  Li  Li1  1  0.000000  0.339545  0.853436  1
  Li  Li2  1  0.000000  0.146821  0.362028  1
  As  As3  1  0.500000  0.507465  0.508847  1
  As  As4  1  0.500000  0.047602  0.981246  1
  As  As5  1  0.000000  0.631707  0.158374  1
  Pd  Pd6  1  0.000000  0.823177  0.895773  1
  Pd  Pd7  1  0.000000  0.679467  0.396056  1
  Pd  Pd8  1  0.000000  0.314364  0.604671  1
  Pd  Pd9  1  0.500000  0.896978  0.218964  1
  Pd  Pd10  1  0.500000  0.392327  0.277680  1
  Pd  Pd11  1  0.500000  0.587546  0.741702  1
  Pd  Pd12  1  0.500000  0.085819  0.750715  1
  Pd  Pd13  1  0.500000  0.523305  0.007590  1
  Pd  Pd14  1  0.500000  0.997261  0.493831  1
  Pd  Pd15  1  0.000000  0.190449  0.105102  1
