# generated using pymatgen
data_TmTh3(CuSi)4
_symmetry_space_group_name_H-M   'P 1'
_cell_length_a   4.13814200
_cell_length_b   4.13814142
_cell_length_c   15.88410700
_cell_angle_alpha   90.00000000
_cell_angle_beta   90.00000000
_cell_angle_gamma   119.99998868
_symmetry_Int_Tables_number   1
_chemical_formula_structural   TmTh3(CuSi)4
_chemical_formula_sum   'Tm1 Th3 Cu4 Si4'
_cell_volume   235.56144117
_cell_formula_units_Z   1
loop_
 _symmetry_equiv_pos_site_id
 _symmetry_equiv_pos_as_xyz
  1  'x, y, z'
loop_
 _atom_site_type_symbol
 _atom_site_label
 _atom_site_symmetry_multiplicity
 _atom_site_fract_x
 _atom_site_fract_y
 _atom_site_fract_z
 _atom_site_occupancy
  Tm  Tm0  1  0.000000  0.000000  0.750000  1
  Th  Th1  1  0.000000  0.000000  0.250000  1
  Th  Th2  1  0.000000  0.000000  0.991664  1
  Th  Th3  1  0.000000  0.000000  0.508336  1
  Cu  Cu4  1  0.333333  0.666667  0.124108  1
  Cu  Cu5  1  0.666667  0.333333  0.854604  1
  Cu  Cu6  1  0.666667  0.333333  0.645396  1
  Cu  Cu7  1  0.333333  0.666667  0.375892  1
  Si  Si8  1  0.333333  0.666667  0.628203  1
  Si  Si9  1  0.666667  0.333333  0.379091  1
  Si  Si10  1  0.666667  0.333333  0.120909  1
  Si  Si11  1  0.333333  0.666667  0.871797  1
