# generated using pymatgen
data_Tm3Lu2Bi2Os
_symmetry_space_group_name_H-M   'P 1'
_cell_length_a   7.87100000
_cell_length_b   8.97238800
_cell_length_c   12.45886600
_cell_angle_alpha   90.00000000
_cell_angle_beta   90.00000000
_cell_angle_gamma   90.00000000
_symmetry_Int_Tables_number   1
_chemical_formula_structural   Tm3Lu2Bi2Os
_chemical_formula_sum   'Tm12 Lu8 Bi8 Os4'
_cell_volume   879.86587274
_cell_formula_units_Z   4
loop_
 _symmetry_equiv_pos_site_id
 _symmetry_equiv_pos_as_xyz
  1  'x, y, z'
loop_
 _atom_site_type_symbol
 _atom_site_label
 _atom_site_symmetry_multiplicity
 _atom_site_fract_x
 _atom_site_fract_y
 _atom_site_fract_z
 _atom_site_occupancy
  Tm  Tm0  1  0.838321  0.750000  0.791959  1
  Tm  Tm1  1  0.161679  0.250000  0.208041  1
  Tm  Tm2  1  0.338321  0.250000  0.708041  1
  Tm  Tm3  1  0.661679  0.750000  0.291959  1
  Tm  Tm4  1  0.375568  0.750000  0.687029  1
  Tm  Tm5  1  0.624432  0.250000  0.312971  1
  Tm  Tm6  1  0.875568  0.250000  0.812971  1
  Tm  Tm7  1  0.124432  0.750000  0.187029  1
  Tm  Tm8  1  0.939744  0.750000  0.504903  1
  Tm  Tm9  1  0.060256  0.250000  0.495097  1
  Tm  Tm10  1  0.439744  0.250000  0.995097  1
  Tm  Tm11  1  0.560256  0.750000  0.004903  1
  Lu  Lu12  1  0.669675  0.041695  0.565382  1
  Lu  Lu13  1  0.330325  0.958305  0.434618  1
  Lu  Lu14  1  0.169675  0.958305  0.934618  1
  Lu  Lu15  1  0.330325  0.541695  0.434618  1
  Lu  Lu16  1  0.830325  0.041695  0.065382  1
  Lu  Lu17  1  0.669675  0.458305  0.565382  1
  Lu  Lu18  1  0.830325  0.458305  0.065382  1
  Lu  Lu19  1  0.169675  0.541695  0.934618  1
  Bi  Bi20  1  0.562480  0.494203  0.827879  1
  Bi  Bi21  1  0.437520  0.505797  0.172121  1
  Bi  Bi22  1  0.062480  0.505797  0.672121  1
  Bi  Bi23  1  0.437520  0.994203  0.172121  1
  Bi  Bi24  1  0.937520  0.494203  0.327879  1
  Bi  Bi25  1  0.562480  0.005797  0.827879  1
  Bi  Bi26  1  0.937520  0.005797  0.327879  1
  Bi  Bi27  1  0.062480  0.994203  0.672121  1
  Os  Os28  1  0.573229  0.750000  0.507259  1
  Os  Os29  1  0.426771  0.250000  0.492741  1
  Os  Os30  1  0.073229  0.250000  0.992741  1
  Os  Os31  1  0.926771  0.750000  0.007259  1
