# generated using pymatgen
data_Be3Nb2Si
_symmetry_space_group_name_H-M   'P 1'
_cell_length_a   4.66790498
_cell_length_b   4.70211926
_cell_length_c   4.66790600
_cell_angle_alpha   60.24040220
_cell_angle_beta   59.99999277
_cell_angle_gamma   60.24040459
_symmetry_Int_Tables_number   1
_chemical_formula_structural   Be3Nb2Si
_chemical_formula_sum   'Be3 Nb2 Si1'
_cell_volume   72.70952394
_cell_formula_units_Z   1
loop_
 _symmetry_equiv_pos_site_id
 _symmetry_equiv_pos_as_xyz
  1  'x, y, z'
loop_
 _atom_site_type_symbol
 _atom_site_label
 _atom_site_symmetry_multiplicity
 _atom_site_fract_x
 _atom_site_fract_y
 _atom_site_fract_z
 _atom_site_occupancy
  Be  Be0  1  0.125000  0.125000  0.125000  1
  Be  Be1  1  0.625000  0.125000  0.125000  1
  Be  Be2  1  0.125000  0.125000  0.625000  1
  Nb  Nb3  1  0.499554  0.501338  0.499554  1
  Nb  Nb4  1  0.750446  0.748662  0.750446  1
  Si  Si5  1  0.125000  0.625000  0.125000  1
