# generated using pymatgen
data_Dy3Hf2Zr5(Si5Ir2)4
_symmetry_space_group_name_H-M   'P 1'
_cell_length_a   12.46812730
_cell_length_b   12.46812693
_cell_length_c   4.13615900
_cell_angle_alpha   90.00000000
_cell_angle_beta   90.00000000
_cell_angle_gamma   90.25991957
_symmetry_Int_Tables_number   1
_chemical_formula_structural   Dy3Hf2Zr5(Si5Ir2)4
_chemical_formula_sum   'Dy3 Hf2 Zr5 Si20 Ir8'
_cell_volume   642.97664641
_cell_formula_units_Z   1
loop_
 _symmetry_equiv_pos_site_id
 _symmetry_equiv_pos_as_xyz
  1  'x, y, z'
loop_
 _atom_site_type_symbol
 _atom_site_label
 _atom_site_symmetry_multiplicity
 _atom_site_fract_x
 _atom_site_fract_y
 _atom_site_fract_z
 _atom_site_occupancy
  Dy  Dy0  1  0.114905  0.614905  0.500000  1
  Dy  Dy1  1  0.384044  0.116204  0.500000  1
  Dy  Dy2  1  0.616204  0.884044  0.500000  1
  Hf  Hf3  1  0.173518  0.324571  0.500000  1
  Hf  Hf4  1  0.824571  0.673518  0.500000  1
  Zr  Zr5  1  0.499799  0.500504  0.000000  1
  Zr  Zr6  1  0.000504  0.999799  0.000000  1
  Zr  Zr7  1  0.678040  0.178040  0.500000  1
  Zr  Zr8  1  0.324268  0.824268  0.500000  1
  Zr  Zr9  1  0.883236  0.383236  0.500000  1
  Si  Si10  1  0.567804  0.067804  0.000000  1
  Si  Si11  1  0.433374  0.933374  0.000000  1
  Si  Si12  1  0.064977  0.432835  0.000000  1
  Si  Si13  1  0.932835  0.564977  0.000000  1
  Si  Si14  1  0.664866  0.699175  0.000000  1
  Si  Si15  1  0.335322  0.300104  0.000000  1
  Si  Si16  1  0.163964  0.799782  0.000000  1
  Si  Si17  1  0.837322  0.201885  0.000000  1
  Si  Si18  1  0.299782  0.663964  0.000000  1
  Si  Si19  1  0.701885  0.337322  0.000000  1
  Si  Si20  1  0.199175  0.164866  0.000000  1
  Si  Si21  1  0.800104  0.835322  0.000000  1
  Si  Si22  1  0.653855  0.504599  0.500000  1
  Si  Si23  1  0.346686  0.492173  0.500000  1
  Si  Si24  1  0.152995  0.993704  0.500000  1
  Si  Si25  1  0.847588  0.006576  0.500000  1
  Si  Si26  1  0.493704  0.652995  0.500000  1
  Si  Si27  1  0.506576  0.347588  0.500000  1
  Si  Si28  1  0.004599  0.153855  0.500000  1
  Si  Si29  1  0.992173  0.846686  0.500000  1
  Ir  Ir30  1  0.745313  0.521516  0.000000  1
  Ir  Ir31  1  0.254915  0.477256  0.000000  1
  Ir  Ir32  1  0.243409  0.979517  0.000000  1
  Ir  Ir33  1  0.757429  0.021969  0.000000  1
  Ir  Ir34  1  0.479517  0.743409  0.000000  1
  Ir  Ir35  1  0.521969  0.257429  0.000000  1
  Ir  Ir36  1  0.021516  0.245313  0.000000  1
  Ir  Ir37  1  0.977256  0.754915  0.000000  1
