# generated using pymatgen
data_YbGd4Ho3(B6Os)4
_symmetry_space_group_name_H-M   'P 1'
_cell_length_a   3.66481900
_cell_length_b   9.16038101
_cell_length_c   11.54680401
_cell_angle_alpha   89.99547309
_cell_angle_beta   90.00000000
_cell_angle_gamma   90.00000000
_symmetry_Int_Tables_number   1
_chemical_formula_structural   YbGd4Ho3(B6Os)4
_chemical_formula_sum   'Yb1 Gd4 Ho3 B24 Os4'
_cell_volume   387.63935382
_cell_formula_units_Z   1
loop_
 _symmetry_equiv_pos_site_id
 _symmetry_equiv_pos_as_xyz
  1  'x, y, z'
loop_
 _atom_site_type_symbol
 _atom_site_label
 _atom_site_symmetry_multiplicity
 _atom_site_fract_x
 _atom_site_fract_y
 _atom_site_fract_z
 _atom_site_occupancy
  Yb  Yb0  1  0.000000  0.943612  0.371978  1
  Gd  Gd1  1  0.000000  0.321860  0.412939  1
  Gd  Gd2  1  0.000000  0.678332  0.584349  1
  Gd  Gd3  1  0.000000  0.823116  0.087849  1
  Gd  Gd4  1  0.000000  0.177502  0.915076  1
  Ho  Ho5  1  0.000000  0.055709  0.626216  1
  Ho  Ho6  1  0.000000  0.443752  0.127805  1
  Ho  Ho7  1  0.000000  0.556350  0.872589  1
  B  B8  1  0.500000  0.554373  0.431985  1
  B  B9  1  0.500000  0.445578  0.567723  1
  B  B10  1  0.500000  0.054290  0.068253  1
  B  B11  1  0.500000  0.945776  0.932248  1
  B  B12  1  0.500000  0.748932  0.418590  1
  B  B13  1  0.500000  0.251166  0.580614  1
  B  B14  1  0.500000  0.248415  0.081040  1
  B  B15  1  0.500000  0.751432  0.919107  1
  B  B16  1  0.500000  0.791416  0.267200  1
  B  B17  1  0.500000  0.208831  0.733218  1
  B  B18  1  0.500000  0.290361  0.233266  1
  B  B19  1  0.500000  0.709174  0.766504  1
  B  B20  1  0.500000  0.631714  0.185983  1
  B  B21  1  0.500000  0.368474  0.814693  1
  B  B22  1  0.500000  0.130649  0.314525  1
  B  B23  1  0.500000  0.868218  0.684792  1
  B  B24  1  0.500000  0.983945  0.213832  1
  B  B25  1  0.500000  0.016087  0.786568  1
  B  B26  1  0.500000  0.483855  0.287035  1
  B  B27  1  0.500000  0.516161  0.713161  1
  B  B28  1  0.500000  0.606658  0.029374  1
  B  B29  1  0.500000  0.393467  0.970488  1
  B  B30  1  0.500000  0.105919  0.470907  1
  B  B31  1  0.500000  0.894151  0.529433  1
  Os  Os32  1  0.000000  0.638258  0.320662  1
  Os  Os33  1  0.000000  0.361861  0.679762  1
  Os  Os34  1  0.000000  0.138575  0.179092  1
  Os  Os35  1  0.000000  0.862032  0.821144  1
