# generated using pymatgen
data_Ho5Tm3(ReB6)4
_symmetry_space_group_name_H-M   'P 1'
_cell_length_a   3.65872200
_cell_length_b   9.13193401
_cell_length_c   11.51040601
_cell_angle_alpha   90.00506845
_cell_angle_beta   90.00000000
_cell_angle_gamma   90.00000000
_symmetry_Int_Tables_number   1
_chemical_formula_structural   Ho5Tm3(ReB6)4
_chemical_formula_sum   'Ho5 Tm3 Re4 B24'
_cell_volume   384.57656630
_cell_formula_units_Z   1
loop_
 _symmetry_equiv_pos_site_id
 _symmetry_equiv_pos_as_xyz
  1  'x, y, z'
loop_
 _atom_site_type_symbol
 _atom_site_label
 _atom_site_symmetry_multiplicity
 _atom_site_fract_x
 _atom_site_fract_y
 _atom_site_fract_z
 _atom_site_occupancy
  Ho  Ho0  1  0.000000  0.323482  0.413857  1
  Ho  Ho1  1  0.000000  0.676445  0.586305  1
  Ho  Ho2  1  0.000000  0.823320  0.086004  1
  Ho  Ho3  1  0.000000  0.176668  0.913750  1
  Ho  Ho4  1  0.000000  0.943547  0.370455  1
  Tm  Tm5  1  0.000000  0.056687  0.630200  1
  Tm  Tm6  1  0.000000  0.443474  0.129603  1
  Tm  Tm7  1  0.000000  0.556568  0.870206  1
  Re  Re8  1  0.000000  0.638577  0.320465  1
  Re  Re9  1  0.000000  0.360914  0.679577  1
  Re  Re10  1  0.000000  0.139503  0.179071  1
  Re  Re11  1  0.000000  0.860819  0.820635  1
  B  B12  1  0.500000  0.553105  0.432986  1
  B  B13  1  0.500000  0.446499  0.567129  1
  B  B14  1  0.500000  0.053539  0.066819  1
  B  B15  1  0.500000  0.946547  0.932908  1
  B  B16  1  0.500000  0.749353  0.418865  1
  B  B17  1  0.500000  0.249918  0.581275  1
  B  B18  1  0.500000  0.250332  0.081021  1
  B  B19  1  0.500000  0.749799  0.918826  1
  B  B20  1  0.500000  0.792320  0.265264  1
  B  B21  1  0.500000  0.207120  0.734590  1
  B  B22  1  0.500000  0.293212  0.234374  1
  B  B23  1  0.500000  0.707036  0.765522  1
  B  B24  1  0.500000  0.630487  0.184970  1
  B  B25  1  0.500000  0.369323  0.814896  1
  B  B26  1  0.500000  0.131362  0.314530  1
  B  B27  1  0.500000  0.869241  0.685271  1
  B  B28  1  0.500000  0.982382  0.211841  1
  B  B29  1  0.500000  0.017930  0.787745  1
  B  B30  1  0.500000  0.481866  0.287584  1
  B  B31  1  0.500000  0.517982  0.712340  1
  B  B32  1  0.500000  0.599103  0.027604  1
  B  B33  1  0.500000  0.400919  0.972266  1
  B  B34  1  0.500000  0.100049  0.472806  1
  B  B35  1  0.500000  0.900573  0.528443  1
