# generated using pymatgen
data_Rb3SbO4
_symmetry_space_group_name_H-M   'P 1'
_cell_length_a   6.68461900
_cell_length_b   8.98089400
_cell_length_c   12.59898800
_cell_angle_alpha   90.00000000
_cell_angle_beta   90.00000000
_cell_angle_gamma   90.00000000
_symmetry_Int_Tables_number   1
_chemical_formula_structural   Rb3SbO4
_chemical_formula_sum   'Rb12 Sb4 O16'
_cell_volume   756.36581457
_cell_formula_units_Z   4
loop_
 _symmetry_equiv_pos_site_id
 _symmetry_equiv_pos_as_xyz
  1  'x, y, z'
loop_
 _atom_site_type_symbol
 _atom_site_label
 _atom_site_symmetry_multiplicity
 _atom_site_fract_x
 _atom_site_fract_y
 _atom_site_fract_z
 _atom_site_occupancy
  Rb  Rb0  1  0.143147  0.250000  0.072111  1
  Rb  Rb1  1  0.698696  0.491163  0.144820  1
  Rb  Rb2  1  0.856853  0.750000  0.927889  1
  Rb  Rb3  1  0.198696  0.508837  0.355180  1
  Rb  Rb4  1  0.698696  0.008837  0.144820  1
  Rb  Rb5  1  0.198696  0.991163  0.355180  1
  Rb  Rb6  1  0.643147  0.750000  0.427889  1
  Rb  Rb7  1  0.301304  0.991163  0.855180  1
  Rb  Rb8  1  0.301304  0.508837  0.855180  1
  Rb  Rb9  1  0.801304  0.008837  0.644820  1
  Rb  Rb10  1  0.801304  0.491163  0.644820  1
  Rb  Rb11  1  0.356853  0.250000  0.572111  1
  Sb  Sb12  1  0.774985  0.250000  0.385380  1
  Sb  Sb13  1  0.274985  0.750000  0.114620  1
  Sb  Sb14  1  0.225015  0.750000  0.614620  1
  Sb  Sb15  1  0.725015  0.250000  0.885380  1
  O  O16  1  0.387384  0.574942  0.610639  1
  O  O17  1  0.430549  0.750000  0.242336  1
  O  O18  1  0.887384  0.425058  0.889361  1
  O  O19  1  0.112616  0.925058  0.110639  1
  O  O20  1  0.887384  0.074942  0.889361  1
  O  O21  1  0.541004  0.250000  0.002761  1
  O  O22  1  0.041004  0.750000  0.497239  1
  O  O23  1  0.958996  0.250000  0.502761  1
  O  O24  1  0.612616  0.074942  0.389361  1
  O  O25  1  0.387384  0.925058  0.610639  1
  O  O26  1  0.458996  0.750000  0.997239  1
  O  O27  1  0.612616  0.425058  0.389361  1
  O  O28  1  0.069451  0.750000  0.742336  1
  O  O29  1  0.930549  0.250000  0.257664  1
  O  O30  1  0.569451  0.250000  0.757664  1
  O  O31  1  0.112616  0.574942  0.110639  1
