# generated using pymatgen
data_YbTh3(Ni12P5)2
_symmetry_space_group_name_H-M   'P 1'
_cell_length_a   3.69563100
_cell_length_b   10.82564320
_cell_length_c   13.12409000
_cell_angle_alpha   71.97649047
_cell_angle_beta   90.00000000
_cell_angle_gamma   90.00000000
_symmetry_Int_Tables_number   1
_chemical_formula_structural   YbTh3(Ni12P5)2
_chemical_formula_sum   'Yb1 Th3 Ni24 P10'
_cell_volume   499.29807916
_cell_formula_units_Z   1
loop_
 _symmetry_equiv_pos_site_id
 _symmetry_equiv_pos_as_xyz
  1  'x, y, z'
loop_
 _atom_site_type_symbol
 _atom_site_label
 _atom_site_symmetry_multiplicity
 _atom_site_fract_x
 _atom_site_fract_y
 _atom_site_fract_z
 _atom_site_occupancy
  Yb  Yb0  1  0.750000  0.752283  0.812414  1
  Th  Th1  1  0.250000  0.278107  0.682935  1
  Th  Th2  1  0.750000  0.720943  0.316809  1
  Th  Th3  1  0.250000  0.245141  0.188008  1
  Ni  Ni4  1  0.250000  0.837321  0.138468  1
  Ni  Ni5  1  0.750000  0.161672  0.861411  1
  Ni  Ni6  1  0.250000  0.286202  0.439064  1
  Ni  Ni7  1  0.750000  0.713749  0.560945  1
  Ni  Ni8  1  0.250000  0.070289  0.016474  1
  Ni  Ni9  1  0.750000  0.929634  0.983268  1
  Ni  Ni10  1  0.250000  0.064050  0.446068  1
  Ni  Ni11  1  0.750000  0.935469  0.554013  1
  Ni  Ni12  1  0.250000  0.598040  0.696378  1
  Ni  Ni13  1  0.750000  0.403206  0.303411  1
  Ni  Ni14  1  0.250000  0.584072  0.007415  1
  Ni  Ni15  1  0.750000  0.418276  0.991107  1
  Ni  Ni16  1  0.250000  0.579993  0.508833  1
  Ni  Ni17  1  0.750000  0.420363  0.491393  1
  Ni  Ni18  1  0.250000  0.299843  0.918295  1
  Ni  Ni19  1  0.750000  0.702873  0.081713  1
  Ni  Ni20  1  0.250000  0.993027  0.660102  1
  Ni  Ni21  1  0.750000  0.006057  0.340235  1
  Ni  Ni22  1  0.250000  0.839659  0.437318  1
  Ni  Ni23  1  0.750000  0.160026  0.563486  1
  Ni  Ni24  1  0.250000  0.986776  0.849318  1
  Ni  Ni25  1  0.750000  0.011248  0.151444  1
  Ni  Ni26  1  0.250000  0.564875  0.203306  1
  Ni  Ni27  1  0.750000  0.435431  0.796442  1
  P  P28  1  0.250000  0.511305  0.870643  1
  P  P29  1  0.750000  0.492077  0.128256  1
  P  P30  1  0.250000  0.799561  0.983263  1
  P  P31  1  0.750000  0.199905  0.016530  1
  P  P32  1  0.250000  0.493477  0.377941  1
  P  P33  1  0.750000  0.506493  0.622231  1
  P  P34  1  0.250000  0.812402  0.611518  1
  P  P35  1  0.750000  0.187609  0.389030  1
  P  P36  1  0.250000  0.952665  0.257939  1
  P  P37  1  0.750000  0.045881  0.742575  1
