# generated using pymatgen
data_Ca3Hf(Si3Ni5)4
_symmetry_space_group_name_H-M   'P 1'
_cell_length_a   3.75867100
_cell_length_b   18.62318100
_cell_length_c   6.63235312
_cell_angle_alpha   90.11716472
_cell_angle_beta   90.00000000
_cell_angle_gamma   90.00000000
_symmetry_Int_Tables_number   1
_chemical_formula_structural   Ca3Hf(Si3Ni5)4
_chemical_formula_sum   'Ca3 Hf1 Si12 Ni20'
_cell_volume   464.25320439
_cell_formula_units_Z   1
loop_
 _symmetry_equiv_pos_site_id
 _symmetry_equiv_pos_as_xyz
  1  'x, y, z'
loop_
 _atom_site_type_symbol
 _atom_site_label
 _atom_site_symmetry_multiplicity
 _atom_site_fract_x
 _atom_site_fract_y
 _atom_site_fract_z
 _atom_site_occupancy
  Ca  Ca0  1  0.250000  0.359221  0.875186  1
  Ca  Ca1  1  0.250000  0.855708  0.622838  1
  Ca  Ca2  1  0.750000  0.142447  0.377374  1
  Hf  Hf3  1  0.750000  0.643576  0.123045  1
  Si  Si4  1  0.750000  0.736288  0.622202  1
  Si  Si5  1  0.250000  0.262760  0.377990  1
  Si  Si6  1  0.250000  0.757892  0.122369  1
  Si  Si7  1  0.750000  0.238781  0.876629  1
  Si  Si8  1  0.750000  0.923965  0.341677  1
  Si  Si9  1  0.250000  0.073610  0.656280  1
  Si  Si10  1  0.250000  0.576380  0.856270  1
  Si  Si11  1  0.750000  0.425987  0.157420  1
  Si  Si12  1  0.750000  0.911800  0.921669  1
  Si  Si13  1  0.250000  0.085883  0.077777  1
  Si  Si14  1  0.250000  0.588202  0.405176  1
  Si  Si15  1  0.750000  0.418035  0.580402  1
  Ni  Ni16  1  0.750000  0.797262  0.312651  1
  Ni  Ni17  1  0.250000  0.200156  0.685734  1
  Ni  Ni18  1  0.250000  0.697523  0.820340  1
  Ni  Ni19  1  0.750000  0.300481  0.186149  1
  Ni  Ni20  1  0.750000  0.994629  0.633389  1
  Ni  Ni21  1  0.250000  0.003315  0.364647  1
  Ni  Ni22  1  0.250000  0.506290  0.134029  1
  Ni  Ni23  1  0.750000  0.497082  0.870934  1
  Ni  Ni24  1  0.750000  0.518557  0.377805  1
  Ni  Ni25  1  0.250000  0.490225  0.615367  1
  Ni  Ni26  1  0.250000  0.983425  0.885868  1
  Ni  Ni27  1  0.750000  0.014735  0.114083  1
  Ni  Ni28  1  0.750000  0.790010  0.933348  1
  Ni  Ni29  1  0.250000  0.207392  0.066661  1
  Ni  Ni30  1  0.250000  0.706182  0.429413  1
  Ni  Ni31  1  0.750000  0.295346  0.567121  1
  Ni  Ni32  1  0.750000  0.614090  0.648630  1
  Ni  Ni33  1  0.250000  0.385807  0.360454  1
  Ni  Ni34  1  0.250000  0.881139  0.141383  1
  Ni  Ni35  1  0.750000  0.115821  0.857689  1
