# generated using pymatgen
data_Er3Zr(Ta3Si4)2
_symmetry_space_group_name_H-M   'P 1'
_cell_length_a   6.98914446
_cell_length_b   6.99173835
_cell_length_c   12.92177500
_cell_angle_alpha   90.08833980
_cell_angle_beta   90.13167357
_cell_angle_gamma   90.00559068
_symmetry_Int_Tables_number   1
_chemical_formula_structural   Er3Zr(Ta3Si4)2
_chemical_formula_sum   'Er6 Zr2 Ta12 Si16'
_cell_volume   631.43651580
_cell_formula_units_Z   2
loop_
 _symmetry_equiv_pos_site_id
 _symmetry_equiv_pos_as_xyz
  1  'x, y, z'
loop_
 _atom_site_type_symbol
 _atom_site_label
 _atom_site_symmetry_multiplicity
 _atom_site_fract_x
 _atom_site_fract_y
 _atom_site_fract_z
 _atom_site_occupancy
  Er  Er0  1  0.998528  0.660020  0.030771  1
  Er  Er1  1  0.002941  0.339282  0.531908  1
  Er  Er2  1  0.659732  0.998478  0.968386  1
  Er  Er3  1  0.161244  0.502714  0.779935  1
  Er  Er4  1  0.840480  0.498710  0.282821  1
  Er  Er5  1  0.501855  0.160488  0.219661  1
  Zr  Zr6  1  0.504102  0.844690  0.717600  1
  Zr  Zr7  1  0.343012  0.995747  0.469237  1
  Ta  Ta8  1  0.345800  0.508464  0.377829  1
  Ta  Ta9  1  0.846481  0.994535  0.375682  1
  Ta  Ta10  1  0.008131  0.152913  0.126489  1
  Ta  Ta11  1  0.993036  0.847941  0.625637  1
  Ta  Ta12  1  0.650383  0.493421  0.874054  1
  Ta  Ta13  1  0.503036  0.345764  0.623681  1
  Ta  Ta14  1  0.492707  0.654091  0.124325  1
  Ta  Ta15  1  0.154439  0.004323  0.872134  1
  Ta  Ta16  1  0.667563  0.672625  0.500968  1
  Ta  Ta17  1  0.827558  0.167737  0.748835  1
  Ta  Ta18  1  0.171137  0.830508  0.251118  1
  Ta  Ta19  1  0.329780  0.329272  0.998670  1
  Si  Si20  1  0.045229  0.705885  0.437330  1
  Si  Si21  1  0.956483  0.294997  0.935680  1
  Si  Si22  1  0.700523  0.044086  0.563709  1
  Si  Si23  1  0.204098  0.456275  0.187161  1
  Si  Si24  1  0.793299  0.544922  0.686017  1
  Si  Si25  1  0.455673  0.200794  0.812541  1
  Si  Si26  1  0.543013  0.797169  0.314564  1
  Si  Si27  1  0.296495  0.956630  0.063168  1
  Si  Si28  1  0.863428  0.794569  0.817781  1
  Si  Si29  1  0.136912  0.202698  0.321678  1
  Si  Si30  1  0.795878  0.866253  0.182187  1
  Si  Si31  1  0.296740  0.639238  0.571293  1
  Si  Si32  1  0.704318  0.366458  0.068135  1
  Si  Si33  1  0.630344  0.292170  0.431176  1
  Si  Si34  1  0.366234  0.705740  0.929383  1
  Si  Si35  1  0.209392  0.130392  0.678459  1
