# generated using pymatgen
data_Nb4Fe3CoSi3Ge
_symmetry_space_group_name_H-M   'P 1'
_cell_length_a   3.69049200
_cell_length_b   6.29924484
_cell_length_c   7.17525164
_cell_angle_alpha   89.09590503
_cell_angle_beta   90.00000000
_cell_angle_gamma   90.00000000
_symmetry_Int_Tables_number   1
_chemical_formula_structural   Nb4Fe3CoSi3Ge
_chemical_formula_sum   'Nb4 Fe3 Co1 Si3 Ge1'
_cell_volume   166.78455251
_cell_formula_units_Z   1
loop_
 _symmetry_equiv_pos_site_id
 _symmetry_equiv_pos_as_xyz
  1  'x, y, z'
loop_
 _atom_site_type_symbol
 _atom_site_label
 _atom_site_symmetry_multiplicity
 _atom_site_fract_x
 _atom_site_fract_y
 _atom_site_fract_z
 _atom_site_occupancy
  Nb  Nb0  1  0.250000  0.021960  0.822759  1
  Nb  Nb1  1  0.250000  0.518074  0.689209  1
  Nb  Nb2  1  0.750000  0.983254  0.176303  1
  Nb  Nb3  1  0.750000  0.467176  0.314974  1
  Fe  Fe4  1  0.250000  0.148973  0.436557  1
  Fe  Fe5  1  0.750000  0.863580  0.569504  1
  Fe  Fe6  1  0.750000  0.359382  0.935935  1
  Co  Co7  1  0.250000  0.640218  0.057103  1
  Si  Si8  1  0.250000  0.276912  0.112464  1
  Si  Si9  1  0.750000  0.228470  0.624837  1
  Si  Si10  1  0.750000  0.724959  0.885357  1
  Ge  Ge11  1  0.250000  0.767044  0.375000  1
