# generated using pymatgen
data_KY10(C2I9)2
_symmetry_space_group_name_H-M   'P 1'
_cell_length_a   11.40584676
_cell_length_b   11.43881624
_cell_length_c   11.51970944
_cell_angle_alpha   113.41873499
_cell_angle_beta   87.03621065
_cell_angle_gamma   119.56478156
_symmetry_Int_Tables_number   1
_chemical_formula_structural   KY10(C2I9)2
_chemical_formula_sum   'K1 Y10 C4 I18'
_cell_volume   1179.79744583
_cell_formula_units_Z   1
loop_
 _symmetry_equiv_pos_site_id
 _symmetry_equiv_pos_as_xyz
  1  'x, y, z'
loop_
 _atom_site_type_symbol
 _atom_site_label
 _atom_site_symmetry_multiplicity
 _atom_site_fract_x
 _atom_site_fract_y
 _atom_site_fract_z
 _atom_site_occupancy
  K  K0  1  0.500000  0.000000  0.500000  1
  Y  Y1  1  0.677250  0.724156  0.711143  1
  Y  Y2  1  0.276498  0.352873  0.016246  1
  Y  Y3  1  0.092996  0.391449  0.291744  1
  Y  Y4  1  0.965588  0.038109  0.323076  1
  Y  Y5  1  0.907004  0.608551  0.708256  1
  Y  Y6  1  0.105250  0.944499  0.000866  1
  Y  Y7  1  0.034412  0.961891  0.676924  1
  Y  Y8  1  0.322750  0.275844  0.288857  1
  Y  Y9  1  0.723502  0.647127  0.983754  1
  Y  Y10  1  0.894750  0.055501  0.999134  1
  C  C11  1  0.151632  0.220017  0.121064  1
  C  C12  1  0.848368  0.779983  0.878936  1
  C  C13  1  0.923515  0.855865  0.803541  1
  C  C14  1  0.076485  0.144135  0.196459  1
  I  I15  1  0.448813  0.529847  0.832312  1
  I  I16  1  0.385253  0.040432  0.159181  1
  I  I17  1  0.776025  0.857321  0.501077  1
  I  I18  1  0.837147  0.310681  0.153315  1
  I  I19  1  0.551187  0.470153  0.167688  1
  I  I20  1  0.223975  0.142679  0.498923  1
  I  I21  1  0.318072  0.095776  0.828736  1
  I  I22  1  0.681928  0.904224  0.171264  1
  I  I23  1  0.975126  0.755559  0.169213  1
  I  I24  1  0.932718  0.298061  0.500800  1
  I  I25  1  0.024874  0.244441  0.830787  1
  I  I26  1  0.067282  0.701939  0.499200  1
  I  I27  1  0.263862  0.625925  0.186823  1
  I  I28  1  0.736138  0.374075  0.813177  1
  I  I29  1  0.642347  0.434173  0.500633  1
  I  I30  1  0.162853  0.689319  0.846685  1
  I  I31  1  0.614747  0.959568  0.840819  1
  I  I32  1  0.357653  0.565827  0.499367  1
