# generated using pymatgen
data_Y2Ta3Mn9P7
_symmetry_space_group_name_H-M   'P 1'
_cell_length_a   3.59789900
_cell_length_b   9.58995232
_cell_length_c   9.58995100
_cell_angle_alpha   119.99999797
_cell_angle_beta   90.00000000
_cell_angle_gamma   90.00000000
_symmetry_Int_Tables_number   1
_chemical_formula_structural   Y2Ta3Mn9P7
_chemical_formula_sum   'Y2 Ta3 Mn9 P7'
_cell_volume   286.55793859
_cell_formula_units_Z   1
loop_
 _symmetry_equiv_pos_site_id
 _symmetry_equiv_pos_as_xyz
  1  'x, y, z'
loop_
 _atom_site_type_symbol
 _atom_site_label
 _atom_site_symmetry_multiplicity
 _atom_site_fract_x
 _atom_site_fract_y
 _atom_site_fract_z
 _atom_site_occupancy
  Y  Y0  1  0.000000  0.666667  0.333333  1
  Y  Y1  1  0.500000  0.333333  0.666667  1
  Ta  Ta2  1  0.500000  0.776694  0.901624  1
  Ta  Ta3  1  0.500000  0.124930  0.223306  1
  Ta  Ta4  1  0.500000  0.098376  0.875070  1
  Mn  Mn5  1  0.000000  0.573415  0.950827  1
  Mn  Mn6  1  0.000000  0.377412  0.426585  1
  Mn  Mn7  1  0.000000  0.049173  0.622588  1
  Mn  Mn8  1  0.000000  0.878869  0.162621  1
  Mn  Mn9  1  0.000000  0.283753  0.121131  1
  Mn  Mn10  1  0.000000  0.837379  0.716247  1
  Mn  Mn11  1  0.500000  0.950980  0.386981  1
  Mn  Mn12  1  0.500000  0.436000  0.049020  1
  Mn  Mn13  1  0.500000  0.613019  0.564000  1
  P  P14  1  0.000000  0.000000  0.000000  1
  P  P15  1  0.500000  0.708855  0.131362  1
  P  P16  1  0.500000  0.422507  0.291145  1
  P  P17  1  0.500000  0.868638  0.577493  1
  P  P18  1  0.000000  0.581588  0.700963  1
  P  P19  1  0.000000  0.119375  0.418412  1
  P  P20  1  0.000000  0.299037  0.880625  1
