# generated using pymatgen
data_Ba4Sr8Si15P
_symmetry_space_group_name_H-M   'P 1'
_cell_length_a   8.38247080
_cell_length_b   8.38247063
_cell_length_c   11.12694325
_cell_angle_alpha   90.26007579
_cell_angle_beta   90.26007413
_cell_angle_gamma   90.16524573
_symmetry_Int_Tables_number   1
_chemical_formula_structural   Ba4Sr8Si15P
_chemical_formula_sum   'Ba4 Sr8 Si15 P1'
_cell_volume   781.82433086
_cell_formula_units_Z   1
loop_
 _symmetry_equiv_pos_site_id
 _symmetry_equiv_pos_as_xyz
  1  'x, y, z'
loop_
 _atom_site_type_symbol
 _atom_site_label
 _atom_site_symmetry_multiplicity
 _atom_site_fract_x
 _atom_site_fract_y
 _atom_site_fract_z
 _atom_site_occupancy
  Ba  Ba0  1  0.666113  0.666113  0.003628  1
  Ba  Ba1  1  0.832142  0.168848  0.500635  1
  Ba  Ba2  1  0.168848  0.832142  0.500635  1
  Ba  Ba3  1  0.332518  0.332518  0.998330  1
  Sr  Sr4  1  0.500243  0.998859  0.748167  1
  Sr  Sr5  1  0.499331  0.003709  0.250999  1
  Sr  Sr6  1  0.998859  0.500243  0.748167  1
  Sr  Sr7  1  0.003709  0.499331  0.250999  1
  Sr  Sr8  1  0.998042  0.998042  0.831617  1
  Sr  Sr9  1  0.498255  0.498255  0.333467  1
  Sr  Sr10  1  0.500513  0.500513  0.667002  1
  Sr  Sr11  1  0.001283  0.001283  0.167080  1
  Si  Si12  1  0.206691  0.206691  0.661014  1
  Si  Si13  1  0.789925  0.789925  0.337820  1
  Si  Si14  1  0.294697  0.706742  0.158835  1
  Si  Si15  1  0.706742  0.294697  0.158835  1
  Si  Si16  1  0.707260  0.293377  0.840107  1
  Si  Si17  1  0.293377  0.707260  0.840107  1
  Si  Si18  1  0.206158  0.206158  0.343377  1
  Si  Si19  1  0.700188  0.094462  0.999245  1
  Si  Si20  1  0.299585  0.907078  0.999815  1
  Si  Si21  1  0.094462  0.700188  0.999245  1
  Si  Si22  1  0.596311  0.801515  0.499465  1
  Si  Si23  1  0.907078  0.299585  0.999815  1
  Si  Si24  1  0.198720  0.406391  0.502209  1
  Si  Si25  1  0.801515  0.596311  0.499465  1
  Si  Si26  1  0.406391  0.198720  0.502209  1
  P  P27  1  0.791042  0.791042  0.657707  1
