# generated using pymatgen
data_EuTaAlO5
_symmetry_space_group_name_H-M   'P 1'
_cell_length_a   5.73968209
_cell_length_b   5.73968244
_cell_length_c   7.48990442
_cell_angle_alpha   75.46763133
_cell_angle_beta   75.46763413
_cell_angle_gamma   106.08976134
_symmetry_Int_Tables_number   1
_chemical_formula_structural   EuTaAlO5
_chemical_formula_sum   'Eu2 Ta2 Al2 O10'
_cell_volume   215.44323898
_cell_formula_units_Z   2
loop_
 _symmetry_equiv_pos_site_id
 _symmetry_equiv_pos_as_xyz
  1  'x, y, z'
loop_
 _atom_site_type_symbol
 _atom_site_label
 _atom_site_symmetry_multiplicity
 _atom_site_fract_x
 _atom_site_fract_y
 _atom_site_fract_z
 _atom_site_occupancy
  Eu  Eu0  1  0.330690  0.669310  0.250000  1
  Eu  Eu1  1  0.669310  0.330690  0.750000  1
  Ta  Ta2  1  0.000000  0.000000  0.500000  1
  Ta  Ta3  1  0.000000  0.000000  0.000000  1
  Al  Al4  1  0.684484  0.315516  0.250000  1
  Al  Al5  1  0.315516  0.684484  0.750000  1
  O  O6  1  0.065310  0.934690  0.250000  1
  O  O7  1  0.934690  0.065310  0.750000  1
  O  O8  1  0.301081  0.889644  0.892900  1
  O  O9  1  0.110356  0.698919  0.607100  1
  O  O10  1  0.698919  0.110356  0.107100  1
  O  O11  1  0.889644  0.301081  0.392900  1
  O  O12  1  0.756560  0.634154  0.092637  1
  O  O13  1  0.365846  0.243440  0.407363  1
  O  O14  1  0.243440  0.365846  0.907363  1
  O  O15  1  0.634154  0.756560  0.592637  1
