# generated using pymatgen
data_Y20Ir8OsRh3
_symmetry_space_group_name_H-M   'P 1'
_cell_length_a   10.90417400
_cell_length_b   10.90417400
_cell_length_c   6.46484300
_cell_angle_alpha   90.00000000
_cell_angle_beta   90.00000000
_cell_angle_gamma   90.00000000
_symmetry_Int_Tables_number   1
_chemical_formula_structural   Y20Ir8OsRh3
_chemical_formula_sum   'Y20 Ir8 Os1 Rh3'
_cell_volume   768.67636621
_cell_formula_units_Z   1
loop_
 _symmetry_equiv_pos_site_id
 _symmetry_equiv_pos_as_xyz
  1  'x, y, z'
loop_
 _atom_site_type_symbol
 _atom_site_label
 _atom_site_symmetry_multiplicity
 _atom_site_fract_x
 _atom_site_fract_y
 _atom_site_fract_z
 _atom_site_occupancy
  Y  Y0  1  0.290767  0.088220  0.383689  1
  Y  Y1  1  0.290414  0.909535  0.881922  1
  Y  Y2  1  0.709586  0.090465  0.881922  1
  Y  Y3  1  0.709233  0.911780  0.383689  1
  Y  Y4  1  0.590465  0.790414  0.881922  1
  Y  Y5  1  0.588220  0.209233  0.383689  1
  Y  Y6  1  0.411780  0.790767  0.383689  1
  Y  Y7  1  0.409535  0.209586  0.881922  1
  Y  Y8  1  0.206182  0.412192  0.611300  1
  Y  Y9  1  0.208276  0.587893  0.118802  1
  Y  Y10  1  0.791724  0.412107  0.118802  1
  Y  Y11  1  0.793818  0.587808  0.611300  1
  Y  Y12  1  0.912107  0.708276  0.118802  1
  Y  Y13  1  0.912192  0.293818  0.611300  1
  Y  Y14  1  0.087808  0.706182  0.611300  1
  Y  Y15  1  0.087893  0.291724  0.118802  1
  Y  Y16  1  0.000000  0.000000  0.504224  1
  Y  Y17  1  0.000000  0.000000  0.003886  1
  Y  Y18  1  0.500000  0.500000  0.003886  1
  Y  Y19  1  0.500000  0.500000  0.504224  1
  Ir  Ir20  1  0.844450  0.151145  0.251072  1
  Ir  Ir21  1  0.845966  0.847499  0.750863  1
  Ir  Ir22  1  0.154034  0.152501  0.750863  1
  Ir  Ir23  1  0.155550  0.848855  0.251072  1
  Ir  Ir24  1  0.652501  0.345966  0.750863  1
  Ir  Ir25  1  0.651145  0.655550  0.251072  1
  Ir  Ir26  1  0.348855  0.344450  0.251072  1
  Ir  Ir27  1  0.347499  0.654034  0.750863  1
  Os  Os28  1  0.000000  0.500000  0.364125  1
  Rh  Rh29  1  0.500000  0.000000  0.128208  1
  Rh  Rh30  1  0.500000  0.000000  0.630503  1
  Rh  Rh31  1  0.000000  0.500000  0.870352  1
