# generated using pymatgen
data_Tb8Tm4InCo4Ir
_symmetry_space_group_name_H-M   'P 1'
_cell_length_a   8.31631062
_cell_length_b   8.31631050
_cell_length_c   8.31631086
_cell_angle_alpha   111.20139600
_cell_angle_beta   110.32109585
_cell_angle_gamma   106.92213299
_symmetry_Int_Tables_number   1
_chemical_formula_structural   Tb8Tm4InCo4Ir
_chemical_formula_sum   'Tb8 Tm4 In1 Co4 Ir1'
_cell_volume   442.08088876
_cell_formula_units_Z   1
loop_
 _symmetry_equiv_pos_site_id
 _symmetry_equiv_pos_as_xyz
  1  'x, y, z'
loop_
 _atom_site_type_symbol
 _atom_site_label
 _atom_site_symmetry_multiplicity
 _atom_site_fract_x
 _atom_site_fract_y
 _atom_site_fract_z
 _atom_site_occupancy
  Tb  Tb0  1  0.410959  0.216524  0.194434  1
  Tb  Tb1  1  0.589041  0.783476  0.805566  1
  Tb  Tb2  1  0.022092  0.216524  0.805566  1
  Tb  Tb3  1  0.977908  0.783476  0.194434  1
  Tb  Tb4  1  0.183486  0.287020  0.470506  1
  Tb  Tb5  1  0.816514  0.712980  0.529494  1
  Tb  Tb6  1  0.183486  0.712980  0.896465  1
  Tb  Tb7  1  0.816514  0.287020  0.103535  1
  Tm  Tm8  1  0.317036  0.625307  0.308271  1
  Tm  Tm9  1  0.682964  0.374693  0.691729  1
  Tm  Tm10  1  0.317036  0.008767  0.691729  1
  Tm  Tm11  1  0.682964  0.991233  0.308271  1
  In  In12  1  0.500000  0.500000  0.000000  1
  Co  Co13  1  0.379555  0.000000  0.379555  1
  Co  Co14  1  0.620445  0.000000  0.620445  1
  Co  Co15  1  0.112287  0.612287  0.500000  1
  Co  Co16  1  0.887713  0.387713  0.500000  1
  Ir  Ir17  1  0.000000  0.000000  0.000000  1
