# generated using pymatgen
data_Zr6Ga7Cu16H3
_symmetry_space_group_name_H-M   'P 1'
_cell_length_a   8.50728816
_cell_length_b   8.50728816
_cell_length_c   8.50728816
_cell_angle_alpha   120.33705754
_cell_angle_beta   120.09317657
_cell_angle_gamma   89.62793902
_symmetry_Int_Tables_number   1
_chemical_formula_structural   Zr6Ga7Cu16H3
_chemical_formula_sum   'Zr6 Ga7 Cu16 H3'
_cell_volume   433.94193908
_cell_formula_units_Z   1
loop_
 _symmetry_equiv_pos_site_id
 _symmetry_equiv_pos_as_xyz
  1  'x, y, z'
loop_
 _atom_site_type_symbol
 _atom_site_label
 _atom_site_symmetry_multiplicity
 _atom_site_fract_x
 _atom_site_fract_y
 _atom_site_fract_z
 _atom_site_occupancy
  Zr  Zr0  1  0.801195  0.199494  0.000006  1
  Zr  Zr1  1  0.801195  0.801189  0.601700  1
  Zr  Zr2  1  0.785142  0.785142  0.000000  1
  Zr  Zr3  1  0.199488  0.801189  0.999994  1
  Zr  Zr4  1  0.199488  0.199494  0.398300  1
  Zr  Zr5  1  0.211060  0.211060  0.000000  1
  Ga  Ga6  1  0.497381  0.496005  0.497118  1
  Ga  Ga7  1  0.497381  0.000264  0.001376  1
  Ga  Ga8  1  0.498611  0.998611  0.500000  1
  Ga  Ga9  1  0.998887  0.000264  0.502882  1
  Ga  Ga10  1  0.998887  0.496005  0.998624  1
  Ga  Ga11  1  0.998325  0.498325  0.500000  1
  Ga  Ga12  1  0.499428  0.499428  0.000000  1
  Cu  Cu13  1  0.471549  0.821565  0.649985  1
  Cu  Cu14  1  0.171581  0.821565  0.350015  1
  Cu  Cu15  1  0.168053  0.828346  0.660292  1
  Cu  Cu16  1  0.168053  0.507760  0.339708  1
  Cu  Cu17  1  0.513420  0.170179  0.343241  1
  Cu  Cu18  1  0.826938  0.170179  0.656759  1
  Cu  Cu19  1  0.829374  0.167119  0.337745  1
  Cu  Cu20  1  0.829374  0.491630  0.662255  1
  Cu  Cu21  1  0.857718  0.617140  0.240578  1
  Cu  Cu22  1  0.376563  0.617140  0.759422  1
  Cu  Cu23  1  0.382127  0.623591  0.241464  1
  Cu  Cu24  1  0.382127  0.140664  0.758536  1
  Cu  Cu25  1  0.142378  0.382325  0.760052  1
  Cu  Cu26  1  0.622273  0.382325  0.239948  1
  Cu  Cu27  1  0.616314  0.375453  0.759139  1
  Cu  Cu28  1  0.616314  0.857173  0.240861  1
  H  H29  1  0.041716  0.041716  0.000000  1
  H  H30  1  0.741865  0.908730  0.833136  1
  H  H31  1  0.075593  0.908730  0.166864  1
