# generated using pymatgen
data_RhSe23
_symmetry_space_group_name_H-M   'P 1'
_cell_length_a   5.96811026
_cell_length_b   9.84349145
_cell_length_c   15.83245300
_cell_angle_alpha   89.63402248
_cell_angle_beta   90.46347019
_cell_angle_gamma   87.71809577
_symmetry_Int_Tables_number   1
_chemical_formula_structural   RhSe23
_chemical_formula_sum   'Rh1 Se23'
_cell_volume   929.32086823
_cell_formula_units_Z   1
loop_
 _symmetry_equiv_pos_site_id
 _symmetry_equiv_pos_as_xyz
  1  'x, y, z'
loop_
 _atom_site_type_symbol
 _atom_site_label
 _atom_site_symmetry_multiplicity
 _atom_site_fract_x
 _atom_site_fract_y
 _atom_site_fract_z
 _atom_site_occupancy
  Rh  Rh0  1  0.509323  0.281070  0.417410  1
  Se  Se1  1  0.596467  0.834709  0.378510  1
  Se  Se2  1  0.999722  0.325240  0.125111  1
  Se  Se3  1  0.881637  0.250579  0.472639  1
  Se  Se4  1  0.322810  0.793698  0.480164  1
  Se  Se5  1  0.202036  0.265532  0.002456  1
  Se  Se6  1  0.776231  0.732725  0.997994  1
  Se  Se7  1  0.132306  0.271247  0.360584  1
  Se  Se8  1  0.802320  0.621881  0.368151  1
  Se  Se9  1  0.793140  0.134408  0.163647  1
  Se  Se10  1  0.229416  0.847617  0.144694  1
  Se  Se11  1  0.676419  0.614356  0.644058  1
  Se  Se12  1  0.200572  0.371989  0.623179  1
  Se  Se13  1  0.218413  0.859204  0.853348  1
  Se  Se14  1  0.771755  0.137248  0.846829  1
  Se  Se15  1  0.989484  0.667481  0.118881  1
  Se  Se16  1  0.494512  0.826682  0.613148  1
  Se  Se17  1  0.444157  0.208231  0.562232  1
  Se  Se18  1  0.996699  0.670394  0.880211  1
  Se  Se19  1  0.979931  0.328158  0.883352  1
  Se  Se20  1  0.502156  0.482671  0.337362  1
  Se  Se21  1  0.043624  0.991565  0.243544  1
  Se  Se22  1  0.430860  0.481922  0.722870  1
  Se  Se23  1  0.006009  0.001396  0.759626  1
