# generated using pymatgen
data_Pr5Co19(Si2P)4
_symmetry_space_group_name_H-M   'P 1'
_cell_length_a   12.34850203
_cell_length_b   12.35153391
_cell_length_c   3.79101900
_cell_angle_alpha   90.00000000
_cell_angle_beta   90.00000000
_cell_angle_gamma   119.93515033
_symmetry_Int_Tables_number   1
_chemical_formula_structural   Pr5Co19(Si2P)4
_chemical_formula_sum   'Pr5 Co19 Si8 P4'
_cell_volume   501.07783503
_cell_formula_units_Z   1
loop_
 _symmetry_equiv_pos_site_id
 _symmetry_equiv_pos_as_xyz
  1  'x, y, z'
loop_
 _atom_site_type_symbol
 _atom_site_label
 _atom_site_symmetry_multiplicity
 _atom_site_fract_x
 _atom_site_fract_y
 _atom_site_fract_z
 _atom_site_occupancy
  Pr  Pr0  1  0.332941  0.666235  0.500000  1
  Pr  Pr1  1  0.667077  0.332390  0.500000  1
  Pr  Pr2  1  0.000610  0.186047  0.000000  1
  Pr  Pr3  1  0.813340  0.814564  0.000000  1
  Pr  Pr4  1  0.187198  0.000116  0.000000  1
  Co  Co5  1  0.625795  0.825104  0.500000  1
  Co  Co6  1  0.175984  0.800878  0.500000  1
  Co  Co7  1  0.198321  0.373964  0.500000  1
  Co  Co8  1  0.376211  0.198195  0.500000  1
  Co  Co9  1  0.823441  0.625128  0.500000  1
  Co  Co10  1  0.795694  0.175235  0.500000  1
  Co  Co11  1  0.999135  0.559787  0.500000  1
  Co  Co12  1  0.438893  0.438977  0.500000  1
  Co  Co13  1  0.557585  0.995390  0.500000  1
  Co  Co14  1  0.520626  0.642524  0.000000  1
  Co  Co15  1  0.357798  0.878086  0.000000  1
  Co  Co16  1  0.120656  0.478793  0.000000  1
  Co  Co17  1  0.487310  0.121391  0.000000  1
  Co  Co18  1  0.641366  0.520129  0.000000  1
  Co  Co19  1  0.876832  0.356265  0.000000  1
  Co  Co20  1  0.999638  0.720948  0.000000  1
  Co  Co21  1  0.279628  0.278624  0.000000  1
  Co  Co22  1  0.719327  0.005065  0.000000  1
  Co  Co23  1  0.999134  0.000137  0.500000  1
  Si  Si24  1  0.000220  0.376024  0.500000  1
  Si  Si25  1  0.624014  0.623991  0.500000  1
  Si  Si26  1  0.376164  0.000174  0.500000  1
  Si  Si27  1  0.525363  0.841666  0.000000  1
  Si  Si28  1  0.157625  0.683327  0.000000  1
  Si  Si29  1  0.315958  0.473843  0.000000  1
  Si  Si30  1  0.475009  0.315384  0.000000  1
  Si  Si31  1  0.841088  0.525674  0.000000  1
  P  P32  1  0.690029  0.165300  0.000000  1
  P  P33  1  0.999733  0.813587  0.500000  1
  P  P34  1  0.187123  0.186092  0.500000  1
  P  P35  1  0.813133  0.000968  0.500000  1
