# generated using pymatgen
data_Ce3Th(NiP)8
_symmetry_space_group_name_H-M   'P 1'
_cell_length_a   3.90719200
_cell_length_b   8.20759736
_cell_length_c   9.75103449
_cell_angle_alpha   90.03511064
_cell_angle_beta   90.00000000
_cell_angle_gamma   90.00000000
_symmetry_Int_Tables_number   1
_chemical_formula_structural   Ce3Th(NiP)8
_chemical_formula_sum   'Ce3 Th1 Ni8 P8'
_cell_volume   312.70253871
_cell_formula_units_Z   1
loop_
 _symmetry_equiv_pos_site_id
 _symmetry_equiv_pos_as_xyz
  1  'x, y, z'
loop_
 _atom_site_type_symbol
 _atom_site_label
 _atom_site_symmetry_multiplicity
 _atom_site_fract_x
 _atom_site_fract_y
 _atom_site_fract_z
 _atom_site_occupancy
  Ce  Ce0  1  0.250000  0.259011  0.668945  1
  Ce  Ce1  1  0.750000  0.740731  0.331390  1
  Ce  Ce2  1  0.250000  0.759068  0.830782  1
  Th  Th3  1  0.750000  0.240298  0.168880  1
  Ni  Ni4  1  0.750000  0.083869  0.452346  1
  Ni  Ni5  1  0.250000  0.916110  0.548195  1
  Ni  Ni6  1  0.750000  0.583860  0.047829  1
  Ni  Ni7  1  0.250000  0.416779  0.952165  1
  Ni  Ni8  1  0.250000  0.952972  0.122455  1
  Ni  Ni9  1  0.750000  0.044527  0.876622  1
  Ni  Ni10  1  0.250000  0.453263  0.377093  1
  Ni  Ni11  1  0.750000  0.547317  0.623229  1
  P  P12  1  0.250000  0.143710  0.947954  1
  P  P13  1  0.750000  0.855945  0.049170  1
  P  P14  1  0.250000  0.644194  0.549385  1
  P  P15  1  0.750000  0.356794  0.453102  1
  P  P16  1  0.250000  0.532947  0.162166  1
  P  P17  1  0.750000  0.470899  0.837962  1
  P  P18  1  0.250000  0.028612  0.338834  1
  P  P19  1  0.750000  0.969093  0.661496  1
