# generated using pymatgen
data_Ce5Pb3Se
_symmetry_space_group_name_H-M   'P 1'
_cell_length_a   6.76109956
_cell_length_b   9.55856928
_cell_length_c   9.55857000
_cell_angle_alpha   120.13909731
_cell_angle_beta   89.96111978
_cell_angle_gamma   89.96112052
_symmetry_Int_Tables_number   1
_chemical_formula_structural   Ce5Pb3Se
_chemical_formula_sum   'Ce10 Pb6 Se2'
_cell_volume   534.22344941
_cell_formula_units_Z   2
loop_
 _symmetry_equiv_pos_site_id
 _symmetry_equiv_pos_as_xyz
  1  'x, y, z'
loop_
 _atom_site_type_symbol
 _atom_site_label
 _atom_site_symmetry_multiplicity
 _atom_site_fract_x
 _atom_site_fract_y
 _atom_site_fract_z
 _atom_site_occupancy
  Ce  Ce0  1  0.750180  0.745895  0.745895  1
  Ce  Ce1  1  0.750138  0.254287  0.000057  1
  Ce  Ce2  1  0.750138  0.000057  0.254287  1
  Ce  Ce3  1  0.249820  0.254105  0.254105  1
  Ce  Ce4  1  0.249862  0.745713  0.999943  1
  Ce  Ce5  1  0.249862  0.999943  0.745713  1
  Ce  Ce6  1  0.000000  0.666737  0.333263  1
  Ce  Ce7  1  0.000000  0.333263  0.666737  1
  Ce  Ce8  1  0.500000  0.333222  0.666778  1
  Ce  Ce9  1  0.500000  0.666778  0.333222  1
  Pb  Pb10  1  0.749457  0.390581  0.390581  1
  Pb  Pb11  1  0.749506  0.609599  0.999884  1
  Pb  Pb12  1  0.749506  0.999884  0.609599  1
  Pb  Pb13  1  0.250543  0.609419  0.609419  1
  Pb  Pb14  1  0.250494  0.390401  0.000116  1
  Pb  Pb15  1  0.250494  0.000116  0.390401  1
  Se  Se16  1  0.500000  0.000000  0.000000  1
  Se  Se17  1  0.000000  0.000000  0.000000  1
