# generated using pymatgen
data_CsCeSmSe6
_symmetry_space_group_name_H-M   'P 1'
_cell_length_a   12.15349752
_cell_length_b   12.15349727
_cell_length_c   12.15349710
_cell_angle_alpha   159.70535313
_cell_angle_beta   152.86913526
_cell_angle_gamma   34.11754627
_symmetry_Int_Tables_number   1
_chemical_formula_structural   CsCeSmSe6
_chemical_formula_sum   'Cs1 Ce1 Sm1 Se6'
_cell_volume   283.67805933
_cell_formula_units_Z   1
loop_
 _symmetry_equiv_pos_site_id
 _symmetry_equiv_pos_as_xyz
  1  'x, y, z'
loop_
 _atom_site_type_symbol
 _atom_site_label
 _atom_site_symmetry_multiplicity
 _atom_site_fract_x
 _atom_site_fract_y
 _atom_site_fract_z
 _atom_site_occupancy
  Cs  Cs0  1  0.998396  0.998396  0.000000  1
  Ce  Ce1  1  0.689727  0.189727  0.500000  1
  Sm  Sm2  1  0.313067  0.813067  0.500000  1
  Se  Se3  1  0.176675  0.388542  0.788133  1
  Se  Se4  1  0.222847  0.222847  0.000000  1
  Se  Se5  1  0.404287  0.613207  0.791081  1
  Se  Se6  1  0.600410  0.388542  0.211867  1
  Se  Se7  1  0.822126  0.613207  0.208919  1
  Se  Se8  1  0.772467  0.772467  0.000000  1
