# generated using pymatgen
data_LiSm2(MgIr6)3
_symmetry_space_group_name_H-M   'P 1'
_cell_length_a   8.93931700
_cell_length_b   8.93931687
_cell_length_c   5.11268500
_cell_angle_alpha   90.00000000
_cell_angle_beta   90.00000000
_cell_angle_gamma   90.16455551
_symmetry_Int_Tables_number   1
_chemical_formula_structural   LiSm2(MgIr6)3
_chemical_formula_sum   'Li1 Sm2 Mg3 Ir18'
_cell_volume   408.56006589
_cell_formula_units_Z   1
loop_
 _symmetry_equiv_pos_site_id
 _symmetry_equiv_pos_as_xyz
  1  'x, y, z'
loop_
 _atom_site_type_symbol
 _atom_site_label
 _atom_site_symmetry_multiplicity
 _atom_site_fract_x
 _atom_site_fract_y
 _atom_site_fract_z
 _atom_site_occupancy
  Li  Li0  1  0.115960  0.615960  0.000000  1
  Sm  Sm1  1  0.498175  0.500718  0.000000  1
  Sm  Sm2  1  0.000718  0.998175  0.000000  1
  Mg  Mg3  1  0.888231  0.388231  0.000000  1
  Mg  Mg4  1  0.382261  0.116107  0.000000  1
  Mg  Mg5  1  0.616107  0.882261  0.000000  1
  Ir  Ir6  1  0.316072  0.816072  0.760813  1
  Ir  Ir7  1  0.682181  0.182181  0.760888  1
  Ir  Ir8  1  0.182271  0.318488  0.760449  1
  Ir  Ir9  1  0.818488  0.682271  0.760449  1
  Ir  Ir10  1  0.682181  0.182181  0.239112  1
  Ir  Ir11  1  0.316072  0.816072  0.239187  1
  Ir  Ir12  1  0.818488  0.682271  0.239551  1
  Ir  Ir13  1  0.182271  0.318488  0.239551  1
  Ir  Ir14  1  0.555439  0.704091  0.500000  1
  Ir  Ir15  1  0.444193  0.296041  0.500000  1
  Ir  Ir16  1  0.944100  0.205095  0.500000  1
  Ir  Ir17  1  0.055571  0.795292  0.500000  1
  Ir  Ir18  1  0.705095  0.444100  0.500000  1
  Ir  Ir19  1  0.295292  0.555571  0.500000  1
  Ir  Ir20  1  0.204091  0.055439  0.500000  1
  Ir  Ir21  1  0.796041  0.944193  0.500000  1
  Ir  Ir22  1  0.001066  0.501066  0.500000  1
  Ir  Ir23  1  0.499637  0.999637  0.500000  1
