# generated using pymatgen
data_Tm4Lu8Co4CuBi
_symmetry_space_group_name_H-M   'P 1'
_cell_length_a   8.16509915
_cell_length_b   8.16509803
_cell_length_c   8.16509803
_cell_angle_alpha   110.22491033
_cell_angle_beta   111.39759641
_cell_angle_gamma   106.82539767
_symmetry_Int_Tables_number   1
_chemical_formula_structural   Tm4Lu8Co4CuBi
_chemical_formula_sum   'Tm4 Lu8 Co4 Cu1 Bi1'
_cell_volume   418.33429571
_cell_formula_units_Z   1
loop_
 _symmetry_equiv_pos_site_id
 _symmetry_equiv_pos_as_xyz
  1  'x, y, z'
loop_
 _atom_site_type_symbol
 _atom_site_label
 _atom_site_symmetry_multiplicity
 _atom_site_fract_x
 _atom_site_fract_y
 _atom_site_fract_z
 _atom_site_occupancy
  Tm  Tm0  1  0.214677  0.416796  0.202121  1
  Tm  Tm1  1  0.785323  0.583204  0.797879  1
  Tm  Tm2  1  0.214677  0.012555  0.797879  1
  Tm  Tm3  1  0.785323  0.987445  0.202121  1
  Lu  Lu4  1  0.286860  0.182517  0.469377  1
  Lu  Lu5  1  0.713140  0.817483  0.530623  1
  Lu  Lu6  1  0.286860  0.817483  0.104342  1
  Lu  Lu7  1  0.713140  0.182517  0.895658  1
  Lu  Lu8  1  0.620894  0.313023  0.307870  1
  Lu  Lu9  1  0.379106  0.686977  0.692130  1
  Lu  Lu10  1  0.005153  0.313023  0.692130  1
  Lu  Lu11  1  0.994847  0.686977  0.307870  1
  Co  Co12  1  0.000000  0.375839  0.375839  1
  Co  Co13  1  0.000000  0.624161  0.624161  1
  Co  Co14  1  0.386655  0.886655  0.500000  1
  Co  Co15  1  0.613345  0.113345  0.500000  1
  Cu  Cu16  1  0.000000  0.000000  0.000000  1
  Bi  Bi17  1  0.500000  0.500000  0.000000  1
