# generated using pymatgen
data_Tm12InCo2Ni2Pt
_symmetry_space_group_name_H-M   'P 1'
_cell_length_a   8.19907707
_cell_length_b   8.19907819
_cell_length_c   8.19907788
_cell_angle_alpha   111.23022154
_cell_angle_beta   109.98029242
_cell_angle_gamma   107.22872016
_symmetry_Int_Tables_number   1
_chemical_formula_structural   Tm12InCo2Ni2Pt
_chemical_formula_sum   'Tm12 In1 Co2 Ni2 Pt1'
_cell_volume   423.76237857
_cell_formula_units_Z   1
loop_
 _symmetry_equiv_pos_site_id
 _symmetry_equiv_pos_as_xyz
  1  'x, y, z'
loop_
 _atom_site_type_symbol
 _atom_site_label
 _atom_site_symmetry_multiplicity
 _atom_site_fract_x
 _atom_site_fract_y
 _atom_site_fract_z
 _atom_site_occupancy
  Tm  Tm0  1  0.418330  0.221090  0.197240  1
  Tm  Tm1  1  0.581670  0.778910  0.802760  1
  Tm  Tm2  1  0.023850  0.221090  0.802760  1
  Tm  Tm3  1  0.976150  0.778910  0.197240  1
  Tm  Tm4  1  0.184127  0.288897  0.473023  1
  Tm  Tm5  1  0.815873  0.711103  0.526977  1
  Tm  Tm6  1  0.184127  0.711103  0.895231  1
  Tm  Tm7  1  0.815873  0.288897  0.104769  1
  Tm  Tm8  1  0.316419  0.621302  0.304883  1
  Tm  Tm9  1  0.683581  0.378698  0.695117  1
  Tm  Tm10  1  0.316419  0.011535  0.695117  1
  Tm  Tm11  1  0.683581  0.988465  0.304883  1
  In  In12  1  0.500000  0.500000  0.000000  1
  Co  Co13  1  0.114613  0.614613  0.500000  1
  Co  Co14  1  0.885387  0.385387  0.500000  1
  Ni  Ni15  1  0.367073  0.000000  0.367073  1
  Ni  Ni16  1  0.632927  0.000000  0.632927  1
  Pt  Pt17  1  0.000000  0.000000  0.000000  1
