# generated using pymatgen
data_Dy4Ni13Rh
_symmetry_space_group_name_H-M   'P 1'
_cell_length_a   12.66981762
_cell_length_b   12.66981766
_cell_length_c   12.66981787
_cell_angle_alpha   22.24909941
_cell_angle_beta   22.24909788
_cell_angle_gamma   22.24909620
_symmetry_Int_Tables_number   1
_chemical_formula_structural   Dy4Ni13Rh
_chemical_formula_sum   'Dy4 Ni13 Rh1'
_cell_volume   255.68314703
_cell_formula_units_Z   1
loop_
 _symmetry_equiv_pos_site_id
 _symmetry_equiv_pos_as_xyz
  1  'x, y, z'
loop_
 _atom_site_type_symbol
 _atom_site_label
 _atom_site_symmetry_multiplicity
 _atom_site_fract_x
 _atom_site_fract_y
 _atom_site_fract_z
 _atom_site_occupancy
  Dy  Dy0  1  0.853725  0.853725  0.853725  1
  Dy  Dy1  1  0.146275  0.146275  0.146275  1
  Dy  Dy2  1  0.949739  0.949739  0.949739  1
  Dy  Dy3  1  0.050261  0.050261  0.050261  1
  Ni  Ni4  1  0.000000  0.500000  0.499999  1
  Ni  Ni5  1  0.500000  0.500000  0.999998  1
  Ni  Ni6  1  0.500000  0.000000  0.499999  1
  Ni  Ni7  1  0.279237  0.279237  0.279237  1
  Ni  Ni8  1  0.720763  0.720763  0.720763  1
  Ni  Ni9  1  0.608430  0.105443  0.608428  1
  Ni  Ni10  1  0.608429  0.608429  0.105443  1
  Ni  Ni11  1  0.105443  0.608430  0.608428  1
  Ni  Ni12  1  0.894557  0.391570  0.391573  1
  Ni  Ni13  1  0.391572  0.391572  0.894558  1
  Ni  Ni14  1  0.391570  0.894557  0.391573  1
  Ni  Ni15  1  0.387258  0.387258  0.387258  1
  Ni  Ni16  1  0.612742  0.612742  0.612742  1
  Rh  Rh17  1  0.500000  0.500000  0.500000  1
