# generated using pymatgen
data_Na2Np(SeO5)2
_symmetry_space_group_name_H-M   'P 1'
_cell_length_a   5.80216351
_cell_length_b   6.45405531
_cell_length_c   7.42571457
_cell_angle_alpha   103.90199053
_cell_angle_beta   100.27512265
_cell_angle_gamma   104.42760136
_symmetry_Int_Tables_number   1
_chemical_formula_structural   Na2Np(SeO5)2
_chemical_formula_sum   'Na2 Np1 Se2 O10'
_cell_volume   252.88282791
_cell_formula_units_Z   1
loop_
 _symmetry_equiv_pos_site_id
 _symmetry_equiv_pos_as_xyz
  1  'x, y, z'
loop_
 _atom_site_type_symbol
 _atom_site_label
 _atom_site_symmetry_multiplicity
 _atom_site_fract_x
 _atom_site_fract_y
 _atom_site_fract_z
 _atom_site_occupancy
  Na  Na0  1  0.896338  0.265250  0.799134  1
  Na  Na1  1  0.103662  0.734750  0.200866  1
  Np  Np2  1  0.500000  0.500000  0.500000  1
  Se  Se3  1  0.850982  0.178536  0.252531  1
  Se  Se4  1  0.149018  0.821464  0.747469  1
  O  O5  1  0.889450  0.730375  0.558643  1
  O  O6  1  0.110550  0.269625  0.441357  1
  O  O7  1  0.865918  0.353001  0.121806  1
  O  O8  1  0.134082  0.646999  0.878194  1
  O  O9  1  0.812232  0.917836  0.134378  1
  O  O10  1  0.187768  0.082164  0.865622  1
  O  O11  1  0.626831  0.193407  0.371266  1
  O  O12  1  0.373169  0.806593  0.628734  1
  O  O13  1  0.575540  0.440173  0.722614  1
  O  O14  1  0.424460  0.559827  0.277386  1
