# generated using pymatgen
data_ZrPa2Ga3Fe2Ni
_symmetry_space_group_name_H-M   'P 1'
_cell_length_a   6.90469605
_cell_length_b   6.90469577
_cell_length_c   3.73369500
_cell_angle_alpha   90.00000000
_cell_angle_beta   90.00000000
_cell_angle_gamma   122.03654865
_symmetry_Int_Tables_number   1
_chemical_formula_structural   ZrPa2Ga3Fe2Ni
_chemical_formula_sum   'Zr1 Pa2 Ga3 Fe2 Ni1'
_cell_volume   150.89512254
_cell_formula_units_Z   1
loop_
 _symmetry_equiv_pos_site_id
 _symmetry_equiv_pos_as_xyz
  1  'x, y, z'
loop_
 _atom_site_type_symbol
 _atom_site_label
 _atom_site_symmetry_multiplicity
 _atom_site_fract_x
 _atom_site_fract_y
 _atom_site_fract_z
 _atom_site_occupancy
  Zr  Zr0  1  0.588211  0.588211  0.500000  1
  Pa  Pa1  1  0.426791  0.003198  0.500000  1
  Pa  Pa2  1  0.003198  0.426791  0.500000  1
  Ga  Ga3  1  0.755562  0.980504  0.000000  1
  Ga  Ga4  1  0.980504  0.755562  0.000000  1
  Ga  Ga5  1  0.263746  0.263746  0.000000  1
  Fe  Fe6  1  0.302058  0.669677  0.000000  1
  Fe  Fe7  1  0.669677  0.302058  0.000000  1
  Ni  Ni8  1  0.010253  0.010253  0.500000  1
