# generated using pymatgen
data_Dy6YIrI12
_symmetry_space_group_name_H-M   'P 1'
_cell_length_a   9.80216210
_cell_length_b   9.80216153
_cell_length_c   9.80216114
_cell_angle_alpha   106.91369319
_cell_angle_beta   106.91369117
_cell_angle_gamma   106.91368588
_symmetry_Int_Tables_number   1
_chemical_formula_structural   Dy6YIrI12
_chemical_formula_sum   'Dy6 Y1 Ir1 I12'
_cell_volume   786.19189011
_cell_formula_units_Z   1
loop_
 _symmetry_equiv_pos_site_id
 _symmetry_equiv_pos_as_xyz
  1  'x, y, z'
loop_
 _atom_site_type_symbol
 _atom_site_label
 _atom_site_symmetry_multiplicity
 _atom_site_fract_x
 _atom_site_fract_y
 _atom_site_fract_z
 _atom_site_occupancy
  Dy  Dy0  1  0.094178  0.022676  0.295685  1
  Dy  Dy1  1  0.295685  0.094178  0.022676  1
  Dy  Dy2  1  0.022676  0.295685  0.094178  1
  Dy  Dy3  1  0.905822  0.977324  0.704315  1
  Dy  Dy4  1  0.704315  0.905822  0.977324  1
  Dy  Dy5  1  0.977324  0.704315  0.905822  1
  Y  Y6  1  0.500000  0.500000  0.500000  1
  Ir  Ir7  1  0.000000  0.000000  0.000000  1
  I  I8  1  0.069493  0.675176  0.224413  1
  I  I9  1  0.224413  0.069493  0.675176  1
  I  I10  1  0.675176  0.224413  0.069493  1
  I  I11  1  0.930507  0.324824  0.775587  1
  I  I12  1  0.775587  0.930507  0.324824  1
  I  I13  1  0.324824  0.775587  0.930507  1
  I  I14  1  0.463933  0.162984  0.387489  1
  I  I15  1  0.387489  0.463933  0.162984  1
  I  I16  1  0.162984  0.387489  0.463933  1
  I  I17  1  0.536067  0.837016  0.612511  1
  I  I18  1  0.612511  0.536067  0.837016  1
  I  I19  1  0.837016  0.612511  0.536067  1
