# generated using pymatgen
data_NaTb5PrPtBr12
_symmetry_space_group_name_H-M   'P 1'
_cell_length_a   9.36099313
_cell_length_b   9.33601831
_cell_length_c   9.40456502
_cell_angle_alpha   106.95991308
_cell_angle_beta   106.74792156
_cell_angle_gamma   107.52500315
_symmetry_Int_Tables_number   1
_chemical_formula_structural   NaTb5PrPtBr12
_chemical_formula_sum   'Na1 Tb5 Pr1 Pt1 Br12'
_cell_volume   683.01111056
_cell_formula_units_Z   1
loop_
 _symmetry_equiv_pos_site_id
 _symmetry_equiv_pos_as_xyz
  1  'x, y, z'
loop_
 _atom_site_type_symbol
 _atom_site_label
 _atom_site_symmetry_multiplicity
 _atom_site_fract_x
 _atom_site_fract_y
 _atom_site_fract_z
 _atom_site_occupancy
  Na  Na0  1  0.499952  0.500653  0.498981  1
  Tb  Tb1  1  0.110328  0.311638  0.028882  1
  Tb  Tb2  1  0.324137  0.030470  0.114560  1
  Tb  Tb3  1  0.030905  0.115281  0.323460  1
  Tb  Tb4  1  0.970613  0.889495  0.679212  1
  Tb  Tb5  1  0.675505  0.967537  0.885710  1
  Pr  Pr6  1  0.887489  0.679325  0.971591  1
  Pt  Pt7  1  0.000399  0.000039  0.001660  1
  Br  Br8  1  0.225500  0.683335  0.076295  1
  Br  Br9  1  0.451143  0.367872  0.149663  1
  Br  Br10  1  0.681636  0.073761  0.214799  1
  Br  Br11  1  0.928018  0.790575  0.326924  1
  Br  Br12  1  0.149794  0.451056  0.365055  1
  Br  Br13  1  0.367939  0.150818  0.450703  1
  Br  Br14  1  0.632861  0.851773  0.550506  1
  Br  Br15  1  0.848972  0.549459  0.622615  1
  Br  Br16  1  0.075680  0.218336  0.685108  1
  Br  Br17  1  0.318672  0.928390  0.786352  1
  Br  Br18  1  0.536484  0.630737  0.842931  1
  Br  Br19  1  0.783977  0.309453  0.924997  1
