# generated using pymatgen
data_Pr2DyCd3(IrO7)2
_symmetry_space_group_name_H-M   'P 1'
_cell_length_a   6.46742054
_cell_length_b   6.62673126
_cell_length_c   7.63953200
_cell_angle_alpha   90.00000000
_cell_angle_beta   90.00000000
_cell_angle_gamma   112.26551508
_symmetry_Int_Tables_number   1
_chemical_formula_structural   Pr2DyCd3(IrO7)2
_chemical_formula_sum   'Pr2 Dy1 Cd3 Ir2 O14'
_cell_volume   303.00131477
_cell_formula_units_Z   1
loop_
 _symmetry_equiv_pos_site_id
 _symmetry_equiv_pos_as_xyz
  1  'x, y, z'
loop_
 _atom_site_type_symbol
 _atom_site_label
 _atom_site_symmetry_multiplicity
 _atom_site_fract_x
 _atom_site_fract_y
 _atom_site_fract_z
 _atom_site_occupancy
  Pr  Pr0  1  0.997010  0.998267  0.999385  1
  Pr  Pr1  1  0.997010  0.998267  0.500615  1
  Dy  Dy2  1  0.053168  0.510633  0.250000  1
  Cd  Cd3  1  0.486990  0.989748  0.750000  1
  Cd  Cd4  1  0.514334  0.020611  0.250000  1
  Cd  Cd5  1  0.969747  0.492129  0.750000  1
  Ir  Ir6  1  0.501403  0.500033  0.998671  1
  Ir  Ir7  1  0.501403  0.500033  0.501329  1
  O  O8  1  0.590612  0.510772  0.750000  1
  O  O9  1  0.410110  0.489931  0.250000  1
  O  O10  1  0.849362  0.133357  0.750000  1
  O  O11  1  0.155533  0.872653  0.250000  1
  O  O12  1  0.120407  0.849565  0.750000  1
  O  O13  1  0.873938  0.147923  0.250000  1
  O  O14  1  0.428779  0.191388  0.998876  1
  O  O15  1  0.567074  0.807373  0.502776  1
  O  O16  1  0.181765  0.427585  0.974794  1
  O  O17  1  0.811867  0.566692  0.451548  1
  O  O18  1  0.428779  0.191388  0.501124  1
  O  O19  1  0.567074  0.807373  0.997224  1
  O  O20  1  0.811867  0.566692  0.048452  1
  O  O21  1  0.181765  0.427585  0.525206  1
