# generated using pymatgen
data_SmHo4Tl3InPd2
_symmetry_space_group_name_H-M   'P 1'
_cell_length_a   3.62805500
_cell_length_b   8.23818197
_cell_length_c   18.41995348
_cell_angle_alpha   89.92042299
_cell_angle_beta   90.00000000
_cell_angle_gamma   90.00000000
_symmetry_Int_Tables_number   1
_chemical_formula_structural   SmHo4Tl3InPd2
_chemical_formula_sum   'Sm2 Ho8 Tl6 In2 Pd4'
_cell_volume   550.54567217
_cell_formula_units_Z   2
loop_
 _symmetry_equiv_pos_site_id
 _symmetry_equiv_pos_as_xyz
  1  'x, y, z'
loop_
 _atom_site_type_symbol
 _atom_site_label
 _atom_site_symmetry_multiplicity
 _atom_site_fract_x
 _atom_site_fract_y
 _atom_site_fract_z
 _atom_site_occupancy
  Sm  Sm0  1  0.000000  0.500000  0.500000  1
  Sm  Sm1  1  0.000000  0.000000  0.000000  1
  Ho  Ho2  1  0.000000  0.739548  0.281294  1
  Ho  Ho3  1  0.000000  0.260452  0.718706  1
  Ho  Ho4  1  0.000000  0.760235  0.781741  1
  Ho  Ho5  1  0.000000  0.239765  0.218259  1
  Ho  Ho6  1  0.000000  0.619298  0.085344  1
  Ho  Ho7  1  0.000000  0.380702  0.914656  1
  Ho  Ho8  1  0.000000  0.882085  0.586015  1
  Ho  Ho9  1  0.000000  0.117915  0.413985  1
  Tl  Tl10  1  0.500000  0.704540  0.932357  1
  Tl  Tl11  1  0.500000  0.295460  0.067643  1
  Tl  Tl12  1  0.500000  0.797378  0.433103  1
  Tl  Tl13  1  0.500000  0.202622  0.566897  1
  Tl  Tl14  1  0.500000  0.584399  0.651443  1
  Tl  Tl15  1  0.500000  0.415601  0.348557  1
  In  In16  1  0.500000  0.916150  0.152410  1
  In  In17  1  0.500000  0.083850  0.847590  1
  Pd  Pd18  1  0.500000  0.527799  0.195916  1
  Pd  Pd19  1  0.500000  0.472201  0.804084  1
  Pd  Pd20  1  0.500000  0.975834  0.697520  1
  Pd  Pd21  1  0.500000  0.024166  0.302480  1
