# generated using pymatgen
data_Tb14YTh(CdPt)4
_symmetry_space_group_name_H-M   'P 1'
_cell_length_a   9.75099640
_cell_length_b   9.75099694
_cell_length_c   9.75083319
_cell_angle_alpha   60.19668959
_cell_angle_beta   60.19669558
_cell_angle_gamma   60.22856482
_symmetry_Int_Tables_number   1
_chemical_formula_structural   Tb14YTh(CdPt)4
_chemical_formula_sum   'Tb14 Y1 Th1 Cd4 Pt4'
_cell_volume   658.65585048
_cell_formula_units_Z   1
loop_
 _symmetry_equiv_pos_site_id
 _symmetry_equiv_pos_as_xyz
  1  'x, y, z'
loop_
 _atom_site_type_symbol
 _atom_site_label
 _atom_site_symmetry_multiplicity
 _atom_site_fract_x
 _atom_site_fract_y
 _atom_site_fract_z
 _atom_site_occupancy
  Tb  Tb0  1  0.353162  0.353162  0.940700  1
  Tb  Tb1  1  0.353196  0.940715  0.353103  1
  Tb  Tb2  1  0.940715  0.353196  0.353103  1
  Tb  Tb3  1  0.812180  0.189774  0.189820  1
  Tb  Tb4  1  0.190716  0.810525  0.810652  1
  Tb  Tb5  1  0.189774  0.812180  0.189820  1
  Tb  Tb6  1  0.810525  0.190716  0.810652  1
  Tb  Tb7  1  0.189744  0.189744  0.812234  1
  Tb  Tb8  1  0.810481  0.810481  0.190816  1
  Tb  Tb9  1  0.937051  0.566120  0.566215  1
  Tb  Tb10  1  0.563750  0.936636  0.936477  1
  Tb  Tb11  1  0.566120  0.937051  0.566215  1
  Tb  Tb12  1  0.936636  0.563750  0.936477  1
  Tb  Tb13  1  0.566313  0.566313  0.936858  1
  Y  Y14  1  0.936519  0.936519  0.563742  1
  Th  Th15  1  0.348257  0.348257  0.348369  1
  Cd  Cd16  1  0.581222  0.581222  0.581313  1
  Cd  Cd17  1  0.582083  0.582083  0.253407  1
  Cd  Cd18  1  0.582312  0.253395  0.581944  1
  Cd  Cd19  1  0.253395  0.582312  0.581944  1
  Pt  Pt20  1  0.143955  0.143955  0.144059  1
  Pt  Pt21  1  0.140937  0.140937  0.570101  1
  Pt  Pt22  1  0.140948  0.570008  0.140989  1
  Pt  Pt23  1  0.570008  0.140948  0.140989  1
