# generated using pymatgen
data_Tb7Dy2Ho(CoSb2)2
_symmetry_space_group_name_H-M   'P 1'
_cell_length_a   7.92789713
_cell_length_b   8.76745942
_cell_length_c   12.24022200
_cell_angle_alpha   90.00000000
_cell_angle_beta   90.00000000
_cell_angle_gamma   89.95974971
_symmetry_Int_Tables_number   1
_chemical_formula_structural   Tb7Dy2Ho(CoSb2)2
_chemical_formula_sum   'Tb14 Dy4 Ho2 Co4 Sb8'
_cell_volume   850.78722120
_cell_formula_units_Z   2
loop_
 _symmetry_equiv_pos_site_id
 _symmetry_equiv_pos_as_xyz
  1  'x, y, z'
loop_
 _atom_site_type_symbol
 _atom_site_label
 _atom_site_symmetry_multiplicity
 _atom_site_fract_x
 _atom_site_fract_y
 _atom_site_fract_z
 _atom_site_occupancy
  Tb  Tb0  1  0.154123  0.750167  0.202908  1
  Tb  Tb1  1  0.345877  0.749833  0.702908  1
  Tb  Tb2  1  0.846112  0.249821  0.797199  1
  Tb  Tb3  1  0.653888  0.250179  0.297199  1
  Tb  Tb4  1  0.454272  0.750220  0.998008  1
  Tb  Tb5  1  0.045728  0.749780  0.498008  1
  Tb  Tb6  1  0.544293  0.249760  0.002020  1
  Tb  Tb7  1  0.955707  0.250240  0.502020  1
  Tb  Tb8  1  0.621657  0.749535  0.306814  1
  Tb  Tb9  1  0.878343  0.750465  0.806814  1
  Tb  Tb10  1  0.377488  0.250397  0.693305  1
  Tb  Tb11  1  0.122512  0.249603  0.193305  1
  Tb  Tb12  1  0.821117  0.534612  0.064926  1
  Tb  Tb13  1  0.678883  0.965388  0.564926  1
  Dy  Dy14  1  0.178105  0.465041  0.934838  1
  Dy  Dy15  1  0.321895  0.034959  0.434838  1
  Dy  Dy16  1  0.822166  0.965293  0.064902  1
  Dy  Dy17  1  0.677834  0.534707  0.564902  1
  Ho  Ho18  1  0.177356  0.035124  0.934857  1
  Ho  Ho19  1  0.322644  0.464876  0.434857  1
  Co  Co20  1  0.434784  0.749493  0.490759  1
  Co  Co21  1  0.065216  0.750507  0.990759  1
  Co  Co22  1  0.563466  0.250431  0.508975  1
  Co  Co23  1  0.936534  0.249569  0.008975  1
  Sb  Sb24  1  0.928760  0.507910  0.327017  1
  Sb  Sb25  1  0.571240  0.992090  0.827017  1
  Sb  Sb26  1  0.072331  0.008194  0.673324  1
  Sb  Sb27  1  0.427669  0.491806  0.173324  1
  Sb  Sb28  1  0.071445  0.492028  0.673255  1
  Sb  Sb29  1  0.428555  0.007972  0.173255  1
  Sb  Sb30  1  0.928137  0.991982  0.326893  1
  Sb  Sb31  1  0.571863  0.508018  0.826893  1
