# generated using pymatgen
data_LiLa5(PrRh2)3
_symmetry_space_group_name_H-M   'P 1'
_cell_length_a   7.66969470
_cell_length_b   7.66969388
_cell_length_c   7.66969441
_cell_angle_alpha   70.39798092
_cell_angle_beta   70.39798091
_cell_angle_gamma   70.39796737
_symmetry_Int_Tables_number   1
_chemical_formula_structural   LiLa5(PrRh2)3
_chemical_formula_sum   'Li1 La5 Pr3 Rh6'
_cell_volume   387.54607660
_cell_formula_units_Z   1
loop_
 _symmetry_equiv_pos_site_id
 _symmetry_equiv_pos_as_xyz
  1  'x, y, z'
loop_
 _atom_site_type_symbol
 _atom_site_label
 _atom_site_symmetry_multiplicity
 _atom_site_fract_x
 _atom_site_fract_y
 _atom_site_fract_z
 _atom_site_occupancy
  Li  Li0  1  0.999604  0.999604  0.999604  1
  La  La1  1  0.810351  0.810351  0.810351  1
  La  La2  1  0.189550  0.189550  0.189550  1
  La  La3  1  0.149157  0.381198  0.677106  1
  La  La4  1  0.677106  0.149157  0.381198  1
  La  La5  1  0.381198  0.677106  0.149157  1
  Pr  Pr6  1  0.849801  0.615924  0.326237  1
  Pr  Pr7  1  0.326237  0.849801  0.615924  1
  Pr  Pr8  1  0.615924  0.326237  0.849801  1
  Rh  Rh9  1  0.951695  0.180090  0.573793  1
  Rh  Rh10  1  0.573793  0.951695  0.180090  1
  Rh  Rh11  1  0.180090  0.573793  0.951695  1
  Rh  Rh12  1  0.050895  0.820642  0.423958  1
  Rh  Rh13  1  0.423958  0.050895  0.820642  1
  Rh  Rh14  1  0.820642  0.423958  0.050895  1
