# generated using pymatgen
data_Ca3Dy3(Si3Os)8
_symmetry_space_group_name_H-M   'P 1'
_cell_length_a   10.17533514
_cell_length_b   10.17533554
_cell_length_c   8.17533508
_cell_angle_alpha   89.98488841
_cell_angle_beta   89.98488859
_cell_angle_gamma   132.62203267
_symmetry_Int_Tables_number   1
_chemical_formula_structural   Ca3Dy3(Si3Os)8
_chemical_formula_sum   'Ca3 Dy3 Si24 Os8'
_cell_volume   622.85133727
_cell_formula_units_Z   1
loop_
 _symmetry_equiv_pos_site_id
 _symmetry_equiv_pos_as_xyz
  1  'x, y, z'
loop_
 _atom_site_type_symbol
 _atom_site_label
 _atom_site_symmetry_multiplicity
 _atom_site_fract_x
 _atom_site_fract_y
 _atom_site_fract_z
 _atom_site_occupancy
  Ca  Ca0  1  0.500089  0.499911  0.500000  1
  Ca  Ca1  1  0.499890  0.999700  0.749839  1
  Ca  Ca2  1  0.000300  0.500110  0.250161  1
  Dy  Dy3  1  0.999992  0.000008  0.000000  1
  Dy  Dy4  1  0.499341  0.999341  0.250103  1
  Dy  Dy5  1  0.000659  0.500659  0.749897  1
  Si  Si6  1  0.795525  0.204475  0.500000  1
  Si  Si7  1  0.294567  0.705433  0.000000  1
  Si  Si8  1  0.205119  0.794881  0.500000  1
  Si  Si9  1  0.704838  0.295162  0.000000  1
  Si  Si10  1  0.330866  0.338185  0.831076  1
  Si  Si11  1  0.661815  0.669134  0.168924  1
  Si  Si12  1  0.171488  0.164812  0.333920  1
  Si  Si13  1  0.835188  0.828512  0.666080  1
  Si  Si14  1  0.122718  0.888740  0.728034  1
  Si  Si15  1  0.111260  0.877282  0.271966  1
  Si  Si16  1  0.609135  0.375994  0.229620  1
  Si  Si17  1  0.624006  0.390865  0.770380  1
  Si  Si18  1  0.875254  0.109187  0.271692  1
  Si  Si19  1  0.890813  0.124746  0.728308  1
  Si  Si20  1  0.388713  0.622115  0.770559  1
  Si  Si21  1  0.377885  0.611287  0.229441  1
  Si  Si22  1  0.346416  0.112714  0.505285  1
  Si  Si23  1  0.887286  0.653584  0.494715  1
  Si  Si24  1  0.388604  0.154941  0.006829  1
  Si  Si25  1  0.845059  0.611396  0.993171  1
  Si  Si26  1  0.653271  0.886062  0.492258  1
  Si  Si27  1  0.113938  0.346729  0.507742  1
  Si  Si28  1  0.610369  0.844632  0.996412  1
  Si  Si29  1  0.155368  0.389631  0.003588  1
  Os  Os30  1  0.670921  0.329079  0.500000  1
  Os  Os31  1  0.168820  0.831180  0.000000  1
  Os  Os32  1  0.330065  0.669935  0.500000  1
  Os  Os33  1  0.830075  0.169925  0.000000  1
  Os  Os34  1  0.124686  0.125603  0.627786  1
  Os  Os35  1  0.874397  0.875314  0.372214  1
  Os  Os36  1  0.372158  0.370895  0.124662  1
  Os  Os37  1  0.629105  0.627842  0.875338  1
