# generated using pymatgen
data_TbHo7(Si4W3)4
_symmetry_space_group_name_H-M   'P 1'
_cell_length_a   6.76113307
_cell_length_b   6.92773947
_cell_length_c   12.88677378
_cell_angle_alpha   89.97526699
_cell_angle_beta   89.99843519
_cell_angle_gamma   89.98863604
_symmetry_Int_Tables_number   1
_chemical_formula_structural   TbHo7(Si4W3)4
_chemical_formula_sum   'Tb1 Ho7 Si16 W12'
_cell_volume   603.60827710
_cell_formula_units_Z   1
loop_
 _symmetry_equiv_pos_site_id
 _symmetry_equiv_pos_as_xyz
  1  'x, y, z'
loop_
 _atom_site_type_symbol
 _atom_site_label
 _atom_site_symmetry_multiplicity
 _atom_site_fract_x
 _atom_site_fract_y
 _atom_site_fract_z
 _atom_site_occupancy
  Tb  Tb0  1  0.995331  0.832221  0.592888  1
  Ho  Ho1  1  0.495249  0.667698  0.593360  1
  Ho  Ho2  1  0.995535  0.832239  0.906638  1
  Ho  Ho3  1  0.504875  0.332171  0.093453  1
  Ho  Ho4  1  0.004634  0.168147  0.406713  1
  Ho  Ho5  1  0.504524  0.332217  0.406890  1
  Ho  Ho6  1  0.004530  0.168023  0.093406  1
  Ho  Ho7  1  0.495344  0.667822  0.906446  1
  Si  Si8  1  0.661509  0.958103  0.453145  1
  Si  Si9  1  0.162136  0.541981  0.046840  1
  Si  Si10  1  0.338428  0.042266  0.952982  1
  Si  Si11  1  0.837600  0.457062  0.546780  1
  Si  Si12  1  0.338349  0.042194  0.546683  1
  Si  Si13  1  0.838048  0.457998  0.953033  1
  Si  Si14  1  0.661879  0.957752  0.046930  1
  Si  Si15  1  0.162206  0.542026  0.453038  1
  Si  Si16  1  0.463627  0.370846  0.750108  1
  Si  Si17  1  0.963859  0.129127  0.749868  1
  Si  Si18  1  0.536292  0.629102  0.249976  1
  Si  Si19  1  0.036254  0.871186  0.250153  1
  Si  Si20  1  0.696713  0.866174  0.750135  1
  Si  Si21  1  0.197108  0.633308  0.750131  1
  Si  Si22  1  0.303027  0.134111  0.250160  1
  Si  Si23  1  0.803033  0.366195  0.250258  1
  W  W24  1  0.667159  0.163831  0.625830  1
  W  W25  1  0.167709  0.336272  0.874292  1
  W  W26  1  0.331881  0.836696  0.125380  1
  W  W27  1  0.831796  0.663344  0.374424  1
  W  W28  1  0.332282  0.836437  0.374286  1
  W  W29  1  0.832314  0.663527  0.125613  1
  W  W30  1  0.668394  0.163365  0.874609  1
  W  W31  1  0.168161  0.336566  0.625339  1
  W  W32  1  0.833558  0.499539  0.749970  1
  W  W33  1  0.333983  0.000192  0.749886  1
  W  W34  1  0.166365  0.500316  0.250100  1
  W  W35  1  0.666304  0.999944  0.250258  1
