# generated using pymatgen
data_Er6CrB14W
_symmetry_space_group_name_H-M   'P 1'
_cell_length_a   8.06771203
_cell_length_b   8.06771208
_cell_length_c   9.37183800
_cell_angle_alpha   90.00000000
_cell_angle_beta   90.00000000
_cell_angle_gamma   155.48452449
_symmetry_Int_Tables_number   1
_chemical_formula_structural   Er6CrB14W
_chemical_formula_sum   'Er6 Cr1 B14 W1'
_cell_volume   253.11029783
_cell_formula_units_Z   1
loop_
 _symmetry_equiv_pos_site_id
 _symmetry_equiv_pos_as_xyz
  1  'x, y, z'
loop_
 _atom_site_type_symbol
 _atom_site_label
 _atom_site_symmetry_multiplicity
 _atom_site_fract_x
 _atom_site_fract_y
 _atom_site_fract_z
 _atom_site_occupancy
  Er  Er0  1  0.894289  0.105711  0.436383  1
  Er  Er1  1  0.106863  0.893137  0.555769  1
  Er  Er2  1  0.894289  0.105711  0.063617  1
  Er  Er3  1  0.106863  0.893137  0.944231  1
  Er  Er4  1  0.241411  0.758589  0.250000  1
  Er  Er5  1  0.754491  0.245509  0.750000  1
  Cr  Cr6  1  0.052576  0.947424  0.250000  1
  B  B7  1  0.727223  0.272777  0.465775  1
  B  B8  1  0.272005  0.727995  0.531469  1
  B  B9  1  0.727223  0.272777  0.034225  1
  B  B10  1  0.272005  0.727995  0.968531  1
  B  B11  1  0.631184  0.368816  0.151854  1
  B  B12  1  0.364982  0.635018  0.854142  1
  B  B13  1  0.631184  0.368816  0.348146  1
  B  B14  1  0.364982  0.635018  0.645858  1
  B  B15  1  0.521357  0.478643  0.097022  1
  B  B16  1  0.481281  0.518719  0.910157  1
  B  B17  1  0.521357  0.478643  0.402978  1
  B  B18  1  0.481281  0.518719  0.589843  1
  B  B19  1  0.458629  0.541371  0.250000  1
  B  B20  1  0.547093  0.452907  0.750000  1
  W  W21  1  0.947433  0.052567  0.750000  1
