# generated using pymatgen
data_Pr2Co5P4Rh
_symmetry_space_group_name_H-M   'P 1'
_cell_length_a   3.80359900
_cell_length_b   10.71478600
_cell_length_c   12.52792000
_cell_angle_alpha   90.00000000
_cell_angle_beta   90.00000000
_cell_angle_gamma   90.00000000
_symmetry_Int_Tables_number   1
_chemical_formula_structural   Pr2Co5P4Rh
_chemical_formula_sum   'Pr6 Co15 P12 Rh3'
_cell_volume   510.57223904
_cell_formula_units_Z   3
loop_
 _symmetry_equiv_pos_site_id
 _symmetry_equiv_pos_as_xyz
  1  'x, y, z'
loop_
 _atom_site_type_symbol
 _atom_site_label
 _atom_site_symmetry_multiplicity
 _atom_site_fract_x
 _atom_site_fract_y
 _atom_site_fract_z
 _atom_site_occupancy
  Pr  Pr0  1  0.000000  0.500000  0.520370  1
  Pr  Pr1  1  0.500000  0.000000  0.476446  1
  Pr  Pr2  1  0.500000  0.817531  0.207302  1
  Pr  Pr3  1  0.500000  0.182469  0.207302  1
  Pr  Pr4  1  0.000000  0.686641  0.793736  1
  Pr  Pr5  1  0.000000  0.313359  0.793736  1
  Co  Co6  1  0.000000  0.000000  0.293477  1
  Co  Co7  1  0.000000  0.500000  0.989515  1
  Co  Co8  1  0.500000  0.000000  0.013701  1
  Co  Co9  1  0.500000  0.331777  0.995326  1
  Co  Co10  1  0.500000  0.668223  0.995326  1
  Co  Co11  1  0.000000  0.166308  0.006821  1
  Co  Co12  1  0.000000  0.833692  0.006821  1
  Co  Co13  1  0.500000  0.297833  0.427697  1
  Co  Co14  1  0.500000  0.702167  0.427697  1
  Co  Co15  1  0.000000  0.198769  0.569335  1
  Co  Co16  1  0.000000  0.801231  0.569335  1
  Co  Co17  1  0.500000  0.883439  0.710782  1
  Co  Co18  1  0.500000  0.116561  0.710782  1
  Co  Co19  1  0.000000  0.617859  0.288958  1
  Co  Co20  1  0.000000  0.382141  0.288958  1
  P  P21  1  0.500000  0.500000  0.893800  1
  P  P22  1  0.000000  0.000000  0.113386  1
  P  P23  1  0.500000  0.500000  0.344507  1
  P  P24  1  0.000000  0.000000  0.654363  1
  P  P25  1  0.500000  0.296452  0.610112  1
  P  P26  1  0.500000  0.703548  0.610112  1
  P  P27  1  0.000000  0.195327  0.386067  1
  P  P28  1  0.000000  0.804673  0.386067  1
  P  P29  1  0.500000  0.847101  0.898965  1
  P  P30  1  0.500000  0.152899  0.898965  1
  P  P31  1  0.000000  0.654712  0.102861  1
  P  P32  1  0.000000  0.345288  0.102861  1
  Rh  Rh33  1  0.500000  0.500000  0.158186  1
  Rh  Rh34  1  0.000000  0.000000  0.842229  1
  Rh  Rh35  1  0.500000  0.500000  0.704100  1
