# generated using pymatgen
data_RbTm(TeO3)2
_symmetry_space_group_name_H-M   'P 1'
_cell_length_a   5.99097700
_cell_length_b   8.59352000
_cell_length_c   13.65430500
_cell_angle_alpha   90.00000000
_cell_angle_beta   90.00000000
_cell_angle_gamma   90.00000000
_symmetry_Int_Tables_number   1
_chemical_formula_structural   RbTm(TeO3)2
_chemical_formula_sum   'Rb4 Tm4 Te8 O24'
_cell_volume   702.97251295
_cell_formula_units_Z   4
loop_
 _symmetry_equiv_pos_site_id
 _symmetry_equiv_pos_as_xyz
  1  'x, y, z'
loop_
 _atom_site_type_symbol
 _atom_site_label
 _atom_site_symmetry_multiplicity
 _atom_site_fract_x
 _atom_site_fract_y
 _atom_site_fract_z
 _atom_site_occupancy
  Rb  Rb0  1  0.250000  0.006268  0.634586  1
  Rb  Rb1  1  0.250000  0.493732  0.134586  1
  Rb  Rb2  1  0.750000  0.993732  0.365414  1
  Rb  Rb3  1  0.750000  0.506268  0.865414  1
  Tm  Tm4  1  0.250000  0.786659  0.907347  1
  Tm  Tm5  1  0.250000  0.713341  0.407347  1
  Tm  Tm6  1  0.750000  0.213341  0.092653  1
  Tm  Tm7  1  0.750000  0.286659  0.592653  1
  Te  Te8  1  0.750000  0.007498  0.806895  1
  Te  Te9  1  0.750000  0.492502  0.306895  1
  Te  Te10  1  0.250000  0.992502  0.193105  1
  Te  Te11  1  0.250000  0.507498  0.693105  1
  Te  Te12  1  0.750000  0.717138  0.579115  1
  Te  Te13  1  0.750000  0.782862  0.079115  1
  Te  Te14  1  0.250000  0.282862  0.420885  1
  Te  Te15  1  0.250000  0.217138  0.920885  1
  O  O16  1  0.990087  0.866410  0.801174  1
  O  O17  1  0.509913  0.633590  0.301174  1
  O  O18  1  0.490087  0.133590  0.198826  1
  O  O19  1  0.009913  0.366410  0.698826  1
  O  O20  1  0.009913  0.133590  0.198826  1
  O  O21  1  0.490087  0.366410  0.698826  1
  O  O22  1  0.509913  0.866410  0.801174  1
  O  O23  1  0.990087  0.633590  0.301174  1
  O  O24  1  0.750000  0.058168  0.671662  1
  O  O25  1  0.750000  0.441832  0.171662  1
  O  O26  1  0.250000  0.941832  0.328338  1
  O  O27  1  0.250000  0.558168  0.828338  1
  O  O28  1  0.990485  0.801903  0.508405  1
  O  O29  1  0.509515  0.698097  0.008405  1
  O  O30  1  0.490485  0.198097  0.491595  1
  O  O31  1  0.009515  0.301903  0.991595  1
  O  O32  1  0.009515  0.198097  0.491595  1
  O  O33  1  0.490485  0.301903  0.991595  1
  O  O34  1  0.509515  0.801903  0.508405  1
  O  O35  1  0.990485  0.698097  0.008405  1
  O  O36  1  0.750000  0.517649  0.521782  1
  O  O37  1  0.750000  0.982351  0.021782  1
  O  O38  1  0.250000  0.482351  0.478218  1
  O  O39  1  0.250000  0.017649  0.978218  1
