# generated using pymatgen
data_TmZn4Ir
_symmetry_space_group_name_H-M   'P 1'
_cell_length_a   5.05271700
_cell_length_b   5.05271701
_cell_length_c   8.40726800
_cell_angle_alpha   90.00000000
_cell_angle_beta   90.00000000
_cell_angle_gamma   120.00000650
_symmetry_Int_Tables_number   1
_chemical_formula_structural   TmZn4Ir
_chemical_formula_sum   'Tm2 Zn8 Ir2'
_cell_volume   185.88119004
_cell_formula_units_Z   2
loop_
 _symmetry_equiv_pos_site_id
 _symmetry_equiv_pos_as_xyz
  1  'x, y, z'
loop_
 _atom_site_type_symbol
 _atom_site_label
 _atom_site_symmetry_multiplicity
 _atom_site_fract_x
 _atom_site_fract_y
 _atom_site_fract_z
 _atom_site_occupancy
  Tm  Tm0  1  0.666667  0.333333  0.435894  1
  Tm  Tm1  1  0.333333  0.666667  0.935894  1
  Zn  Zn2  1  0.000000  0.000000  0.999989  1
  Zn  Zn3  1  0.000000  0.000000  0.499989  1
  Zn  Zn4  1  0.169829  0.339658  0.246974  1
  Zn  Zn5  1  0.830171  0.169829  0.746974  1
  Zn  Zn6  1  0.339658  0.169829  0.746974  1
  Zn  Zn7  1  0.660342  0.830171  0.246974  1
  Zn  Zn8  1  0.169829  0.830171  0.246974  1
  Zn  Zn9  1  0.830171  0.660342  0.746974  1
  Ir  Ir10  1  0.333333  0.666667  0.573196  1
  Ir  Ir11  1  0.666667  0.333333  0.073196  1
