# generated using pymatgen
data_Ho2Th2P7Ir8
_symmetry_space_group_name_H-M   'P 1'
_cell_length_a   3.96597800
_cell_length_b   12.76477027
_cell_length_c   13.12854807
_cell_angle_alpha   81.81621051
_cell_angle_beta   90.00000000
_cell_angle_gamma   90.00000000
_symmetry_Int_Tables_number   1
_chemical_formula_structural   Ho2Th2P7Ir8
_chemical_formula_sum   'Ho4 Th4 P14 Ir16'
_cell_volume   657.86186396
_cell_formula_units_Z   2
loop_
 _symmetry_equiv_pos_site_id
 _symmetry_equiv_pos_as_xyz
  1  'x, y, z'
loop_
 _atom_site_type_symbol
 _atom_site_label
 _atom_site_symmetry_multiplicity
 _atom_site_fract_x
 _atom_site_fract_y
 _atom_site_fract_z
 _atom_site_occupancy
  Ho  Ho0  1  0.750000  0.791830  0.559069  1
  Ho  Ho1  1  0.250000  0.208170  0.440931  1
  Ho  Ho2  1  0.750000  0.480399  0.708111  1
  Ho  Ho3  1  0.250000  0.519601  0.291889  1
  Th  Th4  1  0.750000  0.715621  0.898822  1
  Th  Th5  1  0.250000  0.108067  0.790056  1
  Th  Th6  1  0.750000  0.891933  0.209944  1
  Th  Th7  1  0.250000  0.284379  0.101178  1
  P  P8  1  0.250000  0.905667  0.411757  1
  P  P9  1  0.750000  0.473015  0.129941  1
  P  P10  1  0.250000  0.526985  0.870059  1
  P  P11  1  0.750000  0.094333  0.588243  1
  P  P12  1  0.250000  0.744961  0.083148  1
  P  P13  1  0.750000  0.255039  0.916852  1
  P  P14  1  0.750000  0.157018  0.284921  1
  P  P15  1  0.250000  0.842982  0.715079  1
  P  P16  1  0.250000  0.054907  0.099971  1
  P  P17  1  0.750000  0.945093  0.900029  1
  P  P18  1  0.250000  0.318091  0.685951  1
  P  P19  1  0.750000  0.681909  0.314049  1
  P  P20  1  0.250000  0.607656  0.565788  1
  P  P21  1  0.750000  0.392344  0.434212  1
  Ir  Ir22  1  0.250000  0.992871  0.576136  1
  Ir  Ir23  1  0.750000  0.007129  0.423864  1
  Ir  Ir24  1  0.250000  0.662506  0.728591  1
  Ir  Ir25  1  0.750000  0.337494  0.271409  1
  Ir  Ir26  1  0.250000  0.551029  0.048238  1
  Ir  Ir27  1  0.750000  0.448971  0.951762  1
  Ir  Ir28  1  0.250000  0.061404  0.275435  1
  Ir  Ir29  1  0.750000  0.938596  0.724565  1
  Ir  Ir30  1  0.250000  0.423920  0.523762  1
  Ir  Ir31  1  0.750000  0.576080  0.476238  1
  Ir  Ir32  1  0.250000  0.917185  0.996792  1
  Ir  Ir33  1  0.750000  0.082815  0.003208  1
  Ir  Ir34  1  0.250000  0.727685  0.397780  1
  Ir  Ir35  1  0.750000  0.272315  0.602220  1
  Ir  Ir36  1  0.250000  0.340351  0.857597  1
  Ir  Ir37  1  0.750000  0.659649  0.142403  1
