# generated using pymatgen
data_Hf4FeCo3Si3P
_symmetry_space_group_name_H-M   'P 1'
_cell_length_a   3.80526900
_cell_length_b   6.34461461
_cell_length_c   7.09560169
_cell_angle_alpha   90.25353394
_cell_angle_beta   90.00000000
_cell_angle_gamma   90.00000000
_symmetry_Int_Tables_number   1
_chemical_formula_structural   Hf4FeCo3Si3P
_chemical_formula_sum   'Hf4 Fe1 Co3 Si3 P1'
_cell_volume   171.30718809
_cell_formula_units_Z   1
loop_
 _symmetry_equiv_pos_site_id
 _symmetry_equiv_pos_as_xyz
  1  'x, y, z'
loop_
 _atom_site_type_symbol
 _atom_site_label
 _atom_site_symmetry_multiplicity
 _atom_site_fract_x
 _atom_site_fract_y
 _atom_site_fract_z
 _atom_site_occupancy
  Hf  Hf0  1  0.250000  0.015564  0.314484  1
  Hf  Hf1  1  0.250000  0.512149  0.189631  1
  Hf  Hf2  1  0.750000  0.992931  0.689972  1
  Hf  Hf3  1  0.750000  0.486100  0.805808  1
  Fe  Fe4  1  0.250000  0.151635  0.931958  1
  Co  Co5  1  0.250000  0.639653  0.565750  1
  Co  Co6  1  0.750000  0.849381  0.064347  1
  Co  Co7  1  0.750000  0.353040  0.434916  1
  Si  Si8  1  0.250000  0.782895  0.890232  1
  Si  Si9  1  0.750000  0.722769  0.391510  1
  Si  Si10  1  0.750000  0.216183  0.108499  1
  P  P11  1  0.250000  0.277698  0.612891  1
