# generated using pymatgen
data_Zr6GaSiN2
_symmetry_space_group_name_H-M   'P 1'
_cell_length_a   5.89512125
_cell_length_b   5.89512282
_cell_length_c   8.75921000
_cell_angle_alpha   90.00000000
_cell_angle_beta   90.00000000
_cell_angle_gamma   145.87361824
_symmetry_Int_Tables_number   1
_chemical_formula_structural   Zr6GaSiN2
_chemical_formula_sum   'Zr6 Ga1 Si1 N2'
_cell_volume   170.77686936
_cell_formula_units_Z   1
loop_
 _symmetry_equiv_pos_site_id
 _symmetry_equiv_pos_as_xyz
  1  'x, y, z'
loop_
 _atom_site_type_symbol
 _atom_site_label
 _atom_site_symmetry_multiplicity
 _atom_site_fract_x
 _atom_site_fract_y
 _atom_site_fract_z
 _atom_site_occupancy
  Zr  Zr0  1  0.948146  0.051854  0.750000  1
  Zr  Zr1  1  0.058406  0.941594  0.250000  1
  Zr  Zr2  1  0.628033  0.371967  0.545814  1
  Zr  Zr3  1  0.369992  0.630008  0.445442  1
  Zr  Zr4  1  0.369992  0.630008  0.054558  1
  Zr  Zr5  1  0.628033  0.371967  0.954186  1
  Ga  Ga6  1  0.251533  0.748467  0.750000  1
  Si  Si7  1  0.746567  0.253433  0.250000  1
  N  N8  1  0.999648  0.000352  0.498606  1
  N  N9  1  0.999648  0.000352  0.001394  1
