# generated using pymatgen
data_Tb3Er5(AlPd)2
_symmetry_space_group_name_H-M   'P 1'
_cell_length_a   9.55863548
_cell_length_b   9.55863645
_cell_length_c   9.55863700
_cell_angle_alpha   60.00000156
_cell_angle_beta   59.99999820
_cell_angle_gamma   59.99999817
_symmetry_Int_Tables_number   1
_chemical_formula_structural   Tb3Er5(AlPd)2
_chemical_formula_sum   'Tb6 Er10 Al4 Pd4'
_cell_volume   617.55097057
_cell_formula_units_Z   2
loop_
 _symmetry_equiv_pos_site_id
 _symmetry_equiv_pos_as_xyz
  1  'x, y, z'
loop_
 _atom_site_type_symbol
 _atom_site_label
 _atom_site_symmetry_multiplicity
 _atom_site_fract_x
 _atom_site_fract_y
 _atom_site_fract_z
 _atom_site_occupancy
  Tb  Tb0  1  0.934829  0.565171  0.565171  1
  Tb  Tb1  1  0.565171  0.934829  0.934829  1
  Tb  Tb2  1  0.565171  0.934829  0.565171  1
  Tb  Tb3  1  0.934829  0.565171  0.934829  1
  Tb  Tb4  1  0.565171  0.565171  0.934829  1
  Tb  Tb5  1  0.934829  0.934829  0.565171  1
  Er  Er6  1  0.355443  0.355443  0.355443  1
  Er  Er7  1  0.355443  0.355443  0.933671  1
  Er  Er8  1  0.355443  0.933671  0.355443  1
  Er  Er9  1  0.933671  0.355443  0.355443  1
  Er  Er10  1  0.807931  0.192069  0.192069  1
  Er  Er11  1  0.192069  0.807931  0.807931  1
  Er  Er12  1  0.192069  0.807931  0.192069  1
  Er  Er13  1  0.807931  0.192069  0.807931  1
  Er  Er14  1  0.192069  0.192069  0.807931  1
  Er  Er15  1  0.807931  0.807931  0.192069  1
  Al  Al16  1  0.577249  0.577249  0.577249  1
  Al  Al17  1  0.577249  0.577249  0.268252  1
  Al  Al18  1  0.577249  0.268252  0.577249  1
  Al  Al19  1  0.268252  0.577249  0.577249  1
  Pd  Pd20  1  0.144364  0.144364  0.144364  1
  Pd  Pd21  1  0.144364  0.144364  0.566910  1
  Pd  Pd22  1  0.144364  0.566910  0.144364  1
  Pd  Pd23  1  0.566910  0.144364  0.144364  1
