# generated using pymatgen
data_Tb4Nd(SnSb)2
_symmetry_space_group_name_H-M   'P 1'
_cell_length_a   8.17389300
_cell_length_b   8.23397000
_cell_length_c   15.63164900
_cell_angle_alpha   90.00000000
_cell_angle_beta   90.00000000
_cell_angle_gamma   90.00000000
_symmetry_Int_Tables_number   1
_chemical_formula_structural   Tb4Nd(SnSb)2
_chemical_formula_sum   'Tb16 Nd4 Sn8 Sb8'
_cell_volume   1052.06609134
_cell_formula_units_Z   4
loop_
 _symmetry_equiv_pos_site_id
 _symmetry_equiv_pos_as_xyz
  1  'x, y, z'
loop_
 _atom_site_type_symbol
 _atom_site_label
 _atom_site_symmetry_multiplicity
 _atom_site_fract_x
 _atom_site_fract_y
 _atom_site_fract_z
 _atom_site_occupancy
  Tb  Tb0  1  0.572382  0.168752  0.112036  1
  Tb  Tb1  1  0.072382  0.331248  0.387964  1
  Tb  Tb2  1  0.427618  0.831248  0.612036  1
  Tb  Tb3  1  0.927618  0.668752  0.887964  1
  Tb  Tb4  1  0.592813  0.337601  0.882873  1
  Tb  Tb5  1  0.092813  0.162399  0.617127  1
  Tb  Tb6  1  0.407187  0.662399  0.382873  1
  Tb  Tb7  1  0.907187  0.837601  0.117127  1
  Tb  Tb8  1  0.398521  0.663992  0.116828  1
  Tb  Tb9  1  0.898521  0.836008  0.383172  1
  Tb  Tb10  1  0.601479  0.336008  0.616828  1
  Tb  Tb11  1  0.101479  0.163992  0.883172  1
  Tb  Tb12  1  0.264813  0.500731  0.748832  1
  Tb  Tb13  1  0.764813  0.999269  0.751168  1
  Tb  Tb14  1  0.735187  0.499269  0.248832  1
  Tb  Tb15  1  0.235187  0.000731  0.251168  1
  Nd  Nd16  1  0.439315  0.830422  0.892331  1
  Nd  Nd17  1  0.939315  0.669578  0.607669  1
  Nd  Nd18  1  0.560685  0.169578  0.392331  1
  Nd  Nd19  1  0.060685  0.330422  0.107669  1
  Sn  Sn20  1  0.629729  0.636273  0.747905  1
  Sn  Sn21  1  0.129729  0.863727  0.752095  1
  Sn  Sn22  1  0.370271  0.363727  0.247905  1
  Sn  Sn23  1  0.870271  0.136273  0.252095  1
  Sn  Sn24  1  0.397992  0.131636  0.748667  1
  Sn  Sn25  1  0.897992  0.368364  0.751333  1
  Sn  Sn26  1  0.602008  0.868364  0.248667  1
  Sn  Sn27  1  0.102008  0.631636  0.251333  1
  Sb  Sb28  1  0.245650  0.993178  0.049962  1
  Sb  Sb29  1  0.745650  0.506822  0.450038  1
  Sb  Sb30  1  0.754350  0.006822  0.549962  1
  Sb  Sb31  1  0.254350  0.493178  0.950038  1
  Sb  Sb32  1  0.768417  0.018646  0.954174  1
  Sb  Sb33  1  0.268417  0.481354  0.545826  1
  Sb  Sb34  1  0.231583  0.981354  0.454174  1
  Sb  Sb35  1  0.731583  0.518646  0.045826  1
