# generated using pymatgen
data_TbZn2Cu2Pd
_symmetry_space_group_name_H-M   'P 1'
_cell_length_a   5.08506929
_cell_length_b   5.08506920
_cell_length_c   5.12053000
_cell_angle_alpha   59.76903561
_cell_angle_beta   59.76903623
_cell_angle_gamma   59.81232255
_symmetry_Int_Tables_number   1
_chemical_formula_structural   TbZn2Cu2Pd
_chemical_formula_sum   'Tb1 Zn2 Cu2 Pd1'
_cell_volume   93.16509252
_cell_formula_units_Z   1
loop_
 _symmetry_equiv_pos_site_id
 _symmetry_equiv_pos_as_xyz
  1  'x, y, z'
loop_
 _atom_site_type_symbol
 _atom_site_label
 _atom_site_symmetry_multiplicity
 _atom_site_fract_x
 _atom_site_fract_y
 _atom_site_fract_z
 _atom_site_occupancy
  Tb  Tb0  1  0.247719  0.247719  0.252281  1
  Zn  Zn1  1  0.627553  0.627553  0.626990  1
  Zn  Zn2  1  0.627553  0.627553  0.117906  1
  Cu  Cu3  1  0.626040  0.123031  0.625465  1
  Cu  Cu4  1  0.123031  0.626040  0.625465  1
  Pd  Pd5  1  0.998106  0.998106  0.001894  1
