# generated using pymatgen
data_La4V4OF27
_symmetry_space_group_name_H-M   'P 1'
_cell_length_a   5.59572434
_cell_length_b   8.98740367
_cell_length_c   12.00241400
_cell_angle_alpha   62.90910865
_cell_angle_beta   89.97989020
_cell_angle_gamma   89.65289470
_symmetry_Int_Tables_number   1
_chemical_formula_structural   La4V4OF27
_chemical_formula_sum   'La4 V4 O1 F27'
_cell_volume   537.37661853
_cell_formula_units_Z   1
loop_
 _symmetry_equiv_pos_site_id
 _symmetry_equiv_pos_as_xyz
  1  'x, y, z'
loop_
 _atom_site_type_symbol
 _atom_site_label
 _atom_site_symmetry_multiplicity
 _atom_site_fract_x
 _atom_site_fract_y
 _atom_site_fract_z
 _atom_site_occupancy
  La  La0  1  0.765014  0.808250  0.762506  1
  La  La1  1  0.259649  0.191136  0.735129  1
  La  La2  1  0.241115  0.194631  0.232411  1
  La  La3  1  0.749649  0.807334  0.265555  1
  V  V4  1  0.751536  0.275889  0.956031  1
  V  V5  1  0.259997  0.724697  0.542464  1
  V  V6  1  0.254801  0.723322  0.034170  1
  V  V7  1  0.746778  0.273861  0.457177  1
  O  O8  1  0.417854  0.705175  0.928024  1
  F  F9  1  0.926257  0.291986  0.582731  1
  F  F10  1  0.572010  0.301078  0.078690  1
  F  F11  1  0.083074  0.703143  0.417965  1
  F  F12  1  0.458011  0.282139  0.537766  1
  F  F13  1  0.955088  0.716648  0.965101  1
  F  F14  1  0.550894  0.714633  0.465246  1
  F  F15  1  0.041368  0.285418  0.034908  1
  F  F16  1  0.765385  0.505488  0.864421  1
  F  F17  1  0.273001  0.496244  0.635742  1
  F  F18  1  0.216243  0.496959  0.139769  1
  F  F19  1  0.732885  0.501586  0.364944  1
  F  F20  1  0.756034  0.048416  0.041541  1
  F  F21  1  0.263779  0.952585  0.456828  1
  F  F22  1  0.234495  0.954972  0.955377  1
  F  F23  1  0.739044  0.044633  0.544228  1
  F  F24  1  0.971168  0.725378  0.624366  1
  F  F25  1  0.465062  0.276339  0.873043  1
  F  F26  1  0.033169  0.269830  0.376645  1
  F  F27  1  0.511408  0.724869  0.131454  1
  F  F28  1  0.056460  0.747585  0.164163  1
  F  F29  1  0.568390  0.258715  0.328631  1
  F  F30  1  0.929111  0.261345  0.826929  1
  F  F31  1  0.433608  0.739610  0.673363  1
  F  F32  1  0.397079  0.964776  0.224278  1
  F  F33  1  0.893229  0.038555  0.275816  1
  F  F34  1  0.611777  0.033430  0.778992  1
  F  F35  1  0.115574  0.959342  0.723597  1
