# generated using pymatgen
data_Dy5Er5(InSb2)2
_symmetry_space_group_name_H-M   'P 1'
_cell_length_a   8.93676424
_cell_length_b   8.91467346
_cell_length_c   6.43524300
_cell_angle_alpha   90.00000000
_cell_angle_beta   90.00000000
_cell_angle_gamma   119.80787053
_symmetry_Int_Tables_number   1
_chemical_formula_structural   Dy5Er5(InSb2)2
_chemical_formula_sum   'Dy5 Er5 In2 Sb4'
_cell_volume   444.85541024
_cell_formula_units_Z   1
loop_
 _symmetry_equiv_pos_site_id
 _symmetry_equiv_pos_as_xyz
  1  'x, y, z'
loop_
 _atom_site_type_symbol
 _atom_site_label
 _atom_site_symmetry_multiplicity
 _atom_site_fract_x
 _atom_site_fract_y
 _atom_site_fract_z
 _atom_site_occupancy
  Dy  Dy0  1  0.002198  0.760215  0.750000  1
  Dy  Dy1  1  0.002809  0.242031  0.250000  1
  Dy  Dy2  1  0.757897  0.759192  0.250000  1
  Dy  Dy3  1  0.758130  0.998383  0.750000  1
  Dy  Dy4  1  0.241146  0.003622  0.250000  1
  Er  Er5  1  0.241564  0.238038  0.750000  1
  Er  Er6  1  0.333881  0.667190  0.499583  1
  Er  Er7  1  0.663225  0.331477  0.000341  1
  Er  Er8  1  0.663225  0.331477  0.499659  1
  Er  Er9  1  0.333881  0.667190  0.000417  1
  In  In10  1  0.394539  0.998707  0.750000  1
  In  In11  1  0.394394  0.395796  0.250000  1
  Sb  Sb12  1  0.999185  0.607617  0.250000  1
  Sb  Sb13  1  0.999199  0.391349  0.750000  1
  Sb  Sb14  1  0.607546  0.607164  0.750000  1
  Sb  Sb15  1  0.607180  0.000552  0.250000  1
