# generated using pymatgen
data_Rb8Hf2Zr4BBr20
_symmetry_space_group_name_H-M   'P 1'
_cell_length_a   12.06493580
_cell_length_b   12.06475527
_cell_length_c   12.06235900
_cell_angle_alpha   60.00757288
_cell_angle_beta   60.00810558
_cell_angle_gamma   59.98636795
_symmetry_Int_Tables_number   1
_chemical_formula_structural   Rb8Hf2Zr4BBr20
_chemical_formula_sum   'Rb8 Hf2 Zr4 B1 Br20'
_cell_volume   1241.55927948
_cell_formula_units_Z   1
loop_
 _symmetry_equiv_pos_site_id
 _symmetry_equiv_pos_as_xyz
  1  'x, y, z'
loop_
 _atom_site_type_symbol
 _atom_site_label
 _atom_site_symmetry_multiplicity
 _atom_site_fract_x
 _atom_site_fract_y
 _atom_site_fract_z
 _atom_site_occupancy
  Rb  Rb0  1  0.361000  0.361000  0.360344  1
  Rb  Rb1  1  0.639000  0.639000  0.639656  1
  Rb  Rb2  1  0.360999  0.361000  0.917660  1
  Rb  Rb3  1  0.360344  0.917658  0.361000  1
  Rb  Rb4  1  0.639001  0.639000  0.082340  1
  Rb  Rb5  1  0.639656  0.082342  0.639000  1
  Rb  Rb6  1  0.917660  0.360343  0.360999  1
  Rb  Rb7  1  0.082340  0.639657  0.639001  1
  Hf  Hf8  1  0.135097  0.135102  0.864903  1
  Hf  Hf9  1  0.864903  0.864898  0.135097  1
  Zr  Zr10  1  0.863769  0.136233  0.136231  1
  Zr  Zr11  1  0.136231  0.863767  0.863769  1
  Zr  Zr12  1  0.136232  0.863768  0.136232  1
  Zr  Zr13  1  0.863768  0.136232  0.863768  1
  B  B14  1  0.000000  0.000000  0.000000  1
  Br  Br15  1  0.316650  0.003103  0.996897  1
  Br  Br16  1  0.683350  0.996897  0.003103  1
  Br  Br17  1  0.003103  0.316650  0.683350  1
  Br  Br18  1  0.996897  0.683350  0.316650  1
  Br  Br19  1  0.003102  0.316652  0.996898  1
  Br  Br20  1  0.683351  0.996897  0.316649  1
  Br  Br21  1  0.996898  0.683348  0.003102  1
  Br  Br22  1  0.316649  0.003103  0.683351  1
  Br  Br23  1  0.000000  0.999999  0.319402  1
  Br  Br24  1  0.000000  0.000001  0.680598  1
  Br  Br25  1  0.680597  0.319402  0.000000  1
  Br  Br26  1  0.319403  0.680598  0.000000  1
  Br  Br27  1  0.691221  0.308779  0.308779  1
  Br  Br28  1  0.308779  0.691221  0.691221  1
  Br  Br29  1  0.308778  0.691222  0.308778  1
  Br  Br30  1  0.691222  0.308778  0.691222  1
  Br  Br31  1  0.306575  0.306575  0.693425  1
  Br  Br32  1  0.693425  0.693425  0.306575  1
  Br  Br33  1  0.249999  0.250001  0.249999  1
  Br  Br34  1  0.750001  0.749999  0.750001  1
