# generated using pymatgen
data_Y4Ho8TcRu3
_symmetry_space_group_name_H-M   'P 1'
_cell_length_a   6.26261202
_cell_length_b   7.36816607
_cell_length_c   9.12190100
_cell_angle_alpha   90.00000000
_cell_angle_beta   90.00000000
_cell_angle_gamma   90.04042659
_symmetry_Int_Tables_number   1
_chemical_formula_structural   Y4Ho8TcRu3
_chemical_formula_sum   'Y4 Ho8 Tc1 Ru3'
_cell_volume   420.92057927
_cell_formula_units_Z   1
loop_
 _symmetry_equiv_pos_site_id
 _symmetry_equiv_pos_as_xyz
  1  'x, y, z'
loop_
 _atom_site_type_symbol
 _atom_site_label
 _atom_site_symmetry_multiplicity
 _atom_site_fract_x
 _atom_site_fract_y
 _atom_site_fract_z
 _atom_site_occupancy
  Y  Y0  1  0.871213  0.539238  0.250000  1
  Y  Y1  1  0.624496  0.040521  0.250000  1
  Y  Y2  1  0.131671  0.458573  0.750000  1
  Y  Y3  1  0.369057  0.958806  0.750000  1
  Ho  Ho4  1  0.335086  0.675831  0.064203  1
  Ho  Ho5  1  0.165127  0.176196  0.436338  1
  Ho  Ho6  1  0.666155  0.323852  0.564150  1
  Ho  Ho7  1  0.836414  0.824840  0.937322  1
  Ho  Ho8  1  0.666155  0.323852  0.935850  1
  Ho  Ho9  1  0.836414  0.824840  0.562678  1
  Ho  Ho10  1  0.335086  0.675831  0.435797  1
  Ho  Ho11  1  0.165127  0.176196  0.063662  1
  Tc  Tc12  1  0.043946  0.886769  0.250000  1
  Ru  Ru13  1  0.454965  0.385790  0.250000  1
  Ru  Ru14  1  0.954601  0.115275  0.750000  1
  Ru  Ru15  1  0.544489  0.613591  0.750000  1
