# generated using pymatgen
data_Y3Tm5Re2(OsC4)2
_symmetry_space_group_name_H-M   'P 1'
_cell_length_a   5.06518500
_cell_length_b   6.52347333
_cell_length_c   9.73600593
_cell_angle_alpha   89.63981517
_cell_angle_beta   90.00000000
_cell_angle_gamma   90.00000000
_symmetry_Int_Tables_number   1
_chemical_formula_structural   Y3Tm5Re2(OsC4)2
_chemical_formula_sum   'Y3 Tm5 Re2 Os2 C8'
_cell_volume   321.69658589
_cell_formula_units_Z   1
loop_
 _symmetry_equiv_pos_site_id
 _symmetry_equiv_pos_as_xyz
  1  'x, y, z'
loop_
 _atom_site_type_symbol
 _atom_site_label
 _atom_site_symmetry_multiplicity
 _atom_site_fract_x
 _atom_site_fract_y
 _atom_site_fract_z
 _atom_site_occupancy
  Y  Y0  1  0.750000  0.466528  0.784994  1
  Y  Y1  1  0.750000  0.968523  0.712599  1
  Y  Y2  1  0.250000  0.031700  0.287083  1
  Tm  Tm3  1  0.250000  0.675549  0.555910  1
  Tm  Tm4  1  0.750000  0.325451  0.443468  1
  Tm  Tm5  1  0.750000  0.823013  0.057027  1
  Tm  Tm6  1  0.250000  0.176311  0.943515  1
  Tm  Tm7  1  0.250000  0.533103  0.215985  1
  Re  Re8  1  0.250000  0.721374  0.867084  1
  Re  Re9  1  0.750000  0.278870  0.133194  1
  Os  Os10  1  0.750000  0.776461  0.365750  1
  Os  Os11  1  0.250000  0.224060  0.633516  1
  C  C12  1  0.250000  0.455413  0.760451  1
  C  C13  1  0.750000  0.545137  0.238923  1
  C  C14  1  0.750000  0.044952  0.258939  1
  C  C15  1  0.250000  0.955537  0.741241  1
  C  C16  1  0.250000  0.824230  0.053582  1
  C  C17  1  0.750000  0.171998  0.947862  1
  C  C18  1  0.750000  0.670576  0.551287  1
  C  C19  1  0.250000  0.331216  0.447588  1
