# generated using pymatgen
data_Yb3Ho(FeB4)4
_symmetry_space_group_name_H-M   'P 1'
_cell_length_a   3.34226200
_cell_length_b   5.88286912
_cell_length_c   11.38285523
_cell_angle_alpha   89.97707505
_cell_angle_beta   90.00000000
_cell_angle_gamma   90.00000000
_symmetry_Int_Tables_number   1
_chemical_formula_structural   Yb3Ho(FeB4)4
_chemical_formula_sum   'Yb3 Ho1 Fe4 B16'
_cell_volume   223.81070493
_cell_formula_units_Z   1
loop_
 _symmetry_equiv_pos_site_id
 _symmetry_equiv_pos_as_xyz
  1  'x, y, z'
loop_
 _atom_site_type_symbol
 _atom_site_label
 _atom_site_symmetry_multiplicity
 _atom_site_fract_x
 _atom_site_fract_y
 _atom_site_fract_z
 _atom_site_occupancy
  Yb  Yb0  1  0.000000  0.873669  0.348237  1
  Yb  Yb1  1  0.000000  0.625872  0.850098  1
  Yb  Yb2  1  0.000000  0.373841  0.150675  1
  Ho  Ho3  1  0.000000  0.126039  0.651293  1
  Fe  Fe4  1  0.000000  0.127828  0.915655  1
  Fe  Fe5  1  0.000000  0.871517  0.083250  1
  Fe  Fe6  1  0.000000  0.628846  0.584960  1
  Fe  Fe7  1  0.000000  0.370661  0.416363  1
  B  B8  1  0.500000  0.361242  0.967877  1
  B  B9  1  0.500000  0.638801  0.032100  1
  B  B10  1  0.500000  0.860726  0.531820  1
  B  B11  1  0.500000  0.139039  0.467840  1
  B  B12  1  0.500000  0.475232  0.690650  1
  B  B13  1  0.500000  0.524473  0.309762  1
  B  B14  1  0.500000  0.975205  0.810056  1
  B  B15  1  0.500000  0.024701  0.189928  1
  B  B16  1  0.500000  0.279944  0.817634  1
  B  B17  1  0.500000  0.720876  0.182357  1
  B  B18  1  0.500000  0.779198  0.682904  1
  B  B19  1  0.500000  0.220977  0.316976  1
  B  B20  1  0.500000  0.388739  0.546453  1
  B  B21  1  0.500000  0.612487  0.453326  1
  B  B22  1  0.500000  0.887701  0.953649  1
  B  B23  1  0.500000  0.112388  0.046137  1
