# generated using pymatgen
data_Cs2MoAs2O9
_symmetry_space_group_name_H-M   'P 1'
_cell_length_a   8.07791358
_cell_length_b   7.82897453
_cell_length_c   9.26574466
_cell_angle_alpha   109.57476236
_cell_angle_beta   101.85830794
_cell_angle_gamma   88.22205134
_symmetry_Int_Tables_number   1
_chemical_formula_structural   Cs2MoAs2O9
_chemical_formula_sum   'Cs4 Mo2 As4 O18'
_cell_volume   539.87788486
_cell_formula_units_Z   2
loop_
 _symmetry_equiv_pos_site_id
 _symmetry_equiv_pos_as_xyz
  1  'x, y, z'
loop_
 _atom_site_type_symbol
 _atom_site_label
 _atom_site_symmetry_multiplicity
 _atom_site_fract_x
 _atom_site_fract_y
 _atom_site_fract_z
 _atom_site_occupancy
  Cs  Cs0  1  0.925565  0.260021  0.644455  1
  Cs  Cs1  1  0.187525  0.826301  0.877575  1
  Cs  Cs2  1  0.074435  0.739979  0.355545  1
  Cs  Cs3  1  0.812475  0.173699  0.122425  1
  Mo  Mo4  1  0.428948  0.236508  0.743431  1
  Mo  Mo5  1  0.571052  0.763492  0.256569  1
  As  As6  1  0.323660  0.350245  0.097330  1
  As  As7  1  0.676340  0.649755  0.902670  1
  As  As8  1  0.664295  0.835851  0.642023  1
  As  As9  1  0.335705  0.164149  0.357977  1
  O  O10  1  0.719216  0.946942  0.336475  1
  O  O11  1  0.481624  0.226964  0.536442  1
  O  O12  1  0.297209  0.420491  0.766940  1
  O  O13  1  0.702791  0.579509  0.233060  1
  O  O14  1  0.644835  0.059050  0.750349  1
  O  O15  1  0.342512  0.581758  0.159440  1
  O  O16  1  0.518376  0.773036  0.463558  1
  O  O17  1  0.569680  0.704537  0.732907  1
  O  O18  1  0.355165  0.940950  0.249651  1
  O  O19  1  0.125905  0.263041  0.029075  1
  O  O20  1  0.874095  0.736959  0.970925  1
  O  O21  1  0.863257  0.784760  0.625637  1
  O  O22  1  0.457084  0.244109  0.969564  1
  O  O23  1  0.430320  0.295463  0.267093  1
  O  O24  1  0.280784  0.053058  0.663525  1
  O  O25  1  0.657488  0.418242  0.840560  1
  O  O26  1  0.136743  0.215240  0.374363  1
  O  O27  1  0.542916  0.755891  0.030436  1
