# generated using pymatgen
data_Cd2In(Pd2Au)3
_symmetry_space_group_name_H-M   'P 1'
_cell_length_a   4.27081400
_cell_length_b   7.51196600
_cell_length_c   12.83887700
_cell_angle_alpha   89.99997136
_cell_angle_beta   89.99986318
_cell_angle_gamma   90.00002867
_symmetry_Int_Tables_number   1
_chemical_formula_structural   Cd2In(Pd2Au)3
_chemical_formula_sum   'Cd4 In2 Pd12 Au6'
_cell_volume   411.89954251
_cell_formula_units_Z   2
loop_
 _symmetry_equiv_pos_site_id
 _symmetry_equiv_pos_as_xyz
  1  'x, y, z'
loop_
 _atom_site_type_symbol
 _atom_site_label
 _atom_site_symmetry_multiplicity
 _atom_site_fract_x
 _atom_site_fract_y
 _atom_site_fract_z
 _atom_site_occupancy
  Cd  Cd0  1  0.999992  0.000000  0.333488  1
  Cd  Cd1  1  0.500001  0.500000  0.500378  1
  Cd  Cd2  1  0.000008  0.000000  0.666280  1
  Cd  Cd3  1  0.499995  0.500000  0.833219  1
  In  In4  1  0.000000  0.000000  0.999985  1
  In  In5  1  0.500001  0.500000  0.166599  1
  Pd  Pd6  1  0.500002  0.246123  0.001923  1
  Pd  Pd7  1  0.500000  0.753877  0.001923  1
  Pd  Pd8  1  0.999998  0.253837  0.164761  1
  Pd  Pd9  1  0.999998  0.746163  0.164761  1
  Pd  Pd10  1  0.499998  0.252495  0.331633  1
  Pd  Pd11  1  0.499998  0.747505  0.331633  1
  Pd  Pd12  1  0.000002  0.248981  0.500128  1
  Pd  Pd13  1  0.000001  0.751018  0.500128  1
  Pd  Pd14  1  0.500004  0.251127  0.666501  1
  Pd  Pd15  1  0.500004  0.748873  0.666501  1
  Pd  Pd16  1  0.000004  0.247511  0.835078  1
  Pd  Pd17  1  0.000004  0.752488  0.835079  1
  Au  Au18  1  0.000000  0.500000  0.997122  1
  Au  Au19  1  0.499988  0.000000  0.169545  1
  Au  Au20  1  0.999995  0.500000  0.335807  1
  Au  Au21  1  0.500002  0.000000  0.499403  1
  Au  Au22  1  0.000003  0.500000  0.667279  1
  Au  Au23  1  0.500004  0.000000  0.830846  1
