# generated using pymatgen
data_La11Zn2In9Co2
_symmetry_space_group_name_H-M   'P 1'
_cell_length_a   13.74171800
_cell_length_b   13.81636945
_cell_length_c   3.83726800
_cell_angle_alpha   90.00000000
_cell_angle_beta   90.00000000
_cell_angle_gamma   111.19120367
_symmetry_Int_Tables_number   1
_chemical_formula_structural   La11Zn2In9Co2
_chemical_formula_sum   'La11 Zn2 In9 Co2'
_cell_volume   679.28140932
_cell_formula_units_Z   1
loop_
 _symmetry_equiv_pos_site_id
 _symmetry_equiv_pos_as_xyz
  1  'x, y, z'
loop_
 _atom_site_type_symbol
 _atom_site_label
 _atom_site_symmetry_multiplicity
 _atom_site_fract_x
 _atom_site_fract_y
 _atom_site_fract_z
 _atom_site_occupancy
  La  La0  1  0.067554  0.416989  0.000000  1
  La  La1  1  0.932461  0.583056  0.000000  1
  La  La2  1  0.419115  0.078663  0.000000  1
  La  La3  1  0.580859  0.921370  0.000000  1
  La  La4  1  0.612150  0.358570  0.000000  1
  La  La5  1  0.387774  0.641391  0.000000  1
  La  La6  1  0.840615  0.160670  0.000000  1
  La  La7  1  0.159285  0.839242  0.000000  1
  La  La8  1  0.999988  0.999917  0.000000  1
  La  La9  1  0.321544  0.302047  0.000000  1
  La  La10  1  0.678582  0.697987  0.000000  1
  Zn  Zn11  1  0.254375  0.452924  0.500000  1
  Zn  Zn12  1  0.745605  0.547008  0.500000  1
  In  In13  1  0.836830  0.366593  0.500000  1
  In  In14  1  0.163234  0.633429  0.500000  1
  In  In15  1  0.366526  0.839083  0.500000  1
  In  In16  1  0.633337  0.160915  0.500000  1
  In  In17  1  0.079424  0.220354  0.500000  1
  In  In18  1  0.920603  0.779646  0.500000  1
  In  In19  1  0.220497  0.079331  0.500000  1
  In  In20  1  0.779606  0.920830  0.500000  1
  In  In21  1  0.499972  0.499983  0.500000  1
  Co  Co22  1  0.449449  0.239331  0.500000  1
  Co  Co23  1  0.550614  0.760675  0.500000  1
