# generated using pymatgen
data_Tb3CeDy4(CdRu)2
_symmetry_space_group_name_H-M   'P 1'
_cell_length_a   9.74098200
_cell_length_b   9.64077514
_cell_length_c   9.64077470
_cell_angle_alpha   59.56482545
_cell_angle_beta   59.65557183
_cell_angle_gamma   59.65556504
_symmetry_Int_Tables_number   1
_chemical_formula_structural   Tb3CeDy4(CdRu)2
_chemical_formula_sum   'Tb6 Ce2 Dy8 Cd4 Ru4'
_cell_volume   634.74191028
_cell_formula_units_Z   2
loop_
 _symmetry_equiv_pos_site_id
 _symmetry_equiv_pos_as_xyz
  1  'x, y, z'
loop_
 _atom_site_type_symbol
 _atom_site_label
 _atom_site_symmetry_multiplicity
 _atom_site_fract_x
 _atom_site_fract_y
 _atom_site_fract_z
 _atom_site_occupancy
  Tb  Tb0  1  0.562684  0.561548  0.938270  1
  Tb  Tb1  1  0.937500  0.561548  0.938270  1
  Tb  Tb2  1  0.562144  0.937856  0.937856  1
  Tb  Tb3  1  0.937500  0.938270  0.561548  1
  Tb  Tb4  1  0.562684  0.938270  0.561548  1
  Tb  Tb5  1  0.939102  0.560898  0.560898  1
  Ce  Ce6  1  0.971567  0.340768  0.340768  1
  Ce  Ce7  1  0.346897  0.340768  0.340768  1
  Dy  Dy8  1  0.189583  0.188257  0.812221  1
  Dy  Dy9  1  0.809939  0.188257  0.812221  1
  Dy  Dy10  1  0.188283  0.811717  0.811716  1
  Dy  Dy11  1  0.809939  0.812222  0.188257  1
  Dy  Dy12  1  0.189582  0.812221  0.188256  1
  Dy  Dy13  1  0.810809  0.189191  0.189191  1
  Dy  Dy14  1  0.349315  0.348413  0.952957  1
  Dy  Dy15  1  0.349315  0.952957  0.348413  1
  Cd  Cd16  1  0.581503  0.579386  0.257608  1
  Cd  Cd17  1  0.581503  0.257608  0.579386  1
  Cd  Cd18  1  0.259324  0.579992  0.579992  1
  Cd  Cd19  1  0.580691  0.579992  0.579992  1
  Ru  Ru20  1  0.137795  0.153086  0.571323  1
  Ru  Ru21  1  0.137795  0.571323  0.153086  1
  Ru  Ru22  1  0.573586  0.147728  0.147728  1
  Ru  Ru23  1  0.130958  0.147728  0.147728  1
