# generated using pymatgen
data_Hf6Al8Si8Ir5Ru2
_symmetry_space_group_name_H-M   'P 1'
_cell_length_a   8.57953219
_cell_length_b   8.57953140
_cell_length_c   8.57343900
_cell_angle_alpha   60.02348356
_cell_angle_beta   60.02348663
_cell_angle_gamma   59.95302119
_symmetry_Int_Tables_number   1
_chemical_formula_structural   Hf6Al8Si8Ir5Ru2
_chemical_formula_sum   'Hf6 Al8 Si8 Ir5 Ru2'
_cell_volume   446.23823010
_cell_formula_units_Z   1
loop_
 _symmetry_equiv_pos_site_id
 _symmetry_equiv_pos_as_xyz
  1  'x, y, z'
loop_
 _atom_site_type_symbol
 _atom_site_label
 _atom_site_symmetry_multiplicity
 _atom_site_fract_x
 _atom_site_fract_y
 _atom_site_fract_z
 _atom_site_occupancy
  Hf  Hf0  1  0.690626  0.309374  0.309374  1
  Hf  Hf1  1  0.309374  0.690626  0.690626  1
  Hf  Hf2  1  0.309374  0.690626  0.309374  1
  Hf  Hf3  1  0.690626  0.309374  0.690626  1
  Hf  Hf4  1  0.307096  0.307096  0.692904  1
  Hf  Hf5  1  0.692904  0.692904  0.307096  1
  Al  Al6  1  0.119312  0.119312  0.123013  1
  Al  Al7  1  0.880688  0.880688  0.876987  1
  Al  Al8  1  0.119312  0.119312  0.638363  1
  Al  Al9  1  0.123013  0.638363  0.119312  1
  Al  Al10  1  0.880688  0.880688  0.361637  1
  Al  Al11  1  0.876987  0.361637  0.880688  1
  Al  Al12  1  0.638363  0.123013  0.119312  1
  Al  Al13  1  0.361637  0.876987  0.880688  1
  Si  Si14  1  0.344796  0.344796  0.341671  1
  Si  Si15  1  0.655204  0.655204  0.658329  1
  Si  Si16  1  0.344796  0.344796  0.968736  1
  Si  Si17  1  0.341671  0.968736  0.344796  1
  Si  Si18  1  0.655204  0.655204  0.031264  1
  Si  Si19  1  0.658329  0.031264  0.655204  1
  Si  Si20  1  0.968736  0.341671  0.344796  1
  Si  Si21  1  0.031264  0.658329  0.655204  1
  Ir  Ir22  1  0.500000  0.000000  0.000000  1
  Ir  Ir23  1  0.000000  0.500000  0.500000  1
  Ir  Ir24  1  0.000000  0.500000  0.000000  1
  Ir  Ir25  1  0.500000  0.000000  0.500000  1
  Ir  Ir26  1  0.000000  0.000000  0.000000  1
  Ru  Ru27  1  0.000000  0.000000  0.500000  1
  Ru  Ru28  1  0.500000  0.500000  0.000000  1
