# generated using pymatgen
data_EuHf7H30
_symmetry_space_group_name_H-M   'P 1'
_cell_length_a   7.03093855
_cell_length_b   7.03093832
_cell_length_c   7.03093944
_cell_angle_alpha   109.23798263
_cell_angle_beta   109.23798444
_cell_angle_gamma   109.23798439
_symmetry_Int_Tables_number   1
_chemical_formula_structural   EuHf7H30
_chemical_formula_sum   'Eu1 Hf7 H30'
_cell_volume   269.84380158
_cell_formula_units_Z   1
loop_
 _symmetry_equiv_pos_site_id
 _symmetry_equiv_pos_as_xyz
  1  'x, y, z'
loop_
 _atom_site_type_symbol
 _atom_site_label
 _atom_site_symmetry_multiplicity
 _atom_site_fract_x
 _atom_site_fract_y
 _atom_site_fract_z
 _atom_site_occupancy
  Eu  Eu0  1  0.912519  0.912519  0.912519  1
  Hf  Hf1  1  0.503572  0.003810  0.109288  1
  Hf  Hf2  1  0.003810  0.109288  0.503572  1
  Hf  Hf3  1  0.109288  0.503572  0.003810  1
  Hf  Hf4  1  0.001235  0.604564  0.493644  1
  Hf  Hf5  1  0.604564  0.493644  0.001235  1
  Hf  Hf6  1  0.493644  0.001235  0.604564  1
  Hf  Hf7  1  0.409349  0.409349  0.409349  1
  H  H8  1  0.658107  0.977085  0.390779  1
  H  H9  1  0.222773  0.310364  0.845551  1
  H  H10  1  0.191525  0.422555  0.533109  1
  H  H11  1  0.107594  0.297940  0.131595  1
  H  H12  1  0.297940  0.131595  0.107594  1
  H  H13  1  0.131595  0.107594  0.297940  1
  H  H14  1  0.453877  0.152367  0.882274  1
  H  H15  1  0.715371  0.336225  0.811722  1
  H  H16  1  0.629481  0.365035  0.245738  1
  H  H17  1  0.245738  0.629481  0.365035  1
  H  H18  1  0.748529  0.866658  0.142095  1
  H  H19  1  0.142095  0.748529  0.866658  1
  H  H20  1  0.365035  0.245738  0.629481  1
  H  H21  1  0.866658  0.142095  0.748529  1
  H  H22  1  0.765429  0.571824  0.591577  1
  H  H23  1  0.310364  0.845551  0.222773  1
  H  H24  1  0.390779  0.658107  0.977085  1
  H  H25  1  0.977085  0.390779  0.658107  1
  H  H26  1  0.533109  0.191525  0.422555  1
  H  H27  1  0.422555  0.533109  0.191525  1
  H  H28  1  0.845551  0.222773  0.310364  1
  H  H29  1  0.908901  0.658688  0.027255  1
  H  H30  1  0.811722  0.715371  0.336225  1
  H  H31  1  0.152367  0.882274  0.453877  1
  H  H32  1  0.658688  0.027255  0.908901  1
  H  H33  1  0.336225  0.811722  0.715371  1
  H  H34  1  0.882274  0.453877  0.152367  1
  H  H35  1  0.591577  0.765429  0.571824  1
  H  H36  1  0.571824  0.591577  0.765429  1
  H  H37  1  0.027255  0.908901  0.658688  1
