# generated using pymatgen
data_Zr6Al16Cu(Tc2Pd)2
_symmetry_space_group_name_H-M   'P 1'
_cell_length_a   8.73823845
_cell_length_b   8.73823846
_cell_length_c   8.90927000
_cell_angle_alpha   59.35039796
_cell_angle_beta   59.35039793
_cell_angle_gamma   61.49017252
_symmetry_Int_Tables_number   1
_chemical_formula_structural   Zr6Al16Cu(Tc2Pd)2
_chemical_formula_sum   'Zr6 Al16 Cu1 Tc4 Pd2'
_cell_volume   481.27338715
_cell_formula_units_Z   1
loop_
 _symmetry_equiv_pos_site_id
 _symmetry_equiv_pos_as_xyz
  1  'x, y, z'
loop_
 _atom_site_type_symbol
 _atom_site_label
 _atom_site_symmetry_multiplicity
 _atom_site_fract_x
 _atom_site_fract_y
 _atom_site_fract_z
 _atom_site_occupancy
  Zr  Zr0  1  0.679397  0.679397  0.320603  1
  Zr  Zr1  1  0.287211  0.712789  0.285765  1
  Zr  Zr2  1  0.712789  0.287211  0.285765  1
  Zr  Zr3  1  0.320603  0.320603  0.679397  1
  Zr  Zr4  1  0.712789  0.287211  0.714235  1
  Zr  Zr5  1  0.287211  0.712789  0.714235  1
  Al  Al6  1  0.873880  0.873880  0.365075  1
  Al  Al7  1  0.887247  0.364713  0.874021  1
  Al  Al8  1  0.364713  0.887247  0.874021  1
  Al  Al9  1  0.873880  0.873880  0.887167  1
  Al  Al10  1  0.126120  0.126120  0.634925  1
  Al  Al11  1  0.112753  0.635287  0.125979  1
  Al  Al12  1  0.635287  0.112753  0.125979  1
  Al  Al13  1  0.126120  0.126120  0.112833  1
  Al  Al14  1  0.660821  0.660821  0.012577  1
  Al  Al15  1  0.661382  0.015325  0.661646  1
  Al  Al16  1  0.015325  0.661382  0.661646  1
  Al  Al17  1  0.660821  0.660821  0.665782  1
  Al  Al18  1  0.339179  0.339179  0.987423  1
  Al  Al19  1  0.338618  0.984675  0.338354  1
  Al  Al20  1  0.984675  0.338618  0.338354  1
  Al  Al21  1  0.339179  0.339179  0.334218  1
  Cu  Cu22  1  0.500000  0.500000  0.000000  1
  Tc  Tc23  1  0.500000  0.000000  0.500000  1
  Tc  Tc24  1  0.000000  0.500000  0.500000  1
  Tc  Tc25  1  0.000000  0.500000  0.000000  1
  Tc  Tc26  1  0.500000  0.000000  0.000000  1
  Pd  Pd27  1  0.000000  0.000000  0.000000  1
  Pd  Pd28  1  0.000000  0.000000  0.500000  1
