# generated using pymatgen
data_Lu3Si2GeRu2
_symmetry_space_group_name_H-M   'P 1'
_cell_length_a   5.65055594
_cell_length_b   5.65055720
_cell_length_c   13.66858400
_cell_angle_alpha   90.00000000
_cell_angle_beta   90.00000000
_cell_angle_gamma   137.05334924
_symmetry_Int_Tables_number   1
_chemical_formula_structural   Lu3Si2GeRu2
_chemical_formula_sum   'Lu6 Si4 Ge2 Ru4'
_cell_volume   297.34131697
_cell_formula_units_Z   2
loop_
 _symmetry_equiv_pos_site_id
 _symmetry_equiv_pos_as_xyz
  1  'x, y, z'
loop_
 _atom_site_type_symbol
 _atom_site_label
 _atom_site_symmetry_multiplicity
 _atom_site_fract_x
 _atom_site_fract_y
 _atom_site_fract_z
 _atom_site_occupancy
  Lu  Lu0  1  0.925118  0.074882  0.387630  1
  Lu  Lu1  1  0.074882  0.925118  0.612370  1
  Lu  Lu2  1  0.925118  0.074882  0.112370  1
  Lu  Lu3  1  0.074882  0.925118  0.887630  1
  Lu  Lu4  1  0.645984  0.354016  0.250000  1
  Lu  Lu5  1  0.354016  0.645984  0.750000  1
  Si  Si6  1  0.614629  0.385371  0.461159  1
  Si  Si7  1  0.385371  0.614629  0.538841  1
  Si  Si8  1  0.614629  0.385371  0.038841  1
  Si  Si9  1  0.385371  0.614629  0.961159  1
  Ge  Ge10  1  0.341258  0.658742  0.250000  1
  Ge  Ge11  1  0.658742  0.341258  0.750000  1
  Ru  Ru12  1  0.788876  0.211124  0.919579  1
  Ru  Ru13  1  0.211124  0.788876  0.080421  1
  Ru  Ru14  1  0.788876  0.211124  0.580421  1
  Ru  Ru15  1  0.211124  0.788876  0.419579  1
