# generated using pymatgen
data_Li2HgSI2
_symmetry_space_group_name_H-M   'P 1'
_cell_length_a   7.83890731
_cell_length_b   7.83890707
_cell_length_c   7.17126900
_cell_angle_alpha   90.00000000
_cell_angle_beta   90.00000000
_cell_angle_gamma   123.01844965
_symmetry_Int_Tables_number   1
_chemical_formula_structural   Li2HgSI2
_chemical_formula_sum   'Li4 Hg2 S2 I4'
_cell_volume   369.49418837
_cell_formula_units_Z   2
loop_
 _symmetry_equiv_pos_site_id
 _symmetry_equiv_pos_as_xyz
  1  'x, y, z'
loop_
 _atom_site_type_symbol
 _atom_site_label
 _atom_site_symmetry_multiplicity
 _atom_site_fract_x
 _atom_site_fract_y
 _atom_site_fract_z
 _atom_site_occupancy
  Li  Li0  1  0.505052  0.181771  0.228323  1
  Li  Li1  1  0.181771  0.505052  0.228323  1
  Li  Li2  1  0.818229  0.494948  0.728323  1
  Li  Li3  1  0.494948  0.818229  0.728323  1
  Hg  Hg4  1  0.026864  0.026864  0.585956  1
  Hg  Hg5  1  0.973136  0.973136  0.085956  1
  S  S6  1  0.210343  0.210343  0.312574  1
  S  S7  1  0.789657  0.789657  0.812574  1
  I  I8  1  0.463511  0.139992  0.835312  1
  I  I9  1  0.139992  0.463511  0.835312  1
  I  I10  1  0.536489  0.860008  0.335312  1
  I  I11  1  0.860008  0.536489  0.335312  1
