# generated using pymatgen
data_Nd3Mg(Pt2O7)2
_symmetry_space_group_name_H-M   'P 1'
_cell_length_a   7.27681411
_cell_length_b   7.41495356
_cell_length_c   7.41495300
_cell_angle_alpha   59.99999806
_cell_angle_beta   59.37001638
_cell_angle_gamma   59.37001026
_symmetry_Int_Tables_number   1
_chemical_formula_structural   Nd3Mg(Pt2O7)2
_chemical_formula_sum   'Nd3 Mg1 Pt4 O14'
_cell_volume   280.18272017
_cell_formula_units_Z   1
loop_
 _symmetry_equiv_pos_site_id
 _symmetry_equiv_pos_as_xyz
  1  'x, y, z'
loop_
 _atom_site_type_symbol
 _atom_site_label
 _atom_site_symmetry_multiplicity
 _atom_site_fract_x
 _atom_site_fract_y
 _atom_site_fract_z
 _atom_site_occupancy
  Nd  Nd0  1  0.625000  0.625000  0.125000  1
  Nd  Nd1  1  0.625000  0.125000  0.625000  1
  Nd  Nd2  1  0.625000  0.625000  0.625000  1
  Mg  Mg3  1  0.125000  0.625000  0.625000  1
  Pt  Pt4  1  0.125000  0.125000  0.625000  1
  Pt  Pt5  1  0.125000  0.625000  0.125000  1
  Pt  Pt6  1  0.625000  0.125000  0.125000  1
  Pt  Pt7  1  0.125000  0.125000  0.125000  1
  O  O8  1  0.469672  0.510109  0.510109  1
  O  O9  1  0.780328  0.739891  0.739891  1
  O  O10  1  0.463937  0.037673  0.460718  1
  O  O11  1  0.200527  0.793025  0.213422  1
  O  O12  1  0.463937  0.460718  0.037673  1
  O  O13  1  0.049473  0.456975  0.456975  1
  O  O14  1  0.463937  0.037673  0.037673  1
  O  O15  1  0.049473  0.036578  0.456975  1
  O  O16  1  0.049473  0.456975  0.036578  1
  O  O17  1  0.786063  0.212327  0.212327  1
  O  O18  1  0.200527  0.793025  0.793025  1
  O  O19  1  0.786063  0.212327  0.789282  1
  O  O20  1  0.200527  0.213422  0.793025  1
  O  O21  1  0.786063  0.789282  0.212327  1
