# generated using pymatgen
data_Y6Ga7Cu16P
_symmetry_space_group_name_H-M   'P 1'
_cell_length_a   8.82088432
_cell_length_b   8.82089251
_cell_length_c   8.82089300
_cell_angle_alpha   60.00003193
_cell_angle_beta   60.00000121
_cell_angle_gamma   59.99992110
_symmetry_Int_Tables_number   1
_chemical_formula_structural   Y6Ga7Cu16P
_chemical_formula_sum   'Y6 Ga7 Cu16 P1'
_cell_volume   485.31315414
_cell_formula_units_Z   1
loop_
 _symmetry_equiv_pos_site_id
 _symmetry_equiv_pos_as_xyz
  1  'x, y, z'
loop_
 _atom_site_type_symbol
 _atom_site_label
 _atom_site_symmetry_multiplicity
 _atom_site_fract_x
 _atom_site_fract_y
 _atom_site_fract_z
 _atom_site_occupancy
  Y  Y0  1  0.718246  0.281754  0.281753  1
  Y  Y1  1  0.281754  0.718246  0.718247  1
  Y  Y2  1  0.281754  0.718246  0.281754  1
  Y  Y3  1  0.718246  0.281754  0.718246  1
  Y  Y4  1  0.281753  0.281753  0.718246  1
  Y  Y5  1  0.718247  0.718247  0.281754  1
  Ga  Ga6  1  0.000000  0.000000  0.000000  1
  Ga  Ga7  1  0.500000  0.000000  0.000000  1
  Ga  Ga8  1  0.000000  0.500000  0.500000  1
  Ga  Ga9  1  0.000000  0.500000  0.000000  1
  Ga  Ga10  1  0.500000  0.000000  0.500000  1
  Ga  Ga11  1  0.000000  0.000000  0.500000  1
  Ga  Ga12  1  0.500000  0.500000  0.000000  1
  Cu  Cu13  1  0.123492  0.123492  0.123492  1
  Cu  Cu14  1  0.876508  0.876508  0.876508  1
  Cu  Cu15  1  0.123492  0.123492  0.629523  1
  Cu  Cu16  1  0.123492  0.629523  0.123492  1
  Cu  Cu17  1  0.876508  0.876508  0.370477  1
  Cu  Cu18  1  0.876508  0.370477  0.876508  1
  Cu  Cu19  1  0.629523  0.123492  0.123493  1
  Cu  Cu20  1  0.370477  0.876508  0.876507  1
  Cu  Cu21  1  0.325662  0.325662  0.325662  1
  Cu  Cu22  1  0.674338  0.674338  0.674338  1
  Cu  Cu23  1  0.325662  0.325662  0.023014  1
  Cu  Cu24  1  0.325662  0.023014  0.325662  1
  Cu  Cu25  1  0.674338  0.674338  0.976986  1
  Cu  Cu26  1  0.674338  0.976986  0.674338  1
  Cu  Cu27  1  0.023015  0.325662  0.325662  1
  Cu  Cu28  1  0.976985  0.674338  0.674338  1
  P  P29  1  0.500000  0.500000  0.500000  1
