# generated using pymatgen
data_YThSc3Si7Pt9
_symmetry_space_group_name_H-M   'P 1'
_cell_length_a   10.07500300
_cell_length_b   10.07500315
_cell_length_c   4.01914400
_cell_angle_alpha   90.00000000
_cell_angle_beta   90.00000000
_cell_angle_gamma   119.99999623
_symmetry_Int_Tables_number   1
_chemical_formula_structural   YThSc3Si7Pt9
_chemical_formula_sum   'Y1 Th1 Sc3 Si7 Pt9'
_cell_volume   353.30890957
_cell_formula_units_Z   1
loop_
 _symmetry_equiv_pos_site_id
 _symmetry_equiv_pos_as_xyz
  1  'x, y, z'
loop_
 _atom_site_type_symbol
 _atom_site_label
 _atom_site_symmetry_multiplicity
 _atom_site_fract_x
 _atom_site_fract_y
 _atom_site_fract_z
 _atom_site_occupancy
  Y  Y0  1  0.000000  0.000000  0.000000  1
  Th  Th1  1  0.333333  0.666667  0.500000  1
  Sc  Sc2  1  0.890774  0.452936  0.500000  1
  Sc  Sc3  1  0.562163  0.109226  0.500000  1
  Sc  Sc4  1  0.547064  0.437837  0.500000  1
  Si  Si5  1  0.244550  0.193902  0.500000  1
  Si  Si6  1  0.806098  0.050650  0.500000  1
  Si  Si7  1  0.949350  0.755450  0.500000  1
  Si  Si8  1  0.563742  0.646547  0.000000  1
  Si  Si9  1  0.353453  0.917193  0.000000  1
  Si  Si10  1  0.082807  0.436258  0.000000  1
  Si  Si11  1  0.666667  0.333333  0.000000  1
  Pt  Pt12  1  0.217891  0.935719  0.500000  1
  Pt  Pt13  1  0.064281  0.282174  0.500000  1
  Pt  Pt14  1  0.717826  0.782109  0.500000  1
  Pt  Pt15  1  0.314696  0.415378  0.000000  1
  Pt  Pt16  1  0.584622  0.899319  0.000000  1
  Pt  Pt17  1  0.100681  0.685304  0.000000  1
  Pt  Pt18  1  0.382756  0.174192  0.000000  1
  Pt  Pt19  1  0.825808  0.208563  0.000000  1
  Pt  Pt20  1  0.791437  0.617244  0.000000  1
