# generated using pymatgen
data_CsGeH9
_symmetry_space_group_name_H-M   'P 1'
_cell_length_a   9.85637100
_cell_length_b   9.85636857
_cell_length_c   7.60468200
_cell_angle_alpha   90.00000000
_cell_angle_beta   90.00000000
_cell_angle_gamma   120.00000661
_symmetry_Int_Tables_number   1
_chemical_formula_structural   CsGeH9
_chemical_formula_sum   'Cs3 Ge3 H27'
_cell_volume   639.80206615
_cell_formula_units_Z   3
loop_
 _symmetry_equiv_pos_site_id
 _symmetry_equiv_pos_as_xyz
  1  'x, y, z'
loop_
 _atom_site_type_symbol
 _atom_site_label
 _atom_site_symmetry_multiplicity
 _atom_site_fract_x
 _atom_site_fract_y
 _atom_site_fract_z
 _atom_site_occupancy
  Cs  Cs0  1  0.666667  0.333333  0.513139  1
  Cs  Cs1  1  0.333333  0.666667  0.288982  1
  Cs  Cs2  1  0.000000  0.000000  0.905224  1
  Ge  Ge3  1  0.666667  0.333333  0.995534  1
  Ge  Ge4  1  0.333333  0.666667  0.789123  1
  Ge  Ge5  1  0.000000  0.000000  0.417741  1
  H  H6  1  0.469186  0.029102  0.112294  1
  H  H7  1  0.559915  0.530814  0.112294  1
  H  H8  1  0.970898  0.440085  0.112294  1
  H  H9  1  0.433210  0.958686  0.051996  1
  H  H10  1  0.525474  0.566790  0.051996  1
  H  H11  1  0.041314  0.474526  0.051996  1
  H  H12  1  0.735835  0.244313  0.879696  1
  H  H13  1  0.508478  0.264165  0.879696  1
  H  H14  1  0.755687  0.491522  0.879696  1
  H  H15  1  0.973284  0.121327  0.534897  1
  H  H16  1  0.148042  0.026716  0.534897  1
  H  H17  1  0.878673  0.851958  0.534897  1
  H  H18  1  0.108328  0.834480  0.195219  1
  H  H19  1  0.726152  0.891672  0.195219  1
  H  H20  1  0.165520  0.273848  0.195219  1
  H  H21  1  0.279537  0.512599  0.907400  1
  H  H22  1  0.233062  0.720463  0.907400  1
  H  H23  1  0.487401  0.766938  0.907400  1
  H  H24  1  0.119970  0.788632  0.122297  1
  H  H25  1  0.668663  0.880030  0.122297  1
  H  H26  1  0.211368  0.331337  0.122297  1
  H  H27  1  0.358020  0.418489  0.555291  1
  H  H28  1  0.060470  0.641980  0.555291  1
  H  H29  1  0.581511  0.939530  0.555291  1
  H  H30  1  0.019605  0.665869  0.488667  1
  H  H31  1  0.646264  0.980395  0.488667  1
  H  H32  1  0.334131  0.353736  0.488667  1
