# generated using pymatgen
data_Ce2BeRuRh2
_symmetry_space_group_name_H-M   'P 1'
_cell_length_a   4.86325420
_cell_length_b   5.64289293
_cell_length_c   4.86325391
_cell_angle_alpha   122.38427007
_cell_angle_beta   109.24334496
_cell_angle_gamma   92.41841394
_symmetry_Int_Tables_number   1
_chemical_formula_structural   Ce2BeRuRh2
_chemical_formula_sum   'Ce2 Be1 Ru1 Rh2'
_cell_volume   102.32553164
_cell_formula_units_Z   1
loop_
 _symmetry_equiv_pos_site_id
 _symmetry_equiv_pos_as_xyz
  1  'x, y, z'
loop_
 _atom_site_type_symbol
 _atom_site_label
 _atom_site_symmetry_multiplicity
 _atom_site_fract_x
 _atom_site_fract_y
 _atom_site_fract_z
 _atom_site_occupancy
  Ce  Ce0  1  0.364610  0.126633  0.262023  1
  Ce  Ce1  1  0.635390  0.873367  0.737977  1
  Be  Be2  1  0.000000  0.500000  0.000000  1
  Ru  Ru3  1  0.000000  0.000000  0.500000  1
  Rh  Rh4  1  0.500000  0.500000  0.000000  1
  Rh  Rh5  1  0.000000  0.500000  0.500000  1
