# generated using pymatgen
data_MgNbNi20B6W
_symmetry_space_group_name_H-M   'P 1'
_cell_length_a   7.47978763
_cell_length_b   7.47978779
_cell_length_c   7.47978900
_cell_angle_alpha   59.99999906
_cell_angle_beta   59.99999838
_cell_angle_gamma   59.99999705
_symmetry_Int_Tables_number   1
_chemical_formula_structural   MgNbNi20B6W
_chemical_formula_sum   'Mg1 Nb1 Ni20 B6 W1'
_cell_volume   295.90538928
_cell_formula_units_Z   1
loop_
 _symmetry_equiv_pos_site_id
 _symmetry_equiv_pos_as_xyz
  1  'x, y, z'
loop_
 _atom_site_type_symbol
 _atom_site_label
 _atom_site_symmetry_multiplicity
 _atom_site_fract_x
 _atom_site_fract_y
 _atom_site_fract_z
 _atom_site_occupancy
  Mg  Mg0  1  0.250000  0.250000  0.250000  1
  Nb  Nb1  1  0.750000  0.750000  0.750000  1
  Ni  Ni2  1  0.342187  0.998395  0.998395  1
  Ni  Ni3  1  0.661022  0.998395  0.998395  1
  Ni  Ni4  1  0.998395  0.342187  0.661022  1
  Ni  Ni5  1  0.998395  0.661022  0.342187  1
  Ni  Ni6  1  0.998395  0.342187  0.998395  1
  Ni  Ni7  1  0.661022  0.998395  0.342187  1
  Ni  Ni8  1  0.998395  0.661022  0.998395  1
  Ni  Ni9  1  0.342187  0.998395  0.661022  1
  Ni  Ni10  1  0.998395  0.998395  0.342187  1
  Ni  Ni11  1  0.998395  0.998395  0.661022  1
  Ni  Ni12  1  0.661022  0.342187  0.998395  1
  Ni  Ni13  1  0.342187  0.661022  0.998395  1
  Ni  Ni14  1  0.385717  0.385717  0.385717  1
  Ni  Ni15  1  0.616009  0.616009  0.616009  1
  Ni  Ni16  1  0.385717  0.385717  0.842850  1
  Ni  Ni17  1  0.385717  0.842850  0.385717  1
  Ni  Ni18  1  0.616009  0.616009  0.151972  1
  Ni  Ni19  1  0.616009  0.151972  0.616009  1
  Ni  Ni20  1  0.842850  0.385717  0.385717  1
  Ni  Ni21  1  0.151972  0.616009  0.616009  1
  B  B22  1  0.729262  0.270738  0.270738  1
  B  B23  1  0.270738  0.729262  0.729262  1
  B  B24  1  0.270738  0.729262  0.270738  1
  B  B25  1  0.729262  0.270738  0.729262  1
  B  B26  1  0.270738  0.270738  0.729262  1
  B  B27  1  0.729262  0.729262  0.270738  1
  W  W28  1  0.000000  0.000000  0.000000  1
