# generated using pymatgen
data_CaEr(NiH4)2
_symmetry_space_group_name_H-M   'P 1'
_cell_length_a   3.57520931
_cell_length_b   4.76807700
_cell_length_c   6.05187978
_cell_angle_alpha   90.00000000
_cell_angle_beta   107.15159450
_cell_angle_gamma   90.00000000
_symmetry_Int_Tables_number   1
_chemical_formula_structural   CaEr(NiH4)2
_chemical_formula_sum   'Ca1 Er1 Ni2 H8'
_cell_volume   98.57763007
_cell_formula_units_Z   1
loop_
 _symmetry_equiv_pos_site_id
 _symmetry_equiv_pos_as_xyz
  1  'x, y, z'
loop_
 _atom_site_type_symbol
 _atom_site_label
 _atom_site_symmetry_multiplicity
 _atom_site_fract_x
 _atom_site_fract_y
 _atom_site_fract_z
 _atom_site_occupancy
  Ca  Ca0  1  0.133824  0.250001  0.267578  1
  Er  Er1  1  0.869181  0.750001  0.738070  1
  Ni  Ni2  1  0.595732  0.750001  0.189644  1
  Ni  Ni3  1  0.400691  0.250001  0.804480  1
  H  H4  1  0.498590  0.996556  0.996859  1
  H  H5  1  0.498590  0.503444  0.996859  1
  H  H6  1  0.082267  0.750001  0.164480  1
  H  H7  1  0.694970  0.982704  0.390164  1
  H  H8  1  0.694970  0.517296  0.390164  1
  H  H9  1  0.311849  0.510878  0.623328  1
  H  H10  1  0.311849  0.989121  0.623328  1
  H  H11  1  0.907484  0.250001  0.815043  1
