# generated using pymatgen
data_Pb(AuF6)2
_symmetry_space_group_name_H-M   'P 1'
_cell_length_a   7.65838141
_cell_length_b   7.65838103
_cell_length_c   10.71432041
_cell_angle_alpha   68.18784133
_cell_angle_beta   68.18784276
_cell_angle_gamma   75.36148035
_symmetry_Int_Tables_number   1
_chemical_formula_structural   Pb(AuF6)2
_chemical_formula_sum   'Pb2 Au4 F24'
_cell_volume   536.83206038
_cell_formula_units_Z   2
loop_
 _symmetry_equiv_pos_site_id
 _symmetry_equiv_pos_as_xyz
  1  'x, y, z'
loop_
 _atom_site_type_symbol
 _atom_site_label
 _atom_site_symmetry_multiplicity
 _atom_site_fract_x
 _atom_site_fract_y
 _atom_site_fract_z
 _atom_site_occupancy
  Pb  Pb0  1  0.174478  0.825522  0.750000  1
  Pb  Pb1  1  0.825522  0.174478  0.250000  1
  Au  Au2  1  0.248595  0.255864  0.368398  1
  Au  Au3  1  0.255864  0.248595  0.868398  1
  Au  Au4  1  0.751405  0.744136  0.631602  1
  Au  Au5  1  0.744136  0.751405  0.131602  1
  F  F6  1  0.852333  0.861796  0.222836  1
  F  F7  1  0.147667  0.138204  0.777164  1
  F  F8  1  0.299371  0.995323  0.494676  1
  F  F9  1  0.999645  0.280610  0.503228  1
  F  F10  1  0.280610  0.999645  0.003228  1
  F  F11  1  0.362021  0.354670  0.457579  1
  F  F12  1  0.354670  0.362021  0.957579  1
  F  F13  1  0.861796  0.852333  0.722836  1
  F  F14  1  0.775635  0.496646  0.268806  1
  F  F15  1  0.004677  0.700629  0.005324  1
  F  F16  1  0.700629  0.004677  0.505324  1
  F  F17  1  0.995323  0.299371  0.994676  1
  F  F18  1  0.507131  0.199478  0.744998  1
  F  F19  1  0.637979  0.645330  0.542421  1
  F  F20  1  0.224365  0.503354  0.731194  1
  F  F21  1  0.645330  0.637979  0.042421  1
  F  F22  1  0.496646  0.775635  0.768806  1
  F  F23  1  0.800522  0.492869  0.755002  1
  F  F24  1  0.503354  0.224365  0.231194  1
  F  F25  1  0.492869  0.800522  0.255002  1
  F  F26  1  0.199478  0.507131  0.244998  1
  F  F27  1  0.719390  0.000355  0.996772  1
  F  F28  1  0.138204  0.147667  0.277164  1
  F  F29  1  0.000355  0.719390  0.496772  1
