# generated using pymatgen
data_CaNi2(Sn3Ru)2
_symmetry_space_group_name_H-M   'P 1'
_cell_length_a   6.78091061
_cell_length_b   6.78091099
_cell_length_c   6.89953164
_cell_angle_alpha   119.62603196
_cell_angle_beta   119.62602678
_cell_angle_gamma   89.65801513
_symmetry_Int_Tables_number   1
_chemical_formula_structural   CaNi2(Sn3Ru)2
_chemical_formula_sum   'Ca1 Ni2 Sn6 Ru2'
_cell_volume   227.47723617
_cell_formula_units_Z   1
loop_
 _symmetry_equiv_pos_site_id
 _symmetry_equiv_pos_as_xyz
  1  'x, y, z'
loop_
 _atom_site_type_symbol
 _atom_site_label
 _atom_site_symmetry_multiplicity
 _atom_site_fract_x
 _atom_site_fract_y
 _atom_site_fract_z
 _atom_site_occupancy
  Ca  Ca0  1  0.006560  0.006560  0.000000  1
  Ni  Ni1  1  0.398264  0.398264  0.643084  1
  Ni  Ni2  1  0.755181  0.755181  0.356916  1
  Sn  Sn3  1  0.994709  0.494709  0.500000  1
  Sn  Sn4  1  0.469866  0.469866  0.360127  1
  Sn  Sn5  1  0.539811  0.877606  0.000000  1
  Sn  Sn6  1  0.877606  0.539811  0.000000  1
  Sn  Sn7  1  0.109740  0.109740  0.639873  1
  Sn  Sn8  1  0.494709  0.994709  0.500000  1
  Ru  Ru9  1  0.265161  0.588393  0.000000  1
  Ru  Ru10  1  0.588393  0.265161  0.000000  1
