# generated using pymatgen
data_Pr9Tm12Fe8Bi7C12
_symmetry_space_group_name_H-M   'P 1'
_cell_length_a   11.24096726
_cell_length_b   11.21102755
_cell_length_c   11.21609313
_cell_angle_alpha   60.00716889
_cell_angle_beta   60.03689677
_cell_angle_gamma   60.15329807
_symmetry_Int_Tables_number   1
_chemical_formula_structural   Pr9Tm12Fe8Bi7C12
_chemical_formula_sum   'Pr9 Tm12 Fe8 Bi7 C12'
_cell_volume   1000.97024322
_cell_formula_units_Z   1
loop_
 _symmetry_equiv_pos_site_id
 _symmetry_equiv_pos_as_xyz
  1  'x, y, z'
loop_
 _atom_site_type_symbol
 _atom_site_label
 _atom_site_symmetry_multiplicity
 _atom_site_fract_x
 _atom_site_fract_y
 _atom_site_fract_z
 _atom_site_occupancy
  Pr  Pr0  1  0.999009  0.000595  0.664413  1
  Pr  Pr1  1  0.668288  0.999921  0.331144  1
  Pr  Pr2  1  0.090229  0.636769  0.636679  1
  Pr  Pr3  1  0.334232  0.000782  0.000259  1
  Pr  Pr4  1  0.998455  0.334754  0.667535  1
  Pr  Pr5  1  0.338921  0.999577  0.661623  1
  Pr  Pr6  1  0.506201  0.497019  0.496008  1
  Pr  Pr7  1  0.335786  0.663766  0.000258  1
  Pr  Pr8  1  0.998700  0.666096  0.001552  1
  Tm  Tm9  1  0.357507  0.924947  0.357452  1
  Tm  Tm10  1  0.999944  0.650725  0.349985  1
  Tm  Tm11  1  0.358184  0.359499  0.357126  1
  Tm  Tm12  1  0.641464  0.075363  0.642592  1
  Tm  Tm13  1  0.925315  0.358404  0.356591  1
  Tm  Tm14  1  0.650961  0.348062  0.000005  1
  Tm  Tm15  1  0.997444  0.348514  0.002291  1
  Tm  Tm16  1  0.641396  0.640431  0.641972  1
  Tm  Tm17  1  0.999544  0.000111  0.348097  1
  Tm  Tm18  1  0.641730  0.640937  0.075831  1
  Tm  Tm19  1  0.358348  0.358182  0.924142  1
  Tm  Tm20  1  0.647438  0.002602  0.000267  1
  Fe  Fe21  1  0.193589  0.420850  0.192109  1
  Fe  Fe22  1  0.193263  0.194475  0.417280  1
  Fe  Fe23  1  0.582594  0.804342  0.807245  1
  Fe  Fe24  1  0.192380  0.193227  0.191707  1
  Fe  Fe25  1  0.422672  0.193103  0.190577  1
  Fe  Fe26  1  0.806025  0.806057  0.806824  1
  Fe  Fe27  1  0.807851  0.806485  0.578222  1
  Fe  Fe28  1  0.807027  0.577544  0.807572  1
  Bi  Bi29  1  0.301778  0.704276  0.703542  1
  Bi  Bi30  1  0.707411  0.707870  0.292404  1
  Bi  Bi31  1  0.713176  0.291902  0.287028  1
  Bi  Bi32  1  0.702746  0.291759  0.713307  1
  Bi  Bi33  1  0.292897  0.708288  0.290340  1
  Bi  Bi34  1  0.992454  0.004263  0.008362  1
  Bi  Bi35  1  0.297354  0.290379  0.707852  1
  C  C36  1  0.105606  0.104998  0.391644  1
  C  C37  1  0.890727  0.899018  0.603374  1
  C  C38  1  0.105680  0.396335  0.392074  1
  C  C39  1  0.106163  0.393129  0.103428  1
  C  C40  1  0.607676  0.602404  0.894986  1
  C  C41  1  0.890485  0.603441  0.898981  1
  C  C42  1  0.396828  0.393213  0.103908  1
  C  C43  1  0.393211  0.107228  0.391670  1
  C  C44  1  0.890983  0.605994  0.602969  1
  C  C45  1  0.607800  0.892471  0.606727  1
  C  C46  1  0.395278  0.105601  0.104609  1
  C  C47  1  0.607247  0.894292  0.895436  1
