# generated using pymatgen
data_Zr3Re3Si2As
_symmetry_space_group_name_H-M   'P 1'
_cell_length_a   7.00829200
_cell_length_b   7.00829121
_cell_length_c   3.48441600
_cell_angle_alpha   90.00000000
_cell_angle_beta   90.00000000
_cell_angle_gamma   120.00000372
_symmetry_Int_Tables_number   1
_chemical_formula_structural   Zr3Re3Si2As
_chemical_formula_sum   'Zr3 Re3 Si2 As1'
_cell_volume   148.21253748
_cell_formula_units_Z   1
loop_
 _symmetry_equiv_pos_site_id
 _symmetry_equiv_pos_as_xyz
  1  'x, y, z'
loop_
 _atom_site_type_symbol
 _atom_site_label
 _atom_site_symmetry_multiplicity
 _atom_site_fract_x
 _atom_site_fract_y
 _atom_site_fract_z
 _atom_site_occupancy
  Zr  Zr0  1  0.405455  0.006093  0.500000  1
  Zr  Zr1  1  0.993907  0.399362  0.500000  1
  Zr  Zr2  1  0.600638  0.594545  0.500000  1
  Re  Re3  1  0.751965  0.004150  0.000000  1
  Re  Re4  1  0.995850  0.747815  0.000000  1
  Re  Re5  1  0.252185  0.248035  0.000000  1
  Si  Si6  1  0.666667  0.333333  0.000000  1
  Si  Si7  1  0.000000  0.000000  0.500000  1
  As  As8  1  0.333333  0.666667  0.000000  1
