# generated using pymatgen
data_Sm11HoFe2I17
_symmetry_space_group_name_H-M   'P 1'
_cell_length_a   9.86226930
_cell_length_b   11.93483058
_cell_length_c   11.89869321
_cell_angle_alpha   74.17110838
_cell_angle_beta   75.15897787
_cell_angle_gamma   65.07210631
_symmetry_Int_Tables_number   1
_chemical_formula_structural   Sm11HoFe2I17
_chemical_formula_sum   'Sm11 Ho1 Fe2 I17'
_cell_volume   1205.79259402
_cell_formula_units_Z   1
loop_
 _symmetry_equiv_pos_site_id
 _symmetry_equiv_pos_as_xyz
  1  'x, y, z'
loop_
 _atom_site_type_symbol
 _atom_site_label
 _atom_site_symmetry_multiplicity
 _atom_site_fract_x
 _atom_site_fract_y
 _atom_site_fract_z
 _atom_site_occupancy
  Sm  Sm0  1  0.450309  0.496842  0.319199  1
  Sm  Sm1  1  0.548604  0.671834  0.016130  1
  Sm  Sm2  1  0.274669  0.977915  0.110675  1
  Sm  Sm3  1  0.854200  0.285695  0.847643  1
  Sm  Sm4  1  0.414524  0.241893  0.719317  1
  Sm  Sm5  1  0.725838  0.017405  0.890482  1
  Sm  Sm6  1  0.546977  0.507902  0.679293  1
  Sm  Sm7  1  0.447647  0.329469  0.987686  1
  Sm  Sm8  1  0.591579  0.758533  0.282243  1
  Sm  Sm9  1  0.820969  0.190769  0.584249  1
  Sm  Sm10  1  0.182008  0.807385  0.411553  1
  Ho  Ho11  1  0.147197  0.713458  0.153264  1
  Fe  Fe12  1  0.366392  0.737763  0.214139  1
  Fe  Fe13  1  0.634237  0.262158  0.785952  1
  I  I14  1  0.053277  0.103083  0.326587  1
  I  I15  1  0.466737  0.947917  0.842945  1
  I  I16  1  0.428082  0.813014  0.538512  1
  I  I17  1  0.571063  0.188102  0.461857  1
  I  I18  1  0.842777  0.709985  0.045837  1
  I  I19  1  0.218674  0.425459  0.237227  1
  I  I20  1  0.687340  0.367482  0.102610  1
  I  I21  1  0.532290  0.053062  0.156897  1
  I  I22  1  0.744682  0.471634  0.418194  1
  I  I23  1  0.889110  0.783572  0.363671  1
  I  I24  1  0.947753  0.896461  0.673199  1
  I  I25  1  0.160205  0.288684  0.954223  1
  I  I26  1  0.309344  0.632409  0.899125  1
  I  I27  1  0.998452  0.998340  0.001554  1
  I  I28  1  0.113462  0.214383  0.631381  1
  I  I29  1  0.775719  0.579352  0.761659  1
  I  I30  1  0.255883  0.528037  0.582698  1
