# generated using pymatgen
data_La2CdIn3Ir2
_symmetry_space_group_name_H-M   'P 1'
_cell_length_a   5.52306087
_cell_length_b   5.52306076
_cell_length_c   8.51560983
_cell_angle_alpha   90.04612239
_cell_angle_beta   89.95387665
_cell_angle_gamma   133.20604056
_symmetry_Int_Tables_number   1
_chemical_formula_structural   La2CdIn3Ir2
_chemical_formula_sum   'La2 Cd1 In3 Ir2'
_cell_volume   189.33943421
_cell_formula_units_Z   1
loop_
 _symmetry_equiv_pos_site_id
 _symmetry_equiv_pos_as_xyz
  1  'x, y, z'
loop_
 _atom_site_type_symbol
 _atom_site_label
 _atom_site_symmetry_multiplicity
 _atom_site_fract_x
 _atom_site_fract_y
 _atom_site_fract_z
 _atom_site_occupancy
  La  La0  1  0.064828  0.935172  0.250495  1
  La  La1  1  0.935723  0.064277  0.746241  1
  Cd  Cd2  1  0.645218  0.354782  0.548083  1
  In  In3  1  0.347667  0.652333  0.453648  1
  In  In4  1  0.649293  0.350707  0.947253  1
  In  In5  1  0.352006  0.647994  0.051670  1
  Ir  Ir6  1  0.219743  0.780257  0.755922  1
  Ir  Ir7  1  0.785521  0.214479  0.246685  1
