# generated using pymatgen
data_Dy2Er6VOs3C8
_symmetry_space_group_name_H-M   'P 1'
_cell_length_a   5.06227800
_cell_length_b   6.49469617
_cell_length_c   9.74220816
_cell_angle_alpha   89.80362361
_cell_angle_beta   90.00000000
_cell_angle_gamma   90.00000000
_symmetry_Int_Tables_number   1
_chemical_formula_structural   Dy2Er6VOs3C8
_chemical_formula_sum   'Dy2 Er6 V1 Os3 C8'
_cell_volume   320.30202507
_cell_formula_units_Z   1
loop_
 _symmetry_equiv_pos_site_id
 _symmetry_equiv_pos_as_xyz
  1  'x, y, z'
loop_
 _atom_site_type_symbol
 _atom_site_label
 _atom_site_symmetry_multiplicity
 _atom_site_fract_x
 _atom_site_fract_y
 _atom_site_fract_z
 _atom_site_occupancy
  Dy  Dy0  1  0.750000  0.467224  0.781110  1
  Dy  Dy1  1  0.750000  0.971875  0.715435  1
  Er  Er2  1  0.250000  0.681267  0.557985  1
  Er  Er3  1  0.750000  0.323076  0.443810  1
  Er  Er4  1  0.750000  0.821428  0.055423  1
  Er  Er5  1  0.250000  0.173890  0.942350  1
  Er  Er6  1  0.250000  0.534417  0.213412  1
  Er  Er7  1  0.250000  0.030526  0.283536  1
  V  V8  1  0.250000  0.721580  0.867683  1
  Os  Os9  1  0.750000  0.279441  0.133903  1
  Os  Os10  1  0.750000  0.778791  0.364672  1
  Os  Os11  1  0.250000  0.224187  0.633865  1
  C  C12  1  0.250000  0.457064  0.762494  1
  C  C13  1  0.750000  0.544253  0.241772  1
  C  C14  1  0.750000  0.045069  0.259344  1
  C  C15  1  0.250000  0.954280  0.741472  1
  C  C16  1  0.250000  0.821075  0.052622  1
  C  C17  1  0.750000  0.172290  0.950756  1
  C  C18  1  0.750000  0.673969  0.550906  1
  C  C19  1  0.250000  0.324299  0.447450  1
