# generated using pymatgen
data_CaYCd2(Ru2O7)2
_symmetry_space_group_name_H-M   'P 1'
_cell_length_a   7.24392925
_cell_length_b   7.20545174
_cell_length_c   7.27693019
_cell_angle_alpha   60.32439349
_cell_angle_beta   60.66840644
_cell_angle_gamma   60.17555058
_symmetry_Int_Tables_number   1
_chemical_formula_structural   CaYCd2(Ru2O7)2
_chemical_formula_sum   'Ca1 Y1 Cd2 Ru4 O14'
_cell_volume   270.93202467
_cell_formula_units_Z   1
loop_
 _symmetry_equiv_pos_site_id
 _symmetry_equiv_pos_as_xyz
  1  'x, y, z'
loop_
 _atom_site_type_symbol
 _atom_site_label
 _atom_site_symmetry_multiplicity
 _atom_site_fract_x
 _atom_site_fract_y
 _atom_site_fract_z
 _atom_site_occupancy
  Ca  Ca0  1  0.625000  0.125000  0.125000  1
  Y  Y1  1  0.125000  0.125000  0.625000  1
  Cd  Cd2  1  0.125000  0.625000  0.125000  1
  Cd  Cd3  1  0.125000  0.125000  0.125000  1
  Ru  Ru4  1  0.625000  0.125000  0.625000  1
  Ru  Ru5  1  0.625000  0.625000  0.125000  1
  Ru  Ru6  1  0.125000  0.625000  0.625000  1
  Ru  Ru7  1  0.625000  0.625000  0.625000  1
  O  O8  1  0.695744  0.692008  0.308407  1
  O  O9  1  0.948154  0.548172  0.554198  1
  O  O10  1  0.554256  0.946158  0.941593  1
  O  O11  1  0.948154  0.949476  0.554198  1
  O  O12  1  0.940569  0.560346  0.938739  1
  O  O13  1  0.537346  0.959305  0.544043  1
  O  O14  1  0.309431  0.689654  0.311261  1
  O  O15  1  0.301846  0.701828  0.695802  1
  O  O16  1  0.695744  0.303842  0.308407  1
  O  O17  1  0.712654  0.290695  0.705957  1
  O  O18  1  0.554256  0.557992  0.941593  1
  O  O19  1  0.301846  0.300524  0.695802  1
  O  O20  1  0.237118  0.255555  0.251772  1
  O  O21  1  0.012882  0.994445  0.998228  1
