# generated using pymatgen
data_Dy6Si5GeRu4
_symmetry_space_group_name_H-M   'P 1'
_cell_length_a   5.76133490
_cell_length_b   5.76133584
_cell_length_c   13.86781600
_cell_angle_alpha   90.00000000
_cell_angle_beta   90.00000000
_cell_angle_gamma   137.40924706
_symmetry_Int_Tables_number   1
_chemical_formula_structural   Dy6Si5GeRu4
_chemical_formula_sum   'Dy6 Si5 Ge1 Ru4'
_cell_volume   311.52093904
_cell_formula_units_Z   1
loop_
 _symmetry_equiv_pos_site_id
 _symmetry_equiv_pos_as_xyz
  1  'x, y, z'
loop_
 _atom_site_type_symbol
 _atom_site_label
 _atom_site_symmetry_multiplicity
 _atom_site_fract_x
 _atom_site_fract_y
 _atom_site_fract_z
 _atom_site_occupancy
  Dy  Dy0  1  0.924533  0.075467  0.384356  1
  Dy  Dy1  1  0.074978  0.925022  0.612620  1
  Dy  Dy2  1  0.924533  0.075467  0.115644  1
  Dy  Dy3  1  0.074978  0.925022  0.887380  1
  Dy  Dy4  1  0.642668  0.357332  0.250000  1
  Dy  Dy5  1  0.355725  0.644275  0.750000  1
  Si  Si6  1  0.618991  0.381009  0.460861  1
  Si  Si7  1  0.382831  0.617169  0.537552  1
  Si  Si8  1  0.618991  0.381009  0.039139  1
  Si  Si9  1  0.382831  0.617169  0.962448  1
  Si  Si10  1  0.329218  0.670782  0.250000  1
  Ge  Ge11  1  0.664214  0.335786  0.750000  1
  Ru  Ru12  1  0.788754  0.211246  0.922131  1
  Ru  Ru13  1  0.214000  0.786000  0.081215  1
  Ru  Ru14  1  0.788754  0.211246  0.577869  1
  Ru  Ru15  1  0.214000  0.786000  0.418785  1
