# generated using pymatgen
data_Sr2Hf(SiO3)4
_symmetry_space_group_name_H-M   'P 1'
_cell_length_a   13.99373100
_cell_length_b   5.51837407
_cell_length_c   7.55087140
_cell_angle_alpha   71.85482394
_cell_angle_beta   90.00000000
_cell_angle_gamma   90.00000000
_symmetry_Int_Tables_number   1
_chemical_formula_structural   Sr2Hf(SiO3)4
_chemical_formula_sum   'Sr4 Hf2 Si8 O24'
_cell_volume   554.10104347
_cell_formula_units_Z   2
loop_
 _symmetry_equiv_pos_site_id
 _symmetry_equiv_pos_as_xyz
  1  'x, y, z'
loop_
 _atom_site_type_symbol
 _atom_site_label
 _atom_site_symmetry_multiplicity
 _atom_site_fract_x
 _atom_site_fract_y
 _atom_site_fract_z
 _atom_site_occupancy
  Sr  Sr0  1  0.000000  0.000000  0.500000  1
  Sr  Sr1  1  0.250000  0.173002  0.175344  1
  Sr  Sr2  1  0.750000  0.826998  0.824656  1
  Sr  Sr3  1  0.500000  0.000000  0.500000  1
  Hf  Hf4  1  0.500000  0.000000  0.000000  1
  Hf  Hf5  1  0.000000  0.000000  0.000000  1
  Si  Si6  1  0.639654  0.413099  0.619963  1
  Si  Si7  1  0.864901  0.430266  0.184512  1
  Si  Si8  1  0.860346  0.413099  0.619963  1
  Si  Si9  1  0.135099  0.569734  0.815488  1
  Si  Si10  1  0.139654  0.586901  0.380037  1
  Si  Si11  1  0.635099  0.430266  0.184512  1
  Si  Si12  1  0.364901  0.569734  0.815488  1
  Si  Si13  1  0.360346  0.586901  0.380037  1
  O  O14  1  0.073767  0.799752  0.851184  1
  O  O15  1  0.869753  0.695803  0.629480  1
  O  O16  1  0.892718  0.719151  0.059804  1
  O  O17  1  0.120891  0.612416  0.590505  1
  O  O18  1  0.928494  0.188240  0.752943  1
  O  O19  1  0.750000  0.300951  0.680670  1
  O  O20  1  0.879109  0.387584  0.409495  1
  O  O21  1  0.250000  0.699049  0.319330  1
  O  O22  1  0.369753  0.304197  0.370520  1
  O  O23  1  0.750000  0.400386  0.137188  1
  O  O24  1  0.250000  0.599614  0.862812  1
  O  O25  1  0.620891  0.387584  0.409495  1
  O  O26  1  0.107282  0.280849  0.940196  1
  O  O27  1  0.426233  0.799752  0.851184  1
  O  O28  1  0.071506  0.811760  0.247057  1
  O  O29  1  0.926233  0.200248  0.148816  1
  O  O30  1  0.571506  0.188240  0.752943  1
  O  O31  1  0.607282  0.719151  0.059804  1
  O  O32  1  0.630247  0.695803  0.629480  1
  O  O33  1  0.379109  0.612416  0.590505  1
  O  O34  1  0.130247  0.304197  0.370520  1
  O  O35  1  0.428494  0.811760  0.247057  1
  O  O36  1  0.392718  0.280849  0.940196  1
  O  O37  1  0.573767  0.200248  0.148816  1
