# generated using pymatgen
data_Mg4Si2B4IrRh9
_symmetry_space_group_name_H-M   'P 1'
_cell_length_a   9.34984837
_cell_length_b   9.34984837
_cell_length_c   2.91491000
_cell_angle_alpha   90.00000000
_cell_angle_beta   90.00000000
_cell_angle_gamma   90.06200301
_symmetry_Int_Tables_number   1
_chemical_formula_structural   Mg4Si2B4IrRh9
_chemical_formula_sum   'Mg4 Si2 B4 Ir1 Rh9'
_cell_volume   254.82030509
_cell_formula_units_Z   1
loop_
 _symmetry_equiv_pos_site_id
 _symmetry_equiv_pos_as_xyz
  1  'x, y, z'
loop_
 _atom_site_type_symbol
 _atom_site_label
 _atom_site_symmetry_multiplicity
 _atom_site_fract_x
 _atom_site_fract_y
 _atom_site_fract_z
 _atom_site_occupancy
  Mg  Mg0  1  0.324191  0.175809  0.000000  1
  Mg  Mg1  1  0.825344  0.325344  0.000000  1
  Mg  Mg2  1  0.174656  0.674655  0.000000  1
  Mg  Mg3  1  0.675808  0.824191  0.000000  1
  Si  Si4  1  0.000000  0.000000  0.000000  1
  Si  Si5  1  0.500000  0.500000  0.000000  1
  B  B6  1  0.625925  0.125925  0.000000  1
  B  B7  1  0.126096  0.373903  0.000000  1
  B  B8  1  0.873904  0.626096  0.000000  1
  B  B9  1  0.374074  0.874075  0.000000  1
  Ir  Ir10  1  0.500000  0.000000  0.500000  1
  Rh  Rh11  1  0.791309  0.072062  0.500000  1
  Rh  Rh12  1  0.071250  0.210070  0.500000  1
  Rh  Rh13  1  0.572062  0.291310  0.500000  1
  Rh  Rh14  1  0.289930  0.428749  0.500000  1
  Rh  Rh15  1  0.000000  0.500000  0.500000  1
  Rh  Rh16  1  0.710070  0.571250  0.500000  1
  Rh  Rh17  1  0.427937  0.708690  0.500000  1
  Rh  Rh18  1  0.928750  0.789929  0.500000  1
  Rh  Rh19  1  0.208690  0.927938  0.500000  1
