# generated using pymatgen
data_Nd3UCd2Ir3
_symmetry_space_group_name_H-M   'P 1'
_cell_length_a   7.72095032
_cell_length_b   7.55506760
_cell_length_c   4.14772600
_cell_angle_alpha   90.00000000
_cell_angle_beta   90.00000000
_cell_angle_gamma   119.29178636
_symmetry_Int_Tables_number   1
_chemical_formula_structural   Nd3UCd2Ir3
_chemical_formula_sum   'Nd3 U1 Cd2 Ir3'
_cell_volume   211.01099601
_cell_formula_units_Z   1
loop_
 _symmetry_equiv_pos_site_id
 _symmetry_equiv_pos_as_xyz
  1  'x, y, z'
loop_
 _atom_site_type_symbol
 _atom_site_label
 _atom_site_symmetry_multiplicity
 _atom_site_fract_x
 _atom_site_fract_y
 _atom_site_fract_z
 _atom_site_occupancy
  Nd  Nd0  1  0.564349  0.594568  0.000000  1
  Nd  Nd1  1  0.435651  0.030219  0.000000  1
  Nd  Nd2  1  0.000000  0.373302  0.000000  1
  U  U3  1  0.000000  0.735673  0.500000  1
  Cd  Cd4  1  0.252472  0.247880  0.500000  1
  Cd  Cd5  1  0.747528  0.995408  0.500000  1
  Ir  Ir6  1  0.000000  0.964553  0.000000  1
  Ir  Ir7  1  0.696774  0.377584  0.500000  1
  Ir  Ir8  1  0.303226  0.680811  0.500000  1
