# generated using pymatgen
data_Nd3Zn3Cu2Ir
_symmetry_space_group_name_H-M   'P 1'
_cell_length_a   7.28506000
_cell_length_b   7.28506084
_cell_length_c   4.04139800
_cell_angle_alpha   90.00000000
_cell_angle_beta   90.00000000
_cell_angle_gamma   119.99999618
_symmetry_Int_Tables_number   1
_chemical_formula_structural   Nd3Zn3Cu2Ir
_chemical_formula_sum   'Nd3 Zn3 Cu2 Ir1'
_cell_volume   185.74989921
_cell_formula_units_Z   1
loop_
 _symmetry_equiv_pos_site_id
 _symmetry_equiv_pos_as_xyz
  1  'x, y, z'
loop_
 _atom_site_type_symbol
 _atom_site_label
 _atom_site_symmetry_multiplicity
 _atom_site_fract_x
 _atom_site_fract_y
 _atom_site_fract_z
 _atom_site_occupancy
  Nd  Nd0  1  0.585152  0.990698  0.000000  1
  Nd  Nd1  1  0.009302  0.594455  0.000000  1
  Nd  Nd2  1  0.405545  0.414848  0.000000  1
  Zn  Zn3  1  0.233825  0.997106  0.500000  1
  Zn  Zn4  1  0.002894  0.236719  0.500000  1
  Zn  Zn5  1  0.763281  0.766175  0.500000  1
  Cu  Cu6  1  0.666667  0.333333  0.500000  1
  Cu  Cu7  1  0.000000  0.000000  0.000000  1
  Ir  Ir8  1  0.333333  0.666667  0.500000  1
