# generated using pymatgen
data_Ho2Zr3Si4
_symmetry_space_group_name_H-M   'P 1'
_cell_length_a   7.32197800
_cell_length_b   7.10750590
_cell_length_c   7.31137863
_cell_angle_alpha   71.80736094
_cell_angle_beta   90.00011159
_cell_angle_gamma   89.99972519
_symmetry_Int_Tables_number   1
_chemical_formula_structural   Ho2Zr3Si4
_chemical_formula_sum   'Ho4 Zr6 Si8'
_cell_volume   361.47152568
_cell_formula_units_Z   2
loop_
 _symmetry_equiv_pos_site_id
 _symmetry_equiv_pos_as_xyz
  1  'x, y, z'
loop_
 _atom_site_type_symbol
 _atom_site_label
 _atom_site_symmetry_multiplicity
 _atom_site_fract_x
 _atom_site_fract_y
 _atom_site_fract_z
 _atom_site_occupancy
  Ho  Ho0  1  0.672664  0.926031  0.692184  1
  Ho  Ho1  1  0.327336  0.073969  0.307816  1
  Ho  Ho2  1  0.172703  0.573925  0.307818  1
  Ho  Ho3  1  0.827297  0.426075  0.692182  1
  Zr  Zr4  1  0.681349  0.748891  0.248378  1
  Zr  Zr5  1  0.318651  0.251109  0.751622  1
  Zr  Zr6  1  0.181342  0.751116  0.751622  1
  Zr  Zr7  1  0.818658  0.248884  0.248378  1
  Zr  Zr8  1  0.000000  0.000000  0.000000  1
  Zr  Zr9  1  0.500000  0.500000  0.000000  1
  Si  Si10  1  0.968425  0.869284  0.419750  1
  Si  Si11  1  0.031575  0.130716  0.580250  1
  Si  Si12  1  0.468425  0.630717  0.580249  1
  Si  Si13  1  0.531575  0.369283  0.419751  1
  Si  Si14  1  0.877479  0.627486  0.990835  1
  Si  Si15  1  0.122521  0.372514  0.009165  1
  Si  Si16  1  0.377477  0.872516  0.009164  1
  Si  Si17  1  0.622523  0.127484  0.990836  1
