# generated using pymatgen
data_Pr5HoCoP12Rh17
_symmetry_space_group_name_H-M   'P 1'
_cell_length_a   3.93509600
_cell_length_b   11.28512513
_cell_length_c   12.96388258
_cell_angle_alpha   90.25010060
_cell_angle_beta   90.00000000
_cell_angle_gamma   90.00000000
_symmetry_Int_Tables_number   1
_chemical_formula_structural   Pr5HoCoP12Rh17
_chemical_formula_sum   'Pr5 Ho1 Co1 P12 Rh17'
_cell_volume   575.69527136
_cell_formula_units_Z   1
loop_
 _symmetry_equiv_pos_site_id
 _symmetry_equiv_pos_as_xyz
  1  'x, y, z'
loop_
 _atom_site_type_symbol
 _atom_site_label
 _atom_site_symmetry_multiplicity
 _atom_site_fract_x
 _atom_site_fract_y
 _atom_site_fract_z
 _atom_site_occupancy
  Pr  Pr0  1  0.000000  0.500537  0.519207  1
  Pr  Pr1  1  0.500000  0.000207  0.478391  1
  Pr  Pr2  1  0.500000  0.818190  0.203837  1
  Pr  Pr3  1  0.000000  0.686772  0.798174  1
  Pr  Pr4  1  0.000000  0.311684  0.797156  1
  Ho  Ho5  1  0.500000  0.181897  0.202771  1
  Co  Co6  1  0.500000  0.001712  0.022117  1
  P  P7  1  0.500000  0.312255  0.615967  1
  P  P8  1  0.500000  0.687500  0.618077  1
  P  P9  1  0.000000  0.188104  0.378276  1
  P  P10  1  0.000000  0.813796  0.382994  1
  P  P11  1  0.500000  0.498906  0.883819  1
  P  P12  1  0.000000  0.002163  0.118389  1
  P  P13  1  0.500000  0.857961  0.898317  1
  P  P14  1  0.500000  0.140874  0.897101  1
  P  P15  1  0.000000  0.653967  0.105958  1
  P  P16  1  0.000000  0.340847  0.106100  1
  P  P17  1  0.500000  0.500603  0.344703  1
  P  P18  1  0.000000  0.999533  0.652445  1
  Rh  Rh19  1  0.000000  0.498110  0.985105  1
  Rh  Rh20  1  0.500000  0.292424  0.426775  1
  Rh  Rh21  1  0.500000  0.707801  0.430156  1
  Rh  Rh22  1  0.000000  0.208211  0.567753  1
  Rh  Rh23  1  0.000000  0.793707  0.570132  1
  Rh  Rh24  1  0.500000  0.876430  0.712120  1
  Rh  Rh25  1  0.500000  0.123310  0.709059  1
  Rh  Rh26  1  0.000000  0.623808  0.289162  1
  Rh  Rh27  1  0.000000  0.371263  0.284131  1
  Rh  Rh28  1  0.500000  0.330098  0.997869  1
  Rh  Rh29  1  0.500000  0.668247  0.996569  1
  Rh  Rh30  1  0.000000  0.159747  0.006668  1
  Rh  Rh31  1  0.000000  0.841805  0.003520  1
  Rh  Rh32  1  0.500000  0.501494  0.166328  1
  Rh  Rh33  1  0.000000  0.003599  0.831121  1
  Rh  Rh34  1  0.500000  0.499176  0.704124  1
  Rh  Rh35  1  0.000000  0.003260  0.295612  1
