# generated using pymatgen
data_Ho11Th(SiPd)12
_symmetry_space_group_name_H-M   'P 1'
_cell_length_a   4.35869200
_cell_length_b   7.41752130
_cell_length_c   21.06161755
_cell_angle_alpha   89.96165086
_cell_angle_beta   90.00000000
_cell_angle_gamma   90.00000000
_symmetry_Int_Tables_number   1
_chemical_formula_structural   Ho11Th(SiPd)12
_chemical_formula_sum   'Ho11 Th1 Si12 Pd12'
_cell_volume   680.93649143
_cell_formula_units_Z   1
loop_
 _symmetry_equiv_pos_site_id
 _symmetry_equiv_pos_as_xyz
  1  'x, y, z'
loop_
 _atom_site_type_symbol
 _atom_site_label
 _atom_site_symmetry_multiplicity
 _atom_site_fract_x
 _atom_site_fract_y
 _atom_site_fract_z
 _atom_site_occupancy
  Ho  Ho0  1  0.250000  0.704468  0.330432  1
  Ho  Ho1  1  0.750000  0.292992  0.668577  1
  Ho  Ho2  1  0.750000  0.206768  0.166406  1
  Ho  Ho3  1  0.250000  0.794252  0.833796  1
  Ho  Ho4  1  0.250000  0.792484  0.165670  1
  Ho  Ho5  1  0.750000  0.207600  0.833910  1
  Ho  Ho6  1  0.750000  0.292145  0.331734  1
  Ho  Ho7  1  0.250000  0.705347  0.668806  1
  Ho  Ho8  1  0.250000  0.709629  0.000946  1
  Ho  Ho9  1  0.750000  0.289764  0.998894  1
  Ho  Ho10  1  0.750000  0.218050  0.498935  1
  Th  Th11  1  0.250000  0.792953  0.501205  1
  Si  Si12  1  0.250000  0.088218  0.071230  1
  Si  Si13  1  0.750000  0.911579  0.928900  1
  Si  Si14  1  0.750000  0.585196  0.424932  1
  Si  Si15  1  0.250000  0.408453  0.573048  1
  Si  Si16  1  0.250000  0.084776  0.270245  1
  Si  Si17  1  0.750000  0.914485  0.730381  1
  Si  Si18  1  0.750000  0.585927  0.228415  1
  Si  Si19  1  0.250000  0.415022  0.772180  1
  Si  Si20  1  0.250000  0.087698  0.392549  1
  Si  Si21  1  0.750000  0.914593  0.607574  1
  Si  Si22  1  0.750000  0.587293  0.104100  1
  Si  Si23  1  0.250000  0.413383  0.895625  1
  Pd  Pd24  1  0.250000  0.416595  0.236475  1
  Pd  Pd25  1  0.750000  0.582378  0.763290  1
  Pd  Pd26  1  0.750000  0.917032  0.262097  1
  Pd  Pd27  1  0.250000  0.082835  0.738102  1
  Pd  Pd28  1  0.250000  0.413974  0.435886  1
  Pd  Pd29  1  0.750000  0.580738  0.565854  1
  Pd  Pd30  1  0.750000  0.917482  0.062056  1
  Pd  Pd31  1  0.250000  0.083069  0.937706  1
  Pd  Pd32  1  0.250000  0.419471  0.093516  1
  Pd  Pd33  1  0.750000  0.580335  0.906395  1
  Pd  Pd34  1  0.750000  0.922024  0.404658  1
  Pd  Pd35  1  0.250000  0.080996  0.595480  1
