# generated using pymatgen
data_NaLa(NdB12)2
_symmetry_space_group_name_H-M   'P 1'
_cell_length_a   7.17283286
_cell_length_b   7.17283272
_cell_length_c   5.87236000
_cell_angle_alpha   90.00000000
_cell_angle_beta   90.00000000
_cell_angle_gamma   109.39091173
_symmetry_Int_Tables_number   1
_chemical_formula_structural   NaLa(NdB12)2
_chemical_formula_sum   'Na1 La1 Nd2 B24'
_cell_volume   284.99193042
_cell_formula_units_Z   1
loop_
 _symmetry_equiv_pos_site_id
 _symmetry_equiv_pos_as_xyz
  1  'x, y, z'
loop_
 _atom_site_type_symbol
 _atom_site_label
 _atom_site_symmetry_multiplicity
 _atom_site_fract_x
 _atom_site_fract_y
 _atom_site_fract_z
 _atom_site_occupancy
  Na  Na0  1  0.748420  0.251580  0.500000  1
  La  La1  1  0.998736  0.001264  0.000000  1
  Nd  Nd2  1  0.500555  0.499445  0.000000  1
  Nd  Nd3  1  0.251557  0.748443  0.500000  1
  B  B4  1  0.175174  0.325421  0.649061  1
  B  B5  1  0.924898  0.574297  0.150052  1
  B  B6  1  0.674579  0.824826  0.649061  1
  B  B7  1  0.425703  0.075102  0.150052  1
  B  B8  1  0.175174  0.325421  0.350939  1
  B  B9  1  0.924898  0.574297  0.849948  1
  B  B10  1  0.674579  0.824826  0.350939  1
  B  B11  1  0.425703  0.075102  0.849948  1
  B  B12  1  0.401107  0.398952  0.500000  1
  B  B13  1  0.149637  0.650089  0.000000  1
  B  B14  1  0.898595  0.900289  0.500000  1
  B  B15  1  0.649701  0.149409  0.000000  1
  B  B16  1  0.325900  0.175533  0.649114  1
  B  B17  1  0.074943  0.425448  0.150062  1
  B  B18  1  0.824467  0.674100  0.649114  1
  B  B19  1  0.574552  0.925057  0.150062  1
  B  B20  1  0.099711  0.101405  0.500000  1
  B  B21  1  0.850591  0.350299  0.000000  1
  B  B22  1  0.601048  0.598893  0.500000  1
  B  B23  1  0.349911  0.850363  0.000000  1
  B  B24  1  0.325900  0.175533  0.350886  1
  B  B25  1  0.074943  0.425448  0.849938  1
  B  B26  1  0.824467  0.674100  0.350886  1
  B  B27  1  0.574552  0.925057  0.849938  1
