# generated using pymatgen
data_Li3Ca2LaPb3
_symmetry_space_group_name_H-M   'P 1'
_cell_length_a   4.98910700
_cell_length_b   4.98910777
_cell_length_c   11.24599900
_cell_angle_alpha   90.00000000
_cell_angle_beta   90.00000000
_cell_angle_gamma   120.00000155
_symmetry_Int_Tables_number   1
_chemical_formula_structural   Li3Ca2LaPb3
_chemical_formula_sum   'Li3 Ca2 La1 Pb3'
_cell_volume   242.42330548
_cell_formula_units_Z   1
loop_
 _symmetry_equiv_pos_site_id
 _symmetry_equiv_pos_as_xyz
  1  'x, y, z'
loop_
 _atom_site_type_symbol
 _atom_site_label
 _atom_site_symmetry_multiplicity
 _atom_site_fract_x
 _atom_site_fract_y
 _atom_site_fract_z
 _atom_site_occupancy
  Li  Li0  1  0.666667  0.333333  0.802208  1
  Li  Li1  1  0.333333  0.666667  0.500000  1
  Li  Li2  1  0.666667  0.333333  0.197792  1
  Ca  Ca3  1  0.000000  0.000000  0.339219  1
  Ca  Ca4  1  0.000000  0.000000  0.660781  1
  La  La5  1  0.000000  0.000000  0.000000  1
  Pb  Pb6  1  0.333333  0.666667  0.155248  1
  Pb  Pb7  1  0.333333  0.666667  0.844752  1
  Pb  Pb8  1  0.666667  0.333333  0.500000  1
