# generated using pymatgen
data_Ac11La(Si7Br3)2
_symmetry_space_group_name_H-M   'P 1'
_cell_length_a   4.29135000
_cell_length_b   12.25956600
_cell_length_c   17.55575000
_cell_angle_alpha   90.00000000
_cell_angle_beta   90.00000000
_cell_angle_gamma   90.00000000
_symmetry_Int_Tables_number   1
_chemical_formula_structural   Ac11La(Si7Br3)2
_chemical_formula_sum   'Ac11 La1 Si14 Br6'
_cell_volume   923.60956213
_cell_formula_units_Z   1
loop_
 _symmetry_equiv_pos_site_id
 _symmetry_equiv_pos_as_xyz
  1  'x, y, z'
loop_
 _atom_site_type_symbol
 _atom_site_label
 _atom_site_symmetry_multiplicity
 _atom_site_fract_x
 _atom_site_fract_y
 _atom_site_fract_z
 _atom_site_occupancy
  Ac  Ac0  1  0.500000  0.345017  0.500000  1
  Ac  Ac1  1  0.000000  0.655412  0.000000  1
  Ac  Ac2  1  0.500000  0.359711  0.754942  1
  Ac  Ac3  1  0.000000  0.641029  0.742862  1
  Ac  Ac4  1  0.500000  0.359711  0.245058  1
  Ac  Ac5  1  0.000000  0.641029  0.257138  1
  Ac  Ac6  1  0.500000  0.065907  0.880405  1
  Ac  Ac7  1  0.000000  0.932993  0.619075  1
  Ac  Ac8  1  0.500000  0.065907  0.119595  1
  Ac  Ac9  1  0.000000  0.932993  0.380925  1
  Ac  Ac10  1  0.500000  0.359060  0.000000  1
  La  La11  1  0.000000  0.641777  0.500000  1
  Si  Si12  1  0.000000  0.155006  0.000000  1
  Si  Si13  1  0.500000  0.841733  0.500000  1
  Si  Si14  1  0.500000  0.561673  0.877328  1
  Si  Si15  1  0.000000  0.441240  0.620402  1
  Si  Si16  1  0.500000  0.561673  0.122672  1
  Si  Si17  1  0.000000  0.441240  0.379598  1
  Si  Si18  1  0.000000  0.257356  0.877782  1
  Si  Si19  1  0.500000  0.740761  0.619853  1
  Si  Si20  1  0.000000  0.257356  0.122218  1
  Si  Si21  1  0.500000  0.740761  0.380147  1
  Si  Si22  1  0.000000  0.457907  0.875348  1
  Si  Si23  1  0.500000  0.543335  0.621689  1
  Si  Si24  1  0.500000  0.543335  0.378311  1
  Si  Si25  1  0.000000  0.457907  0.124652  1
  Br  Br26  1  0.500000  0.107081  0.692294  1
  Br  Br27  1  0.000000  0.892318  0.807121  1
  Br  Br28  1  0.000000  0.136924  0.500000  1
  Br  Br29  1  0.500000  0.862447  0.000000  1
  Br  Br30  1  0.500000  0.107081  0.307706  1
  Br  Br31  1  0.000000  0.892318  0.192879  1
