# generated using pymatgen
data_EuAgF4
_symmetry_space_group_name_H-M   'P 1'
_cell_length_a   7.17851502
_cell_length_b   7.17851482
_cell_length_c   7.17851453
_cell_angle_alpha   133.37210170
_cell_angle_beta   133.37209541
_cell_angle_gamma   68.07038910
_symmetry_Int_Tables_number   1
_chemical_formula_structural   EuAgF4
_chemical_formula_sum   'Eu2 Ag2 F8'
_cell_volume   192.06213639
_cell_formula_units_Z   2
loop_
 _symmetry_equiv_pos_site_id
 _symmetry_equiv_pos_as_xyz
  1  'x, y, z'
loop_
 _atom_site_type_symbol
 _atom_site_label
 _atom_site_symmetry_multiplicity
 _atom_site_fract_x
 _atom_site_fract_y
 _atom_site_fract_z
 _atom_site_occupancy
  Eu  Eu0  1  0.750000  0.750000  0.000000  1
  Eu  Eu1  1  0.250000  0.250000  0.000000  1
  Ag  Ag2  1  0.000000  0.500000  0.500000  1
  Ag  Ag3  1  0.500000  0.000000  0.500000  1
  F  F4  1  0.444026  0.340795  0.500000  1
  F  F5  1  0.944026  0.444026  0.103232  1
  F  F6  1  0.159205  0.055974  0.500000  1
  F  F7  1  0.340795  0.840795  0.896768  1
  F  F8  1  0.659205  0.159205  0.103232  1
  F  F9  1  0.840795  0.944026  0.500000  1
  F  F10  1  0.055974  0.555974  0.896768  1
  F  F11  1  0.555974  0.659205  0.500000  1
