# generated using pymatgen
data_Lu8Ti11Si16Ir
_symmetry_space_group_name_H-M   'P 1'
_cell_length_a   6.96282839
_cell_length_b   6.96282852
_cell_length_c   12.73690393
_cell_angle_alpha   90.10003486
_cell_angle_beta   89.89996552
_cell_angle_gamma   89.81864782
_symmetry_Int_Tables_number   1
_chemical_formula_structural   Lu8Ti11Si16Ir
_chemical_formula_sum   'Lu8 Ti11 Si16 Ir1'
_cell_volume   617.49260402
_cell_formula_units_Z   1
loop_
 _symmetry_equiv_pos_site_id
 _symmetry_equiv_pos_as_xyz
  1  'x, y, z'
loop_
 _atom_site_type_symbol
 _atom_site_label
 _atom_site_symmetry_multiplicity
 _atom_site_fract_x
 _atom_site_fract_y
 _atom_site_fract_z
 _atom_site_occupancy
  Lu  Lu0  1  0.341061  0.003512  0.467663  1
  Lu  Lu1  1  0.496690  0.841567  0.718336  1
  Lu  Lu2  1  0.500864  0.157791  0.215050  1
  Lu  Lu3  1  0.841567  0.496690  0.281664  1
  Lu  Lu4  1  0.157791  0.500864  0.784950  1
  Lu  Lu5  1  0.657184  0.998210  0.968901  1
  Lu  Lu6  1  0.003512  0.341061  0.532337  1
  Lu  Lu7  1  0.998210  0.657184  0.031099  1
  Ti  Ti8  1  0.174867  0.827393  0.247866  1
  Ti  Ti9  1  0.827393  0.174867  0.752134  1
  Ti  Ti10  1  0.673626  0.673626  0.500000  1
  Ti  Ti11  1  0.148074  0.000178  0.874551  1
  Ti  Ti12  1  0.494255  0.656227  0.124490  1
  Ti  Ti13  1  0.506078  0.351231  0.627902  1
  Ti  Ti14  1  0.656227  0.494255  0.875510  1
  Ti  Ti15  1  0.351231  0.506078  0.372098  1
  Ti  Ti16  1  0.850010  0.995412  0.374541  1
  Ti  Ti17  1  0.000178  0.148074  0.125449  1
  Ti  Ti18  1  0.995412  0.850010  0.625459  1
  Si  Si19  1  0.203655  0.135341  0.683990  1
  Si  Si20  1  0.370600  0.703515  0.931871  1
  Si  Si21  1  0.632926  0.295077  0.432908  1
  Si  Si22  1  0.703515  0.370600  0.068129  1
  Si  Si23  1  0.295077  0.632926  0.567092  1
  Si  Si24  1  0.795495  0.865019  0.182468  1
  Si  Si25  1  0.135341  0.203655  0.316010  1
  Si  Si26  1  0.865019  0.795495  0.817532  1
  Si  Si27  1  0.287161  0.953057  0.063703  1
  Si  Si28  1  0.547078  0.794205  0.315734  1
  Si  Si29  1  0.449765  0.207750  0.818257  1
  Si  Si30  1  0.794205  0.547078  0.684266  1
  Si  Si31  1  0.207750  0.449765  0.181743  1
  Si  Si32  1  0.706527  0.047816  0.565891  1
  Si  Si33  1  0.953057  0.287161  0.936297  1
  Si  Si34  1  0.047816  0.706527  0.434109  1
  Ir  Ir35  1  0.330780  0.330780  0.000000  1
