# generated using pymatgen
data_Dy3Ho9Er8(CoSb2)4
_symmetry_space_group_name_H-M   'P 1'
_cell_length_a   7.82392608
_cell_length_b   8.72541100
_cell_length_c   12.11252412
_cell_angle_alpha   90.00000000
_cell_angle_beta   90.01595018
_cell_angle_gamma   90.00000000
_symmetry_Int_Tables_number   1
_chemical_formula_structural   Dy3Ho9Er8(CoSb2)4
_chemical_formula_sum   'Dy3 Ho9 Er8 Co4 Sb8'
_cell_volume   826.88529631
_cell_formula_units_Z   1
loop_
 _symmetry_equiv_pos_site_id
 _symmetry_equiv_pos_as_xyz
  1  'x, y, z'
loop_
 _atom_site_type_symbol
 _atom_site_label
 _atom_site_symmetry_multiplicity
 _atom_site_fract_x
 _atom_site_fract_y
 _atom_site_fract_z
 _atom_site_occupancy
  Dy  Dy0  1  0.878309  0.750000  0.807316  1
  Dy  Dy1  1  0.378316  0.250000  0.692645  1
  Dy  Dy2  1  0.121678  0.250000  0.192703  1
  Ho  Ho3  1  0.154811  0.750000  0.203310  1
  Ho  Ho4  1  0.345253  0.750000  0.703353  1
  Ho  Ho5  1  0.845286  0.250000  0.796708  1
  Ho  Ho6  1  0.654722  0.250000  0.296747  1
  Ho  Ho7  1  0.453108  0.750000  0.998194  1
  Ho  Ho8  1  0.046870  0.750000  0.498102  1
  Ho  Ho9  1  0.547014  0.250000  0.001909  1
  Ho  Ho10  1  0.952871  0.250000  0.501843  1
  Ho  Ho11  1  0.621404  0.750000  0.307614  1
  Er  Er12  1  0.822728  0.535838  0.065334  1
  Er  Er13  1  0.677296  0.963942  0.565162  1
  Er  Er14  1  0.177265  0.035706  0.934746  1
  Er  Er15  1  0.322845  0.464458  0.434545  1
  Er  Er16  1  0.177265  0.464294  0.934746  1
  Er  Er17  1  0.322845  0.035542  0.434545  1
  Er  Er18  1  0.822728  0.964162  0.065334  1
  Er  Er19  1  0.677296  0.536058  0.565162  1
  Co  Co20  1  0.434600  0.750000  0.491052  1
  Co  Co21  1  0.065606  0.750000  0.991260  1
  Co  Co22  1  0.565612  0.250000  0.508695  1
  Co  Co23  1  0.934384  0.250000  0.008752  1
  Sb  Sb24  1  0.928904  0.508679  0.327317  1
  Sb  Sb25  1  0.570742  0.991558  0.827351  1
  Sb  Sb26  1  0.070724  0.008438  0.672665  1
  Sb  Sb27  1  0.429574  0.491828  0.172779  1
  Sb  Sb28  1  0.070724  0.491562  0.672665  1
  Sb  Sb29  1  0.429574  0.008172  0.172779  1
  Sb  Sb30  1  0.928904  0.991321  0.327317  1
  Sb  Sb31  1  0.570742  0.508442  0.827351  1
