# generated using pymatgen
data_Na2Cr3Co4Ni5As7
_symmetry_space_group_name_H-M   'P 1'
_cell_length_a   9.51250223
_cell_length_b   9.52040781
_cell_length_c   3.69553800
_cell_angle_alpha   90.00000000
_cell_angle_beta   90.00000000
_cell_angle_gamma   119.99793714
_symmetry_Int_Tables_number   1
_chemical_formula_structural   Na2Cr3Co4Ni5As7
_chemical_formula_sum   'Na2 Cr3 Co4 Ni5 As7'
_cell_volume   289.84622915
_cell_formula_units_Z   1
loop_
 _symmetry_equiv_pos_site_id
 _symmetry_equiv_pos_as_xyz
  1  'x, y, z'
loop_
 _atom_site_type_symbol
 _atom_site_label
 _atom_site_symmetry_multiplicity
 _atom_site_fract_x
 _atom_site_fract_y
 _atom_site_fract_z
 _atom_site_occupancy
  Na  Na0  1  0.334030  0.667278  0.000000  1
  Na  Na1  1  0.666808  0.334019  0.500000  1
  Cr  Cr2  1  0.224517  0.123392  0.500000  1
  Cr  Cr3  1  0.880508  0.102692  0.500000  1
  Cr  Cr4  1  0.897971  0.772982  0.500000  1
  Co  Co5  1  0.117034  0.275632  0.000000  1
  Co  Co6  1  0.721874  0.840531  0.000000  1
  Co  Co7  1  0.161290  0.881638  0.000000  1
  Co  Co8  1  0.046490  0.433669  0.500000  1
  Ni  Ni9  1  0.427785  0.372833  0.000000  1
  Ni  Ni10  1  0.629529  0.058184  0.000000  1
  Ni  Ni11  1  0.943978  0.572762  0.000000  1
  Ni  Ni12  1  0.561057  0.613160  0.500000  1
  Ni  Ni13  1  0.387582  0.950265  0.500000  1
  As  As14  1  0.282550  0.412760  0.500000  1
  As  As15  1  0.589013  0.875437  0.500000  1
  As  As16  1  0.125486  0.710213  0.500000  1
  As  As17  1  0.414908  0.119087  0.000000  1
  As  As18  1  0.884336  0.299916  0.000000  1
  As  As19  1  0.703138  0.585699  0.000000  1
  As  As20  1  0.000116  0.997851  0.000000  1
