# generated using pymatgen
data_Yb3YReTc3B16
_symmetry_space_group_name_H-M   'P 1'
_cell_length_a   3.57106100
_cell_length_b   5.98175386
_cell_length_c   11.56600301
_cell_angle_alpha   90.03246506
_cell_angle_beta   90.00000000
_cell_angle_gamma   90.00000000
_symmetry_Int_Tables_number   1
_chemical_formula_structural   Yb3YReTc3B16
_chemical_formula_sum   'Yb3 Y1 Re1 Tc3 B16'
_cell_volume   247.06375544
_cell_formula_units_Z   1
loop_
 _symmetry_equiv_pos_site_id
 _symmetry_equiv_pos_as_xyz
  1  'x, y, z'
loop_
 _atom_site_type_symbol
 _atom_site_label
 _atom_site_symmetry_multiplicity
 _atom_site_fract_x
 _atom_site_fract_y
 _atom_site_fract_z
 _atom_site_occupancy
  Yb  Yb0  1  0.000000  0.128126  0.150438  1
  Yb  Yb1  1  0.000000  0.871554  0.850851  1
  Yb  Yb2  1  0.000000  0.628567  0.348545  1
  Y  Y3  1  0.000000  0.371894  0.650410  1
  Re  Re4  1  0.000000  0.369840  0.916340  1
  Tc  Tc5  1  0.000000  0.131144  0.416809  1
  Tc  Tc6  1  0.000000  0.870395  0.584152  1
  Tc  Tc7  1  0.000000  0.630790  0.083322  1
  B  B8  1  0.500000  0.477292  0.192696  1
  B  B9  1  0.500000  0.524770  0.807569  1
  B  B10  1  0.500000  0.977214  0.307323  1
  B  B11  1  0.500000  0.022719  0.692778  1
  B  B12  1  0.500000  0.284285  0.314539  1
  B  B13  1  0.500000  0.715665  0.684845  1
  B  B14  1  0.500000  0.785016  0.184891  1
  B  B15  1  0.500000  0.213058  0.815314  1
  B  B16  1  0.500000  0.364685  0.467460  1
  B  B17  1  0.500000  0.635510  0.531227  1
  B  B18  1  0.500000  0.865110  0.032511  1
  B  B19  1  0.500000  0.133978  0.968455  1
  B  B20  1  0.500000  0.385873  0.047647  1
  B  B21  1  0.500000  0.614692  0.952555  1
  B  B22  1  0.500000  0.885746  0.452102  1
  B  B23  1  0.500000  0.112078  0.547224  1
