# generated using pymatgen
data_K2CaVF7
_symmetry_space_group_name_H-M   'P 1'
_cell_length_a   8.06049248
_cell_length_b   8.06049233
_cell_length_c   8.06049315
_cell_angle_alpha   120.32908773
_cell_angle_beta   117.68856919
_cell_angle_gamma   91.74027029
_symmetry_Int_Tables_number   1
_chemical_formula_structural   K2CaVF7
_chemical_formula_sum   'K4 Ca2 V2 F14'
_cell_volume   375.43371988
_cell_formula_units_Z   2
loop_
 _symmetry_equiv_pos_site_id
 _symmetry_equiv_pos_as_xyz
  1  'x, y, z'
loop_
 _atom_site_type_symbol
 _atom_site_label
 _atom_site_symmetry_multiplicity
 _atom_site_fract_x
 _atom_site_fract_y
 _atom_site_fract_z
 _atom_site_occupancy
  K  K0  1  0.500000  0.500000  0.000000  1
  K  K1  1  0.000000  0.000000  0.000000  1
  K  K2  1  0.000000  0.500000  0.000000  1
  K  K3  1  0.000000  0.000000  0.500000  1
  Ca  Ca4  1  0.500000  0.500000  0.500000  1
  Ca  Ca5  1  0.500000  0.000000  0.000000  1
  V  V6  1  0.000000  0.500000  0.500000  1
  V  V7  1  0.500000  0.000000  0.500000  1
  F  F8  1  0.875564  0.584343  0.291220  1
  F  F9  1  0.206876  0.915657  0.291220  1
  F  F10  1  0.176286  0.791245  0.747085  1
  F  F11  1  0.455840  0.708755  0.385041  1
  F  F12  1  0.455840  0.070799  0.747085  1
  F  F13  1  0.176286  0.429201  0.385041  1
  F  F14  1  0.823714  0.570799  0.614959  1
  F  F15  1  0.544160  0.929201  0.252915  1
  F  F16  1  0.544160  0.291245  0.614959  1
  F  F17  1  0.823714  0.208755  0.252915  1
  F  F18  1  0.378006  0.250000  0.128006  1
  F  F19  1  0.124436  0.415657  0.708780  1
  F  F20  1  0.793124  0.084343  0.708780  1
  F  F21  1  0.621994  0.750000  0.871994  1
