# generated using pymatgen
data_Hf3Zr7Sn6Cl
_symmetry_space_group_name_H-M   'P 1'
_cell_length_a   5.82077927
_cell_length_b   8.58273091
_cell_length_c   8.58155518
_cell_angle_alpha   120.00403142
_cell_angle_beta   90.02823088
_cell_angle_gamma   89.97950418
_symmetry_Int_Tables_number   1
_chemical_formula_structural   Hf3Zr7Sn6Cl
_chemical_formula_sum   'Hf3 Zr7 Sn6 Cl1'
_cell_volume   371.26632378
_cell_formula_units_Z   1
loop_
 _symmetry_equiv_pos_site_id
 _symmetry_equiv_pos_as_xyz
  1  'x, y, z'
loop_
 _atom_site_type_symbol
 _atom_site_label
 _atom_site_symmetry_multiplicity
 _atom_site_fract_x
 _atom_site_fract_y
 _atom_site_fract_z
 _atom_site_occupancy
  Hf  Hf0  1  0.500009  0.333281  0.666615  1
  Hf  Hf1  1  0.499992  0.666709  0.333375  1
  Hf  Hf2  1  0.000009  0.666574  0.333232  1
  Zr  Zr3  1  0.999991  0.333425  0.666774  1
  Zr  Zr4  1  0.762665  0.256673  0.000445  1
  Zr  Zr5  1  0.762471  0.743789  0.743304  1
  Zr  Zr6  1  0.762440  0.999585  0.256197  1
  Zr  Zr7  1  0.237346  0.743778  0.000484  1
  Zr  Zr8  1  0.237533  0.256649  0.256241  1
  Zr  Zr9  1  0.237562  0.999547  0.743361  1
  Sn  Sn10  1  0.747571  0.608063  0.000554  1
  Sn  Sn11  1  0.747788  0.392589  0.391976  1
  Sn  Sn12  1  0.747783  0.999429  0.607399  1
  Sn  Sn13  1  0.252441  0.392491  0.000579  1
  Sn  Sn14  1  0.252185  0.608015  0.607449  1
  Sn  Sn15  1  0.252214  0.999394  0.392000  1
  Cl  Cl16  1  0.500001  0.000010  0.000014  1
