# generated using pymatgen
data_TbDy2Er(Al3Rh)6
_symmetry_space_group_name_H-M   'P 1'
_cell_length_a   7.54838371
_cell_length_b   7.55082218
_cell_length_c   9.46641800
_cell_angle_alpha   90.00000000
_cell_angle_beta   90.00000000
_cell_angle_gamma   119.27820167
_symmetry_Int_Tables_number   1
_chemical_formula_structural   TbDy2Er(Al3Rh)6
_chemical_formula_sum   'Tb1 Dy2 Er1 Al18 Rh6'
_cell_volume   470.62777417
_cell_formula_units_Z   1
loop_
 _symmetry_equiv_pos_site_id
 _symmetry_equiv_pos_as_xyz
  1  'x, y, z'
loop_
 _atom_site_type_symbol
 _atom_site_label
 _atom_site_symmetry_multiplicity
 _atom_site_fract_x
 _atom_site_fract_y
 _atom_site_fract_z
 _atom_site_occupancy
  Tb  Tb0  1  0.994327  0.672132  0.750000  1
  Dy  Dy1  1  0.005296  0.327547  0.250000  1
  Dy  Dy2  1  0.672437  0.994371  0.750000  1
  Er  Er3  1  0.327589  0.005265  0.250000  1
  Al  Al4  1  0.129338  0.129517  0.750000  1
  Al  Al5  1  0.871208  0.871299  0.250000  1
  Al  Al6  1  0.001209  0.335550  0.574697  1
  Al  Al7  1  0.999283  0.664298  0.423967  1
  Al  Al8  1  0.999283  0.664298  0.076033  1
  Al  Al9  1  0.336165  0.001365  0.925502  1
  Al  Al10  1  0.001209  0.335550  0.925303  1
  Al  Al11  1  0.663759  0.999174  0.075435  1
  Al  Al12  1  0.663759  0.999174  0.424565  1
  Al  Al13  1  0.336165  0.001365  0.574498  1
  Al  Al14  1  0.332758  0.332480  0.051268  1
  Al  Al15  1  0.666796  0.667054  0.951282  1
  Al  Al16  1  0.666796  0.667054  0.548718  1
  Al  Al17  1  0.332758  0.332480  0.448732  1
  Al  Al18  1  0.340447  0.550588  0.750000  1
  Al  Al19  1  0.659683  0.448932  0.250000  1
  Al  Al20  1  0.550131  0.339347  0.750000  1
  Al  Al21  1  0.449485  0.660440  0.250000  1
  Rh  Rh22  1  0.671958  0.327880  0.499640  1
  Rh  Rh23  1  0.327879  0.672047  0.499627  1
  Rh  Rh24  1  0.327879  0.672047  0.000373  1
  Rh  Rh25  1  0.671958  0.327880  0.000360  1
  Rh  Rh26  1  0.000225  0.000433  0.499512  1
  Rh  Rh27  1  0.000225  0.000433  0.000488  1
