# generated using pymatgen
data_Tb2Dy4Al24ZnOs7
_symmetry_space_group_name_H-M   'P 1'
_cell_length_a   8.86122025
_cell_length_b   8.85938801
_cell_length_c   9.54694112
_cell_angle_alpha   89.94567894
_cell_angle_beta   90.04088470
_cell_angle_gamma   119.98834470
_symmetry_Int_Tables_number   1
_chemical_formula_structural   Tb2Dy4Al24ZnOs7
_chemical_formula_sum   'Tb2 Dy4 Al24 Zn1 Os7'
_cell_volume   649.14678754
_cell_formula_units_Z   1
loop_
 _symmetry_equiv_pos_site_id
 _symmetry_equiv_pos_as_xyz
  1  'x, y, z'
loop_
 _atom_site_type_symbol
 _atom_site_label
 _atom_site_symmetry_multiplicity
 _atom_site_fract_x
 _atom_site_fract_y
 _atom_site_fract_z
 _atom_site_occupancy
  Tb  Tb0  1  0.191167  0.385880  0.248179  1
  Tb  Tb1  1  0.808833  0.614120  0.751821  1
  Dy  Dy2  1  0.613855  0.808841  0.248319  1
  Dy  Dy3  1  0.386145  0.191159  0.751681  1
  Dy  Dy4  1  0.194372  0.805666  0.253203  1
  Dy  Dy5  1  0.805628  0.194334  0.746797  1
  Al  Al6  1  0.329611  0.670548  0.020167  1
  Al  Al7  1  0.670389  0.329452  0.979833  1
  Al  Al8  1  0.666047  0.333801  0.517046  1
  Al  Al9  1  0.333953  0.666199  0.482954  1
  Al  Al10  1  0.162569  0.325781  0.573868  1
  Al  Al11  1  0.837431  0.674219  0.426132  1
  Al  Al12  1  0.674204  0.837481  0.573764  1
  Al  Al13  1  0.848760  0.677289  0.080759  1
  Al  Al14  1  0.325796  0.162519  0.426236  1
  Al  Al15  1  0.151240  0.322711  0.919241  1
  Al  Al16  1  0.162974  0.837148  0.575047  1
  Al  Al17  1  0.322715  0.151157  0.080655  1
  Al  Al18  1  0.837026  0.162852  0.424953  1
  Al  Al19  1  0.677285  0.848843  0.919345  1
  Al  Al20  1  0.836601  0.163204  0.076124  1
  Al  Al21  1  0.163399  0.836796  0.923876  1
  Al  Al22  1  0.561489  0.121401  0.249281  1
  Al  Al23  1  0.438511  0.878599  0.750719  1
  Al  Al24  1  0.878425  0.438546  0.249304  1
  Al  Al25  1  0.121575  0.561454  0.750696  1
  Al  Al26  1  0.563667  0.436524  0.254586  1
  Al  Al27  1  0.436333  0.563476  0.745414  1
  Al  Al28  1  0.998987  0.000778  0.250549  1
  Al  Al29  1  0.001013  0.999222  0.749451  1
  Zn  Zn30  1  0.500000  0.500000  0.000000  1
  Os  Os31  1  0.500000  0.000000  0.000000  1
  Os  Os32  1  0.000000  0.500000  0.000000  1
  Os  Os33  1  0.500000  0.000000  0.500000  1
  Os  Os34  1  0.000000  0.500000  0.500000  1
  Os  Os35  1  0.500000  0.500000  0.500000  1
  Os  Os36  1  0.000000  0.000000  0.000000  1
  Os  Os37  1  0.000000  0.000000  0.500000  1
