# generated using pymatgen
data_DyTm5Mn2(Co4P3)4
_symmetry_space_group_name_H-M   'P 1'
_cell_length_a   3.65887000
_cell_length_b   10.47028600
_cell_length_c   12.11687800
_cell_angle_alpha   90.00000000
_cell_angle_beta   90.00000000
_cell_angle_gamma   90.00000000
_symmetry_Int_Tables_number   1
_chemical_formula_structural   DyTm5Mn2(Co4P3)4
_chemical_formula_sum   'Dy1 Tm5 Mn2 Co16 P12'
_cell_volume   464.19051189
_cell_formula_units_Z   1
loop_
 _symmetry_equiv_pos_site_id
 _symmetry_equiv_pos_as_xyz
  1  'x, y, z'
loop_
 _atom_site_type_symbol
 _atom_site_label
 _atom_site_symmetry_multiplicity
 _atom_site_fract_x
 _atom_site_fract_y
 _atom_site_fract_z
 _atom_site_occupancy
  Dy  Dy0  1  0.000000  0.500000  0.523114  1
  Tm  Tm1  1  0.500000  0.000000  0.476949  1
  Tm  Tm2  1  0.500000  0.818456  0.205279  1
  Tm  Tm3  1  0.500000  0.181544  0.205279  1
  Tm  Tm4  1  0.000000  0.681799  0.794960  1
  Tm  Tm5  1  0.000000  0.318201  0.794960  1
  Mn  Mn6  1  0.500000  0.500000  0.158791  1
  Mn  Mn7  1  0.000000  0.000000  0.840559  1
  Co  Co8  1  0.500000  0.500000  0.703667  1
  Co  Co9  1  0.000000  0.000000  0.297192  1
  Co  Co10  1  0.000000  0.500000  0.986270  1
  Co  Co11  1  0.500000  0.000000  0.013944  1
  Co  Co12  1  0.500000  0.332776  0.993476  1
  Co  Co13  1  0.500000  0.667224  0.993476  1
  Co  Co14  1  0.000000  0.167049  0.006562  1
  Co  Co15  1  0.000000  0.832951  0.006562  1
  Co  Co16  1  0.500000  0.295938  0.430401  1
  Co  Co17  1  0.500000  0.704062  0.430401  1
  Co  Co18  1  0.000000  0.202428  0.569478  1
  Co  Co19  1  0.000000  0.797572  0.569478  1
  Co  Co20  1  0.500000  0.879066  0.708982  1
  Co  Co21  1  0.500000  0.120934  0.708982  1
  Co  Co22  1  0.000000  0.621345  0.290732  1
  Co  Co23  1  0.000000  0.378655  0.290732  1
  P  P24  1  0.500000  0.500000  0.882194  1
  P  P25  1  0.000000  0.000000  0.118189  1
  P  P26  1  0.500000  0.500000  0.345053  1
  P  P27  1  0.000000  0.000000  0.653618  1
  P  P28  1  0.500000  0.311419  0.617067  1
  P  P29  1  0.500000  0.688581  0.617067  1
  P  P30  1  0.000000  0.187445  0.383343  1
  P  P31  1  0.000000  0.812555  0.383343  1
  P  P32  1  0.500000  0.847283  0.891833  1
  P  P33  1  0.500000  0.152717  0.891833  1
  P  P34  1  0.000000  0.652936  0.108115  1
  P  P35  1  0.000000  0.347064  0.108115  1
