# generated using pymatgen
data_Tb10Nd6Cd4OsPt3
_symmetry_space_group_name_H-M   'P 1'
_cell_length_a   9.83127659
_cell_length_b   9.83127666
_cell_length_c   9.83127731
_cell_angle_alpha   59.84378408
_cell_angle_beta   59.84378973
_cell_angle_gamma   59.84379047
_symmetry_Int_Tables_number   1
_chemical_formula_structural   Tb10Nd6Cd4OsPt3
_chemical_formula_sum   'Tb10 Nd6 Cd4 Os1 Pt3'
_cell_volume   669.53362600
_cell_formula_units_Z   1
loop_
 _symmetry_equiv_pos_site_id
 _symmetry_equiv_pos_as_xyz
  1  'x, y, z'
loop_
 _atom_site_type_symbol
 _atom_site_label
 _atom_site_symmetry_multiplicity
 _atom_site_fract_x
 _atom_site_fract_y
 _atom_site_fract_z
 _atom_site_occupancy
  Tb  Tb0  1  0.351063  0.351063  0.351063  1
  Tb  Tb1  1  0.347231  0.347231  0.954380  1
  Tb  Tb2  1  0.347231  0.954380  0.347231  1
  Tb  Tb3  1  0.954380  0.347231  0.347231  1
  Tb  Tb4  1  0.816088  0.187668  0.187668  1
  Tb  Tb5  1  0.186000  0.810559  0.810559  1
  Tb  Tb6  1  0.187668  0.816088  0.187668  1
  Tb  Tb7  1  0.810559  0.186000  0.810559  1
  Tb  Tb8  1  0.187668  0.187668  0.816088  1
  Tb  Tb9  1  0.810559  0.810559  0.186000  1
  Nd  Nd10  1  0.937991  0.562245  0.562245  1
  Nd  Nd11  1  0.556560  0.939577  0.939577  1
  Nd  Nd12  1  0.562245  0.937991  0.562245  1
  Nd  Nd13  1  0.939577  0.556560  0.939577  1
  Nd  Nd14  1  0.562245  0.562245  0.937991  1
  Nd  Nd15  1  0.939577  0.939577  0.556560  1
  Cd  Cd16  1  0.579334  0.579334  0.579334  1
  Cd  Cd17  1  0.579884  0.579884  0.259431  1
  Cd  Cd18  1  0.579884  0.259431  0.579884  1
  Cd  Cd19  1  0.259431  0.579884  0.579884  1
  Os  Os20  1  0.142595  0.142595  0.142595  1
  Pt  Pt21  1  0.144017  0.144017  0.574198  1
  Pt  Pt22  1  0.144017  0.574198  0.144017  1
  Pt  Pt23  1  0.574198  0.144017  0.144017  1
