# generated using pymatgen
data_SmYP7Ru12
_symmetry_space_group_name_H-M   'P 1'
_cell_length_a   9.42797900
_cell_length_b   9.42797847
_cell_length_c   3.96568700
_cell_angle_alpha   90.00000000
_cell_angle_beta   90.00000000
_cell_angle_gamma   119.99999834
_symmetry_Int_Tables_number   1
_chemical_formula_structural   SmYP7Ru12
_chemical_formula_sum   'Sm1 Y1 P7 Ru12'
_cell_volume   305.27150044
_cell_formula_units_Z   1
loop_
 _symmetry_equiv_pos_site_id
 _symmetry_equiv_pos_as_xyz
  1  'x, y, z'
loop_
 _atom_site_type_symbol
 _atom_site_label
 _atom_site_symmetry_multiplicity
 _atom_site_fract_x
 _atom_site_fract_y
 _atom_site_fract_z
 _atom_site_occupancy
  Sm  Sm0  1  0.333333  0.666667  0.000000  1
  Y  Y1  1  0.666667  0.333333  0.500000  1
  P  P2  1  0.602903  0.718659  0.500000  1
  P  P3  1  0.000000  0.000000  0.000000  1
  P  P4  1  0.281341  0.884244  0.500000  1
  P  P5  1  0.115756  0.397097  0.500000  1
  P  P6  1  0.886249  0.572947  0.000000  1
  P  P7  1  0.427053  0.313303  0.000000  1
  P  P8  1  0.686697  0.113751  0.000000  1
  Ru  Ru9  1  0.558056  0.952343  0.500000  1
  Ru  Ru10  1  0.394287  0.441944  0.500000  1
  Ru  Ru11  1  0.914896  0.120597  0.500000  1
  Ru  Ru12  1  0.205701  0.085104  0.500000  1
  Ru  Ru13  1  0.879403  0.794299  0.500000  1
  Ru  Ru14  1  0.728581  0.892765  0.000000  1
  Ru  Ru15  1  0.107235  0.835815  0.000000  1
  Ru  Ru16  1  0.164185  0.271419  0.000000  1
  Ru  Ru17  1  0.422456  0.067404  0.000000  1
  Ru  Ru18  1  0.932596  0.355053  0.000000  1
  Ru  Ru19  1  0.644947  0.577544  0.000000  1
  Ru  Ru20  1  0.047657  0.605713  0.500000  1
