# generated using pymatgen
data_Ta3SiIr2Ru3
_symmetry_space_group_name_H-M   'P 1'
_cell_length_a   7.21302400
_cell_length_b   7.21302448
_cell_length_c   3.07329100
_cell_angle_alpha   90.00000000
_cell_angle_beta   90.00000000
_cell_angle_gamma   120.00000697
_symmetry_Int_Tables_number   1
_chemical_formula_structural   Ta3SiIr2Ru3
_chemical_formula_sum   'Ta3 Si1 Ir2 Ru3'
_cell_volume   138.47426503
_cell_formula_units_Z   1
loop_
 _symmetry_equiv_pos_site_id
 _symmetry_equiv_pos_as_xyz
  1  'x, y, z'
loop_
 _atom_site_type_symbol
 _atom_site_label
 _atom_site_symmetry_multiplicity
 _atom_site_fract_x
 _atom_site_fract_y
 _atom_site_fract_z
 _atom_site_occupancy
  Ta  Ta0  1  0.394983  0.394983  0.500000  1
  Ta  Ta1  1  0.605017  0.000000  0.500000  1
  Ta  Ta2  1  0.000000  0.605017  0.500000  1
  Si  Si3  1  0.000000  0.000000  0.500000  1
  Ir  Ir4  1  0.666667  0.333333  0.000000  1
  Ir  Ir5  1  0.333333  0.666667  0.000000  1
  Ru  Ru6  1  0.000000  0.247367  0.000000  1
  Ru  Ru7  1  0.247367  0.000000  0.000000  1
  Ru  Ru8  1  0.752633  0.752633  0.000000  1
