# generated using pymatgen
data_RbCoP2Os
_symmetry_space_group_name_H-M   'P 1'
_cell_length_a   7.52048786
_cell_length_b   7.52048821
_cell_length_c   7.52048803
_cell_angle_alpha   150.34963866
_cell_angle_beta   150.34963851
_cell_angle_gamma   42.42841043
_symmetry_Int_Tables_number   1
_chemical_formula_structural   RbCoP2Os
_chemical_formula_sum   'Rb1 Co1 P2 Os1'
_cell_volume   103.83982895
_cell_formula_units_Z   1
loop_
 _symmetry_equiv_pos_site_id
 _symmetry_equiv_pos_as_xyz
  1  'x, y, z'
loop_
 _atom_site_type_symbol
 _atom_site_label
 _atom_site_symmetry_multiplicity
 _atom_site_fract_x
 _atom_site_fract_y
 _atom_site_fract_z
 _atom_site_occupancy
  Rb  Rb0  1  0.000000  0.000000  0.000000  1
  Co  Co1  1  0.250000  0.750000  0.500000  1
  P  P2  1  0.338217  0.338217  0.000000  1
  P  P3  1  0.661783  0.661783  0.000000  1
  Os  Os4  1  0.750000  0.250000  0.500000  1
