# generated using pymatgen
data_ErTm2ScGa2Ir3
_symmetry_space_group_name_H-M   'P 1'
_cell_length_a   7.13605807
_cell_length_b   7.12560974
_cell_length_c   4.02963300
_cell_angle_alpha   90.00000000
_cell_angle_beta   90.00000000
_cell_angle_gamma   120.20348530
_symmetry_Int_Tables_number   1
_chemical_formula_structural   ErTm2ScGa2Ir3
_chemical_formula_sum   'Er1 Tm2 Sc1 Ga2 Ir3'
_cell_volume   177.08524530
_cell_formula_units_Z   1
loop_
 _symmetry_equiv_pos_site_id
 _symmetry_equiv_pos_as_xyz
  1  'x, y, z'
loop_
 _atom_site_type_symbol
 _atom_site_label
 _atom_site_symmetry_multiplicity
 _atom_site_fract_x
 _atom_site_fract_y
 _atom_site_fract_z
 _atom_site_occupancy
  Er  Er0  1  0.013416  0.581688  0.500000  1
  Tm  Tm1  1  0.392263  0.392183  0.500000  1
  Tm  Tm2  1  0.582028  0.013122  0.500000  1
  Sc  Sc3  1  0.765749  0.765888  0.000000  1
  Ga  Ga4  1  0.247892  0.994698  0.000000  1
  Ga  Ga5  1  0.994198  0.247467  0.000000  1
  Ir  Ir6  1  0.662314  0.335140  0.000000  1
  Ir  Ir7  1  0.336916  0.663924  0.000000  1
  Ir  Ir8  1  0.005226  0.005893  0.500000  1
