# generated using pymatgen
data_Dy2Ho14Zn3CdRh4
_symmetry_space_group_name_H-M   'P 1'
_cell_length_a   9.48862620
_cell_length_b   9.48306730
_cell_length_c   9.50305201
_cell_angle_alpha   59.93011521
_cell_angle_beta   59.94938205
_cell_angle_gamma   59.82370401
_symmetry_Int_Tables_number   1
_chemical_formula_structural   Dy2Ho14Zn3CdRh4
_chemical_formula_sum   'Dy2 Ho14 Zn3 Cd1 Rh4'
_cell_volume   603.28595838
_cell_formula_units_Z   1
loop_
 _symmetry_equiv_pos_site_id
 _symmetry_equiv_pos_as_xyz
  1  'x, y, z'
loop_
 _atom_site_type_symbol
 _atom_site_label
 _atom_site_symmetry_multiplicity
 _atom_site_fract_x
 _atom_site_fract_y
 _atom_site_fract_z
 _atom_site_occupancy
  Dy  Dy0  1  0.934533  0.935336  0.565066  1
  Dy  Dy1  1  0.559865  0.567982  0.936072  1
  Ho  Ho2  1  0.691408  0.691227  0.308685  1
  Ho  Ho3  1  0.145401  0.560405  0.147093  1
  Ho  Ho4  1  0.690815  0.309769  0.689547  1
  Ho  Ho5  1  0.148388  0.146474  0.150022  1
  Ho  Ho6  1  0.556867  0.145195  0.148967  1
  Ho  Ho7  1  0.690809  0.309782  0.309865  1
  Ho  Ho8  1  0.148396  0.146458  0.555123  1
  Ho  Ho9  1  0.309335  0.691790  0.308156  1
  Ho  Ho10  1  0.309344  0.691783  0.690715  1
  Ho  Ho11  1  0.936523  0.567062  0.560550  1
  Ho  Ho12  1  0.936518  0.567073  0.935861  1
  Ho  Ho13  1  0.563176  0.936781  0.564656  1
  Ho  Ho14  1  0.563159  0.936782  0.935394  1
  Ho  Ho15  1  0.310334  0.309083  0.690295  1
  Zn  Zn16  1  0.920311  0.917996  0.241830  1
  Zn  Zn17  1  0.243137  0.918124  0.919367  1
  Zn  Zn18  1  0.920316  0.917992  0.919861  1
  Cd  Cd19  1  0.922420  0.234863  0.921363  1
  Rh  Rh20  1  0.356281  0.356642  0.929371  1
  Rh  Rh21  1  0.356865  0.928113  0.357504  1
  Rh  Rh22  1  0.929522  0.356625  0.356933  1
  Rh  Rh23  1  0.356276  0.356659  0.357701  1
