# generated using pymatgen
data_KPr(TmS2)2
_symmetry_space_group_name_H-M   'P 1'
_cell_length_a   3.95912100
_cell_length_b   3.95912217
_cell_length_c   13.93167800
_cell_angle_alpha   90.00000000
_cell_angle_beta   90.00000000
_cell_angle_gamma   119.99998189
_symmetry_Int_Tables_number   1
_chemical_formula_structural   KPr(TmS2)2
_chemical_formula_sum   'K1 Pr1 Tm2 S4'
_cell_volume   189.11754315
_cell_formula_units_Z   1
loop_
 _symmetry_equiv_pos_site_id
 _symmetry_equiv_pos_as_xyz
  1  'x, y, z'
loop_
 _atom_site_type_symbol
 _atom_site_label
 _atom_site_symmetry_multiplicity
 _atom_site_fract_x
 _atom_site_fract_y
 _atom_site_fract_z
 _atom_site_occupancy
  K  K0  1  0.666667  0.333333  0.750000  1
  Pr  Pr1  1  0.333333  0.666667  0.250000  1
  Tm  Tm2  1  0.000000  0.000000  0.012829  1
  Tm  Tm3  1  0.000000  0.000000  0.487171  1
  S  S4  1  0.333333  0.666667  0.591693  1
  S  S5  1  0.666667  0.333333  0.120012  1
  S  S6  1  0.666667  0.333333  0.379988  1
  S  S7  1  0.333333  0.666667  0.908307  1
