# generated using pymatgen
data_La2Th(SnRh)3
_symmetry_space_group_name_H-M   'P 1'
_cell_length_a   7.59380243
_cell_length_b   7.66775868
_cell_length_c   4.15597600
_cell_angle_alpha   90.00000000
_cell_angle_beta   90.00000000
_cell_angle_gamma   120.32268639
_symmetry_Int_Tables_number   1
_chemical_formula_structural   La2Th(SnRh)3
_chemical_formula_sum   'La2 Th1 Sn3 Rh3'
_cell_volume   208.88633808
_cell_formula_units_Z   1
loop_
 _symmetry_equiv_pos_site_id
 _symmetry_equiv_pos_as_xyz
  1  'x, y, z'
loop_
 _atom_site_type_symbol
 _atom_site_label
 _atom_site_symmetry_multiplicity
 _atom_site_fract_x
 _atom_site_fract_y
 _atom_site_fract_z
 _atom_site_occupancy
  La  La0  1  0.413410  0.413284  0.500000  1
  La  La1  1  0.586590  0.999874  0.500000  1
  Th  Th2  1  0.000000  0.585071  0.500000  1
  Sn  Sn3  1  0.747747  0.751004  0.000000  1
  Sn  Sn4  1  0.252253  0.003257  0.000000  1
  Sn  Sn5  1  0.000000  0.244822  0.000000  1
  Rh  Rh6  1  0.687979  0.351559  0.000000  1
  Rh  Rh7  1  0.312021  0.663581  0.000000  1
  Rh  Rh8  1  0.000000  0.987548  0.500000  1
