# generated using pymatgen
data_Ba4CrH12Au
_symmetry_space_group_name_H-M   'P 1'
_cell_length_a   7.91029960
_cell_length_b   7.91030017
_cell_length_c   6.04869363
_cell_angle_alpha   89.97722285
_cell_angle_beta   89.97721425
_cell_angle_gamma   135.07569594
_symmetry_Int_Tables_number   1
_chemical_formula_structural   Ba4CrH12Au
_chemical_formula_sum   'Ba4 Cr1 H12 Au1'
_cell_volume   267.27462419
_cell_formula_units_Z   1
loop_
 _symmetry_equiv_pos_site_id
 _symmetry_equiv_pos_as_xyz
  1  'x, y, z'
loop_
 _atom_site_type_symbol
 _atom_site_label
 _atom_site_symmetry_multiplicity
 _atom_site_fract_x
 _atom_site_fract_y
 _atom_site_fract_z
 _atom_site_occupancy
  Ba  Ba0  1  0.356929  0.643071  0.000000  1
  Ba  Ba1  1  0.854388  0.145612  0.500000  1
  Ba  Ba2  1  0.643071  0.356929  0.000000  1
  Ba  Ba3  1  0.145612  0.854388  0.500000  1
  Cr  Cr4  1  0.500000  0.500000  0.500000  1
  H  H5  1  0.000095  0.500919  0.245417  1
  H  H6  1  0.499081  0.999905  0.754583  1
  H  H7  1  0.999905  0.499081  0.754583  1
  H  H8  1  0.500919  0.000095  0.245417  1
  H  H9  1  0.114909  0.885091  0.000000  1
  H  H10  1  0.619384  0.380616  0.500000  1
  H  H11  1  0.885091  0.114909  0.000000  1
  H  H12  1  0.380616  0.619384  0.500000  1
  H  H13  1  0.703560  0.703560  0.295654  1
  H  H14  1  0.296440  0.296440  0.704346  1
  H  H15  1  0.703578  0.703578  0.703892  1
  H  H16  1  0.296422  0.296422  0.296108  1
  Au  Au17  1  0.000000  0.000000  0.000000  1
