# generated using pymatgen
data_Sm5Th3(Nb3Si4)4
_symmetry_space_group_name_H-M   'P 1'
_cell_length_a   7.17241019
_cell_length_b   7.16835577
_cell_length_c   13.30294717
_cell_angle_alpha   89.97662980
_cell_angle_beta   90.07567156
_cell_angle_gamma   90.04772772
_symmetry_Int_Tables_number   1
_chemical_formula_structural   Sm5Th3(Nb3Si4)4
_chemical_formula_sum   'Sm5 Th3 Nb12 Si16'
_cell_volume   683.96199649
_cell_formula_units_Z   1
loop_
 _symmetry_equiv_pos_site_id
 _symmetry_equiv_pos_as_xyz
  1  'x, y, z'
loop_
 _atom_site_type_symbol
 _atom_site_label
 _atom_site_symmetry_multiplicity
 _atom_site_fract_x
 _atom_site_fract_y
 _atom_site_fract_z
 _atom_site_occupancy
  Sm  Sm0  1  0.502000  0.840424  0.032672  1
  Sm  Sm1  1  0.840089  0.502037  0.967569  1
  Sm  Sm2  1  0.498173  0.159091  0.532874  1
  Sm  Sm3  1  0.341024  0.997848  0.783324  1
  Sm  Sm4  1  0.659268  0.001606  0.282398  1
  Th  Th5  1  0.996535  0.339347  0.217299  1
  Th  Th6  1  0.003453  0.660752  0.717825  1
  Th  Th7  1  0.160871  0.497162  0.467724  1
  Nb  Nb8  1  0.170409  0.170243  0.000589  1
  Nb  Nb9  1  0.831341  0.828123  0.500321  1
  Nb  Nb10  1  0.328367  0.668620  0.249551  1
  Nb  Nb11  1  0.671647  0.330860  0.750116  1
  Nb  Nb12  1  0.155463  0.994668  0.374835  1
  Nb  Nb13  1  0.844870  0.006616  0.874837  1
  Nb  Nb14  1  0.505705  0.654818  0.625192  1
  Nb  Nb15  1  0.344144  0.491672  0.874540  1
  Nb  Nb16  1  0.492344  0.344713  0.124884  1
  Nb  Nb17  1  0.655848  0.508393  0.374488  1
  Nb  Nb18  1  0.991623  0.156287  0.625038  1
  Nb  Nb19  1  0.008092  0.845232  0.124530  1
  Si  Si20  1  0.293839  0.041385  0.186229  1
  Si  Si21  1  0.706375  0.957488  0.686785  1
  Si  Si22  1  0.458380  0.793303  0.436339  1
  Si  Si23  1  0.210487  0.545940  0.061739  1
  Si  Si24  1  0.544048  0.208746  0.936679  1
  Si  Si25  1  0.786155  0.453958  0.563286  1
  Si  Si26  1  0.044786  0.287505  0.814920  1
  Si  Si27  1  0.953951  0.713929  0.312885  1
  Si  Si28  1  0.374866  0.294716  0.314996  1
  Si  Si29  1  0.627250  0.703056  0.816572  1
  Si  Si30  1  0.204874  0.875298  0.565037  1
  Si  Si31  1  0.130918  0.798210  0.935411  1
  Si  Si32  1  0.794985  0.127971  0.063783  1
  Si  Si33  1  0.867431  0.200510  0.435075  1
  Si  Si34  1  0.299400  0.367111  0.685392  1
  Si  Si35  1  0.700992  0.632362  0.184266  1
