# generated using pymatgen
data_CsNpF8
_symmetry_space_group_name_H-M   'P 1'
_cell_length_a   8.19679800
_cell_length_b   8.19679800
_cell_length_c   5.65285300
_cell_angle_alpha   90.00000000
_cell_angle_beta   90.00000000
_cell_angle_gamma   90.00000000
_symmetry_Int_Tables_number   1
_chemical_formula_structural   CsNpF8
_chemical_formula_sum   'Cs2 Np2 F16'
_cell_volume   379.80104654
_cell_formula_units_Z   2
loop_
 _symmetry_equiv_pos_site_id
 _symmetry_equiv_pos_as_xyz
  1  'x, y, z'
loop_
 _atom_site_type_symbol
 _atom_site_label
 _atom_site_symmetry_multiplicity
 _atom_site_fract_x
 _atom_site_fract_y
 _atom_site_fract_z
 _atom_site_occupancy
  Cs  Cs0  1  0.000000  0.000000  0.500000  1
  Cs  Cs1  1  0.500000  0.500000  0.500000  1
  Np  Np2  1  0.000000  0.500000  0.106102  1
  Np  Np3  1  0.500000  0.000000  0.893898  1
  F  F4  1  0.712212  0.000000  0.095848  1
  F  F5  1  0.287788  0.000000  0.095848  1
  F  F6  1  0.500000  0.212212  0.095848  1
  F  F7  1  0.500000  0.787788  0.095848  1
  F  F8  1  0.850695  0.350695  0.315109  1
  F  F9  1  0.850695  0.649305  0.315109  1
  F  F10  1  0.149305  0.350695  0.315109  1
  F  F11  1  0.149305  0.649305  0.315109  1
  F  F12  1  0.649305  0.850695  0.684891  1
  F  F13  1  0.350695  0.149305  0.684891  1
  F  F14  1  0.350695  0.850695  0.684891  1
  F  F15  1  0.649305  0.149305  0.684891  1
  F  F16  1  0.000000  0.287788  0.904152  1
  F  F17  1  0.787788  0.500000  0.904152  1
  F  F18  1  0.212212  0.500000  0.904152  1
  F  F19  1  0.000000  0.712212  0.904152  1
