# generated using pymatgen
data_Li4Y4IrPt3
_symmetry_space_group_name_H-M   'P 1'
_cell_length_a   3.99924800
_cell_length_b   7.06070413
_cell_length_c   8.38340155
_cell_angle_alpha   89.66456757
_cell_angle_beta   90.00000000
_cell_angle_gamma   90.00000000
_symmetry_Int_Tables_number   1
_chemical_formula_structural   Li4Y4IrPt3
_chemical_formula_sum   'Li4 Y4 Ir1 Pt3'
_cell_volume   236.72230222
_cell_formula_units_Z   1
loop_
 _symmetry_equiv_pos_site_id
 _symmetry_equiv_pos_as_xyz
  1  'x, y, z'
loop_
 _atom_site_type_symbol
 _atom_site_label
 _atom_site_symmetry_multiplicity
 _atom_site_fract_x
 _atom_site_fract_y
 _atom_site_fract_z
 _atom_site_occupancy
  Li  Li0  1  0.250000  0.627523  0.558781  1
  Li  Li1  1  0.750000  0.373437  0.440878  1
  Li  Li2  1  0.750000  0.872827  0.055976  1
  Li  Li3  1  0.250000  0.125844  0.943310  1
  Y  Y4  1  0.250000  0.549481  0.174469  1
  Y  Y5  1  0.750000  0.462275  0.820374  1
  Y  Y6  1  0.750000  0.949384  0.685957  1
  Y  Y7  1  0.250000  0.045826  0.321389  1
  Ir  Ir8  1  0.250000  0.743581  0.873075  1
  Pt  Pt9  1  0.750000  0.251638  0.127018  1
  Pt  Pt10  1  0.750000  0.752049  0.374807  1
  Pt  Pt11  1  0.250000  0.246135  0.623968  1
