# generated using pymatgen
data_Tb16Ho4Si13As3
_symmetry_space_group_name_H-M   'P 1'
_cell_length_a   7.56543445
_cell_length_b   7.63338692
_cell_length_c   14.56368600
_cell_angle_alpha   89.87704503
_cell_angle_beta   89.13635402
_cell_angle_gamma   90.01539342
_symmetry_Int_Tables_number   1
_chemical_formula_structural   Tb16Ho4Si13As3
_chemical_formula_sum   'Tb16 Ho4 Si13 As3'
_cell_volume   840.95372134
_cell_formula_units_Z   1
loop_
 _symmetry_equiv_pos_site_id
 _symmetry_equiv_pos_as_xyz
  1  'x, y, z'
loop_
 _atom_site_type_symbol
 _atom_site_label
 _atom_site_symmetry_multiplicity
 _atom_site_fract_x
 _atom_site_fract_y
 _atom_site_fract_z
 _atom_site_occupancy
  Tb  Tb0  1  0.037800  0.824553  0.106297  1
  Tb  Tb1  1  0.524363  0.674164  0.397566  1
  Tb  Tb2  1  0.461531  0.325275  0.893711  1
  Tb  Tb3  1  0.975115  0.180360  0.601939  1
  Tb  Tb4  1  0.970356  0.177708  0.894212  1
  Tb  Tb5  1  0.479142  0.322708  0.600909  1
  Tb  Tb6  1  0.529023  0.678083  0.105409  1
  Tb  Tb7  1  0.019461  0.816564  0.398149  1
  Tb  Tb8  1  0.613778  0.837344  0.882665  1
  Tb  Tb9  1  0.121344  0.663999  0.618816  1
  Tb  Tb10  1  0.887175  0.336795  0.116725  1
  Tb  Tb11  1  0.378214  0.164201  0.382412  1
  Tb  Tb12  1  0.383420  0.164784  0.116696  1
  Tb  Tb13  1  0.877941  0.334815  0.380939  1
  Tb  Tb14  1  0.116472  0.665091  0.882955  1
  Tb  Tb15  1  0.623683  0.835233  0.618079  1
  Ho  Ho16  1  0.711580  0.998205  0.254110  1
  Ho  Ho17  1  0.212866  0.500514  0.250819  1
  Ho  Ho18  1  0.786831  0.498308  0.746502  1
  Ho  Ho19  1  0.288472  0.001802  0.751877  1
  Si  Si20  1  0.823457  0.628128  0.249563  1
  Si  Si21  1  0.324202  0.871399  0.250698  1
  Si  Si22  1  0.675370  0.129497  0.749654  1
  Si  Si23  1  0.174494  0.371542  0.749203  1
  Si  Si24  1  0.088423  0.110262  0.249385  1
  Si  Si25  1  0.588236  0.388261  0.248057  1
  Si  Si26  1  0.412634  0.612177  0.750314  1
  Si  Si27  1  0.911993  0.889887  0.750680  1
  Si  Si28  1  0.214892  0.466139  0.457268  1
  Si  Si29  1  0.225097  0.474911  0.045773  1
  Si  Si30  1  0.718768  0.031892  0.456195  1
  Si  Si31  1  0.275212  0.974831  0.954038  1
  Si  Si32  1  0.786913  0.533195  0.543538  1
  As  As33  1  0.772325  0.524110  0.953709  1
  As  As34  1  0.281950  0.969192  0.545155  1
  As  As35  1  0.727467  0.024070  0.045987  1
