# generated using pymatgen
data_Y16Er3TmIr12
_symmetry_space_group_name_H-M   'P 1'
_cell_length_a   10.92170300
_cell_length_b   10.92170300
_cell_length_c   6.37437800
_cell_angle_alpha   90.00000000
_cell_angle_beta   90.00000000
_cell_angle_gamma   90.00000000
_symmetry_Int_Tables_number   1
_chemical_formula_structural   Y16Er3TmIr12
_chemical_formula_sum   'Y16 Er3 Tm1 Ir12'
_cell_volume   760.35873278
_cell_formula_units_Z   1
loop_
 _symmetry_equiv_pos_site_id
 _symmetry_equiv_pos_as_xyz
  1  'x, y, z'
loop_
 _atom_site_type_symbol
 _atom_site_label
 _atom_site_symmetry_multiplicity
 _atom_site_fract_x
 _atom_site_fract_y
 _atom_site_fract_z
 _atom_site_occupancy
  Y  Y0  1  0.290695  0.087712  0.377398  1
  Y  Y1  1  0.290693  0.912307  0.877419  1
  Y  Y2  1  0.709307  0.087693  0.877419  1
  Y  Y3  1  0.709305  0.912288  0.377398  1
  Y  Y4  1  0.587694  0.790657  0.877398  1
  Y  Y5  1  0.587669  0.209427  0.377441  1
  Y  Y6  1  0.412331  0.790573  0.377441  1
  Y  Y7  1  0.412306  0.209343  0.877398  1
  Y  Y8  1  0.209427  0.412331  0.622559  1
  Y  Y9  1  0.209343  0.587694  0.122602  1
  Y  Y10  1  0.790657  0.412306  0.122602  1
  Y  Y11  1  0.790573  0.587669  0.622559  1
  Y  Y12  1  0.912307  0.709307  0.122581  1
  Y  Y13  1  0.912288  0.290695  0.622602  1
  Y  Y14  1  0.087712  0.709305  0.622602  1
  Y  Y15  1  0.087693  0.290693  0.122581  1
  Er  Er16  1  0.000000  0.000000  0.500000  1
  Er  Er17  1  0.000000  0.000000  0.000000  1
  Er  Er18  1  0.500000  0.500000  0.000000  1
  Tm  Tm19  1  0.500000  0.500000  0.500000  1
  Ir  Ir20  1  0.848223  0.151780  0.249997  1
  Ir  Ir21  1  0.848220  0.848223  0.750003  1
  Ir  Ir22  1  0.151780  0.151777  0.750003  1
  Ir  Ir23  1  0.151777  0.848220  0.249997  1
  Ir  Ir24  1  0.651594  0.348396  0.749723  1
  Ir  Ir25  1  0.651604  0.651594  0.250277  1
  Ir  Ir26  1  0.348396  0.348406  0.250277  1
  Ir  Ir27  1  0.348406  0.651604  0.749723  1
  Ir  Ir28  1  0.500000  0.000000  0.122818  1
  Ir  Ir29  1  0.500000  0.000000  0.622809  1
  Ir  Ir30  1  0.000000  0.500000  0.877182  1
  Ir  Ir31  1  0.000000  0.500000  0.377191  1
