# generated using pymatgen
data_Ho2Co9Si7Ru3
_symmetry_space_group_name_H-M   'P 1'
_cell_length_a   3.73208300
_cell_length_b   9.15949221
_cell_length_c   9.15949300
_cell_angle_alpha   119.99999924
_cell_angle_beta   90.00000000
_cell_angle_gamma   90.00000000
_symmetry_Int_Tables_number   1
_chemical_formula_structural   Ho2Co9Si7Ru3
_chemical_formula_sum   'Ho2 Co9 Si7 Ru3'
_cell_volume   271.15946067
_cell_formula_units_Z   1
loop_
 _symmetry_equiv_pos_site_id
 _symmetry_equiv_pos_as_xyz
  1  'x, y, z'
loop_
 _atom_site_type_symbol
 _atom_site_label
 _atom_site_symmetry_multiplicity
 _atom_site_fract_x
 _atom_site_fract_y
 _atom_site_fract_z
 _atom_site_occupancy
  Ho  Ho0  1  0.000000  0.666667  0.333333  1
  Ho  Ho1  1  0.500000  0.333333  0.666667  1
  Co  Co2  1  0.000000  0.569568  0.945513  1
  Co  Co3  1  0.000000  0.375945  0.430432  1
  Co  Co4  1  0.000000  0.054487  0.624055  1
  Co  Co5  1  0.000000  0.873611  0.156147  1
  Co  Co6  1  0.000000  0.282536  0.126389  1
  Co  Co7  1  0.000000  0.843853  0.717464  1
  Co  Co8  1  0.500000  0.948558  0.384218  1
  Co  Co9  1  0.500000  0.435659  0.051442  1
  Co  Co10  1  0.500000  0.615782  0.564341  1
  Si  Si11  1  0.000000  0.000000  0.000000  1
  Si  Si12  1  0.500000  0.708844  0.113409  1
  Si  Si13  1  0.500000  0.404565  0.291156  1
  Si  Si14  1  0.500000  0.886591  0.595435  1
  Si  Si15  1  0.000000  0.592648  0.704446  1
  Si  Si16  1  0.000000  0.111799  0.407352  1
  Si  Si17  1  0.000000  0.295554  0.888201  1
  Ru  Ru18  1  0.500000  0.783266  0.899124  1
  Ru  Ru19  1  0.500000  0.115859  0.216734  1
  Ru  Ru20  1  0.500000  0.100876  0.884141  1
