# generated using pymatgen
data_Ho2Er10InCo4Cu
_symmetry_space_group_name_H-M   'P 1'
_cell_length_a   8.24260466
_cell_length_b   8.24260462
_cell_length_c   8.24019575
_cell_angle_alpha   111.00807961
_cell_angle_beta   110.86853652
_cell_angle_gamma   106.58779811
_symmetry_Int_Tables_number   1
_chemical_formula_structural   Ho2Er10InCo4Cu
_chemical_formula_sum   'Ho2 Er10 In1 Co4 Cu1'
_cell_volume   430.08360587
_cell_formula_units_Z   1
loop_
 _symmetry_equiv_pos_site_id
 _symmetry_equiv_pos_as_xyz
  1  'x, y, z'
loop_
 _atom_site_type_symbol
 _atom_site_label
 _atom_site_symmetry_multiplicity
 _atom_site_fract_x
 _atom_site_fract_y
 _atom_site_fract_z
 _atom_site_occupancy
  Ho  Ho0  1  0.185560  0.288824  0.474383  1
  Ho  Ho1  1  0.814440  0.711176  0.525617  1
  Er  Er2  1  0.185776  0.711276  0.897053  1
  Er  Er3  1  0.814224  0.288724  0.102947  1
  Er  Er4  1  0.315395  0.619996  0.304130  1
  Er  Er5  1  0.684605  0.380004  0.695870  1
  Er  Er6  1  0.315867  0.011265  0.695870  1
  Er  Er7  1  0.684133  0.988735  0.304130  1
  Er  Er8  1  0.419001  0.219320  0.199139  1
  Er  Er9  1  0.580999  0.780680  0.800861  1
  Er  Er10  1  0.020181  0.219861  0.800861  1
  Er  Er11  1  0.979819  0.780139  0.199139  1
  In  In12  1  0.500000  0.500000  0.000000  1
  Co  Co13  1  0.113227  0.613227  0.500000  1
  Co  Co14  1  0.886773  0.386773  0.500000  1
  Co  Co15  1  0.375703  0.999922  0.375625  1
  Co  Co16  1  0.624297  0.000078  0.624375  1
  Cu  Cu17  1  0.000000  0.000000  0.000000  1
