# generated using pymatgen
data_Sr5Ce(SbO6)2
_symmetry_space_group_name_H-M   'P 1'
_cell_length_a   5.93125941
_cell_length_b   6.07299817
_cell_length_c   8.44889351
_cell_angle_alpha   89.72648733
_cell_angle_beta   90.07092229
_cell_angle_gamma   89.98083399
_symmetry_Int_Tables_number   1
_chemical_formula_structural   Sr5Ce(SbO6)2
_chemical_formula_sum   'Sr5 Ce1 Sb2 O12'
_cell_volume   304.32988248
_cell_formula_units_Z   1
loop_
 _symmetry_equiv_pos_site_id
 _symmetry_equiv_pos_as_xyz
  1  'x, y, z'
loop_
 _atom_site_type_symbol
 _atom_site_label
 _atom_site_symmetry_multiplicity
 _atom_site_fract_x
 _atom_site_fract_y
 _atom_site_fract_z
 _atom_site_occupancy
  Sr  Sr0  1  0.000000  0.000000  0.000000  1
  Sr  Sr1  1  0.987959  0.452753  0.240243  1
  Sr  Sr2  1  0.511417  0.958365  0.241757  1
  Sr  Sr3  1  0.488583  0.041635  0.758243  1
  Sr  Sr4  1  0.012041  0.547247  0.759757  1
  Ce  Ce5  1  0.500000  0.500000  0.500000  1
  Sb  Sb6  1  0.000000  0.000000  0.500000  1
  Sb  Sb7  1  0.500000  0.500000  0.000000  1
  O  O8  1  0.902120  0.963020  0.720667  1
  O  O9  1  0.799988  0.729235  0.442585  1
  O  O10  1  0.775230  0.675571  0.040770  1
  O  O11  1  0.728295  0.205589  0.452167  1
  O  O12  1  0.671937  0.225973  0.047140  1
  O  O13  1  0.585487  0.470088  0.757484  1
  O  O14  1  0.414513  0.529912  0.242516  1
  O  O15  1  0.328063  0.774027  0.952860  1
  O  O16  1  0.271705  0.794411  0.547833  1
  O  O17  1  0.224770  0.324429  0.959230  1
  O  O18  1  0.200012  0.270765  0.557415  1
  O  O19  1  0.097880  0.036980  0.279333  1
