# generated using pymatgen
data_Hf18Ta2ReTc3(NiW)2
_symmetry_space_group_name_H-M   'P 1'
_cell_length_a   8.70673300
_cell_length_b   8.70668740
_cell_length_c   8.51859700
_cell_angle_alpha   90.00000000
_cell_angle_beta   90.00000000
_cell_angle_gamma   119.88198862
_symmetry_Int_Tables_number   1
_chemical_formula_structural   Hf18Ta2ReTc3(NiW)2
_chemical_formula_sum   'Hf18 Ta2 Re1 Tc3 Ni2 W2'
_cell_volume   559.91500000
_cell_formula_units_Z   1
loop_
 _symmetry_equiv_pos_site_id
 _symmetry_equiv_pos_as_xyz
  1  'x, y, z'
loop_
 _atom_site_type_symbol
 _atom_site_label
 _atom_site_symmetry_multiplicity
 _atom_site_fract_x
 _atom_site_fract_y
 _atom_site_fract_z
 _atom_site_occupancy
  Hf  Hf0  1  0.199755  0.800245  0.441966  1
  Hf  Hf1  1  0.199831  0.399407  0.441560  1
  Hf  Hf2  1  0.600599  0.800172  0.441561  1
  Hf  Hf3  1  0.799618  0.200384  0.557185  1
  Hf  Hf4  1  0.799476  0.598800  0.557455  1
  Hf  Hf5  1  0.401200  0.200526  0.557455  1
  Hf  Hf6  1  0.799618  0.200384  0.942815  1
  Hf  Hf7  1  0.799476  0.598800  0.942545  1
  Hf  Hf8  1  0.401200  0.200526  0.942545  1
  Hf  Hf9  1  0.199755  0.800245  0.058034  1
  Hf  Hf10  1  0.199831  0.399407  0.058440  1
  Hf  Hf11  1  0.600599  0.800172  0.058439  1
  Hf  Hf12  1  0.542035  0.457965  0.250000  1
  Hf  Hf13  1  0.542753  0.084435  0.250000  1
  Hf  Hf14  1  0.915577  0.457253  0.250000  1
  Hf  Hf15  1  0.457150  0.542855  0.750000  1
  Hf  Hf16  1  0.457551  0.914464  0.750000  1
  Hf  Hf17  1  0.085536  0.542449  0.750000  1
  Ta  Ta18  1  0.999407  0.000597  0.506570  1
  Ta  Ta19  1  0.999407  0.000597  0.993430  1
  Re  Re20  1  0.886916  0.112979  0.250000  1
  Tc  Tc21  1  0.114899  0.885102  0.750000  1
  Tc  Tc22  1  0.114099  0.229775  0.750000  1
  Tc  Tc23  1  0.770228  0.885900  0.750000  1
  Ni  Ni24  1  0.333627  0.666419  0.250000  1
  Ni  Ni25  1  0.666954  0.333048  0.750000  1
  W  W26  1  0.886938  0.774030  0.250000  1
  W  W27  1  0.225966  0.113063  0.250000  1
