# generated using pymatgen
data_Y4Zn9In2Ag
_symmetry_space_group_name_H-M   'P 1'
_cell_length_a   4.43844500
_cell_length_b   7.11385801
_cell_length_c   10.05572908
_cell_angle_alpha   90.02569480
_cell_angle_beta   90.00000000
_cell_angle_gamma   90.00000000
_symmetry_Int_Tables_number   1
_chemical_formula_structural   Y4Zn9In2Ag
_chemical_formula_sum   'Y4 Zn9 In2 Ag1'
_cell_volume   317.50425915
_cell_formula_units_Z   1
loop_
 _symmetry_equiv_pos_site_id
 _symmetry_equiv_pos_as_xyz
  1  'x, y, z'
loop_
 _atom_site_type_symbol
 _atom_site_label
 _atom_site_symmetry_multiplicity
 _atom_site_fract_x
 _atom_site_fract_y
 _atom_site_fract_z
 _atom_site_occupancy
  Y  Y0  1  0.250000  0.305727  0.675399  1
  Y  Y1  1  0.750000  0.698957  0.330381  1
  Y  Y2  1  0.250000  0.801443  0.824331  1
  Y  Y3  1  0.750000  0.198935  0.167923  1
  Zn  Zn4  1  0.750000  0.966205  0.601588  1
  Zn  Zn5  1  0.750000  0.300587  0.466768  1
  Zn  Zn6  1  0.250000  0.690561  0.538954  1
  Zn  Zn7  1  0.750000  0.806990  0.035143  1
  Zn  Zn8  1  0.250000  0.185836  0.958784  1
  Zn  Zn9  1  0.750000  0.595422  0.649846  1
  Zn  Zn10  1  0.250000  0.416358  0.358731  1
  Zn  Zn11  1  0.750000  0.090147  0.845162  1
  Zn  Zn12  1  0.250000  0.916083  0.142985  1
  In  In13  1  0.250000  0.529606  0.096568  1
  In  In14  1  0.250000  0.030976  0.405699  1
  Ag  Ag15  1  0.750000  0.466167  0.901740  1
