# generated using pymatgen
data_Sm2Al9Os2Pd
_symmetry_space_group_name_H-M   'P 1'
_cell_length_a   7.66280400
_cell_length_b   7.66280375
_cell_length_c   9.55192800
_cell_angle_alpha   90.00000000
_cell_angle_beta   90.00000000
_cell_angle_gamma   119.71416502
_symmetry_Int_Tables_number   1
_chemical_formula_structural   Sm2Al9Os2Pd
_chemical_formula_sum   'Sm4 Al18 Os4 Pd2'
_cell_volume   487.12540777
_cell_formula_units_Z   2
loop_
 _symmetry_equiv_pos_site_id
 _symmetry_equiv_pos_as_xyz
  1  'x, y, z'
loop_
 _atom_site_type_symbol
 _atom_site_label
 _atom_site_symmetry_multiplicity
 _atom_site_fract_x
 _atom_site_fract_y
 _atom_site_fract_z
 _atom_site_occupancy
  Sm  Sm0  1  0.996394  0.670738  0.250000  1
  Sm  Sm1  1  0.003606  0.329262  0.750000  1
  Sm  Sm2  1  0.670738  0.996394  0.250000  1
  Sm  Sm3  1  0.329262  0.003606  0.750000  1
  Al  Al4  1  0.134891  0.134891  0.250000  1
  Al  Al5  1  0.865109  0.865109  0.750000  1
  Al  Al6  1  0.002686  0.341078  0.072594  1
  Al  Al7  1  0.997314  0.658922  0.927406  1
  Al  Al8  1  0.997314  0.658922  0.572594  1
  Al  Al9  1  0.341078  0.002686  0.427406  1
  Al  Al10  1  0.002686  0.341078  0.427406  1
  Al  Al11  1  0.658922  0.997314  0.572594  1
  Al  Al12  1  0.658922  0.997314  0.927406  1
  Al  Al13  1  0.341078  0.002686  0.072594  1
  Al  Al14  1  0.339098  0.339098  0.544278  1
  Al  Al15  1  0.660902  0.660902  0.455722  1
  Al  Al16  1  0.660902  0.660902  0.044278  1
  Al  Al17  1  0.339098  0.339098  0.955722  1
  Al  Al18  1  0.336795  0.548693  0.250000  1
  Al  Al19  1  0.663205  0.451307  0.750000  1
  Al  Al20  1  0.548693  0.336795  0.250000  1
  Al  Al21  1  0.451307  0.663205  0.750000  1
  Os  Os22  1  0.671909  0.328091  0.000000  1
  Os  Os23  1  0.328091  0.671909  0.000000  1
  Os  Os24  1  0.328091  0.671909  0.500000  1
  Os  Os25  1  0.671909  0.328091  0.500000  1
  Pd  Pd26  1  0.000000  0.000000  0.000000  1
  Pd  Pd27  1  0.000000  0.000000  0.500000  1
