# generated using pymatgen
data_Y4Al15(Co2Si)3
_symmetry_space_group_name_H-M   'P 1'
_cell_length_a   7.30408037
_cell_length_b   7.30408045
_cell_length_c   9.17627969
_cell_angle_alpha   89.97746221
_cell_angle_beta   89.97745884
_cell_angle_gamma   119.24880181
_symmetry_Int_Tables_number   1
_chemical_formula_structural   Y4Al15(Co2Si)3
_chemical_formula_sum   'Y4 Al15 Co6 Si3'
_cell_volume   427.13596078
_cell_formula_units_Z   1
loop_
 _symmetry_equiv_pos_site_id
 _symmetry_equiv_pos_as_xyz
  1  'x, y, z'
loop_
 _atom_site_type_symbol
 _atom_site_label
 _atom_site_symmetry_multiplicity
 _atom_site_fract_x
 _atom_site_fract_y
 _atom_site_fract_z
 _atom_site_occupancy
  Y  Y0  1  0.992620  0.676647  0.250520  1
  Y  Y1  1  0.010426  0.322701  0.748185  1
  Y  Y2  1  0.676647  0.992620  0.250520  1
  Y  Y3  1  0.322701  0.010426  0.748185  1
  Al  Al4  1  0.666781  0.666781  0.045696  1
  Al  Al5  1  0.334146  0.334146  0.958171  1
  Al  Al6  1  0.663121  0.663121  0.453188  1
  Al  Al7  1  0.335662  0.554105  0.247684  1
  Al  Al8  1  0.665899  0.446385  0.750920  1
  Al  Al9  1  0.554105  0.335662  0.247684  1
  Al  Al10  1  0.446385  0.665899  0.750920  1
  Al  Al11  1  0.997001  0.336325  0.071356  1
  Al  Al12  1  0.001310  0.663640  0.572564  1
  Al  Al13  1  0.335769  0.998911  0.426549  1
  Al  Al14  1  0.663293  0.002227  0.927485  1
  Al  Al15  1  0.002227  0.663293  0.927485  1
  Al  Al16  1  0.998911  0.335769  0.426549  1
  Al  Al17  1  0.663640  0.001310  0.572564  1
  Al  Al18  1  0.336325  0.997001  0.071356  1
  Co  Co19  1  0.999898  0.999898  0.998754  1
  Co  Co20  1  0.009659  0.009659  0.502848  1
  Co  Co21  1  0.669791  0.329075  0.998641  1
  Co  Co22  1  0.328118  0.660995  0.501111  1
  Co  Co23  1  0.329075  0.669791  0.998641  1
  Co  Co24  1  0.660995  0.328118  0.501111  1
  Si  Si25  1  0.125592  0.125592  0.247324  1
  Si  Si26  1  0.873314  0.873314  0.750740  1
  Si  Si27  1  0.336584  0.336584  0.553248  1
