# generated using pymatgen
data_Gd3Y5(Er3Pb4)4
_symmetry_space_group_name_H-M   'P 1'
_cell_length_a   8.17623701
_cell_length_b   8.24815903
_cell_length_c   15.57276800
_cell_angle_alpha   90.00072244
_cell_angle_beta   89.99660832
_cell_angle_gamma   90.00497373
_symmetry_Int_Tables_number   1
_chemical_formula_structural   Gd3Y5(Er3Pb4)4
_chemical_formula_sum   'Gd3 Y5 Er12 Pb16'
_cell_volume   1050.21038744
_cell_formula_units_Z   1
loop_
 _symmetry_equiv_pos_site_id
 _symmetry_equiv_pos_as_xyz
  1  'x, y, z'
loop_
 _atom_site_type_symbol
 _atom_site_label
 _atom_site_symmetry_multiplicity
 _atom_site_fract_x
 _atom_site_fract_y
 _atom_site_fract_z
 _atom_site_occupancy
  Gd  Gd0  1  0.967092  0.822686  0.401475  1
  Gd  Gd1  1  0.532566  0.322171  0.597537  1
  Gd  Gd2  1  0.033224  0.177447  0.902092  1
  Y  Y3  1  0.535325  0.324210  0.900896  1
  Y  Y4  1  0.035500  0.176195  0.599478  1
  Y  Y5  1  0.464523  0.675834  0.400355  1
  Y  Y6  1  0.964625  0.823706  0.099601  1
  Y  Y7  1  0.465359  0.676611  0.098871  1
  Er  Er8  1  0.374733  0.842172  0.879023  1
  Er  Er9  1  0.874356  0.657916  0.621161  1
  Er  Er10  1  0.625942  0.157495  0.378086  1
  Er  Er11  1  0.125307  0.342187  0.121411  1
  Er  Er12  1  0.625080  0.157595  0.121839  1
  Er  Er13  1  0.125225  0.342308  0.377950  1
  Er  Er14  1  0.374713  0.842323  0.621621  1
  Er  Er15  1  0.875005  0.657812  0.878555  1
  Er  Er16  1  0.207513  0.504723  0.749950  1
  Er  Er17  1  0.707474  0.995054  0.750325  1
  Er  Er18  1  0.792952  0.495555  0.249507  1
  Er  Er19  1  0.292901  0.004807  0.250025  1
  Pb  Pb20  1  0.284964  0.034450  0.043764  1
  Pb  Pb21  1  0.784834  0.465023  0.456180  1
  Pb  Pb22  1  0.715617  0.965019  0.543546  1
  Pb  Pb23  1  0.216355  0.535641  0.957068  1
  Pb  Pb24  1  0.714874  0.963137  0.957655  1
  Pb  Pb25  1  0.214699  0.536998  0.542555  1
  Pb  Pb26  1  0.285400  0.036894  0.457330  1
  Pb  Pb27  1  0.783673  0.464641  0.042918  1
  Pb  Pb28  1  0.569726  0.626653  0.750447  1
  Pb  Pb29  1  0.069994  0.873200  0.749965  1
  Pb  Pb30  1  0.430414  0.373082  0.250042  1
  Pb  Pb31  1  0.930585  0.126916  0.249653  1
  Pb  Pb32  1  0.346289  0.153484  0.750804  1
  Pb  Pb33  1  0.845997  0.346950  0.749440  1
  Pb  Pb34  1  0.652795  0.845685  0.249878  1
  Pb  Pb35  1  0.154369  0.653421  0.248995  1
