# generated using pymatgen
data_Sr3Ca(WO4)4
_symmetry_space_group_name_H-M   'P 1'
_cell_length_a   5.12577044
_cell_length_b   5.55446925
_cell_length_c   14.04839603
_cell_angle_alpha   67.58976687
_cell_angle_beta   90.06236772
_cell_angle_gamma   90.27911279
_symmetry_Int_Tables_number   1
_chemical_formula_structural   Sr3Ca(WO4)4
_chemical_formula_sum   'Sr3 Ca1 W4 O16'
_cell_volume   369.75982146
_cell_formula_units_Z   1
loop_
 _symmetry_equiv_pos_site_id
 _symmetry_equiv_pos_as_xyz
  1  'x, y, z'
loop_
 _atom_site_type_symbol
 _atom_site_label
 _atom_site_symmetry_multiplicity
 _atom_site_fract_x
 _atom_site_fract_y
 _atom_site_fract_z
 _atom_site_occupancy
  Sr  Sr0  1  0.736674  0.157828  0.341907  1
  Sr  Sr1  1  0.240999  0.847743  0.155702  1
  Sr  Sr2  1  0.265201  0.841162  0.657693  1
  Ca  Ca3  1  0.754977  0.157730  0.841073  1
  W  W4  1  0.249706  0.580400  0.425679  1
  W  W5  1  0.749328  0.426057  0.072511  1
  W  W6  1  0.750656  0.412627  0.580932  1
  W  W7  1  0.250135  0.581491  0.920277  1
  O  O8  1  0.553179  0.734282  0.465416  1
  O  O9  1  0.058139  0.272094  0.038736  1
  O  O10  1  0.447209  0.261934  0.540754  1
  O  O11  1  0.943048  0.746175  0.953508  1
  O  O12  1  0.944187  0.353172  0.456512  1
  O  O13  1  0.440343  0.643746  0.043254  1
  O  O14  1  0.054673  0.639608  0.549085  1
  O  O15  1  0.557925  0.354492  0.949480  1
  O  O16  1  0.123718  0.889071  0.332175  1
  O  O17  1  0.624179  0.117156  0.167442  1
  O  O18  1  0.879456  0.106657  0.675231  1
  O  O19  1  0.393086  0.885206  0.828378  1
  O  O20  1  0.380463  0.476524  0.326002  1
  O  O21  1  0.876221  0.536252  0.171335  1
  O  O22  1  0.618353  0.511244  0.681951  1
  O  O23  1  0.108147  0.467347  0.824965  1
