# generated using pymatgen
data_Lu4HfZrGa10
_symmetry_space_group_name_H-M   'P 1'
_cell_length_a   5.85875700
_cell_length_b   9.36124600
_cell_length_c   11.32842500
_cell_angle_alpha   90.00000000
_cell_angle_beta   90.00000000
_cell_angle_gamma   90.00000000
_symmetry_Int_Tables_number   1
_chemical_formula_structural   Lu4HfZrGa10
_chemical_formula_sum   'Lu8 Hf2 Zr2 Ga20'
_cell_volume   621.31047718
_cell_formula_units_Z   2
loop_
 _symmetry_equiv_pos_site_id
 _symmetry_equiv_pos_as_xyz
  1  'x, y, z'
loop_
 _atom_site_type_symbol
 _atom_site_label
 _atom_site_symmetry_multiplicity
 _atom_site_fract_x
 _atom_site_fract_y
 _atom_site_fract_z
 _atom_site_occupancy
  Lu  Lu0  1  0.885948  0.500385  0.352962  1
  Lu  Lu1  1  0.614052  0.999615  0.852962  1
  Lu  Lu2  1  0.114258  0.000838  0.646867  1
  Lu  Lu3  1  0.385742  0.499162  0.146867  1
  Lu  Lu4  1  0.114258  0.499162  0.646867  1
  Lu  Lu5  1  0.385742  0.000838  0.146867  1
  Lu  Lu6  1  0.885948  0.999615  0.352962  1
  Lu  Lu7  1  0.614052  0.500385  0.852962  1
  Hf  Hf8  1  0.142728  0.250000  0.928317  1
  Hf  Hf9  1  0.357272  0.250000  0.428317  1
  Zr  Zr10  1  0.858193  0.750000  0.071575  1
  Zr  Zr11  1  0.641807  0.750000  0.571575  1
  Ga  Ga12  1  0.875416  0.053050  0.090764  1
  Ga  Ga13  1  0.624584  0.446950  0.590764  1
  Ga  Ga14  1  0.124645  0.552496  0.909268  1
  Ga  Ga15  1  0.375355  0.947504  0.409268  1
  Ga  Ga16  1  0.124645  0.947504  0.909268  1
  Ga  Ga17  1  0.375355  0.552496  0.409268  1
  Ga  Ga18  1  0.875416  0.446950  0.090764  1
  Ga  Ga19  1  0.624584  0.053050  0.590764  1
  Ga  Ga20  1  0.151932  0.750000  0.256907  1
  Ga  Ga21  1  0.348068  0.750000  0.756907  1
  Ga  Ga22  1  0.848406  0.250000  0.743363  1
  Ga  Ga23  1  0.651594  0.250000  0.243363  1
  Ga  Ga24  1  0.395533  0.750000  0.998535  1
  Ga  Ga25  1  0.104467  0.750000  0.498535  1
  Ga  Ga26  1  0.603551  0.250000  0.001353  1
  Ga  Ga27  1  0.896449  0.250000  0.501353  1
  Ga  Ga28  1  0.614461  0.750000  0.293783  1
  Ga  Ga29  1  0.885539  0.750000  0.793783  1
  Ga  Ga30  1  0.385356  0.250000  0.706446  1
  Ga  Ga31  1  0.114644  0.250000  0.206446  1
