# generated using pymatgen
data_La4Pr7Y5(MgIr)4
_symmetry_space_group_name_H-M   'P 1'
_cell_length_a   10.00775566
_cell_length_b   10.00775727
_cell_length_c   9.96158900
_cell_angle_alpha   60.15249137
_cell_angle_beta   60.15248608
_cell_angle_gamma   60.15016122
_symmetry_Int_Tables_number   1
_chemical_formula_structural   La4Pr7Y5(MgIr)4
_chemical_formula_sum   'La4 Pr7 Y5 Mg4 Ir4'
_cell_volume   707.90818217
_cell_formula_units_Z   1
loop_
 _symmetry_equiv_pos_site_id
 _symmetry_equiv_pos_as_xyz
  1  'x, y, z'
loop_
 _atom_site_type_symbol
 _atom_site_label
 _atom_site_symmetry_multiplicity
 _atom_site_fract_x
 _atom_site_fract_y
 _atom_site_fract_z
 _atom_site_occupancy
  La  La0  1  0.347554  0.347554  0.347376  1
  La  La1  1  0.347554  0.347554  0.957517  1
  La  La2  1  0.344437  0.957875  0.348844  1
  La  La3  1  0.957875  0.344437  0.348844  1
  Pr  Pr4  1  0.815434  0.815434  0.184566  1
  Pr  Pr5  1  0.939656  0.560118  0.562950  1
  Pr  Pr6  1  0.560118  0.939656  0.937276  1
  Pr  Pr7  1  0.560118  0.939656  0.562950  1
  Pr  Pr8  1  0.939656  0.560118  0.937276  1
  Pr  Pr9  1  0.561874  0.561874  0.938126  1
  Pr  Pr10  1  0.938422  0.938422  0.561578  1
  Y  Y11  1  0.815405  0.186944  0.183933  1
  Y  Y12  1  0.186944  0.815405  0.813719  1
  Y  Y13  1  0.186944  0.815405  0.183933  1
  Y  Y14  1  0.815405  0.186944  0.813719  1
  Y  Y15  1  0.184432  0.184432  0.815568  1
  Mg  Mg16  1  0.578370  0.578370  0.580557  1
  Mg  Mg17  1  0.578370  0.578370  0.262704  1
  Mg  Mg18  1  0.579463  0.262079  0.579230  1
  Mg  Mg19  1  0.262079  0.579463  0.579230  1
  Ir  Ir20  1  0.139282  0.139282  0.141114  1
  Ir  Ir21  1  0.139282  0.139282  0.580321  1
  Ir  Ir22  1  0.144061  0.577267  0.139336  1
  Ir  Ir23  1  0.577267  0.144061  0.139336  1
