# generated using pymatgen
data_Yb10Ir3Au
_symmetry_space_group_name_H-M   'P 1'
_cell_length_a   8.54380205
_cell_length_b   8.52470493
_cell_length_c   7.59117496
_cell_angle_alpha   82.57197956
_cell_angle_beta   82.90119341
_cell_angle_gamma   44.05995386
_symmetry_Int_Tables_number   1
_chemical_formula_structural   Yb10Ir3Au
_chemical_formula_sum   'Yb10 Ir3 Au1'
_cell_volume   380.88225545
_cell_formula_units_Z   1
loop_
 _symmetry_equiv_pos_site_id
 _symmetry_equiv_pos_as_xyz
  1  'x, y, z'
loop_
 _atom_site_type_symbol
 _atom_site_label
 _atom_site_symmetry_multiplicity
 _atom_site_fract_x
 _atom_site_fract_y
 _atom_site_fract_z
 _atom_site_occupancy
  Yb  Yb0  1  0.053721  0.777967  0.918934  1
  Yb  Yb1  1  0.202601  0.973243  0.582602  1
  Yb  Yb2  1  0.976831  0.206522  0.079780  1
  Yb  Yb3  1  0.799823  0.032053  0.430511  1
  Yb  Yb4  1  0.357772  0.198843  0.811093  1
  Yb  Yb5  1  0.794103  0.640249  0.675496  1
  Yb  Yb6  1  0.633239  0.792345  0.175509  1
  Yb  Yb7  1  0.187972  0.371802  0.330857  1
  Yb  Yb8  1  0.578361  0.429412  0.737022  1
  Yb  Yb9  1  0.420694  0.583133  0.260685  1
  Ir  Ir10  1  0.178823  0.598866  0.583094  1
  Ir  Ir11  1  0.395674  0.817864  0.921437  1
  Ir  Ir12  1  0.823131  0.396103  0.415878  1
  Au  Au13  1  0.597256  0.181600  0.077099  1
