# generated using pymatgen
data_TmLu2Th(Al3Ir)6
_symmetry_space_group_name_H-M   'P 1'
_cell_length_a   7.55928000
_cell_length_b   7.57091163
_cell_length_c   9.43656600
_cell_angle_alpha   90.00000000
_cell_angle_beta   90.00000000
_cell_angle_gamma   119.44659551
_symmetry_Int_Tables_number   1
_chemical_formula_structural   TmLu2Th(Al3Ir)6
_chemical_formula_sum   'Tm1 Lu2 Th1 Al18 Ir6'
_cell_volume   470.29259652
_cell_formula_units_Z   1
loop_
 _symmetry_equiv_pos_site_id
 _symmetry_equiv_pos_as_xyz
  1  'x, y, z'
loop_
 _atom_site_type_symbol
 _atom_site_label
 _atom_site_symmetry_multiplicity
 _atom_site_fract_x
 _atom_site_fract_y
 _atom_site_fract_z
 _atom_site_occupancy
  Tm  Tm0  1  0.673632  0.995567  0.250000  1
  Lu  Lu1  1  0.003190  0.327535  0.750000  1
  Lu  Lu2  1  0.326886  0.004079  0.750000  1
  Th  Th3  1  0.995073  0.671139  0.250000  1
  Al  Al4  1  0.131126  0.133115  0.250000  1
  Al  Al5  1  0.872237  0.874698  0.750000  1
  Al  Al6  1  0.001251  0.330771  0.072507  1
  Al  Al7  1  0.999523  0.664112  0.917124  1
  Al  Al8  1  0.999523  0.664112  0.582876  1
  Al  Al9  1  0.340636  0.005410  0.427478  1
  Al  Al10  1  0.001251  0.330771  0.427493  1
  Al  Al11  1  0.664445  0.000674  0.576935  1
  Al  Al12  1  0.664445  0.000674  0.923065  1
  Al  Al13  1  0.340636  0.005410  0.072522  1
  Al  Al14  1  0.331946  0.332038  0.555914  1
  Al  Al15  1  0.662842  0.666805  0.453361  1
  Al  Al16  1  0.662842  0.666805  0.046639  1
  Al  Al17  1  0.331946  0.332038  0.944086  1
  Al  Al18  1  0.344611  0.548927  0.250000  1
  Al  Al19  1  0.658338  0.448265  0.750000  1
  Al  Al20  1  0.544134  0.336601  0.250000  1
  Al  Al21  1  0.449002  0.660765  0.750000  1
  Ir  Ir22  1  0.673317  0.329122  0.999875  1
  Ir  Ir23  1  0.326300  0.671818  0.999980  1
  Ir  Ir24  1  0.326300  0.671818  0.500020  1
  Ir  Ir25  1  0.673317  0.329122  0.500125  1
  Ir  Ir26  1  0.000626  0.998904  0.000095  1
  Ir  Ir27  1  0.000626  0.998904  0.499905  1
