# generated using pymatgen
data_Y3Ho2Bi2Ir
_symmetry_space_group_name_H-M   'P 1'
_cell_length_a   8.02270300
_cell_length_b   8.98902300
_cell_length_c   12.54584800
_cell_angle_alpha   90.00000000
_cell_angle_beta   90.00000000
_cell_angle_gamma   90.00000000
_symmetry_Int_Tables_number   1
_chemical_formula_structural   Y3Ho2Bi2Ir
_chemical_formula_sum   'Y12 Ho8 Bi8 Ir4'
_cell_volume   904.75965874
_cell_formula_units_Z   4
loop_
 _symmetry_equiv_pos_site_id
 _symmetry_equiv_pos_as_xyz
  1  'x, y, z'
loop_
 _atom_site_type_symbol
 _atom_site_label
 _atom_site_symmetry_multiplicity
 _atom_site_fract_x
 _atom_site_fract_y
 _atom_site_fract_z
 _atom_site_occupancy
  Y  Y0  1  0.342053  0.750000  0.706487  1
  Y  Y1  1  0.657947  0.250000  0.293513  1
  Y  Y2  1  0.842053  0.250000  0.793513  1
  Y  Y3  1  0.157947  0.750000  0.206487  1
  Y  Y4  1  0.876918  0.750000  0.805512  1
  Y  Y5  1  0.123082  0.250000  0.194488  1
  Y  Y6  1  0.376918  0.250000  0.694488  1
  Y  Y7  1  0.623082  0.750000  0.305512  1
  Y  Y8  1  0.051674  0.750000  0.498836  1
  Y  Y9  1  0.948326  0.250000  0.501164  1
  Y  Y10  1  0.551674  0.250000  0.001164  1
  Y  Y11  1  0.448326  0.750000  0.998836  1
  Ho  Ho12  1  0.675507  0.541233  0.564958  1
  Ho  Ho13  1  0.324493  0.458767  0.435042  1
  Ho  Ho14  1  0.175507  0.458767  0.935042  1
  Ho  Ho15  1  0.324493  0.041233  0.435042  1
  Ho  Ho16  1  0.824493  0.541233  0.064958  1
  Ho  Ho17  1  0.675507  0.958767  0.564958  1
  Ho  Ho18  1  0.824493  0.958767  0.064958  1
  Ho  Ho19  1  0.175507  0.041233  0.935042  1
  Bi  Bi20  1  0.569994  0.509106  0.827236  1
  Bi  Bi21  1  0.430006  0.490894  0.172764  1
  Bi  Bi22  1  0.069994  0.490894  0.672764  1
  Bi  Bi23  1  0.430006  0.009106  0.172764  1
  Bi  Bi24  1  0.930006  0.509106  0.327236  1
  Bi  Bi25  1  0.569994  0.990894  0.827236  1
  Bi  Bi26  1  0.930006  0.990894  0.327236  1
  Bi  Bi27  1  0.069994  0.009106  0.672764  1
  Ir  Ir28  1  0.068296  0.750000  0.990788  1
  Ir  Ir29  1  0.931704  0.250000  0.009212  1
  Ir  Ir30  1  0.568296  0.250000  0.509212  1
  Ir  Ir31  1  0.431704  0.750000  0.490788  1
