# generated using pymatgen
data_EuH4Pd
_symmetry_space_group_name_H-M   'P 1'
_cell_length_a   6.61477094
_cell_length_b   6.61477061
_cell_length_c   5.23290500
_cell_angle_alpha   90.00000000
_cell_angle_beta   90.00000000
_cell_angle_gamma   146.24535467
_symmetry_Int_Tables_number   1
_chemical_formula_structural   EuH4Pd
_chemical_formula_sum   'Eu2 H8 Pd2'
_cell_volume   127.22255368
_cell_formula_units_Z   2
loop_
 _symmetry_equiv_pos_site_id
 _symmetry_equiv_pos_as_xyz
  1  'x, y, z'
loop_
 _atom_site_type_symbol
 _atom_site_label
 _atom_site_symmetry_multiplicity
 _atom_site_fract_x
 _atom_site_fract_y
 _atom_site_fract_z
 _atom_site_occupancy
  Eu  Eu0  1  0.137914  0.862086  0.306103  1
  Eu  Eu1  1  0.862086  0.137914  0.806103  1
  H  H2  1  0.311309  0.688691  0.057208  1
  H  H3  1  0.688691  0.311309  0.557208  1
  H  H4  1  0.308027  0.691973  0.552932  1
  H  H5  1  0.691973  0.308027  0.052932  1
  H  H6  1  0.082991  0.917009  0.808487  1
  H  H7  1  0.917009  0.082991  0.308487  1
  H  H8  1  0.502808  0.497192  0.065035  1
  H  H9  1  0.497192  0.502808  0.565035  1
  Pd  Pd10  1  0.405438  0.594562  0.309235  1
  Pd  Pd11  1  0.594562  0.405438  0.809235  1
