# generated using pymatgen
data_YScCo9Tc3As7
_symmetry_space_group_name_H-M   'P 1'
_cell_length_a   3.80647000
_cell_length_b   9.33963820
_cell_length_c   9.33964000
_cell_angle_alpha   119.99999929
_cell_angle_beta   90.00000000
_cell_angle_gamma   90.00000000
_symmetry_Int_Tables_number   1
_chemical_formula_structural   YScCo9Tc3As7
_chemical_formula_sum   'Y1 Sc1 Co9 Tc3 As7'
_cell_volume   287.54990959
_cell_formula_units_Z   1
loop_
 _symmetry_equiv_pos_site_id
 _symmetry_equiv_pos_as_xyz
  1  'x, y, z'
loop_
 _atom_site_type_symbol
 _atom_site_label
 _atom_site_symmetry_multiplicity
 _atom_site_fract_x
 _atom_site_fract_y
 _atom_site_fract_z
 _atom_site_occupancy
  Y  Y0  1  0.500000  0.333333  0.666667  1
  Sc  Sc1  1  0.000000  0.666667  0.333333  1
  Co  Co2  1  0.000000  0.568938  0.941969  1
  Co  Co3  1  0.000000  0.373031  0.431062  1
  Co  Co4  1  0.000000  0.058031  0.626969  1
  Co  Co5  1  0.000000  0.874278  0.158289  1
  Co  Co6  1  0.000000  0.284010  0.125722  1
  Co  Co7  1  0.000000  0.841711  0.715990  1
  Co  Co8  1  0.500000  0.943841  0.380210  1
  Co  Co9  1  0.500000  0.436368  0.056159  1
  Co  Co10  1  0.500000  0.619790  0.563632  1
  Tc  Tc11  1  0.500000  0.781991  0.901403  1
  Tc  Tc12  1  0.500000  0.119412  0.218009  1
  Tc  Tc13  1  0.500000  0.098597  0.880588  1
  As  As14  1  0.000000  0.000000  0.000000  1
  As  As15  1  0.500000  0.706121  0.120928  1
  As  As16  1  0.500000  0.414808  0.293879  1
  As  As17  1  0.500000  0.879072  0.585192  1
  As  As18  1  0.000000  0.587877  0.702037  1
  As  As19  1  0.000000  0.114160  0.412123  1
  As  As20  1  0.000000  0.297963  0.885840  1
