# generated using pymatgen
data_Y6Zn17Pd6Se
_symmetry_space_group_name_H-M   'P 1'
_cell_length_a   9.04587924
_cell_length_b   9.04587893
_cell_length_c   9.04587900
_cell_angle_alpha   59.99999608
_cell_angle_beta   59.99999721
_cell_angle_gamma   59.99999912
_symmetry_Int_Tables_number   1
_chemical_formula_structural   Y6Zn17Pd6Se
_chemical_formula_sum   'Y6 Zn17 Pd6 Se1'
_cell_volume   523.40432609
_cell_formula_units_Z   1
loop_
 _symmetry_equiv_pos_site_id
 _symmetry_equiv_pos_as_xyz
  1  'x, y, z'
loop_
 _atom_site_type_symbol
 _atom_site_label
 _atom_site_symmetry_multiplicity
 _atom_site_fract_x
 _atom_site_fract_y
 _atom_site_fract_z
 _atom_site_occupancy
  Y  Y0  1  0.720813  0.279187  0.279187  1
  Y  Y1  1  0.720813  0.279187  0.720813  1
  Y  Y2  1  0.720813  0.720813  0.279187  1
  Y  Y3  1  0.279187  0.720813  0.720813  1
  Y  Y4  1  0.279187  0.720813  0.279187  1
  Y  Y5  1  0.279187  0.279187  0.720813  1
  Zn  Zn6  1  0.626970  0.124344  0.124344  1
  Zn  Zn7  1  0.124344  0.626970  0.124344  1
  Zn  Zn8  1  0.124344  0.124344  0.626970  1
  Zn  Zn9  1  0.124344  0.124344  0.124344  1
  Zn  Zn10  1  0.373030  0.875656  0.875656  1
  Zn  Zn11  1  0.875656  0.373030  0.875656  1
  Zn  Zn12  1  0.875656  0.875656  0.373030  1
  Zn  Zn13  1  0.875656  0.875656  0.875656  1
  Zn  Zn14  1  0.000000  0.000000  0.000000  1
  Zn  Zn15  1  0.008956  0.330347  0.330347  1
  Zn  Zn16  1  0.330347  0.008956  0.330347  1
  Zn  Zn17  1  0.330347  0.330347  0.008956  1
  Zn  Zn18  1  0.330347  0.330347  0.330347  1
  Zn  Zn19  1  0.991044  0.669653  0.669653  1
  Zn  Zn20  1  0.669653  0.991044  0.669653  1
  Zn  Zn21  1  0.669653  0.669653  0.991044  1
  Zn  Zn22  1  0.669653  0.669653  0.669653  1
  Pd  Pd23  1  0.500000  0.000000  0.000000  1
  Pd  Pd24  1  0.500000  0.000000  0.500000  1
  Pd  Pd25  1  0.500000  0.500000  0.000000  1
  Pd  Pd26  1  0.000000  0.500000  0.500000  1
  Pd  Pd27  1  0.000000  0.500000  0.000000  1
  Pd  Pd28  1  0.000000  0.000000  0.500000  1
  Se  Se29  1  0.500000  0.500000  0.500000  1
