# generated using pymatgen
data_Dy7Er3(Sn3As)2
_symmetry_space_group_name_H-M   'P 1'
_cell_length_a   9.11658700
_cell_length_b   9.11658680
_cell_length_c   6.67097400
_cell_angle_alpha   90.00000000
_cell_angle_beta   90.00000000
_cell_angle_gamma   119.99999708
_symmetry_Int_Tables_number   1
_chemical_formula_structural   Dy7Er3(Sn3As)2
_chemical_formula_sum   'Dy7 Er3 Sn6 As2'
_cell_volume   480.15830474
_cell_formula_units_Z   1
loop_
 _symmetry_equiv_pos_site_id
 _symmetry_equiv_pos_as_xyz
  1  'x, y, z'
loop_
 _atom_site_type_symbol
 _atom_site_label
 _atom_site_symmetry_multiplicity
 _atom_site_fract_x
 _atom_site_fract_y
 _atom_site_fract_z
 _atom_site_occupancy
  Dy  Dy0  1  0.666667  0.333333  0.000000  1
  Dy  Dy1  1  0.750297  0.750351  0.749975  1
  Dy  Dy2  1  0.249649  0.999945  0.749975  1
  Dy  Dy3  1  0.000055  0.249703  0.749975  1
  Dy  Dy4  1  0.249649  0.249703  0.250025  1
  Dy  Dy5  1  0.750297  0.999945  0.250025  1
  Dy  Dy6  1  0.000055  0.750351  0.250025  1
  Er  Er7  1  0.333333  0.666667  0.000000  1
  Er  Er8  1  0.333333  0.666667  0.500000  1
  Er  Er9  1  0.666667  0.333333  0.500000  1
  Sn  Sn10  1  0.396200  0.396322  0.749914  1
  Sn  Sn11  1  0.603678  0.999878  0.749914  1
  Sn  Sn12  1  0.000122  0.603800  0.749914  1
  Sn  Sn13  1  0.603678  0.603800  0.250086  1
  Sn  Sn14  1  0.396200  0.999878  0.250086  1
  Sn  Sn15  1  0.000122  0.396322  0.250086  1
  As  As16  1  0.000000  0.000000  0.000000  1
  As  As17  1  0.000000  0.000000  0.500000  1
