# generated using pymatgen
data_Ca3Dy(OsC2)2
_symmetry_space_group_name_H-M   'P 1'
_cell_length_a   5.16041300
_cell_length_b   6.50148094
_cell_length_c   10.30086291
_cell_angle_alpha   90.55863700
_cell_angle_beta   90.00000000
_cell_angle_gamma   90.00000000
_symmetry_Int_Tables_number   1
_chemical_formula_structural   Ca3Dy(OsC2)2
_chemical_formula_sum   'Ca6 Dy2 Os4 C8'
_cell_volume   345.58088973
_cell_formula_units_Z   2
loop_
 _symmetry_equiv_pos_site_id
 _symmetry_equiv_pos_as_xyz
  1  'x, y, z'
loop_
 _atom_site_type_symbol
 _atom_site_label
 _atom_site_symmetry_multiplicity
 _atom_site_fract_x
 _atom_site_fract_y
 _atom_site_fract_z
 _atom_site_occupancy
  Ca  Ca0  1  0.750000  0.807447  0.052650  1
  Ca  Ca1  1  0.250000  0.192553  0.947350  1
  Ca  Ca2  1  0.250000  0.535546  0.219188  1
  Ca  Ca3  1  0.750000  0.464454  0.780812  1
  Ca  Ca4  1  0.750000  0.965821  0.724753  1
  Ca  Ca5  1  0.250000  0.034179  0.275247  1
  Dy  Dy6  1  0.250000  0.684026  0.552713  1
  Dy  Dy7  1  0.750000  0.315974  0.447287  1
  Os  Os8  1  0.250000  0.730137  0.850310  1
  Os  Os9  1  0.750000  0.269863  0.149690  1
  Os  Os10  1  0.750000  0.771225  0.355000  1
  Os  Os11  1  0.250000  0.228775  0.645000  1
  C  C12  1  0.250000  0.468559  0.754145  1
  C  C13  1  0.750000  0.531441  0.245855  1
  C  C14  1  0.750000  0.036222  0.264867  1
  C  C15  1  0.250000  0.963778  0.735133  1
  C  C16  1  0.250000  0.792164  0.025580  1
  C  C17  1  0.750000  0.207836  0.974420  1
  C  C18  1  0.750000  0.687078  0.530450  1
  C  C19  1  0.250000  0.312922  0.469550  1
