# generated using pymatgen
data_TbTm5(AuO7)2
_symmetry_space_group_name_H-M   'P 1'
_cell_length_a   6.41811872
_cell_length_b   6.41812058
_cell_length_c   7.36375338
_cell_angle_alpha   90.03000269
_cell_angle_beta   89.96999917
_cell_angle_gamma   108.70010071
_symmetry_Int_Tables_number   1
_chemical_formula_structural   TbTm5(AuO7)2
_chemical_formula_sum   'Tb1 Tm5 Au2 O14'
_cell_volume   287.31672413
_cell_formula_units_Z   1
loop_
 _symmetry_equiv_pos_site_id
 _symmetry_equiv_pos_as_xyz
  1  'x, y, z'
loop_
 _atom_site_type_symbol
 _atom_site_label
 _atom_site_symmetry_multiplicity
 _atom_site_fract_x
 _atom_site_fract_y
 _atom_site_fract_z
 _atom_site_occupancy
  Tb  Tb0  1  0.500000  0.500000  0.000000  1
  Tm  Tm1  1  0.500000  0.500000  0.500000  1
  Tm  Tm2  1  0.528859  0.998080  0.748673  1
  Tm  Tm3  1  0.998080  0.528859  0.251327  1
  Tm  Tm4  1  0.471141  0.001920  0.251327  1
  Tm  Tm5  1  0.001920  0.471141  0.748673  1
  Au  Au6  1  0.000000  0.000000  0.500000  1
  Au  Au7  1  0.000000  0.000000  0.000000  1
  O  O8  1  0.666920  0.916887  0.475340  1
  O  O9  1  0.916887  0.666920  0.524660  1
  O  O10  1  0.666890  0.919690  0.024567  1
  O  O11  1  0.919690  0.666890  0.975433  1
  O  O12  1  0.333080  0.083113  0.524660  1
  O  O13  1  0.083113  0.333080  0.475340  1
  O  O14  1  0.333110  0.080310  0.975433  1
  O  O15  1  0.080310  0.333110  0.024567  1
  O  O16  1  0.917946  0.082054  0.749945  1
  O  O17  1  0.082054  0.917946  0.250055  1
  O  O18  1  0.366139  0.633861  0.745630  1
  O  O19  1  0.633861  0.366139  0.254370  1
  O  O20  1  0.640529  0.359471  0.745976  1
  O  O21  1  0.359471  0.640529  0.254024  1
