# generated using pymatgen
data_Th11(Fe2C3)6
_symmetry_space_group_name_H-M   'P 1'
_cell_length_a   9.06268466
_cell_length_b   9.06268442
_cell_length_c   9.06268400
_cell_angle_alpha   109.47122193
_cell_angle_beta   109.47122139
_cell_angle_gamma   109.47121725
_symmetry_Int_Tables_number   1
_chemical_formula_structural   Th11(Fe2C3)6
_chemical_formula_sum   'Th11 Fe12 C18'
_cell_volume   572.99216002
_cell_formula_units_Z   1
loop_
 _symmetry_equiv_pos_site_id
 _symmetry_equiv_pos_as_xyz
  1  'x, y, z'
loop_
 _atom_site_type_symbol
 _atom_site_label
 _atom_site_symmetry_multiplicity
 _atom_site_fract_x
 _atom_site_fract_y
 _atom_site_fract_z
 _atom_site_occupancy
  Th  Th0  1  0.250000  0.750000  0.500000  1
  Th  Th1  1  0.750000  0.250000  0.500000  1
  Th  Th2  1  0.750000  0.500000  0.250000  1
  Th  Th3  1  0.250000  0.500000  0.750000  1
  Th  Th4  1  0.500000  0.250000  0.750000  1
  Th  Th5  1  0.500000  0.750000  0.250000  1
  Th  Th6  1  0.404490  0.404490  0.404490  1
  Th  Th7  1  0.595510  0.000000  0.000000  1
  Th  Th8  1  0.000000  0.595510  0.000000  1
  Th  Th9  1  0.000000  0.000000  0.595510  1
  Th  Th10  1  0.000000  0.000000  0.000000  1
  Fe  Fe11  1  0.837531  0.639632  0.639632  1
  Fe  Fe12  1  0.162469  0.802102  0.802102  1
  Fe  Fe13  1  0.000000  0.360368  0.197898  1
  Fe  Fe14  1  0.639632  0.639632  0.837531  1
  Fe  Fe15  1  0.000000  0.197898  0.360368  1
  Fe  Fe16  1  0.802102  0.802102  0.162469  1
  Fe  Fe17  1  0.360368  0.197898  0.000000  1
  Fe  Fe18  1  0.197898  0.360368  0.000000  1
  Fe  Fe19  1  0.639632  0.837531  0.639632  1
  Fe  Fe20  1  0.197898  0.000000  0.360368  1
  Fe  Fe21  1  0.360368  0.000000  0.197898  1
  Fe  Fe22  1  0.802102  0.162469  0.802102  1
  C  C23  1  0.569204  0.569204  0.000000  1
  C  C24  1  0.430796  0.430796  0.000000  1
  C  C25  1  0.569204  0.000000  0.569204  1
  C  C26  1  0.430796  0.000000  0.430796  1
  C  C27  1  0.000000  0.569204  0.569204  1
  C  C28  1  0.000000  0.430796  0.430796  1
  C  C29  1  0.494387  0.702147  0.702147  1
  C  C30  1  0.505613  0.207760  0.207760  1
  C  C31  1  0.000000  0.297853  0.792240  1
  C  C32  1  0.702147  0.702147  0.494387  1
  C  C33  1  0.000000  0.792240  0.297853  1
  C  C34  1  0.207760  0.207760  0.505613  1
  C  C35  1  0.297853  0.792240  0.000000  1
  C  C36  1  0.792240  0.297853  0.000000  1
  C  C37  1  0.702147  0.494387  0.702147  1
  C  C38  1  0.792240  0.000000  0.297853  1
  C  C39  1  0.297853  0.000000  0.792240  1
  C  C40  1  0.207760  0.505613  0.207760  1
