# generated using pymatgen
data_SrLa(In4Pt)2
_symmetry_space_group_name_H-M   'P 1'
_cell_length_a   8.89715323
_cell_length_b   8.89715307
_cell_length_c   7.55084700
_cell_angle_alpha   90.00000000
_cell_angle_beta   90.00000000
_cell_angle_gamma   149.80840388
_symmetry_Int_Tables_number   1
_chemical_formula_structural   SrLa(In4Pt)2
_chemical_formula_sum   'Sr1 La1 In8 Pt2'
_cell_volume   300.58931833
_cell_formula_units_Z   1
loop_
 _symmetry_equiv_pos_site_id
 _symmetry_equiv_pos_as_xyz
  1  'x, y, z'
loop_
 _atom_site_type_symbol
 _atom_site_label
 _atom_site_symmetry_multiplicity
 _atom_site_fract_x
 _atom_site_fract_y
 _atom_site_fract_z
 _atom_site_occupancy
  Sr  Sr0  1  0.874337  0.125663  0.250000  1
  La  La1  1  0.125653  0.874347  0.750000  1
  In  In2  1  0.315645  0.684355  0.949881  1
  In  In3  1  0.500271  0.499729  0.501504  1
  In  In4  1  0.684250  0.315750  0.450174  1
  In  In5  1  0.684250  0.315750  0.049826  1
  In  In6  1  0.315645  0.684355  0.550119  1
  In  In7  1  0.067595  0.932405  0.250000  1
  In  In8  1  0.932839  0.067161  0.750000  1
  In  In9  1  0.500271  0.499729  0.998496  1
  Pt  Pt10  1  0.774573  0.225427  0.750000  1
  Pt  Pt11  1  0.224669  0.775331  0.250000  1
