# generated using pymatgen
data_AcMg2P6BrN12
_symmetry_space_group_name_H-M   'P 1'
_cell_length_a   7.41569310
_cell_length_b   7.46039835
_cell_length_c   7.41569349
_cell_angle_alpha   110.07152186
_cell_angle_beta   108.66558538
_cell_angle_gamma   110.07149535
_symmetry_Int_Tables_number   1
_chemical_formula_structural   AcMg2P6BrN12
_chemical_formula_sum   'Ac1 Mg2 P6 Br1 N12'
_cell_volume   314.22709611
_cell_formula_units_Z   1
loop_
 _symmetry_equiv_pos_site_id
 _symmetry_equiv_pos_as_xyz
  1  'x, y, z'
loop_
 _atom_site_type_symbol
 _atom_site_label
 _atom_site_symmetry_multiplicity
 _atom_site_fract_x
 _atom_site_fract_y
 _atom_site_fract_z
 _atom_site_occupancy
  Ac  Ac0  1  0.004391  0.319839  0.004391  1
  Mg  Mg1  1  0.004863  0.009117  0.398353  1
  Mg  Mg2  1  0.398353  0.009117  0.004863  1
  P  P3  1  0.493555  0.260574  0.743758  1
  P  P4  1  0.249313  0.759649  0.502120  1
  P  P5  1  0.743018  0.510405  0.259603  1
  P  P6  1  0.743758  0.260574  0.493555  1
  P  P7  1  0.502120  0.759649  0.249313  1
  P  P8  1  0.259603  0.510405  0.743018  1
  Br  Br9  1  0.017598  0.916403  0.017598  1
  N  N10  1  0.391286  0.699445  0.391286  1
  N  N11  1  0.691976  0.418369  0.413184  1
  N  N12  1  0.413184  0.418369  0.691976  1
  N  N13  1  0.701011  0.279856  0.701011  1
  N  N14  1  0.993606  0.585689  0.299851  1
  N  N15  1  0.299851  0.585689  0.993606  1
  N  N16  1  0.277449  0.006211  0.581868  1
  N  N17  1  0.998608  0.293236  0.579031  1
  N  N18  1  0.718654  0.728976  0.296902  1
  N  N19  1  0.581868  0.006211  0.277449  1
  N  N20  1  0.296902  0.728976  0.718654  1
  N  N21  1  0.579031  0.293236  0.998608  1
