# generated using pymatgen
data_NaY4(NiP)10
_symmetry_space_group_name_H-M   'P 1'
_cell_length_a   8.70790800
_cell_length_b   7.73853484
_cell_length_c   8.70790800
_cell_angle_alpha   55.76192610
_cell_angle_beta   90.00000000
_cell_angle_gamma   55.76192610
_symmetry_Int_Tables_number   1
_chemical_formula_structural   NaY4(NiP)10
_chemical_formula_sum   'Na1 Y4 Ni10 P10'
_cell_volume   355.42950117
_cell_formula_units_Z   1
loop_
 _symmetry_equiv_pos_site_id
 _symmetry_equiv_pos_as_xyz
  1  'x, y, z'
loop_
 _atom_site_type_symbol
 _atom_site_label
 _atom_site_symmetry_multiplicity
 _atom_site_fract_x
 _atom_site_fract_y
 _atom_site_fract_z
 _atom_site_occupancy
  Na  Na0  1  0.000000  0.000000  0.000000  1
  Y  Y1  1  0.199425  0.000000  0.601498  1
  Y  Y2  1  0.398502  0.000000  0.199425  1
  Y  Y3  1  0.601498  0.000000  0.800575  1
  Y  Y4  1  0.800575  0.000000  0.398502  1
  Ni  Ni5  1  0.950000  0.500925  0.849208  1
  Ni  Ni6  1  0.150792  0.499075  0.450925  1
  Ni  Ni7  1  0.350133  0.499075  0.050000  1
  Ni  Ni8  1  0.549075  0.500925  0.649867  1
  Ni  Ni9  1  0.750000  0.500000  0.250000  1
  Ni  Ni10  1  0.849208  0.500925  0.549075  1
  Ni  Ni11  1  0.050000  0.499075  0.150792  1
  Ni  Ni12  1  0.250000  0.500000  0.750000  1
  Ni  Ni13  1  0.450925  0.499075  0.350133  1
  Ni  Ni14  1  0.649867  0.500925  0.950000  1
  P  P15  1  0.176586  0.246353  0.776994  1
  P  P16  1  0.377092  0.245816  0.377092  1
  P  P17  1  0.577060  0.246353  0.976652  1
  P  P18  1  0.776994  0.246353  0.577060  1
  P  P19  1  0.976652  0.246353  0.176586  1
  P  P20  1  0.622908  0.754184  0.622908  1
  P  P21  1  0.823414  0.753647  0.223006  1
  P  P22  1  0.023347  0.753647  0.823414  1
  P  P23  1  0.223006  0.753647  0.422940  1
  P  P24  1  0.422940  0.753647  0.023347  1
