# generated using pymatgen
data_SmU5(Sb4Pt3)2
_symmetry_space_group_name_H-M   'P 1'
_cell_length_a   8.46555452
_cell_length_b   8.46555383
_cell_length_c   8.46555363
_cell_angle_alpha   109.50680122
_cell_angle_beta   109.40007028
_cell_angle_gamma   109.50681029
_symmetry_Int_Tables_number   1
_chemical_formula_structural   SmU5(Sb4Pt3)2
_chemical_formula_sum   'Sm1 U5 Sb8 Pt6'
_cell_volume   467.02892360
_cell_formula_units_Z   1
loop_
 _symmetry_equiv_pos_site_id
 _symmetry_equiv_pos_as_xyz
  1  'x, y, z'
loop_
 _atom_site_type_symbol
 _atom_site_label
 _atom_site_symmetry_multiplicity
 _atom_site_fract_x
 _atom_site_fract_y
 _atom_site_fract_z
 _atom_site_occupancy
  Sm  Sm0  1  0.875000  0.250000  0.125000  1
  U  U1  1  0.625000  0.750000  0.375000  1
  U  U2  1  0.250113  0.124039  0.875894  1
  U  U3  1  0.751855  0.375961  0.626073  1
  U  U4  1  0.124106  0.874218  0.248145  1
  U  U5  1  0.373927  0.625782  0.749887  1
  Sb  Sb6  1  0.677106  0.498887  0.998005  1
  Sb  Sb7  1  0.499118  0.001113  0.678219  1
  Sb  Sb8  1  0.999344  0.676476  0.497966  1
  Sb  Sb9  1  0.821489  0.823524  0.822868  1
  Sb  Sb10  1  0.502034  0.001378  0.178511  1
  Sb  Sb11  1  0.177132  0.498622  0.000656  1
  Sb  Sb12  1  0.001995  0.179101  0.500882  1
  Sb  Sb13  1  0.321781  0.320899  0.322894  1
  Pt  Pt14  1  0.375000  0.250000  0.625000  1
  Pt  Pt15  1  0.125000  0.750000  0.875000  1
  Pt  Pt16  1  0.260580  0.631770  0.380064  1
  Pt  Pt17  1  0.748294  0.868230  0.128810  1
  Pt  Pt18  1  0.619936  0.380516  0.251706  1
  Pt  Pt19  1  0.871190  0.119484  0.739420  1
