# generated using pymatgen
data_Tb2Tm10Tc3Ni
_symmetry_space_group_name_H-M   'P 1'
_cell_length_a   6.22735998
_cell_length_b   7.24707548
_cell_length_c   9.10542600
_cell_angle_alpha   90.00000000
_cell_angle_beta   90.00000000
_cell_angle_gamma   90.11058237
_symmetry_Int_Tables_number   1
_chemical_formula_structural   Tb2Tm10Tc3Ni
_chemical_formula_sum   'Tb2 Tm10 Tc3 Ni1'
_cell_volume   410.92845611
_cell_formula_units_Z   1
loop_
 _symmetry_equiv_pos_site_id
 _symmetry_equiv_pos_as_xyz
  1  'x, y, z'
loop_
 _atom_site_type_symbol
 _atom_site_label
 _atom_site_symmetry_multiplicity
 _atom_site_fract_x
 _atom_site_fract_y
 _atom_site_fract_z
 _atom_site_occupancy
  Tb  Tb0  1  0.139337  0.458088  0.750000  1
  Tb  Tb1  1  0.373884  0.955179  0.750000  1
  Tm  Tm2  1  0.328938  0.677465  0.068085  1
  Tm  Tm3  1  0.163102  0.176792  0.436346  1
  Tm  Tm4  1  0.665125  0.323064  0.561258  1
  Tm  Tm5  1  0.834962  0.824233  0.939671  1
  Tm  Tm6  1  0.665125  0.323064  0.938742  1
  Tm  Tm7  1  0.834962  0.824233  0.560329  1
  Tm  Tm8  1  0.328938  0.677465  0.431915  1
  Tm  Tm9  1  0.163102  0.176792  0.063654  1
  Tm  Tm10  1  0.870936  0.540910  0.250000  1
  Tm  Tm11  1  0.624662  0.039779  0.250000  1
  Tc  Tc12  1  0.036971  0.886398  0.250000  1
  Tc  Tc13  1  0.460981  0.388248  0.250000  1
  Tc  Tc14  1  0.958108  0.113555  0.750000  1
  Ni  Ni15  1  0.550870  0.614736  0.750000  1
