# generated using pymatgen
data_La5Nd3Sb20
_symmetry_space_group_name_H-M   'P 1'
_cell_length_a   4.33377800
_cell_length_b   13.68489551
_cell_length_c   15.41842060
_cell_angle_alpha   78.21277749
_cell_angle_beta   90.00000000
_cell_angle_gamma   90.00000000
_symmetry_Int_Tables_number   1
_chemical_formula_structural   La5Nd3Sb20
_chemical_formula_sum   'La5 Nd3 Sb20'
_cell_volume   895.14237577
_cell_formula_units_Z   1
loop_
 _symmetry_equiv_pos_site_id
 _symmetry_equiv_pos_as_xyz
  1  'x, y, z'
loop_
 _atom_site_type_symbol
 _atom_site_label
 _atom_site_symmetry_multiplicity
 _atom_site_fract_x
 _atom_site_fract_y
 _atom_site_fract_z
 _atom_site_occupancy
  La  La0  1  0.750000  0.330477  0.143076  1
  La  La1  1  0.250000  0.948092  0.367181  1
  La  La2  1  0.250000  0.668739  0.857313  1
  La  La3  1  0.250000  0.667606  0.577801  1
  La  La4  1  0.750000  0.053409  0.632485  1
  Nd  Nd5  1  0.750000  0.333152  0.421401  1
  Nd  Nd6  1  0.250000  0.398237  0.770690  1
  Nd  Nd7  1  0.750000  0.600398  0.228797  1
  Sb  Sb8  1  0.750000  0.858334  0.815137  1
  Sb  Sb9  1  0.250000  0.863886  0.675080  1
  Sb  Sb10  1  0.250000  0.148729  0.474029  1
  Sb  Sb11  1  0.750000  0.288108  0.934632  1
  Sb  Sb12  1  0.250000  0.148663  0.776122  1
  Sb  Sb13  1  0.750000  0.574389  0.442316  1
  Sb  Sb14  1  0.750000  0.138011  0.326663  1
  Sb  Sb15  1  0.250000  0.702057  0.354928  1
  Sb  Sb16  1  0.750000  0.297147  0.642760  1
  Sb  Sb17  1  0.750000  0.851379  0.224438  1
  Sb  Sb18  1  0.250000  0.419875  0.973050  1
  Sb  Sb19  1  0.250000  0.424443  0.556012  1
  Sb  Sb20  1  0.750000  0.577285  0.736930  1
  Sb  Sb21  1  0.250000  0.420595  0.264987  1
  Sb  Sb22  1  0.750000  0.854894  0.525696  1
  Sb  Sb23  1  0.750000  0.038677  0.882212  1
  Sb  Sb24  1  0.250000  0.710712  0.064889  1
  Sb  Sb25  1  0.250000  0.961776  0.118800  1
  Sb  Sb26  1  0.250000  0.142156  0.185868  1
  Sb  Sb27  1  0.750000  0.578772  0.026708  1
