# generated using pymatgen
data_Er6Ga5(Co8Sn)2
_symmetry_space_group_name_H-M   'P 1'
_cell_length_a   8.53662658
_cell_length_b   8.53848965
_cell_length_c   8.50507032
_cell_angle_alpha   60.22864556
_cell_angle_beta   60.22030913
_cell_angle_gamma   59.98387398
_symmetry_Int_Tables_number   1
_chemical_formula_structural   Er6Ga5(Co8Sn)2
_chemical_formula_sum   'Er6 Ga5 Co16 Sn2'
_cell_volume   439.78679147
_cell_formula_units_Z   1
loop_
 _symmetry_equiv_pos_site_id
 _symmetry_equiv_pos_as_xyz
  1  'x, y, z'
loop_
 _atom_site_type_symbol
 _atom_site_label
 _atom_site_symmetry_multiplicity
 _atom_site_fract_x
 _atom_site_fract_y
 _atom_site_fract_z
 _atom_site_occupancy
  Er  Er0  1  0.716976  0.716978  0.282936  1
  Er  Er1  1  0.276381  0.723591  0.285765  1
  Er  Er2  1  0.723603  0.276382  0.285757  1
  Er  Er3  1  0.283024  0.283022  0.717064  1
  Er  Er4  1  0.723619  0.276409  0.714235  1
  Er  Er5  1  0.276397  0.723618  0.714243  1
  Ga  Ga6  1  0.000000  0.000000  0.500000  1
  Ga  Ga7  1  0.500000  0.000000  0.500000  1
  Ga  Ga8  1  0.000000  0.500000  0.500000  1
  Ga  Ga9  1  0.000000  0.500000  0.000000  1
  Ga  Ga10  1  0.500000  0.000000  0.000000  1
  Co  Co11  1  0.872733  0.872725  0.382517  1
  Co  Co12  1  0.880807  0.384109  0.867485  1
  Co  Co13  1  0.384018  0.880795  0.867536  1
  Co  Co14  1  0.872856  0.872858  0.872093  1
  Co  Co15  1  0.127267  0.127275  0.617483  1
  Co  Co16  1  0.119193  0.615891  0.132515  1
  Co  Co17  1  0.615982  0.119205  0.132464  1
  Co  Co18  1  0.127144  0.127142  0.127907  1
  Co  Co19  1  0.683600  0.683655  0.961496  1
  Co  Co20  1  0.680588  0.966032  0.676823  1
  Co  Co21  1  0.966074  0.680612  0.676792  1
  Co  Co22  1  0.683480  0.683534  0.671394  1
  Co  Co23  1  0.316400  0.316345  0.038504  1
  Co  Co24  1  0.319412  0.033968  0.323177  1
  Co  Co25  1  0.033926  0.319388  0.323208  1
  Co  Co26  1  0.316520  0.316466  0.328606  1
  Sn  Sn27  1  0.000000  0.000000  0.000000  1
  Sn  Sn28  1  0.500000  0.500000  0.000000  1
