# generated using pymatgen
data_Pr17Y3Si15Ru
_symmetry_space_group_name_H-M   'P 1'
_cell_length_a   7.90815150
_cell_length_b   7.86681110
_cell_length_c   15.15402815
_cell_angle_alpha   90.24209378
_cell_angle_beta   89.86895891
_cell_angle_gamma   90.19508379
_symmetry_Int_Tables_number   1
_chemical_formula_structural   Pr17Y3Si15Ru
_chemical_formula_sum   'Pr17 Y3 Si15 Ru1'
_cell_volume   942.74508376
_cell_formula_units_Z   1
loop_
 _symmetry_equiv_pos_site_id
 _symmetry_equiv_pos_as_xyz
  1  'x, y, z'
loop_
 _atom_site_type_symbol
 _atom_site_label
 _atom_site_symmetry_multiplicity
 _atom_site_fract_x
 _atom_site_fract_y
 _atom_site_fract_z
 _atom_site_occupancy
  Pr  Pr0  1  0.696325  0.688846  0.501620  1
  Pr  Pr1  1  0.372618  0.011430  0.449685  1
  Pr  Pr2  1  0.487585  0.878424  0.698800  1
  Pr  Pr3  1  0.511144  0.124689  0.198188  1
  Pr  Pr4  1  0.875149  0.487384  0.300033  1
  Pr  Pr5  1  0.126970  0.502517  0.797995  1
  Pr  Pr6  1  0.626199  0.988917  0.948538  1
  Pr  Pr7  1  0.005232  0.376169  0.552570  1
  Pr  Pr8  1  0.988246  0.626291  0.050870  1
  Pr  Pr9  1  0.134137  0.984362  0.871863  1
  Pr  Pr10  1  0.518262  0.630988  0.125933  1
  Pr  Pr11  1  0.470589  0.361090  0.630095  1
  Pr  Pr12  1  0.628748  0.516161  0.874533  1
  Pr  Pr13  1  0.374421  0.481712  0.372773  1
  Pr  Pr14  1  0.873530  0.021461  0.377135  1
  Pr  Pr15  1  0.980762  0.127434  0.123470  1
  Pr  Pr16  1  0.028260  0.883933  0.626792  1
  Y  Y17  1  0.307963  0.307901  0.998647  1
  Y  Y18  1  0.188973  0.809678  0.250531  1
  Y  Y19  1  0.820056  0.189081  0.749172  1
  Si  Si20  1  0.330659  0.691210  0.952229  1
  Si  Si21  1  0.664201  0.302842  0.452521  1
  Si  Si22  1  0.693749  0.331668  0.048329  1
  Si  Si23  1  0.304557  0.669021  0.546838  1
  Si  Si24  1  0.809103  0.830812  0.204032  1
  Si  Si25  1  0.169525  0.193692  0.296117  1
  Si  Si26  1  0.831263  0.805488  0.798862  1
  Si  Si27  1  0.287093  0.923274  0.061176  1
  Si  Si28  1  0.575590  0.788544  0.309746  1
  Si  Si29  1  0.426320  0.209265  0.814819  1
  Si  Si30  1  0.781156  0.578432  0.691605  1
  Si  Si31  1  0.212700  0.424038  0.186984  1
  Si  Si32  1  0.706251  0.076146  0.562160  1
  Si  Si33  1  0.922258  0.285493  0.938931  1
  Si  Si34  1  0.082740  0.717496  0.437283  1
  Ru  Ru35  1  0.187668  0.174115  0.699126  1
