# generated using pymatgen
data_Pr(Cr3S4)2
_symmetry_space_group_name_H-M   'P 1'
_cell_length_a   6.25472609
_cell_length_b   6.25472600
_cell_length_c   6.25472637
_cell_angle_alpha   88.65091212
_cell_angle_beta   88.65090924
_cell_angle_gamma   88.65089458
_symmetry_Int_Tables_number   1
_chemical_formula_structural   Pr(Cr3S4)2
_chemical_formula_sum   'Pr1 Cr6 S8'
_cell_volume   244.49454299
_cell_formula_units_Z   1
loop_
 _symmetry_equiv_pos_site_id
 _symmetry_equiv_pos_as_xyz
  1  'x, y, z'
loop_
 _atom_site_type_symbol
 _atom_site_label
 _atom_site_symmetry_multiplicity
 _atom_site_fract_x
 _atom_site_fract_y
 _atom_site_fract_z
 _atom_site_occupancy
  Pr  Pr0  1  0.000000  0.000000  0.000000  1
  Cr  Cr1  1  0.766512  0.580485  0.436141  1
  Cr  Cr2  1  0.436141  0.766512  0.580485  1
  Cr  Cr3  1  0.580485  0.436141  0.766512  1
  Cr  Cr4  1  0.233488  0.419515  0.563859  1
  Cr  Cr5  1  0.563860  0.233488  0.419515  1
  Cr  Cr6  1  0.419515  0.563859  0.233488  1
  S  S7  1  0.748437  0.748437  0.748437  1
  S  S8  1  0.251563  0.251563  0.251563  1
  S  S9  1  0.258587  0.614686  0.873412  1
  S  S10  1  0.873412  0.258587  0.614686  1
  S  S11  1  0.614686  0.873412  0.258587  1
  S  S12  1  0.741413  0.385314  0.126588  1
  S  S13  1  0.126588  0.741413  0.385314  1
  S  S14  1  0.385314  0.126588  0.741413  1
