# generated using pymatgen
data_TbTm3(Si5Pt3)2
_symmetry_space_group_name_H-M   'P 1'
_cell_length_a   8.12976615
_cell_length_b   8.13558911
_cell_length_c   8.13559100
_cell_angle_alpha   136.36252645
_cell_angle_beta   104.19859197
_cell_angle_gamma   91.78755534
_symmetry_Int_Tables_number   1
_chemical_formula_structural   TbTm3(Si5Pt3)2
_chemical_formula_sum   'Tb1 Tm3 Si10 Pt6'
_cell_volume   342.02332958
_cell_formula_units_Z   1
loop_
 _symmetry_equiv_pos_site_id
 _symmetry_equiv_pos_as_xyz
  1  'x, y, z'
loop_
 _atom_site_type_symbol
 _atom_site_label
 _atom_site_symmetry_multiplicity
 _atom_site_fract_x
 _atom_site_fract_y
 _atom_site_fract_z
 _atom_site_occupancy
  Tb  Tb0  1  0.099621  0.870870  0.228750  1
  Tm  Tm1  1  0.901510  0.129718  0.771792  1
  Tm  Tm2  1  0.642175  0.370306  0.271869  1
  Tm  Tm3  1  0.357572  0.629488  0.728084  1
  Si  Si4  1  0.000004  0.750160  0.749799  1
  Si  Si5  1  0.000004  0.250204  0.249843  1
  Si  Si6  1  0.271357  0.021005  0.749736  1
  Si  Si7  1  0.728126  0.478241  0.749569  1
  Si  Si8  1  0.728126  0.978554  0.249883  1
  Si  Si9  1  0.271357  0.521620  0.250353  1
  Si  Si10  1  0.762641  0.611464  0.151176  1
  Si  Si11  1  0.236589  0.387818  0.848772  1
  Si  Si12  1  0.462079  0.113094  0.348986  1
  Si  Si13  1  0.539160  0.887834  0.651325  1
  Pt  Pt14  1  0.500147  0.749973  0.250303  1
  Pt  Pt15  1  0.500147  0.249846  0.750174  1
  Pt  Pt16  1  0.022646  0.636674  0.385972  1
  Pt  Pt17  1  0.976214  0.362420  0.613793  1
  Pt  Pt18  1  0.252420  0.138324  0.114096  1
  Pt  Pt19  1  0.748110  0.862387  0.885722  1
