# generated using pymatgen
data_AcYbSiN3
_symmetry_space_group_name_H-M   'P 1'
_cell_length_a   6.01843024
_cell_length_b   6.01843099
_cell_length_c   11.82861400
_cell_angle_alpha   90.00000000
_cell_angle_beta   90.00000000
_cell_angle_gamma   125.75355541
_symmetry_Int_Tables_number   1
_chemical_formula_structural   AcYbSiN3
_chemical_formula_sum   'Ac4 Yb4 Si4 N12'
_cell_volume   347.70352118
_cell_formula_units_Z   4
loop_
 _symmetry_equiv_pos_site_id
 _symmetry_equiv_pos_as_xyz
  1  'x, y, z'
loop_
 _atom_site_type_symbol
 _atom_site_label
 _atom_site_symmetry_multiplicity
 _atom_site_fract_x
 _atom_site_fract_y
 _atom_site_fract_z
 _atom_site_occupancy
  Ac  Ac0  1  0.051169  0.948831  0.855332  1
  Ac  Ac1  1  0.948831  0.051169  0.144668  1
  Ac  Ac2  1  0.448831  0.551169  0.355332  1
  Ac  Ac3  1  0.551169  0.448831  0.644668  1
  Yb  Yb4  1  0.642329  0.357671  0.073042  1
  Yb  Yb5  1  0.357671  0.642329  0.926958  1
  Yb  Yb6  1  0.857671  0.142329  0.573042  1
  Yb  Yb7  1  0.142329  0.857671  0.426958  1
  Si  Si8  1  0.745146  0.254854  0.836796  1
  Si  Si9  1  0.254854  0.745146  0.163204  1
  Si  Si10  1  0.754854  0.245146  0.336796  1
  Si  Si11  1  0.245146  0.754854  0.663204  1
  N  N12  1  0.583440  0.416560  0.869618  1
  N  N13  1  0.416560  0.583440  0.130382  1
  N  N14  1  0.916560  0.083440  0.369618  1
  N  N15  1  0.083440  0.916560  0.630382  1
  N  N16  1  0.534028  0.965972  0.750000  1
  N  N17  1  0.965972  0.534028  0.250000  1
  N  N18  1  0.465972  0.034028  0.250000  1
  N  N19  1  0.034028  0.465972  0.750000  1
  N  N20  1  0.839675  0.160325  0.956940  1
  N  N21  1  0.160325  0.839675  0.043060  1
  N  N22  1  0.660325  0.339675  0.456940  1
  N  N23  1  0.339675  0.660325  0.543060  1
