# generated using pymatgen
data_Ho5Lu11(AgRh)4
_symmetry_space_group_name_H-M   'P 1'
_cell_length_a   9.36746806
_cell_length_b   9.36746875
_cell_length_c   9.36865900
_cell_angle_alpha   59.99580027
_cell_angle_beta   59.99579783
_cell_angle_gamma   60.12069039
_symmetry_Int_Tables_number   1
_chemical_formula_structural   Ho5Lu11(AgRh)4
_chemical_formula_sum   'Ho5 Lu11 Ag4 Rh4'
_cell_volume   581.80016578
_cell_formula_units_Z   1
loop_
 _symmetry_equiv_pos_site_id
 _symmetry_equiv_pos_as_xyz
  1  'x, y, z'
loop_
 _atom_site_type_symbol
 _atom_site_label
 _atom_site_symmetry_multiplicity
 _atom_site_fract_x
 _atom_site_fract_y
 _atom_site_fract_z
 _atom_site_occupancy
  Ho  Ho0  1  0.933848  0.565096  0.564959  1
  Ho  Ho1  1  0.933848  0.565096  0.936097  1
  Ho  Ho2  1  0.565096  0.933848  0.564959  1
  Ho  Ho3  1  0.565096  0.933848  0.936097  1
  Ho  Ho4  1  0.313177  0.313177  0.686823  1
  Lu  Lu5  1  0.937295  0.937295  0.562705  1
  Lu  Lu6  1  0.560926  0.560926  0.939074  1
  Lu  Lu7  1  0.685611  0.685611  0.314389  1
  Lu  Lu8  1  0.144281  0.561789  0.146964  1
  Lu  Lu9  1  0.688066  0.312013  0.687651  1
  Lu  Lu10  1  0.147312  0.147312  0.147027  1
  Lu  Lu11  1  0.561789  0.144281  0.146964  1
  Lu  Lu12  1  0.688066  0.312013  0.312270  1
  Lu  Lu13  1  0.147312  0.147312  0.558348  1
  Lu  Lu14  1  0.312013  0.688066  0.312270  1
  Lu  Lu15  1  0.312013  0.688066  0.687651  1
  Ag  Ag16  1  0.919211  0.919211  0.245599  1
  Ag  Ag17  1  0.246228  0.917028  0.918373  1
  Ag  Ag18  1  0.919211  0.919211  0.915977  1
  Ag  Ag19  1  0.917028  0.246228  0.918373  1
  Rh  Rh20  1  0.358030  0.358030  0.933018  1
  Rh  Rh21  1  0.355358  0.931151  0.356745  1
  Rh  Rh22  1  0.931151  0.355358  0.356745  1
  Rh  Rh23  1  0.358030  0.358030  0.350920  1
