# generated using pymatgen
data_Ho2AlRe3
_symmetry_space_group_name_H-M   'P 1'
_cell_length_a   5.34861300
_cell_length_b   5.34861348
_cell_length_c   9.02038500
_cell_angle_alpha   90.00000000
_cell_angle_beta   90.00000000
_cell_angle_gamma   120.00000321
_symmetry_Int_Tables_number   1
_chemical_formula_structural   Ho2AlRe3
_chemical_formula_sum   'Ho4 Al2 Re6'
_cell_volume   223.47970117
_cell_formula_units_Z   2
loop_
 _symmetry_equiv_pos_site_id
 _symmetry_equiv_pos_as_xyz
  1  'x, y, z'
loop_
 _atom_site_type_symbol
 _atom_site_label
 _atom_site_symmetry_multiplicity
 _atom_site_fract_x
 _atom_site_fract_y
 _atom_site_fract_z
 _atom_site_occupancy
  Ho  Ho0  1  0.333333  0.666667  0.433043  1
  Ho  Ho1  1  0.666667  0.333333  0.566957  1
  Ho  Ho2  1  0.666667  0.333333  0.933043  1
  Ho  Ho3  1  0.333333  0.666667  0.066957  1
  Al  Al4  1  0.000000  0.000000  0.500000  1
  Al  Al5  1  0.000000  0.000000  0.000000  1
  Re  Re6  1  0.830647  0.169353  0.250000  1
  Re  Re7  1  0.830647  0.661296  0.250000  1
  Re  Re8  1  0.338704  0.169353  0.250000  1
  Re  Re9  1  0.169353  0.830647  0.750000  1
  Re  Re10  1  0.169353  0.338704  0.750000  1
  Re  Re11  1  0.661296  0.830647  0.750000  1
