# generated using pymatgen
data_RbBaNbSe4
_symmetry_space_group_name_H-M   'P 1'
_cell_length_a   7.38826500
_cell_length_b   9.89004300
_cell_length_c   13.19595900
_cell_angle_alpha   90.00000000
_cell_angle_beta   90.00000000
_cell_angle_gamma   90.00000000
_symmetry_Int_Tables_number   1
_chemical_formula_structural   RbBaNbSe4
_chemical_formula_sum   'Rb4 Ba4 Nb4 Se16'
_cell_volume   964.23213588
_cell_formula_units_Z   4
loop_
 _symmetry_equiv_pos_site_id
 _symmetry_equiv_pos_as_xyz
  1  'x, y, z'
loop_
 _atom_site_type_symbol
 _atom_site_label
 _atom_site_symmetry_multiplicity
 _atom_site_fract_x
 _atom_site_fract_y
 _atom_site_fract_z
 _atom_site_occupancy
  Rb  Rb0  1  0.750000  0.364964  0.087815  1
  Rb  Rb1  1  0.250000  0.135036  0.587815  1
  Rb  Rb2  1  0.750000  0.864964  0.412185  1
  Rb  Rb3  1  0.250000  0.635036  0.912185  1
  Ba  Ba4  1  0.750000  0.020140  0.828757  1
  Ba  Ba5  1  0.250000  0.479860  0.328757  1
  Ba  Ba6  1  0.750000  0.520140  0.671243  1
  Ba  Ba7  1  0.250000  0.979860  0.171243  1
  Nb  Nb8  1  0.750000  0.270708  0.422151  1
  Nb  Nb9  1  0.250000  0.229292  0.922151  1
  Nb  Nb10  1  0.750000  0.770708  0.077849  1
  Nb  Nb11  1  0.250000  0.729292  0.577849  1
  Se  Se12  1  0.750000  0.193057  0.596201  1
  Se  Se13  1  0.250000  0.306943  0.096201  1
  Se  Se14  1  0.750000  0.693057  0.903799  1
  Se  Se15  1  0.250000  0.806943  0.403799  1
  Se  Se16  1  0.750000  0.015240  0.084909  1
  Se  Se17  1  0.250000  0.484760  0.584909  1
  Se  Se18  1  0.750000  0.515240  0.415091  1
  Se  Se19  1  0.250000  0.984760  0.915091  1
  Se  Se20  1  0.011283  0.183332  0.336240  1
  Se  Se21  1  0.988717  0.316668  0.836240  1
  Se  Se22  1  0.488717  0.683332  0.163760  1
  Se  Se23  1  0.511283  0.816668  0.663760  1
  Se  Se24  1  0.988717  0.816668  0.663760  1
  Se  Se25  1  0.011283  0.683332  0.163760  1
  Se  Se26  1  0.511283  0.316668  0.836240  1
  Se  Se27  1  0.488717  0.183332  0.336240  1
