# generated using pymatgen
data_CaYSn5Pd3
_symmetry_space_group_name_H-M   'P 1'
_cell_length_a   13.81928200
_cell_length_b   13.81928030
_cell_length_c   7.47196600
_cell_angle_alpha   90.00000000
_cell_angle_beta   90.00000000
_cell_angle_gamma   161.40458493
_symmetry_Int_Tables_number   1
_chemical_formula_structural   CaYSn5Pd3
_chemical_formula_sum   'Ca2 Y2 Sn10 Pd6'
_cell_volume   455.02765666
_cell_formula_units_Z   2
loop_
 _symmetry_equiv_pos_site_id
 _symmetry_equiv_pos_as_xyz
  1  'x, y, z'
loop_
 _atom_site_type_symbol
 _atom_site_label
 _atom_site_symmetry_multiplicity
 _atom_site_fract_x
 _atom_site_fract_y
 _atom_site_fract_z
 _atom_site_occupancy
  Ca  Ca0  1  0.173653  0.826347  0.755912  1
  Ca  Ca1  1  0.826347  0.173653  0.255912  1
  Y  Y2  1  0.477930  0.522070  0.735699  1
  Y  Y3  1  0.522070  0.477930  0.235699  1
  Sn  Sn4  1  0.881391  0.118609  0.732458  1
  Sn  Sn5  1  0.118609  0.881391  0.232458  1
  Sn  Sn6  1  0.702627  0.297373  0.052318  1
  Sn  Sn7  1  0.297373  0.702627  0.552318  1
  Sn  Sn8  1  0.597685  0.402315  0.609110  1
  Sn  Sn9  1  0.402315  0.597685  0.109110  1
  Sn  Sn10  1  0.953603  0.046397  0.398276  1
  Sn  Sn11  1  0.046397  0.953603  0.898276  1
  Sn  Sn12  1  0.289408  0.710592  0.978337  1
  Sn  Sn13  1  0.710592  0.289408  0.478337  1
  Pd  Pd14  1  0.049098  0.950902  0.514784  1
  Pd  Pd15  1  0.950902  0.049098  0.014784  1
  Pd  Pd16  1  0.777587  0.222413  0.770935  1
  Pd  Pd17  1  0.222413  0.777587  0.270935  1
  Pd  Pd18  1  0.396774  0.603226  0.480168  1
  Pd  Pd19  1  0.603226  0.396774  0.980168  1
