# generated using pymatgen
data_Gd6Fe6Co16Mo
_symmetry_space_group_name_H-M   'P 1'
_cell_length_a   8.54349364
_cell_length_b   8.54349400
_cell_length_c   8.54349200
_cell_angle_alpha   60.00000775
_cell_angle_beta   60.00000634
_cell_angle_gamma   60.00000117
_symmetry_Int_Tables_number   1
_chemical_formula_structural   Gd6Fe6Co16Mo
_chemical_formula_sum   'Gd6 Fe6 Co16 Mo1'
_cell_volume   440.95217442
_cell_formula_units_Z   1
loop_
 _symmetry_equiv_pos_site_id
 _symmetry_equiv_pos_as_xyz
  1  'x, y, z'
loop_
 _atom_site_type_symbol
 _atom_site_label
 _atom_site_symmetry_multiplicity
 _atom_site_fract_x
 _atom_site_fract_y
 _atom_site_fract_z
 _atom_site_occupancy
  Gd  Gd0  1  0.715283  0.284717  0.284717  1
  Gd  Gd1  1  0.284717  0.715283  0.715283  1
  Gd  Gd2  1  0.284717  0.715283  0.284717  1
  Gd  Gd3  1  0.284717  0.284717  0.715283  1
  Gd  Gd4  1  0.715283  0.284717  0.715283  1
  Gd  Gd5  1  0.715283  0.715283  0.284717  1
  Fe  Fe6  1  0.500000  0.000000  0.000000  1
  Fe  Fe7  1  0.000000  0.500000  0.500000  1
  Fe  Fe8  1  0.000000  0.500000  0.000000  1
  Fe  Fe9  1  0.000000  0.000000  0.500000  1
  Fe  Fe10  1  0.500000  0.000000  0.500000  1
  Fe  Fe11  1  0.500000  0.500000  0.000000  1
  Co  Co12  1  0.321766  0.321766  0.321766  1
  Co  Co13  1  0.321766  0.321766  0.034706  1
  Co  Co14  1  0.034706  0.321766  0.321766  1
  Co  Co15  1  0.321766  0.034706  0.321766  1
  Co  Co16  1  0.678234  0.678234  0.678234  1
  Co  Co17  1  0.678234  0.678234  0.965294  1
  Co  Co18  1  0.678234  0.965294  0.678234  1
  Co  Co19  1  0.965294  0.678234  0.678234  1
  Co  Co20  1  0.123670  0.123670  0.123670  1
  Co  Co21  1  0.123670  0.123670  0.628990  1
  Co  Co22  1  0.628990  0.123670  0.123670  1
  Co  Co23  1  0.123670  0.628990  0.123670  1
  Co  Co24  1  0.876330  0.876330  0.876330  1
  Co  Co25  1  0.876330  0.876330  0.371010  1
  Co  Co26  1  0.876330  0.371010  0.876330  1
  Co  Co27  1  0.371010  0.876330  0.876330  1
  Mo  Mo28  1  0.000000  0.000000  0.000000  1
