# generated using pymatgen
data_Y2Lu2MnFeB12
_symmetry_space_group_name_H-M   'P 1'
_cell_length_a   3.51547600
_cell_length_b   9.02029593
_cell_length_c   11.41654799
_cell_angle_alpha   90.15176795
_cell_angle_beta   90.00000000
_cell_angle_gamma   90.00000000
_symmetry_Int_Tables_number   1
_chemical_formula_structural   Y2Lu2MnFeB12
_chemical_formula_sum   'Y4 Lu4 Mn2 Fe2 B24'
_cell_volume   362.02470311
_cell_formula_units_Z   2
loop_
 _symmetry_equiv_pos_site_id
 _symmetry_equiv_pos_as_xyz
  1  'x, y, z'
loop_
 _atom_site_type_symbol
 _atom_site_label
 _atom_site_symmetry_multiplicity
 _atom_site_fract_x
 _atom_site_fract_y
 _atom_site_fract_z
 _atom_site_occupancy
  Y  Y0  1  0.000000  0.825160  0.084077  1
  Y  Y1  1  0.000000  0.174840  0.915923  1
  Y  Y2  1  0.000000  0.322259  0.413781  1
  Y  Y3  1  0.000000  0.677741  0.586219  1
  Lu  Lu4  1  0.000000  0.441975  0.130823  1
  Lu  Lu5  1  0.000000  0.558025  0.869177  1
  Lu  Lu6  1  0.000000  0.943169  0.368661  1
  Lu  Lu7  1  0.000000  0.056831  0.631339  1
  Mn  Mn8  1  0.000000  0.139409  0.180675  1
  Mn  Mn9  1  0.000000  0.860591  0.819325  1
  Fe  Fe10  1  0.000000  0.639325  0.319739  1
  Fe  Fe11  1  0.000000  0.360675  0.680261  1
  B  B12  1  0.500000  0.054634  0.068609  1
  B  B13  1  0.500000  0.945366  0.931391  1
  B  B14  1  0.500000  0.555177  0.431574  1
  B  B15  1  0.500000  0.444823  0.568426  1
  B  B16  1  0.500000  0.248246  0.083423  1
  B  B17  1  0.500000  0.751754  0.916577  1
  B  B18  1  0.500000  0.748611  0.416838  1
  B  B19  1  0.500000  0.251389  0.583162  1
  B  B20  1  0.500000  0.290965  0.234814  1
  B  B21  1  0.500000  0.709035  0.765186  1
  B  B22  1  0.500000  0.790345  0.265375  1
  B  B23  1  0.500000  0.209655  0.734625  1
  B  B24  1  0.500000  0.131026  0.314380  1
  B  B25  1  0.500000  0.868974  0.685620  1
  B  B26  1  0.500000  0.630643  0.185723  1
  B  B27  1  0.500000  0.369357  0.814277  1
  B  B28  1  0.500000  0.485173  0.287953  1
  B  B29  1  0.500000  0.514827  0.712047  1
  B  B30  1  0.500000  0.984985  0.212200  1
  B  B31  1  0.500000  0.015015  0.787800  1
  B  B32  1  0.500000  0.100902  0.472619  1
  B  B33  1  0.500000  0.899098  0.527381  1
  B  B34  1  0.500000  0.600578  0.027630  1
  B  B35  1  0.500000  0.399422  0.972370  1
