# generated using pymatgen
data_Ho3Er(OsRu)4
_symmetry_space_group_name_H-M   'P 1'
_cell_length_a   5.20752727
_cell_length_b   5.33961043
_cell_length_c   8.98136900
_cell_angle_alpha   90.00000000
_cell_angle_beta   90.07334263
_cell_angle_gamma   120.84263718
_symmetry_Int_Tables_number   1
_chemical_formula_structural   Ho3Er(OsRu)4
_chemical_formula_sum   'Ho3 Er1 Os4 Ru4'
_cell_volume   214.41899227
_cell_formula_units_Z   1
loop_
 _symmetry_equiv_pos_site_id
 _symmetry_equiv_pos_as_xyz
  1  'x, y, z'
loop_
 _atom_site_type_symbol
 _atom_site_label
 _atom_site_symmetry_multiplicity
 _atom_site_fract_x
 _atom_site_fract_y
 _atom_site_fract_z
 _atom_site_occupancy
  Ho  Ho0  1  0.335388  0.667695  0.432216  1
  Ho  Ho1  1  0.664953  0.332476  0.566694  1
  Ho  Ho2  1  0.665883  0.332941  0.934548  1
  Er  Er3  1  0.336794  0.668397  0.066156  1
  Os  Os4  1  0.332030  0.166015  0.249950  1
  Os  Os5  1  0.171226  0.828224  0.750267  1
  Os  Os6  1  0.171226  0.343001  0.750267  1
  Os  Os7  1  0.662379  0.831189  0.750069  1
  Ru  Ru8  1  0.006983  0.003492  0.498951  1
  Ru  Ru9  1  0.007586  0.003792  0.001466  1
  Ru  Ru10  1  0.822776  0.168403  0.249707  1
  Ru  Ru11  1  0.822776  0.654373  0.249707  1
