# generated using pymatgen
data_Hf4Zr12Ir5Pd3C3N
_symmetry_space_group_name_H-M   'P 1'
_cell_length_a   8.81116151
_cell_length_b   8.81116102
_cell_length_c   8.81116200
_cell_angle_alpha   60.14172518
_cell_angle_beta   60.14172699
_cell_angle_gamma   60.14173126
_symmetry_Int_Tables_number   1
_chemical_formula_structural   Hf4Zr12Ir5Pd3C3N
_chemical_formula_sum   'Hf4 Zr12 Ir5 Pd3 C3 N1'
_cell_volume   485.26227652
_cell_formula_units_Z   1
loop_
 _symmetry_equiv_pos_site_id
 _symmetry_equiv_pos_as_xyz
  1  'x, y, z'
loop_
 _atom_site_type_symbol
 _atom_site_label
 _atom_site_symmetry_multiplicity
 _atom_site_fract_x
 _atom_site_fract_y
 _atom_site_fract_z
 _atom_site_occupancy
  Hf  Hf0  1  0.125200  0.624124  0.624124  1
  Hf  Hf1  1  0.624124  0.125200  0.624124  1
  Hf  Hf2  1  0.624124  0.624124  0.125200  1
  Hf  Hf3  1  0.627992  0.627992  0.627992  1
  Zr  Zr4  1  0.816806  0.816806  0.182807  1
  Zr  Zr5  1  0.183578  0.183578  0.815786  1
  Zr  Zr6  1  0.816806  0.182807  0.816806  1
  Zr  Zr7  1  0.183578  0.815786  0.183578  1
  Zr  Zr8  1  0.182807  0.816806  0.816806  1
  Zr  Zr9  1  0.815786  0.183578  0.183578  1
  Zr  Zr10  1  0.436209  0.436209  0.066654  1
  Zr  Zr11  1  0.063664  0.063664  0.435655  1
  Zr  Zr12  1  0.436209  0.066654  0.436209  1
  Zr  Zr13  1  0.063664  0.435655  0.063664  1
  Zr  Zr14  1  0.066654  0.436209  0.436209  1
  Zr  Zr15  1  0.435655  0.063664  0.063664  1
  Ir  Ir16  1  0.409837  0.409837  0.409837  1
  Ir  Ir17  1  0.489968  0.838355  0.838355  1
  Ir  Ir18  1  0.838355  0.489968  0.838355  1
  Ir  Ir19  1  0.838355  0.838355  0.489968  1
  Ir  Ir20  1  0.835690  0.835690  0.835690  1
  Pd  Pd21  1  0.757700  0.414728  0.414728  1
  Pd  Pd22  1  0.414728  0.757700  0.414728  1
  Pd  Pd23  1  0.414728  0.414728  0.757700  1
  C  C24  1  0.624613  0.124113  0.124113  1
  C  C25  1  0.124113  0.624613  0.124113  1
  C  C26  1  0.124113  0.124113  0.624613  1
  N  N27  1  0.124944  0.124944  0.124944  1
