# generated using pymatgen
data_Tb2Y3Ho(Si3Ru)8
_symmetry_space_group_name_H-M   'P 1'
_cell_length_a   10.13733150
_cell_length_b   10.13733165
_cell_length_c   8.15892100
_cell_angle_alpha   89.99173298
_cell_angle_beta   89.99173316
_cell_angle_gamma   132.56756626
_symmetry_Int_Tables_number   1
_chemical_formula_structural   Tb2Y3Ho(Si3Ru)8
_chemical_formula_sum   'Tb2 Y3 Ho1 Si24 Ru8'
_cell_volume   617.50579750
_cell_formula_units_Z   1
loop_
 _symmetry_equiv_pos_site_id
 _symmetry_equiv_pos_as_xyz
  1  'x, y, z'
loop_
 _atom_site_type_symbol
 _atom_site_label
 _atom_site_symmetry_multiplicity
 _atom_site_fract_x
 _atom_site_fract_y
 _atom_site_fract_z
 _atom_site_occupancy
  Tb  Tb0  1  0.502546  0.002627  0.750142  1
  Tb  Tb1  1  0.997373  0.497454  0.249858  1
  Y  Y2  1  0.500005  0.499995  0.500000  1
  Y  Y3  1  0.497473  0.997396  0.249852  1
  Y  Y4  1  0.002604  0.502527  0.750148  1
  Ho  Ho5  1  0.999978  0.000022  0.000000  1
  Si  Si6  1  0.794706  0.205294  0.500000  1
  Si  Si7  1  0.294523  0.705477  0.000000  1
  Si  Si8  1  0.205293  0.794707  0.500000  1
  Si  Si9  1  0.705480  0.294520  0.000000  1
  Si  Si10  1  0.332876  0.332891  0.833162  1
  Si  Si11  1  0.667109  0.667124  0.166838  1
  Si  Si12  1  0.167336  0.167315  0.333161  1
  Si  Si13  1  0.832685  0.832664  0.666839  1
  Si  Si14  1  0.122333  0.888278  0.728584  1
  Si  Si15  1  0.111722  0.877667  0.271416  1
  Si  Si16  1  0.612390  0.378019  0.228210  1
  Si  Si17  1  0.621981  0.387610  0.771790  1
  Si  Si18  1  0.877666  0.111774  0.271417  1
  Si  Si19  1  0.888226  0.122334  0.728583  1
  Si  Si20  1  0.387667  0.621978  0.771786  1
  Si  Si21  1  0.378022  0.612333  0.228214  1
  Si  Si22  1  0.345350  0.111826  0.505231  1
  Si  Si23  1  0.888174  0.654650  0.494769  1
  Si  Si24  1  0.388239  0.154701  0.005160  1
  Si  Si25  1  0.845299  0.611761  0.994840  1
  Si  Si26  1  0.654644  0.888185  0.494789  1
  Si  Si27  1  0.111815  0.345356  0.505211  1
  Si  Si28  1  0.611774  0.845289  0.994814  1
  Si  Si29  1  0.154711  0.388226  0.005186  1
  Ru  Ru30  1  0.668907  0.331093  0.500000  1
  Ru  Ru31  1  0.168564  0.831436  0.000000  1
  Ru  Ru32  1  0.331079  0.668921  0.500000  1
  Ru  Ru33  1  0.831450  0.168550  0.000000  1
  Ru  Ru34  1  0.126035  0.126163  0.627493  1
  Ru  Ru35  1  0.873837  0.873965  0.372507  1
  Ru  Ru36  1  0.373429  0.373302  0.126575  1
  Ru  Ru37  1  0.626698  0.626571  0.873425  1
