# generated using pymatgen
data_Ca2La7Pr11Ir12
_symmetry_space_group_name_H-M   'P 1'
_cell_length_a   11.41943795
_cell_length_b   11.39434431
_cell_length_c   6.58248274
_cell_angle_alpha   89.87844308
_cell_angle_beta   89.98601973
_cell_angle_gamma   90.06557179
_symmetry_Int_Tables_number   1
_chemical_formula_structural   Ca2La7Pr11Ir12
_chemical_formula_sum   'Ca2 La7 Pr11 Ir12'
_cell_volume   856.49044339
_cell_formula_units_Z   1
loop_
 _symmetry_equiv_pos_site_id
 _symmetry_equiv_pos_as_xyz
  1  'x, y, z'
loop_
 _atom_site_type_symbol
 _atom_site_label
 _atom_site_symmetry_multiplicity
 _atom_site_fract_x
 _atom_site_fract_y
 _atom_site_fract_z
 _atom_site_occupancy
  Ca  Ca0  1  0.000133  0.000015  0.499729  1
  Ca  Ca1  1  0.999728  0.000267  0.999637  1
  La  La2  1  0.287381  0.091658  0.389317  1
  La  La3  1  0.287147  0.910584  0.889704  1
  La  La4  1  0.712454  0.090937  0.889788  1
  La  La5  1  0.713424  0.909339  0.389465  1
  La  La6  1  0.591370  0.790758  0.887615  1
  La  La7  1  0.590489  0.209162  0.387077  1
  La  La8  1  0.408331  0.790518  0.387332  1
  Pr  Pr9  1  0.409655  0.209546  0.885048  1
  Pr  Pr10  1  0.208344  0.410972  0.615348  1
  Pr  Pr11  1  0.207831  0.588334  0.114786  1
  Pr  Pr12  1  0.792038  0.411356  0.114231  1
  Pr  Pr13  1  0.792138  0.588366  0.614309  1
  Pr  Pr14  1  0.912619  0.710968  0.112927  1
  Pr  Pr15  1  0.912654  0.288843  0.612602  1
  Pr  Pr16  1  0.087522  0.711023  0.613065  1
  Pr  Pr17  1  0.087915  0.288737  0.112100  1
  Pr  Pr18  1  0.499363  0.499216  0.000122  1
  Pr  Pr19  1  0.500298  0.499937  0.500809  1
  Ir  Ir20  1  0.840903  0.157315  0.247538  1
  Ir  Ir21  1  0.841127  0.842586  0.747757  1
  Ir  Ir22  1  0.158506  0.157044  0.747011  1
  Ir  Ir23  1  0.158951  0.842999  0.247492  1
  Ir  Ir24  1  0.653602  0.344105  0.748246  1
  Ir  Ir25  1  0.654006  0.655256  0.247502  1
  Ir  Ir26  1  0.345562  0.345658  0.249532  1
  Ir  Ir27  1  0.346064  0.655456  0.747916  1
  Ir  Ir28  1  0.500077  0.999888  0.118026  1
  Ir  Ir29  1  0.500464  0.999097  0.616331  1
  Ir  Ir30  1  0.000052  0.499975  0.883792  1
  Ir  Ir31  1  0.999852  0.500086  0.383846  1
