# generated using pymatgen
data_Y2Nb3Ni9P7
_symmetry_space_group_name_H-M   'P 1'
_cell_length_a   9.33630600
_cell_length_b   9.33630635
_cell_length_c   3.72275200
_cell_angle_alpha   90.00000000
_cell_angle_beta   90.00000000
_cell_angle_gamma   120.00000585
_symmetry_Int_Tables_number   1
_chemical_formula_structural   Y2Nb3Ni9P7
_chemical_formula_sum   'Y2 Nb3 Ni9 P7'
_cell_volume   281.02495231
_cell_formula_units_Z   1
loop_
 _symmetry_equiv_pos_site_id
 _symmetry_equiv_pos_as_xyz
  1  'x, y, z'
loop_
 _atom_site_type_symbol
 _atom_site_label
 _atom_site_symmetry_multiplicity
 _atom_site_fract_x
 _atom_site_fract_y
 _atom_site_fract_z
 _atom_site_occupancy
  Y  Y0  1  0.333333  0.666667  0.000000  1
  Y  Y1  1  0.666667  0.333333  0.500000  1
  Nb  Nb2  1  0.224943  0.119557  0.500000  1
  Nb  Nb3  1  0.880443  0.105384  0.500000  1
  Nb  Nb4  1  0.894616  0.775057  0.500000  1
  Ni  Ni5  1  0.128915  0.286075  0.000000  1
  Ni  Ni6  1  0.713925  0.842841  0.000000  1
  Ni  Ni7  1  0.157159  0.871085  0.000000  1
  Ni  Ni8  1  0.432720  0.369653  0.000000  1
  Ni  Ni9  1  0.630347  0.063067  0.000000  1
  Ni  Ni10  1  0.936933  0.567280  0.000000  1
  Ni  Ni11  1  0.057595  0.444524  0.500000  1
  Ni  Ni12  1  0.555476  0.613072  0.500000  1
  Ni  Ni13  1  0.386928  0.942405  0.500000  1
  P  P14  1  0.289588  0.410135  0.500000  1
  P  P15  1  0.589865  0.879453  0.500000  1
  P  P16  1  0.120547  0.710412  0.500000  1
  P  P17  1  0.415603  0.111074  0.000000  1
  P  P18  1  0.888926  0.304527  0.000000  1
  P  P19  1  0.695473  0.584397  0.000000  1
  P  P20  1  0.000000  0.000000  0.000000  1
