# generated using pymatgen
data_YbCe8Ho(SiB4)4
_symmetry_space_group_name_H-M   'P 1'
_cell_length_a   7.32031600
_cell_length_b   7.32031600
_cell_length_c   8.26795200
_cell_angle_alpha   90.00000000
_cell_angle_beta   90.00000000
_cell_angle_gamma   90.00000000
_symmetry_Int_Tables_number   1
_chemical_formula_structural   YbCe8Ho(SiB4)4
_chemical_formula_sum   'Yb1 Ce8 Ho1 Si4 B16'
_cell_volume   443.05496160
_cell_formula_units_Z   1
loop_
 _symmetry_equiv_pos_site_id
 _symmetry_equiv_pos_as_xyz
  1  'x, y, z'
loop_
 _atom_site_type_symbol
 _atom_site_label
 _atom_site_symmetry_multiplicity
 _atom_site_fract_x
 _atom_site_fract_y
 _atom_site_fract_z
 _atom_site_occupancy
  Yb  Yb0  1  0.500000  0.500000  0.500000  1
  Ce  Ce1  1  0.682149  0.183664  0.226582  1
  Ce  Ce2  1  0.317851  0.816336  0.773418  1
  Ce  Ce3  1  0.317851  0.816336  0.226582  1
  Ce  Ce4  1  0.816336  0.682149  0.226582  1
  Ce  Ce5  1  0.816336  0.682149  0.773418  1
  Ce  Ce6  1  0.682149  0.183664  0.773418  1
  Ce  Ce7  1  0.183664  0.317851  0.773418  1
  Ce  Ce8  1  0.183664  0.317851  0.226582  1
  Ho  Ho9  1  0.000000  0.000000  0.500000  1
  Si  Si10  1  0.108701  0.619030  0.500000  1
  Si  Si11  1  0.891299  0.380970  0.500000  1
  Si  Si12  1  0.380970  0.108701  0.500000  1
  Si  Si13  1  0.619030  0.891299  0.500000  1
  B  B14  1  0.172788  0.038997  0.000000  1
  B  B15  1  0.827212  0.961003  0.000000  1
  B  B16  1  0.961003  0.172788  0.000000  1
  B  B17  1  0.326804  0.539247  0.000000  1
  B  B18  1  0.038997  0.827212  0.000000  1
  B  B19  1  0.673196  0.460753  0.000000  1
  B  B20  1  0.539247  0.673196  0.000000  1
  B  B21  1  0.460753  0.326804  0.000000  1
  B  B22  1  0.091076  0.591434  0.000000  1
  B  B23  1  0.908924  0.408566  0.000000  1
  B  B24  1  0.408566  0.091076  0.000000  1
  B  B25  1  0.591434  0.908924  0.000000  1
  B  B26  1  0.000000  0.000000  0.158923  1
  B  B27  1  0.000000  0.000000  0.841077  1
  B  B28  1  0.500000  0.500000  0.843900  1
  B  B29  1  0.500000  0.500000  0.156100  1
