# generated using pymatgen
data_Sm8Er12Sn15Pb
_symmetry_space_group_name_H-M   'P 1'
_cell_length_a   8.05937501
_cell_length_b   8.20725321
_cell_length_c   15.48933339
_cell_angle_alpha   90.02546941
_cell_angle_beta   89.99788605
_cell_angle_gamma   90.00405786
_symmetry_Int_Tables_number   1
_chemical_formula_structural   Sm8Er12Sn15Pb
_chemical_formula_sum   'Sm8 Er12 Sn15 Pb1'
_cell_volume   1024.54698505
_cell_formula_units_Z   1
loop_
 _symmetry_equiv_pos_site_id
 _symmetry_equiv_pos_as_xyz
  1  'x, y, z'
loop_
 _atom_site_type_symbol
 _atom_site_label
 _atom_site_symmetry_multiplicity
 _atom_site_fract_x
 _atom_site_fract_y
 _atom_site_fract_z
 _atom_site_occupancy
  Sm  Sm0  1  0.519532  0.322138  0.902150  1
  Sm  Sm1  1  0.018489  0.178883  0.597317  1
  Sm  Sm2  1  0.481526  0.678914  0.402756  1
  Sm  Sm3  1  0.979231  0.819290  0.097660  1
  Sm  Sm4  1  0.482400  0.676961  0.097569  1
  Sm  Sm5  1  0.981398  0.821012  0.402770  1
  Sm  Sm6  1  0.518475  0.321066  0.597264  1
  Sm  Sm7  1  0.017054  0.179861  0.901743  1
  Er  Er8  1  0.365614  0.834801  0.876338  1
  Er  Er9  1  0.865019  0.663896  0.622620  1
  Er  Er10  1  0.635023  0.163823  0.377331  1
  Er  Er11  1  0.133660  0.338629  0.123271  1
  Er  Er12  1  0.637066  0.164279  0.123080  1
  Er  Er13  1  0.134946  0.336213  0.377378  1
  Er  Er14  1  0.365097  0.836169  0.622696  1
  Er  Er15  1  0.865289  0.663855  0.877336  1
  Er  Er16  1  0.197345  0.503585  0.750005  1
  Er  Er17  1  0.697413  0.996336  0.749905  1
  Er  Er18  1  0.802564  0.496493  0.250069  1
  Er  Er19  1  0.302834  0.003522  0.251535  1
  Sn  Sn20  1  0.797848  0.461338  0.458129  1
  Sn  Sn21  1  0.702260  0.961374  0.541895  1
  Sn  Sn22  1  0.202360  0.538628  0.958147  1
  Sn  Sn23  1  0.702581  0.961382  0.958017  1
  Sn  Sn24  1  0.202194  0.538588  0.541877  1
  Sn  Sn25  1  0.297740  0.038585  0.458208  1
  Sn  Sn26  1  0.797725  0.461260  0.041778  1
  Sn  Sn27  1  0.563603  0.622291  0.749868  1
  Sn  Sn28  1  0.063428  0.877490  0.749985  1
  Sn  Sn29  1  0.436470  0.377157  0.249987  1
  Sn  Sn30  1  0.936959  0.122485  0.249896  1
  Sn  Sn31  1  0.327533  0.144682  0.750018  1
  Sn  Sn32  1  0.827395  0.355544  0.749846  1
  Sn  Sn33  1  0.672263  0.855319  0.250058  1
  Sn  Sn34  1  0.172519  0.644917  0.250074  1
  Pb  Pb35  1  0.297146  0.039233  0.041423  1
