# generated using pymatgen
data_Tb2Ho6Re(B8Ru)3
_symmetry_space_group_name_H-M   'P 1'
_cell_length_a   3.66378700
_cell_length_b   9.13499957
_cell_length_c   11.52193402
_cell_angle_alpha   90.13347827
_cell_angle_beta   90.00000000
_cell_angle_gamma   90.00000000
_symmetry_Int_Tables_number   1
_chemical_formula_structural   Tb2Ho6Re(B8Ru)3
_chemical_formula_sum   'Tb2 Ho6 Re1 B24 Ru3'
_cell_volume   385.62302209
_cell_formula_units_Z   1
loop_
 _symmetry_equiv_pos_site_id
 _symmetry_equiv_pos_as_xyz
  1  'x, y, z'
loop_
 _atom_site_type_symbol
 _atom_site_label
 _atom_site_symmetry_multiplicity
 _atom_site_fract_x
 _atom_site_fract_y
 _atom_site_fract_z
 _atom_site_occupancy
  Tb  Tb0  1  0.000000  0.323072  0.415003  1
  Tb  Tb1  1  0.000000  0.679823  0.588006  1
  Ho  Ho2  1  0.000000  0.822769  0.083417  1
  Ho  Ho3  1  0.000000  0.176111  0.913495  1
  Ho  Ho4  1  0.000000  0.943080  0.370865  1
  Ho  Ho5  1  0.000000  0.056484  0.627877  1
  Ho  Ho6  1  0.000000  0.442616  0.128555  1
  Ho  Ho7  1  0.000000  0.555975  0.872544  1
  Re  Re8  1  0.000000  0.862568  0.821418  1
  B  B9  1  0.500000  0.554283  0.432946  1
  B  B10  1  0.500000  0.446047  0.567411  1
  B  B11  1  0.500000  0.053721  0.067404  1
  B  B12  1  0.500000  0.947161  0.933332  1
  B  B13  1  0.500000  0.748496  0.419124  1
  B  B14  1  0.500000  0.251871  0.580633  1
  B  B15  1  0.500000  0.248035  0.080689  1
  B  B16  1  0.500000  0.751370  0.919427  1
  B  B17  1  0.500000  0.790338  0.265680  1
  B  B18  1  0.500000  0.209221  0.733358  1
  B  B19  1  0.500000  0.290590  0.234007  1
  B  B20  1  0.500000  0.708500  0.766129  1
  B  B21  1  0.500000  0.631019  0.185176  1
  B  B22  1  0.500000  0.368265  0.814499  1
  B  B23  1  0.500000  0.131519  0.314708  1
  B  B24  1  0.500000  0.869018  0.685562  1
  B  B25  1  0.500000  0.983372  0.212367  1
  B  B26  1  0.500000  0.017979  0.787440  1
  B  B27  1  0.500000  0.483550  0.287852  1
  B  B28  1  0.500000  0.516401  0.712788  1
  B  B29  1  0.500000  0.605524  0.030038  1
  B  B30  1  0.500000  0.392381  0.970844  1
  B  B31  1  0.500000  0.106812  0.469968  1
  B  B32  1  0.500000  0.894078  0.528594  1
  Ru  Ru33  1  0.000000  0.638024  0.320812  1
  Ru  Ru34  1  0.000000  0.362131  0.678818  1
  Ru  Ru35  1  0.000000  0.137791  0.179215  1
