# generated using pymatgen
data_ReMo(Ir2W)2
_symmetry_space_group_name_H-M   'P 1'
_cell_length_a   5.60424202
_cell_length_b   5.56718645
_cell_length_c   4.44767000
_cell_angle_alpha   90.00000000
_cell_angle_beta   90.00000000
_cell_angle_gamma   119.78151741
_symmetry_Int_Tables_number   1
_chemical_formula_structural   ReMo(Ir2W)2
_chemical_formula_sum   'Re1 Mo1 Ir4 W2'
_cell_volume   120.43917313
_cell_formula_units_Z   1
loop_
 _symmetry_equiv_pos_site_id
 _symmetry_equiv_pos_as_xyz
  1  'x, y, z'
loop_
 _atom_site_type_symbol
 _atom_site_label
 _atom_site_symmetry_multiplicity
 _atom_site_fract_x
 _atom_site_fract_y
 _atom_site_fract_z
 _atom_site_occupancy
  Re  Re0  1  0.669520  0.834760  0.750000  1
  Mo  Mo1  1  0.327758  0.163879  0.250000  1
  Ir  Ir2  1  0.824436  0.160631  0.250000  1
  Ir  Ir3  1  0.174416  0.337044  0.750000  1
  Ir  Ir4  1  0.174416  0.837373  0.750000  1
  Ir  Ir5  1  0.824436  0.663806  0.250000  1
  W  W6  1  0.671208  0.335604  0.750000  1
  W  W7  1  0.333806  0.666904  0.250000  1
