# generated using pymatgen
data_Pr2NdHo5(CdPt)2
_symmetry_space_group_name_H-M   'P 1'
_cell_length_a   9.79431419
_cell_length_b   9.79431489
_cell_length_c   9.79361400
_cell_angle_alpha   60.00236719
_cell_angle_beta   60.00236482
_cell_angle_gamma   59.99527284
_symmetry_Int_Tables_number   1
_chemical_formula_structural   Pr2NdHo5(CdPt)2
_chemical_formula_sum   'Pr4 Nd2 Ho10 Cd4 Pt4'
_cell_volume   664.31810838
_cell_formula_units_Z   2
loop_
 _symmetry_equiv_pos_site_id
 _symmetry_equiv_pos_as_xyz
  1  'x, y, z'
loop_
 _atom_site_type_symbol
 _atom_site_label
 _atom_site_symmetry_multiplicity
 _atom_site_fract_x
 _atom_site_fract_y
 _atom_site_fract_z
 _atom_site_occupancy
  Pr  Pr0  1  0.938469  0.561531  0.561531  1
  Pr  Pr1  1  0.561531  0.938469  0.938469  1
  Pr  Pr2  1  0.561531  0.938469  0.561531  1
  Pr  Pr3  1  0.938469  0.561531  0.938469  1
  Nd  Nd4  1  0.561308  0.561308  0.938692  1
  Nd  Nd5  1  0.938692  0.938692  0.561308  1
  Ho  Ho6  1  0.350712  0.350712  0.350449  1
  Ho  Ho7  1  0.350712  0.350712  0.948126  1
  Ho  Ho8  1  0.350449  0.948126  0.350712  1
  Ho  Ho9  1  0.948126  0.350449  0.350712  1
  Ho  Ho10  1  0.812036  0.187964  0.187964  1
  Ho  Ho11  1  0.187964  0.812036  0.812036  1
  Ho  Ho12  1  0.187964  0.812036  0.187964  1
  Ho  Ho13  1  0.812036  0.187964  0.812036  1
  Ho  Ho14  1  0.187910  0.187910  0.812090  1
  Ho  Ho15  1  0.812090  0.812090  0.187910  1
  Cd  Cd16  1  0.579589  0.579589  0.579781  1
  Cd  Cd17  1  0.579589  0.579589  0.261043  1
  Cd  Cd18  1  0.579781  0.261043  0.579589  1
  Cd  Cd19  1  0.261043  0.579781  0.579589  1
  Pt  Pt20  1  0.142702  0.142702  0.142920  1
  Pt  Pt21  1  0.142702  0.142702  0.571676  1
  Pt  Pt22  1  0.142920  0.571676  0.142702  1
  Pt  Pt23  1  0.571676  0.142920  0.142702  1
