# generated using pymatgen
data_Y6Zn20AsRh3
_symmetry_space_group_name_H-M   'P 1'
_cell_length_a   8.98765653
_cell_length_b   8.99137356
_cell_length_c   9.02067300
_cell_angle_alpha   60.26076639
_cell_angle_beta   59.90569760
_cell_angle_gamma   60.22942978
_symmetry_Int_Tables_number   1
_chemical_formula_structural   Y6Zn20AsRh3
_chemical_formula_sum   'Y6 Zn20 As1 Rh3'
_cell_volume   516.99061834
_cell_formula_units_Z   1
loop_
 _symmetry_equiv_pos_site_id
 _symmetry_equiv_pos_as_xyz
  1  'x, y, z'
loop_
 _atom_site_type_symbol
 _atom_site_label
 _atom_site_symmetry_multiplicity
 _atom_site_fract_x
 _atom_site_fract_y
 _atom_site_fract_z
 _atom_site_occupancy
  Y  Y0  1  0.720598  0.279401  0.279401  1
  Y  Y1  1  0.720391  0.275257  0.724742  1
  Y  Y2  1  0.713640  0.723256  0.276736  1
  Y  Y3  1  0.279402  0.720599  0.720599  1
  Y  Y4  1  0.279609  0.724743  0.275258  1
  Y  Y5  1  0.286360  0.276744  0.723264  1
  Zn  Zn6  1  0.621436  0.122129  0.128286  1
  Zn  Zn7  1  0.122137  0.623154  0.123612  1
  Zn  Zn8  1  0.131094  0.123617  0.623152  1
  Zn  Zn9  1  0.128145  0.128291  0.122127  1
  Zn  Zn10  1  0.378564  0.877871  0.871714  1
  Zn  Zn11  1  0.877863  0.376846  0.876388  1
  Zn  Zn12  1  0.868906  0.876383  0.376848  1
  Zn  Zn13  1  0.871855  0.871709  0.877873  1
  Zn  Zn14  1  0.500000  0.500000  0.000000  1
  Zn  Zn15  1  0.000000  0.500000  0.500000  1
  Zn  Zn16  1  0.000000  0.000000  0.500000  1
  Zn  Zn17  1  0.000000  0.000000  0.000000  1
  Zn  Zn18  1  0.999999  0.336367  0.330713  1
  Zn  Zn19  1  0.330407  0.008177  0.330770  1
  Zn  Zn20  1  0.330639  0.330771  0.008186  1
  Zn  Zn21  1  0.332915  0.330720  0.336367  1
  Zn  Zn22  1  0.000001  0.663633  0.669287  1
  Zn  Zn23  1  0.669593  0.991823  0.669230  1
  Zn  Zn24  1  0.669361  0.669229  0.991814  1
  Zn  Zn25  1  0.667085  0.669280  0.663633  1
  As  As26  1  0.500000  0.500000  0.500000  1
  Rh  Rh27  1  0.500000  0.000000  0.000000  1
  Rh  Rh28  1  0.500000  0.000000  0.500000  1
  Rh  Rh29  1  0.000000  0.500000  0.000000  1
