# generated using pymatgen
data_La4SeBr6
_symmetry_space_group_name_H-M   'P 1'
_cell_length_a   4.32997300
_cell_length_b   14.08411800
_cell_length_c   14.67811300
_cell_angle_alpha   90.00000000
_cell_angle_beta   90.00000000
_cell_angle_gamma   90.00000000
_symmetry_Int_Tables_number   1
_chemical_formula_structural   La4SeBr6
_chemical_formula_sum   'La8 Se2 Br12'
_cell_volume   895.12785129
_cell_formula_units_Z   2
loop_
 _symmetry_equiv_pos_site_id
 _symmetry_equiv_pos_as_xyz
  1  'x, y, z'
loop_
 _atom_site_type_symbol
 _atom_site_label
 _atom_site_symmetry_multiplicity
 _atom_site_fract_x
 _atom_site_fract_y
 _atom_site_fract_z
 _atom_site_occupancy
  La  La0  1  0.000000  0.110120  0.084563  1
  La  La1  1  0.000000  0.889880  0.915437  1
  La  La2  1  0.000000  0.610120  0.415437  1
  La  La3  1  0.000000  0.389880  0.584563  1
  La  La4  1  0.500000  0.128188  0.846822  1
  La  La5  1  0.500000  0.871812  0.153178  1
  La  La6  1  0.500000  0.628188  0.653178  1
  La  La7  1  0.500000  0.371812  0.346822  1
  Se  Se8  1  0.500000  0.000000  0.000000  1
  Se  Se9  1  0.500000  0.500000  0.500000  1
  Br  Br10  1  0.500000  0.263417  0.677960  1
  Br  Br11  1  0.500000  0.736583  0.322040  1
  Br  Br12  1  0.500000  0.763417  0.822040  1
  Br  Br13  1  0.500000  0.236583  0.177960  1
  Br  Br14  1  0.000000  0.256051  0.927400  1
  Br  Br15  1  0.000000  0.743949  0.072600  1
  Br  Br16  1  0.000000  0.482055  0.244754  1
  Br  Br17  1  0.000000  0.517945  0.755246  1
  Br  Br18  1  0.000000  0.982055  0.255246  1
  Br  Br19  1  0.000000  0.017945  0.744754  1
  Br  Br20  1  0.000000  0.243949  0.427400  1
  Br  Br21  1  0.000000  0.756051  0.572600  1
