# generated using pymatgen
data_YHo15In6FeCo
_symmetry_space_group_name_H-M   'P 1'
_cell_length_a   10.30101818
_cell_length_b   10.31398144
_cell_length_c   6.98150305
_cell_angle_alpha   90.03270426
_cell_angle_beta   90.01128370
_cell_angle_gamma   119.94027869
_symmetry_Int_Tables_number   1
_chemical_formula_structural   YHo15In6FeCo
_chemical_formula_sum   'Y1 Ho15 In6 Fe1 Co1'
_cell_volume   642.75722241
_cell_formula_units_Z   1
loop_
 _symmetry_equiv_pos_site_id
 _symmetry_equiv_pos_as_xyz
  1  'x, y, z'
loop_
 _atom_site_type_symbol
 _atom_site_label
 _atom_site_symmetry_multiplicity
 _atom_site_fract_x
 _atom_site_fract_y
 _atom_site_fract_z
 _atom_site_occupancy
  Y  Y0  1  0.535299  0.070654  0.505636  1
  Ho  Ho1  1  0.927294  0.463592  0.505291  1
  Ho  Ho2  1  0.536228  0.463603  0.505236  1
  Ho  Ho3  1  0.464720  0.929333  0.005909  1
  Ho  Ho4  1  0.070374  0.535390  0.006311  1
  Ho  Ho5  1  0.465002  0.535365  0.006313  1
  Ho  Ho6  1  0.178414  0.356904  0.711321  1
  Ho  Ho7  1  0.643011  0.820781  0.711150  1
  Ho  Ho8  1  0.177820  0.820793  0.711168  1
  Ho  Ho9  1  0.821961  0.643874  0.211883  1
  Ho  Ho10  1  0.357360  0.179131  0.210500  1
  Ho  Ho11  1  0.821768  0.179169  0.210574  1
  Ho  Ho12  1  0.666950  0.333981  0.894015  1
  Ho  Ho13  1  0.332808  0.665644  0.394718  1
  Ho  Ho14  1  0.000327  0.000619  0.493678  1
  Ho  Ho15  1  0.999559  0.999234  0.993114  1
  In  In16  1  0.837328  0.674781  0.753159  1
  In  In17  1  0.324479  0.162158  0.753387  1
  In  In18  1  0.837417  0.162204  0.753285  1
  In  In19  1  0.162946  0.325695  0.253257  1
  In  In20  1  0.674475  0.837868  0.253462  1
  In  In21  1  0.163684  0.837839  0.253555  1
  Fe  Fe22  1  0.667591  0.334967  0.279706  1
  Co  Co23  1  0.333186  0.666419  0.781412  1
