# generated using pymatgen
data_CeLu15(ZnNi)4
_symmetry_space_group_name_H-M   'P 1'
_cell_length_a   9.19883621
_cell_length_b   9.19883531
_cell_length_c   9.19883600
_cell_angle_alpha   59.98169179
_cell_angle_beta   59.98169501
_cell_angle_gamma   59.98168870
_symmetry_Int_Tables_number   1
_chemical_formula_structural   CeLu15(ZnNi)4
_chemical_formula_sum   'Ce1 Lu15 Zn4 Ni4'
_cell_volume   550.17807266
_cell_formula_units_Z   1
loop_
 _symmetry_equiv_pos_site_id
 _symmetry_equiv_pos_as_xyz
  1  'x, y, z'
loop_
 _atom_site_type_symbol
 _atom_site_label
 _atom_site_symmetry_multiplicity
 _atom_site_fract_x
 _atom_site_fract_y
 _atom_site_fract_z
 _atom_site_occupancy
  Ce  Ce0  1  0.349823  0.349823  0.349823  1
  Lu  Lu1  1  0.355955  0.355955  0.933167  1
  Lu  Lu2  1  0.355955  0.933167  0.355955  1
  Lu  Lu3  1  0.933167  0.355955  0.355955  1
  Lu  Lu4  1  0.811855  0.188723  0.188723  1
  Lu  Lu5  1  0.191886  0.810409  0.810409  1
  Lu  Lu6  1  0.188723  0.811855  0.188723  1
  Lu  Lu7  1  0.810409  0.191886  0.810409  1
  Lu  Lu8  1  0.188723  0.188723  0.811855  1
  Lu  Lu9  1  0.810409  0.810409  0.191886  1
  Lu  Lu10  1  0.937638  0.565128  0.565128  1
  Lu  Lu11  1  0.564545  0.936642  0.936642  1
  Lu  Lu12  1  0.565128  0.937638  0.565128  1
  Lu  Lu13  1  0.936642  0.564545  0.936642  1
  Lu  Lu14  1  0.565128  0.565128  0.937638  1
  Lu  Lu15  1  0.936642  0.936642  0.564545  1
  Zn  Zn16  1  0.579782  0.579782  0.579782  1
  Zn  Zn17  1  0.579585  0.579585  0.259549  1
  Zn  Zn18  1  0.579585  0.259549  0.579585  1
  Zn  Zn19  1  0.259549  0.579585  0.579585  1
  Ni  Ni20  1  0.145343  0.145343  0.145343  1
  Ni  Ni21  1  0.142731  0.142731  0.568070  1
  Ni  Ni22  1  0.142731  0.568070  0.142731  1
  Ni  Ni23  1  0.568070  0.142731  0.142731  1
