# generated using pymatgen
data_Tb4Tc3B8Os
_symmetry_space_group_name_H-M   'P 1'
_cell_length_a   5.31024300
_cell_length_b   5.95666906
_cell_length_c   6.45093429
_cell_angle_alpha   90.36333057
_cell_angle_beta   90.00000000
_cell_angle_gamma   90.00000000
_symmetry_Int_Tables_number   1
_chemical_formula_structural   Tb4Tc3B8Os
_chemical_formula_sum   'Tb4 Tc3 B8 Os1'
_cell_volume   204.04772358
_cell_formula_units_Z   1
loop_
 _symmetry_equiv_pos_site_id
 _symmetry_equiv_pos_as_xyz
  1  'x, y, z'
loop_
 _atom_site_type_symbol
 _atom_site_label
 _atom_site_symmetry_multiplicity
 _atom_site_fract_x
 _atom_site_fract_y
 _atom_site_fract_z
 _atom_site_occupancy
  Tb  Tb0  1  0.250000  0.012373  0.340143  1
  Tb  Tb1  1  0.250000  0.512042  0.159658  1
  Tb  Tb2  1  0.750000  0.986718  0.661713  1
  Tb  Tb3  1  0.750000  0.486654  0.837991  1
  Tc  Tc4  1  0.250000  0.181275  0.814227  1
  Tc  Tc5  1  0.250000  0.679348  0.683866  1
  Tc  Tc6  1  0.750000  0.819922  0.185568  1
  B  B7  1  0.078656  0.370297  0.537166  1
  B  B8  1  0.420991  0.872197  0.963001  1
  B  B9  1  0.580885  0.629430  0.462876  1
  B  B10  1  0.920276  0.130664  0.038133  1
  B  B11  1  0.919115  0.629430  0.462876  1
  B  B12  1  0.579724  0.130664  0.038133  1
  B  B13  1  0.421344  0.370297  0.537166  1
  B  B14  1  0.079009  0.872197  0.963001  1
  Os  Os15  1  0.750000  0.316492  0.314483  1
