# generated using pymatgen
data_Yb3(ErSn2)2
_symmetry_space_group_name_H-M   'P 1'
_cell_length_a   7.81220700
_cell_length_b   8.39944100
_cell_length_c   15.97881100
_cell_angle_alpha   90.00000000
_cell_angle_beta   90.00000000
_cell_angle_gamma   90.00000000
_symmetry_Int_Tables_number   1
_chemical_formula_structural   Yb3(ErSn2)2
_chemical_formula_sum   'Yb12 Er8 Sn16'
_cell_volume   1048.50036498
_cell_formula_units_Z   4
loop_
 _symmetry_equiv_pos_site_id
 _symmetry_equiv_pos_as_xyz
  1  'x, y, z'
loop_
 _atom_site_type_symbol
 _atom_site_label
 _atom_site_symmetry_multiplicity
 _atom_site_fract_x
 _atom_site_fract_y
 _atom_site_fract_z
 _atom_site_occupancy
  Yb  Yb0  1  0.499161  0.686697  0.593305  1
  Yb  Yb1  1  0.999161  0.813303  0.906695  1
  Yb  Yb2  1  0.500839  0.313303  0.093305  1
  Yb  Yb3  1  0.000839  0.186697  0.406695  1
  Yb  Yb4  1  0.500839  0.313303  0.406695  1
  Yb  Yb5  1  0.000839  0.186697  0.093305  1
  Yb  Yb6  1  0.499161  0.686697  0.906695  1
  Yb  Yb7  1  0.999161  0.813303  0.593305  1
  Yb  Yb8  1  0.827324  0.511263  0.750000  1
  Yb  Yb9  1  0.327324  0.988737  0.750000  1
  Yb  Yb10  1  0.172676  0.488737  0.250000  1
  Yb  Yb11  1  0.672676  0.011263  0.250000  1
  Er  Er12  1  0.666396  0.167475  0.622070  1
  Er  Er13  1  0.166396  0.332525  0.877930  1
  Er  Er14  1  0.333604  0.832525  0.122070  1
  Er  Er15  1  0.833604  0.667475  0.377930  1
  Er  Er16  1  0.333604  0.832525  0.377930  1
  Er  Er17  1  0.833604  0.667475  0.122070  1
  Er  Er18  1  0.666396  0.167475  0.877930  1
  Er  Er19  1  0.166396  0.332525  0.622070  1
  Sn  Sn20  1  0.674033  0.964547  0.460169  1
  Sn  Sn21  1  0.174033  0.535453  0.039831  1
  Sn  Sn22  1  0.325967  0.035453  0.960169  1
  Sn  Sn23  1  0.825967  0.464547  0.539831  1
  Sn  Sn24  1  0.325967  0.035453  0.539831  1
  Sn  Sn25  1  0.825967  0.464547  0.960169  1
  Sn  Sn26  1  0.674033  0.964547  0.039831  1
  Sn  Sn27  1  0.174033  0.535453  0.460169  1
  Sn  Sn28  1  0.463044  0.373776  0.750000  1
  Sn  Sn29  1  0.963044  0.126224  0.750000  1
  Sn  Sn30  1  0.536956  0.626224  0.250000  1
  Sn  Sn31  1  0.036956  0.873776  0.250000  1
  Sn  Sn32  1  0.707759  0.874262  0.750000  1
  Sn  Sn33  1  0.207759  0.625738  0.750000  1
  Sn  Sn34  1  0.292241  0.125738  0.250000  1
  Sn  Sn35  1  0.792241  0.374262  0.250000  1
