# generated using pymatgen
data_Sc2H6PtRh
_symmetry_space_group_name_H-M   'P 1'
_cell_length_a   5.71345897
_cell_length_b   5.71345869
_cell_length_c   4.49583900
_cell_angle_alpha   90.00000000
_cell_angle_beta   90.00000000
_cell_angle_gamma   142.36340143
_symmetry_Int_Tables_number   1
_chemical_formula_structural   Sc2H6PtRh
_chemical_formula_sum   'Sc2 H6 Pt1 Rh1'
_cell_volume   89.61941763
_cell_formula_units_Z   1
loop_
 _symmetry_equiv_pos_site_id
 _symmetry_equiv_pos_as_xyz
  1  'x, y, z'
loop_
 _atom_site_type_symbol
 _atom_site_label
 _atom_site_symmetry_multiplicity
 _atom_site_fract_x
 _atom_site_fract_y
 _atom_site_fract_z
 _atom_site_occupancy
  Sc  Sc0  1  0.132598  0.867404  0.250001  1
  Sc  Sc1  1  0.865492  0.134510  0.750000  1
  H  H2  1  0.691055  0.308947  0.021227  1
  H  H3  1  0.919417  0.080585  0.250001  1
  H  H4  1  0.691055  0.308947  0.478772  1
  H  H5  1  0.309783  0.690219  0.528058  1
  H  H6  1  0.079510  0.920492  0.750000  1
  H  H7  1  0.309783  0.690219  0.971941  1
  Pt  Pt8  1  0.419556  0.580446  0.250001  1
  Rh  Rh9  1  0.581761  0.418241  0.750000  1
