# generated using pymatgen
data_DySc2Bi3(SbO7)2
_symmetry_space_group_name_H-M   'P 1'
_cell_length_a   6.39226734
_cell_length_b   6.56462568
_cell_length_c   7.53636907
_cell_angle_alpha   106.72198916
_cell_angle_beta   89.59210035
_cell_angle_gamma   99.05854375
_symmetry_Int_Tables_number   1
_chemical_formula_structural   DySc2Bi3(SbO7)2
_chemical_formula_sum   'Dy1 Sc2 Bi3 Sb2 O14'
_cell_volume   298.85275000
_cell_formula_units_Z   1
loop_
 _symmetry_equiv_pos_site_id
 _symmetry_equiv_pos_as_xyz
  1  'x, y, z'
loop_
 _atom_site_type_symbol
 _atom_site_label
 _atom_site_symmetry_multiplicity
 _atom_site_fract_x
 _atom_site_fract_y
 _atom_site_fract_z
 _atom_site_occupancy
  Dy  Dy0  1  0.262597  0.542615  0.884744  1
  Sc  Sc1  1  0.535520  0.992863  0.750038  1
  Sc  Sc2  1  0.465498  0.005241  0.252266  1
  Bi  Bi3  1  0.739596  0.467224  0.113174  1
  Bi  Bi4  1  0.731224  0.458742  0.612080  1
  Bi  Bi5  1  0.261271  0.537230  0.387910  1
  Sb  Sb6  1  0.002204  0.004790  0.502026  1
  Sb  Sb7  1  0.003070  0.001669  0.999940  1
  O  O8  1  0.445814  0.670543  0.169371  1
  O  O9  1  0.537646  0.325837  0.821743  1
  O  O10  1  0.299722  0.940370  0.946939  1
  O  O11  1  0.702535  0.043333  0.053010  1
  O  O12  1  0.296392  0.936583  0.522697  1
  O  O13  1  0.705495  0.064903  0.477606  1
  O  O14  1  0.524466  0.338824  0.341942  1
  O  O15  1  0.465829  0.658351  0.664919  1
  O  O16  1  0.936951  0.677136  0.947550  1
  O  O17  1  0.081988  0.320791  0.044355  1
  O  O18  1  0.091475  0.321169  0.620000  1
  O  O19  1  0.909694  0.687137  0.386196  1
  O  O20  1  0.885653  0.955592  0.739437  1
  O  O21  1  0.115361  0.049056  0.262058  1
