# generated using pymatgen
data_Y20Ga8Sn3Pb
_symmetry_space_group_name_H-M   'P 1'
_cell_length_a   7.88058800
_cell_length_b   7.88058800
_cell_length_c   13.89573100
_cell_angle_alpha   90.00000000
_cell_angle_beta   90.00000000
_cell_angle_gamma   90.00000000
_symmetry_Int_Tables_number   1
_chemical_formula_structural   Y20Ga8Sn3Pb
_chemical_formula_sum   'Y20 Ga8 Sn3 Pb1'
_cell_volume   862.97585388
_cell_formula_units_Z   1
loop_
 _symmetry_equiv_pos_site_id
 _symmetry_equiv_pos_as_xyz
  1  'x, y, z'
loop_
 _atom_site_type_symbol
 _atom_site_label
 _atom_site_symmetry_multiplicity
 _atom_site_fract_x
 _atom_site_fract_y
 _atom_site_fract_z
 _atom_site_occupancy
  Y  Y0  1  0.837685  0.836927  0.893464  1
  Y  Y1  1  0.163973  0.160729  0.607185  1
  Y  Y2  1  0.837117  0.161819  0.392874  1
  Y  Y3  1  0.162883  0.838181  0.392874  1
  Y  Y4  1  0.338181  0.337117  0.392874  1
  Y  Y5  1  0.836560  0.161947  0.106483  1
  Y  Y6  1  0.336927  0.662315  0.893464  1
  Y  Y7  1  0.163440  0.838053  0.106483  1
  Y  Y8  1  0.500000  0.000000  0.751789  1
  Y  Y9  1  0.000000  0.500000  0.246874  1
  Y  Y10  1  0.339271  0.663973  0.607185  1
  Y  Y11  1  0.661947  0.663440  0.106483  1
  Y  Y12  1  0.660729  0.336027  0.607185  1
  Y  Y13  1  0.000000  0.500000  0.750228  1
  Y  Y14  1  0.836027  0.839271  0.607185  1
  Y  Y15  1  0.663073  0.337685  0.893464  1
  Y  Y16  1  0.162315  0.163073  0.893464  1
  Y  Y17  1  0.500000  0.000000  0.251108  1
  Y  Y18  1  0.661819  0.662883  0.392874  1
  Y  Y19  1  0.338053  0.336560  0.106483  1
  Ga  Ga20  1  0.631275  0.369078  0.249916  1
  Ga  Ga21  1  0.368725  0.630922  0.249916  1
  Ga  Ga22  1  0.130922  0.131275  0.249916  1
  Ga  Ga23  1  0.368653  0.369010  0.750095  1
  Ga  Ga24  1  0.130990  0.868653  0.750095  1
  Ga  Ga25  1  0.869078  0.868725  0.249916  1
  Ga  Ga26  1  0.631347  0.630990  0.750095  1
  Ga  Ga27  1  0.869010  0.131347  0.750095  1
  Sn  Sn28  1  0.000000  0.500000  0.999881  1
  Sn  Sn29  1  0.500000  0.000000  0.000070  1
  Sn  Sn30  1  0.500000  0.000000  0.500125  1
  Pb  Pb31  1  0.000000  0.500000  0.499859  1
