# generated using pymatgen
data_Er19ThSn16
_symmetry_space_group_name_H-M   'P 1'
_cell_length_a   8.00607853
_cell_length_b   8.11720466
_cell_length_c   15.34104919
_cell_angle_alpha   90.04559070
_cell_angle_beta   89.71026998
_cell_angle_gamma   89.82927179
_symmetry_Int_Tables_number   1
_chemical_formula_structural   Er19ThSn16
_chemical_formula_sum   'Er19 Th1 Sn16'
_cell_volume   996.95092584
_cell_formula_units_Z   1
loop_
 _symmetry_equiv_pos_site_id
 _symmetry_equiv_pos_as_xyz
  1  'x, y, z'
loop_
 _atom_site_type_symbol
 _atom_site_label
 _atom_site_symmetry_multiplicity
 _atom_site_fract_x
 _atom_site_fract_y
 _atom_site_fract_z
 _atom_site_occupancy
  Er  Er0  1  0.366509  0.836384  0.876668  1
  Er  Er1  1  0.869139  0.663459  0.621341  1
  Er  Er2  1  0.629845  0.161907  0.377156  1
  Er  Er3  1  0.132979  0.337540  0.123720  1
  Er  Er4  1  0.633511  0.162374  0.123777  1
  Er  Er5  1  0.131291  0.338590  0.377809  1
  Er  Er6  1  0.370330  0.838225  0.622538  1
  Er  Er7  1  0.867284  0.661220  0.877281  1
  Er  Er8  1  0.523874  0.322504  0.903219  1
  Er  Er9  1  0.026626  0.178572  0.598569  1
  Er  Er10  1  0.476665  0.677981  0.402002  1
  Er  Er11  1  0.978692  0.821381  0.098019  1
  Er  Er12  1  0.478592  0.677844  0.097535  1
  Er  Er13  1  0.976066  0.821809  0.401988  1
  Er  Er14  1  0.522731  0.323557  0.595819  1
  Er  Er15  1  0.198583  0.501830  0.748915  1
  Er  Er16  1  0.698344  0.996217  0.748571  1
  Er  Er17  1  0.801109  0.497139  0.251042  1
  Er  Er18  1  0.301383  0.002974  0.250411  1
  Th  Th19  1  0.017365  0.179614  0.903977  1
  Sn  Sn20  1  0.295610  0.034730  0.042728  1
  Sn  Sn21  1  0.790797  0.463146  0.458225  1
  Sn  Sn22  1  0.710550  0.966624  0.541777  1
  Sn  Sn23  1  0.209077  0.536885  0.958469  1
  Sn  Sn24  1  0.701963  0.958304  0.959597  1
  Sn  Sn25  1  0.209036  0.538385  0.541453  1
  Sn  Sn26  1  0.290758  0.036159  0.458425  1
  Sn  Sn27  1  0.793263  0.461696  0.041657  1
  Sn  Sn28  1  0.564677  0.620144  0.749539  1
  Sn  Sn29  1  0.064733  0.878199  0.750461  1
  Sn  Sn30  1  0.434765  0.381414  0.250046  1
  Sn  Sn31  1  0.935024  0.119254  0.250958  1
  Sn  Sn32  1  0.335364  0.150065  0.749785  1
  Sn  Sn33  1  0.828787  0.353941  0.746998  1
  Sn  Sn34  1  0.667554  0.850370  0.249530  1
  Sn  Sn35  1  0.167125  0.649562  0.249995  1
