# generated using pymatgen
data_Nd6Al24Ir5Os2Rh
_symmetry_space_group_name_H-M   'P 1'
_cell_length_a   8.91624202
_cell_length_b   8.91624225
_cell_length_c   9.64129826
_cell_angle_alpha   89.94908365
_cell_angle_beta   90.05091644
_cell_angle_gamma   119.94207666
_symmetry_Int_Tables_number   1
_chemical_formula_structural   Nd6Al24Ir5Os2Rh
_chemical_formula_sum   'Nd6 Al24 Ir5 Os2 Rh1'
_cell_volume   664.17545171
_cell_formula_units_Z   1
loop_
 _symmetry_equiv_pos_site_id
 _symmetry_equiv_pos_as_xyz
  1  'x, y, z'
loop_
 _atom_site_type_symbol
 _atom_site_label
 _atom_site_symmetry_multiplicity
 _atom_site_fract_x
 _atom_site_fract_y
 _atom_site_fract_z
 _atom_site_occupancy
  Nd  Nd0  1  0.190217  0.382809  0.250146  1
  Nd  Nd1  1  0.809783  0.617191  0.749854  1
  Nd  Nd2  1  0.617191  0.809783  0.250146  1
  Nd  Nd3  1  0.382809  0.190217  0.749854  1
  Nd  Nd4  1  0.191555  0.808445  0.251137  1
  Nd  Nd5  1  0.808445  0.191555  0.748863  1
  Al  Al6  1  0.333322  0.666678  0.020691  1
  Al  Al7  1  0.666678  0.333322  0.979309  1
  Al  Al8  1  0.666337  0.333663  0.520964  1
  Al  Al9  1  0.333663  0.666337  0.479036  1
  Al  Al10  1  0.163759  0.326655  0.572969  1
  Al  Al11  1  0.836241  0.673345  0.427031  1
  Al  Al12  1  0.673345  0.836241  0.572969  1
  Al  Al13  1  0.837543  0.673752  0.074378  1
  Al  Al14  1  0.326655  0.163759  0.427031  1
  Al  Al15  1  0.162457  0.326248  0.925622  1
  Al  Al16  1  0.163348  0.836652  0.573615  1
  Al  Al17  1  0.326248  0.162457  0.074378  1
  Al  Al18  1  0.836652  0.163348  0.426385  1
  Al  Al19  1  0.673752  0.837543  0.925622  1
  Al  Al20  1  0.836443  0.163557  0.073004  1
  Al  Al21  1  0.163557  0.836443  0.926996  1
  Al  Al22  1  0.563711  0.127532  0.249998  1
  Al  Al23  1  0.436289  0.872468  0.750002  1
  Al  Al24  1  0.872468  0.436289  0.249998  1
  Al  Al25  1  0.127532  0.563711  0.750002  1
  Al  Al26  1  0.563354  0.436646  0.250516  1
  Al  Al27  1  0.436646  0.563354  0.749484  1
  Al  Al28  1  0.999861  0.000139  0.250087  1
  Al  Al29  1  0.000139  0.999861  0.749913  1
  Ir  Ir30  1  0.500000  0.000000  0.000000  1
  Ir  Ir31  1  0.000000  0.500000  0.000000  1
  Ir  Ir32  1  0.500000  0.000000  0.500000  1
  Ir  Ir33  1  0.000000  0.500000  0.500000  1
  Ir  Ir34  1  0.500000  0.500000  0.500000  1
  Os  Os35  1  0.000000  0.000000  0.000000  1
  Os  Os36  1  0.000000  0.000000  0.500000  1
  Rh  Rh37  1  0.500000  0.500000  0.000000  1
