# generated using pymatgen
data_Yb9TmIr4
_symmetry_space_group_name_H-M   'P 1'
_cell_length_a   6.43082436
_cell_length_b   7.41564120
_cell_length_c   8.42924682
_cell_angle_alpha   96.90466961
_cell_angle_beta   112.42408710
_cell_angle_gamma   89.99999936
_symmetry_Int_Tables_number   1
_chemical_formula_structural   Yb9TmIr4
_chemical_formula_sum   'Yb9 Tm1 Ir4'
_cell_volume   368.42853557
_cell_formula_units_Z   1
loop_
 _symmetry_equiv_pos_site_id
 _symmetry_equiv_pos_as_xyz
  1  'x, y, z'
loop_
 _atom_site_type_symbol
 _atom_site_label
 _atom_site_symmetry_multiplicity
 _atom_site_fract_x
 _atom_site_fract_y
 _atom_site_fract_z
 _atom_site_occupancy
  Yb  Yb0  1  0.964266  0.921177  0.170201  1
  Yb  Yb1  1  0.794064  0.578823  0.829799  1
  Yb  Yb2  1  0.031821  0.079036  0.828608  1
  Yb  Yb3  1  0.203214  0.420964  0.171392  1
  Yb  Yb4  1  0.641526  0.822332  0.436464  1
  Yb  Yb5  1  0.205062  0.677668  0.563536  1
  Yb  Yb6  1  0.356741  0.178449  0.560614  1
  Yb  Yb7  1  0.796127  0.321551  0.439386  1
  Yb  Yb8  1  0.429047  0.750000  0.000000  1
  Tm  Tm9  1  0.565650  0.250000  0.000000  1
  Ir  Ir10  1  0.819433  0.568355  0.212837  1
  Ir  Ir11  1  0.606595  0.931645  0.787163  1
  Ir  Ir12  1  0.186380  0.418768  0.786303  1
  Ir  Ir13  1  0.400076  0.081232  0.213697  1
