# generated using pymatgen
data_Hf9Zr(CuSb9)2
_symmetry_space_group_name_H-M   'P 1'
_cell_length_a   8.95860400
_cell_length_b   8.95860400
_cell_length_c   8.68313500
_cell_angle_alpha   90.00000000
_cell_angle_beta   90.00000000
_cell_angle_gamma   90.00000000
_symmetry_Int_Tables_number   1
_chemical_formula_structural   Hf9Zr(CuSb9)2
_chemical_formula_sum   'Hf9 Zr1 Cu2 Sb18'
_cell_volume   696.87876765
_cell_formula_units_Z   1
loop_
 _symmetry_equiv_pos_site_id
 _symmetry_equiv_pos_as_xyz
  1  'x, y, z'
loop_
 _atom_site_type_symbol
 _atom_site_label
 _atom_site_symmetry_multiplicity
 _atom_site_fract_x
 _atom_site_fract_y
 _atom_site_fract_z
 _atom_site_occupancy
  Hf  Hf0  1  0.500000  0.000000  0.257201  1
  Hf  Hf1  1  0.296996  0.604425  0.266184  1
  Hf  Hf2  1  0.703004  0.395575  0.266184  1
  Hf  Hf3  1  0.796830  0.104554  0.733895  1
  Hf  Hf4  1  0.203170  0.895446  0.733895  1
  Hf  Hf5  1  0.395446  0.296830  0.733895  1
  Hf  Hf6  1  0.604554  0.703170  0.733895  1
  Hf  Hf7  1  0.895575  0.796996  0.266184  1
  Hf  Hf8  1  0.104425  0.203004  0.266184  1
  Zr  Zr9  1  0.000000  0.500000  0.743386  1
  Cu  Cu10  1  0.500000  0.500000  0.000153  1
  Cu  Cu11  1  0.000000  0.000000  0.000153  1
  Sb  Sb12  1  0.778333  0.587808  0.000281  1
  Sb  Sb13  1  0.221667  0.412192  0.000281  1
  Sb  Sb14  1  0.278731  0.087631  0.000200  1
  Sb  Sb15  1  0.721269  0.912369  0.000200  1
  Sb  Sb16  1  0.412369  0.778731  0.000200  1
  Sb  Sb17  1  0.587631  0.221269  0.000200  1
  Sb  Sb18  1  0.912192  0.278333  0.000281  1
  Sb  Sb19  1  0.087808  0.721667  0.000281  1
  Sb  Sb20  1  0.000000  0.500000  0.386888  1
  Sb  Sb21  1  0.500000  0.000000  0.611385  1
  Sb  Sb22  1  0.198235  0.901143  0.379028  1
  Sb  Sb23  1  0.801765  0.098857  0.379028  1
  Sb  Sb24  1  0.697126  0.400686  0.620620  1
  Sb  Sb25  1  0.302874  0.599314  0.620620  1
  Sb  Sb26  1  0.099314  0.197126  0.620620  1
  Sb  Sb27  1  0.900686  0.802874  0.620620  1
  Sb  Sb28  1  0.598857  0.698235  0.379028  1
  Sb  Sb29  1  0.401143  0.301765  0.379028  1
