# generated using pymatgen
data_AcGa4CoNi8
_symmetry_space_group_name_H-M   'P 1'
_cell_length_a   8.19973957
_cell_length_b   8.19973835
_cell_length_c   8.19973952
_cell_angle_alpha   120.91168810
_cell_angle_beta   120.91166903
_cell_angle_gamma   88.42805089
_symmetry_Int_Tables_number   1
_chemical_formula_structural   AcGa4CoNi8
_chemical_formula_sum   'Ac2 Ga8 Co2 Ni16'
_cell_volume   384.30988847
_cell_formula_units_Z   2
loop_
 _symmetry_equiv_pos_site_id
 _symmetry_equiv_pos_as_xyz
  1  'x, y, z'
loop_
 _atom_site_type_symbol
 _atom_site_label
 _atom_site_symmetry_multiplicity
 _atom_site_fract_x
 _atom_site_fract_y
 _atom_site_fract_z
 _atom_site_occupancy
  Ac  Ac0  1  0.750000  0.750000  0.000000  1
  Ac  Ac1  1  0.250000  0.250000  0.000000  1
  Ga  Ga2  1  0.797557  0.297556  0.855918  1
  Ga  Ga3  1  0.441639  0.941640  0.144083  1
  Ga  Ga4  1  0.702445  0.558361  0.500000  1
  Ga  Ga5  1  0.058360  0.202444  0.500000  1
  Ga  Ga6  1  0.202445  0.702445  0.144083  1
  Ga  Ga7  1  0.558360  0.058360  0.855918  1
  Ga  Ga8  1  0.941640  0.797556  0.500000  1
  Ga  Ga9  1  0.297556  0.441640  0.500000  1
  Co  Co10  1  0.499999  0.000000  0.499999  1
  Co  Co11  1  0.000000  0.499999  0.499999  1
  Ni  Ni12  1  0.206846  0.065699  0.272544  1
  Ni  Ni13  1  0.793152  0.934302  0.727457  1
  Ni  Ni14  1  0.293153  0.565698  0.858851  1
  Ni  Ni15  1  0.706845  0.434301  0.141148  1
  Ni  Ni16  1  0.434303  0.293153  0.727457  1
  Ni  Ni17  1  0.565698  0.706845  0.272544  1
  Ni  Ni18  1  0.934302  0.206846  0.141150  1
  Ni  Ni19  1  0.065699  0.793153  0.858852  1
  Ni  Ni20  1  0.294631  0.794630  0.733198  1
  Ni  Ni21  1  0.061432  0.561433  0.266803  1
  Ni  Ni22  1  0.205370  0.938568  0.499999  1
  Ni  Ni23  1  0.438569  0.705371  0.500002  1
  Ni  Ni24  1  0.705371  0.205370  0.266803  1
  Ni  Ni25  1  0.938568  0.438569  0.733198  1
  Ni  Ni26  1  0.561433  0.294631  0.500002  1
  Ni  Ni27  1  0.794630  0.061432  0.499999  1
