# generated using pymatgen
data_Lu2Si6PRh12
_symmetry_space_group_name_H-M   'P 1'
_cell_length_a   9.73017265
_cell_length_b   9.70300539
_cell_length_c   3.83485902
_cell_angle_alpha   89.98187639
_cell_angle_beta   90.03704898
_cell_angle_gamma   120.14862658
_symmetry_Int_Tables_number   1
_chemical_formula_structural   Lu2Si6PRh12
_chemical_formula_sum   'Lu2 Si6 P1 Rh12'
_cell_volume   313.07932336
_cell_formula_units_Z   1
loop_
 _symmetry_equiv_pos_site_id
 _symmetry_equiv_pos_as_xyz
  1  'x, y, z'
loop_
 _atom_site_type_symbol
 _atom_site_label
 _atom_site_symmetry_multiplicity
 _atom_site_fract_x
 _atom_site_fract_y
 _atom_site_fract_z
 _atom_site_occupancy
  Lu  Lu0  1  0.332913  0.666627  0.748563  1
  Lu  Lu1  1  0.665190  0.332384  0.250756  1
  Si  Si2  1  0.000468  0.999661  0.506020  1
  Si  Si3  1  0.401359  0.288766  0.749526  1
  Si  Si4  1  0.709308  0.111413  0.750900  1
  Si  Si5  1  0.885815  0.596732  0.751334  1
  Si  Si6  1  0.599123  0.710851  0.249807  1
  Si  Si7  1  0.290698  0.888194  0.249093  1
  P  P8  1  0.113409  0.402576  0.246803  1
  Rh  Rh9  1  0.445219  0.065047  0.751882  1
  Rh  Rh10  1  0.933043  0.380001  0.751793  1
  Rh  Rh11  1  0.617400  0.554444  0.751073  1
  Rh  Rh12  1  0.556004  0.935510  0.248516  1
  Rh  Rh13  1  0.066248  0.615652  0.248442  1
  Rh  Rh14  1  0.377075  0.446239  0.247760  1
  Rh  Rh15  1  0.144739  0.266737  0.744879  1
  Rh  Rh16  1  0.739366  0.881903  0.746036  1
  Rh  Rh17  1  0.119721  0.854530  0.744642  1
  Rh  Rh18  1  0.857285  0.735636  0.254388  1
  Rh  Rh19  1  0.260881  0.119056  0.252703  1
  Rh  Rh20  1  0.884737  0.148041  0.255086  1
