# generated using pymatgen
data_Ta10SiB4P
_symmetry_space_group_name_H-M   'P 1'
_cell_length_a   7.27060691
_cell_length_b   7.27060594
_cell_length_c   7.27060591
_cell_angle_alpha   129.32034399
_cell_angle_beta   129.32034401
_cell_angle_gamma   74.49568237
_symmetry_Int_Tables_number   1
_chemical_formula_structural   Ta10SiB4P
_chemical_formula_sum   'Ta10 Si1 B4 P1'
_cell_volume   224.15995602
_cell_formula_units_Z   1
loop_
 _symmetry_equiv_pos_site_id
 _symmetry_equiv_pos_as_xyz
  1  'x, y, z'
loop_
 _atom_site_type_symbol
 _atom_site_label
 _atom_site_symmetry_multiplicity
 _atom_site_fract_x
 _atom_site_fract_y
 _atom_site_fract_z
 _atom_site_occupancy
  Ta  Ta0  1  0.000775  0.000775  0.000000  1
  Ta  Ta1  1  0.499225  0.499225  0.000000  1
  Ta  Ta2  1  0.805518  0.307842  0.833598  1
  Ta  Ta3  1  0.192158  0.694482  0.166402  1
  Ta  Ta4  1  0.474245  0.971920  0.166402  1
  Ta  Ta5  1  0.307842  0.474245  0.502324  1
  Ta  Ta6  1  0.025755  0.192158  0.497676  1
  Ta  Ta7  1  0.528080  0.025755  0.833598  1
  Ta  Ta8  1  0.694482  0.528080  0.502324  1
  Ta  Ta9  1  0.971920  0.805518  0.497676  1
  Si  Si10  1  0.250000  0.250000  0.000000  1
  B  B11  1  0.116835  0.616835  0.733669  1
  B  B12  1  0.883165  0.383165  0.266331  1
  B  B13  1  0.616835  0.883165  0.500000  1
  B  B14  1  0.383165  0.116835  0.500000  1
  P  P15  1  0.750000  0.750000  0.000000  1
