# generated using pymatgen
data_CeHo7(CdIr)2
_symmetry_space_group_name_H-M   'P 1'
_cell_length_a   9.58903907
_cell_length_b   9.58903892
_cell_length_c   9.62215900
_cell_angle_alpha   59.88568172
_cell_angle_beta   59.88568223
_cell_angle_gamma   59.82336572
_symmetry_Int_Tables_number   1
_chemical_formula_structural   CeHo7(CdIr)2
_chemical_formula_sum   'Ce2 Ho14 Cd4 Ir4'
_cell_volume   623.69751812
_cell_formula_units_Z   2
loop_
 _symmetry_equiv_pos_site_id
 _symmetry_equiv_pos_as_xyz
  1  'x, y, z'
loop_
 _atom_site_type_symbol
 _atom_site_label
 _atom_site_symmetry_multiplicity
 _atom_site_fract_x
 _atom_site_fract_y
 _atom_site_fract_z
 _atom_site_occupancy
  Ce  Ce0  1  0.596724  0.596724  0.599437  1
  Ce  Ce1  1  0.596724  0.596724  0.207117  1
  Ho  Ho2  1  0.602500  0.195751  0.600875  1
  Ho  Ho3  1  0.195751  0.602500  0.600875  1
  Ho  Ho4  1  0.061834  0.438510  0.439696  1
  Ho  Ho5  1  0.438510  0.061834  0.059960  1
  Ho  Ho6  1  0.438510  0.061834  0.439696  1
  Ho  Ho7  1  0.061834  0.438510  0.059960  1
  Ho  Ho8  1  0.437871  0.437871  0.062129  1
  Ho  Ho9  1  0.061547  0.061547  0.438453  1
  Ho  Ho10  1  0.188634  0.812939  0.813078  1
  Ho  Ho11  1  0.812939  0.188634  0.185349  1
  Ho  Ho12  1  0.812939  0.188634  0.813078  1
  Ho  Ho13  1  0.188634  0.812939  0.185349  1
  Ho  Ho14  1  0.813791  0.813791  0.186209  1
  Ho  Ho15  1  0.189107  0.189107  0.810893  1
  Cd  Cd16  1  0.830766  0.830766  0.831288  1
  Cd  Cd17  1  0.830766  0.830766  0.507179  1
  Cd  Cd18  1  0.830521  0.504888  0.832295  1
  Cd  Cd19  1  0.504888  0.830521  0.832295  1
  Ir  Ir20  1  0.393467  0.393467  0.391364  1
  Ir  Ir21  1  0.393467  0.393467  0.821703  1
  Ir  Ir22  1  0.395669  0.822610  0.390861  1
  Ir  Ir23  1  0.822610  0.395669  0.390861  1
