# generated using pymatgen
data_K6SbClO5
_symmetry_space_group_name_H-M   'P 1'
_cell_length_a   7.83068823
_cell_length_b   7.83068886
_cell_length_c   7.83068900
_cell_angle_alpha   60.00000363
_cell_angle_beta   60.00000096
_cell_angle_gamma   60.00000331
_symmetry_Int_Tables_number   1
_chemical_formula_structural   K6SbClO5
_chemical_formula_sum   'K6 Sb1 Cl1 O5'
_cell_volume   339.53527892
_cell_formula_units_Z   1
loop_
 _symmetry_equiv_pos_site_id
 _symmetry_equiv_pos_as_xyz
  1  'x, y, z'
loop_
 _atom_site_type_symbol
 _atom_site_label
 _atom_site_symmetry_multiplicity
 _atom_site_fract_x
 _atom_site_fract_y
 _atom_site_fract_z
 _atom_site_occupancy
  K  K0  1  0.485976  0.014024  0.014024  1
  K  K1  1  0.014024  0.485976  0.014024  1
  K  K2  1  0.485977  0.485977  0.014023  1
  K  K3  1  0.014024  0.014024  0.485976  1
  K  K4  1  0.485977  0.014023  0.485977  1
  K  K5  1  0.014023  0.485977  0.485977  1
  Sb  Sb6  1  0.500000  0.500000  0.500000  1
  Cl  Cl7  1  0.000000  0.000000  0.000000  1
  O  O8  1  0.599863  0.599863  0.200410  1
  O  O9  1  0.250000  0.250000  0.250000  1
  O  O10  1  0.599863  0.200410  0.599863  1
  O  O11  1  0.200410  0.599863  0.599863  1
  O  O12  1  0.599863  0.599863  0.599863  1
