# generated using pymatgen
data_Mn(PSe3)2
_symmetry_space_group_name_H-M   'P 1'
_cell_length_a   6.27435107
_cell_length_b   6.27435005
_cell_length_c   7.55716019
_cell_angle_alpha   97.89681054
_cell_angle_beta   97.89680340
_cell_angle_gamma   119.98837215
_symmetry_Int_Tables_number   1
_chemical_formula_structural   Mn(PSe3)2
_chemical_formula_sum   'Mn1 P2 Se6'
_cell_volume   247.76308593
_cell_formula_units_Z   1
loop_
 _symmetry_equiv_pos_site_id
 _symmetry_equiv_pos_as_xyz
  1  'x, y, z'
loop_
 _atom_site_type_symbol
 _atom_site_label
 _atom_site_symmetry_multiplicity
 _atom_site_fract_x
 _atom_site_fract_y
 _atom_site_fract_z
 _atom_site_occupancy
  Mn  Mn0  1  0.814566  0.185434  0.000000  1
  P  P1  1  0.531566  0.568927  0.150422  1
  P  P2  1  0.431073  0.468434  0.849578  1
  Se  Se3  1  0.877744  0.550315  0.228814  1
  Se  Se4  1  0.602063  0.959488  0.229045  1
  Se  Se5  1  0.040512  0.397937  0.770955  1
  Se  Se6  1  0.449685  0.122256  0.771186  1
  Se  Se7  1  0.192685  0.274794  0.229168  1
  Se  Se8  1  0.725206  0.807315  0.770832  1
