# generated using pymatgen
data_Ti10Pb6Se
_symmetry_space_group_name_H-M   'P 1'
_cell_length_a   8.26162900
_cell_length_b   8.26162824
_cell_length_c   5.58409200
_cell_angle_alpha   90.00000000
_cell_angle_beta   90.00000000
_cell_angle_gamma   119.99999905
_symmetry_Int_Tables_number   1
_chemical_formula_structural   Ti10Pb6Se
_chemical_formula_sum   'Ti10 Pb6 Se1'
_cell_volume   330.07644837
_cell_formula_units_Z   1
loop_
 _symmetry_equiv_pos_site_id
 _symmetry_equiv_pos_as_xyz
  1  'x, y, z'
loop_
 _atom_site_type_symbol
 _atom_site_label
 _atom_site_symmetry_multiplicity
 _atom_site_fract_x
 _atom_site_fract_y
 _atom_site_fract_z
 _atom_site_occupancy
  Ti  Ti0  1  0.666667  0.333333  0.500000  1
  Ti  Ti1  1  0.333333  0.666667  0.500000  1
  Ti  Ti2  1  0.333333  0.666667  0.000000  1
  Ti  Ti3  1  0.666667  0.333333  0.000000  1
  Ti  Ti4  1  0.747615  0.747615  0.235350  1
  Ti  Ti5  1  0.252385  0.000000  0.235350  1
  Ti  Ti6  1  0.000000  0.252385  0.235350  1
  Ti  Ti7  1  0.252385  0.252385  0.764650  1
  Ti  Ti8  1  0.747615  0.000000  0.764650  1
  Ti  Ti9  1  0.000000  0.747615  0.764650  1
  Pb  Pb10  1  0.391775  0.391775  0.250782  1
  Pb  Pb11  1  0.608225  0.000000  0.250782  1
  Pb  Pb12  1  0.000000  0.608225  0.250782  1
  Pb  Pb13  1  0.608225  0.608225  0.749218  1
  Pb  Pb14  1  0.391775  0.000000  0.749218  1
  Pb  Pb15  1  0.000000  0.391775  0.749218  1
  Se  Se16  1  0.000000  0.000000  0.500000  1
