# generated using pymatgen
data_La5Zr3(P3Ir4)4
_symmetry_space_group_name_H-M   'P 1'
_cell_length_a   13.02729700
_cell_length_b   13.02729799
_cell_length_c   4.05641500
_cell_angle_alpha   90.00000000
_cell_angle_beta   90.00000000
_cell_angle_gamma   120.00000002
_symmetry_Int_Tables_number   1
_chemical_formula_structural   La5Zr3(P3Ir4)4
_chemical_formula_sum   'La5 Zr3 P12 Ir16'
_cell_volume   596.18586276
_cell_formula_units_Z   1
loop_
 _symmetry_equiv_pos_site_id
 _symmetry_equiv_pos_as_xyz
  1  'x, y, z'
loop_
 _atom_site_type_symbol
 _atom_site_label
 _atom_site_symmetry_multiplicity
 _atom_site_fract_x
 _atom_site_fract_y
 _atom_site_fract_z
 _atom_site_occupancy
  La  La0  1  0.333333  0.666667  0.500000  1
  La  La1  1  0.666667  0.333333  0.500000  1
  La  La2  1  0.000000  0.815415  0.000000  1
  La  La3  1  0.184585  0.184585  0.000000  1
  La  La4  1  0.815415  0.000000  0.000000  1
  Zr  Zr5  1  0.000000  0.447695  0.500000  1
  Zr  Zr6  1  0.552305  0.552305  0.500000  1
  Zr  Zr7  1  0.447695  0.000000  0.500000  1
  P  P8  1  0.000000  0.645540  0.500000  1
  P  P9  1  0.354460  0.354460  0.500000  1
  P  P10  1  0.645540  0.000000  0.500000  1
  P  P11  1  0.519746  0.686977  0.000000  1
  P  P12  1  0.313023  0.832769  0.000000  1
  P  P13  1  0.167231  0.480254  0.000000  1
  P  P14  1  0.480254  0.167231  0.000000  1
  P  P15  1  0.686977  0.519746  0.000000  1
  P  P16  1  0.832769  0.313023  0.000000  1
  P  P17  1  0.000000  0.179053  0.500000  1
  P  P18  1  0.820947  0.820947  0.500000  1
  P  P19  1  0.179053  0.000000  0.500000  1
  Ir  Ir20  1  0.510746  0.867423  0.000000  1
  Ir  Ir21  1  0.132577  0.643324  0.000000  1
  Ir  Ir22  1  0.356676  0.489254  0.000000  1
  Ir  Ir23  1  0.489254  0.356676  0.000000  1
  Ir  Ir24  1  0.867423  0.510746  0.000000  1
  Ir  Ir25  1  0.643324  0.132577  0.000000  1
  Ir  Ir26  1  0.000000  0.282454  0.000000  1
  Ir  Ir27  1  0.717546  0.717546  0.000000  1
  Ir  Ir28  1  0.282454  0.000000  0.000000  1
  Ir  Ir29  1  0.626235  0.804139  0.500000  1
  Ir  Ir30  1  0.195861  0.822097  0.500000  1
  Ir  Ir31  1  0.177903  0.373765  0.500000  1
  Ir  Ir32  1  0.373765  0.177903  0.500000  1
  Ir  Ir33  1  0.804139  0.626235  0.500000  1
  Ir  Ir34  1  0.822097  0.195861  0.500000  1
  Ir  Ir35  1  0.000000  0.000000  0.500000  1
