# generated using pymatgen
data_Ho4Al(SiB4)2
_symmetry_space_group_name_H-M   'P 1'
_cell_length_a   7.13612100
_cell_length_b   7.13612100
_cell_length_c   7.64111100
_cell_angle_alpha   90.00000000
_cell_angle_beta   90.00000000
_cell_angle_gamma   90.00000000
_symmetry_Int_Tables_number   1
_chemical_formula_structural   Ho4Al(SiB4)2
_chemical_formula_sum   'Ho8 Al2 Si4 B16'
_cell_volume   389.11763997
_cell_formula_units_Z   2
loop_
 _symmetry_equiv_pos_site_id
 _symmetry_equiv_pos_as_xyz
  1  'x, y, z'
loop_
 _atom_site_type_symbol
 _atom_site_label
 _atom_site_symmetry_multiplicity
 _atom_site_fract_x
 _atom_site_fract_y
 _atom_site_fract_z
 _atom_site_occupancy
  Ho  Ho0  1  0.681171  0.181171  0.233874  1
  Ho  Ho1  1  0.318829  0.818829  0.766126  1
  Ho  Ho2  1  0.318829  0.818829  0.233874  1
  Ho  Ho3  1  0.818829  0.681171  0.233874  1
  Ho  Ho4  1  0.818829  0.681171  0.766126  1
  Ho  Ho5  1  0.681171  0.181171  0.766126  1
  Ho  Ho6  1  0.181171  0.318829  0.766126  1
  Ho  Ho7  1  0.181171  0.318829  0.233874  1
  Al  Al8  1  0.000000  0.000000  0.500000  1
  Al  Al9  1  0.500000  0.500000  0.500000  1
  Si  Si10  1  0.117389  0.617389  0.500000  1
  Si  Si11  1  0.882611  0.382611  0.500000  1
  Si  Si12  1  0.382611  0.117389  0.500000  1
  Si  Si13  1  0.617389  0.882611  0.500000  1
  B  B14  1  0.173967  0.039662  0.000000  1
  B  B15  1  0.826033  0.960338  0.000000  1
  B  B16  1  0.960338  0.173967  0.000000  1
  B  B17  1  0.326033  0.539662  0.000000  1
  B  B18  1  0.039662  0.826033  0.000000  1
  B  B19  1  0.673967  0.460338  0.000000  1
  B  B20  1  0.539662  0.673967  0.000000  1
  B  B21  1  0.460338  0.326033  0.000000  1
  B  B22  1  0.088995  0.588995  0.000000  1
  B  B23  1  0.911005  0.411005  0.000000  1
  B  B24  1  0.411005  0.088995  0.000000  1
  B  B25  1  0.588995  0.911005  0.000000  1
  B  B26  1  0.000000  0.000000  0.168859  1
  B  B27  1  0.000000  0.000000  0.831141  1
  B  B28  1  0.500000  0.500000  0.831141  1
  B  B29  1  0.500000  0.500000  0.168859  1
