# generated using pymatgen
data_Sm4Al4Ir3Pd
_symmetry_space_group_name_H-M   'P 1'
_cell_length_a   4.33581700
_cell_length_b   7.02468722
_cell_length_c   7.99492789
_cell_angle_alpha   89.86061231
_cell_angle_beta   90.00000000
_cell_angle_gamma   90.00000000
_symmetry_Int_Tables_number   1
_chemical_formula_structural   Sm4Al4Ir3Pd
_chemical_formula_sum   'Sm4 Al4 Ir3 Pd1'
_cell_volume   243.50686041
_cell_formula_units_Z   1
loop_
 _symmetry_equiv_pos_site_id
 _symmetry_equiv_pos_as_xyz
  1  'x, y, z'
loop_
 _atom_site_type_symbol
 _atom_site_label
 _atom_site_symmetry_multiplicity
 _atom_site_fract_x
 _atom_site_fract_y
 _atom_site_fract_z
 _atom_site_occupancy
  Sm  Sm0  1  0.250000  0.028629  0.321913  1
  Sm  Sm1  1  0.250000  0.538450  0.182291  1
  Sm  Sm2  1  0.750000  0.967822  0.680809  1
  Sm  Sm3  1  0.750000  0.471438  0.816034  1
  Al  Al4  1  0.250000  0.137341  0.932989  1
  Al  Al5  1  0.250000  0.639129  0.563450  1
  Al  Al6  1  0.750000  0.855403  0.061789  1
  Al  Al7  1  0.750000  0.363427  0.442019  1
  Ir  Ir8  1  0.250000  0.271622  0.617757  1
  Ir  Ir9  1  0.250000  0.772204  0.882896  1
  Ir  Ir10  1  0.750000  0.728986  0.380926  1
  Pd  Pd11  1  0.750000  0.225549  0.117129  1
