# generated using pymatgen
data_Yb5Au6
_symmetry_space_group_name_H-M   'P 1'
_cell_length_a   15.88628246
_cell_length_b   15.88628285
_cell_length_c   3.96407000
_cell_angle_alpha   90.00000000
_cell_angle_beta   90.00000000
_cell_angle_gamma   164.38252284
_symmetry_Int_Tables_number   1
_chemical_formula_structural   Yb5Au6
_chemical_formula_sum   'Yb5 Au6'
_cell_volume   269.32885837
_cell_formula_units_Z   1
loop_
 _symmetry_equiv_pos_site_id
 _symmetry_equiv_pos_as_xyz
  1  'x, y, z'
loop_
 _atom_site_type_symbol
 _atom_site_label
 _atom_site_symmetry_multiplicity
 _atom_site_fract_x
 _atom_site_fract_y
 _atom_site_fract_z
 _atom_site_occupancy
  Yb  Yb0  1  0.000000  0.000000  0.000000  1
  Yb  Yb1  1  0.618318  0.381680  0.000000  1
  Yb  Yb2  1  0.381680  0.618318  0.000000  1
  Yb  Yb3  1  0.801698  0.198300  0.500001  1
  Yb  Yb4  1  0.198300  0.801698  0.500001  1
  Au  Au5  1  0.717879  0.282119  0.000000  1
  Au  Au6  1  0.282119  0.717879  0.000000  1
  Au  Au7  1  0.897379  0.102620  0.500001  1
  Au  Au8  1  0.543548  0.456450  0.500001  1
  Au  Au9  1  0.456450  0.543548  0.500001  1
  Au  Au10  1  0.102620  0.897379  0.500001  1
