# generated using pymatgen
data_Yb4B16OsRu3
_symmetry_space_group_name_H-M   'P 1'
_cell_length_a   3.53330400
_cell_length_b   5.93751715
_cell_length_c   11.49506729
_cell_angle_alpha   90.02593867
_cell_angle_beta   90.00000000
_cell_angle_gamma   90.00000000
_symmetry_Int_Tables_number   1
_chemical_formula_structural   Yb4B16OsRu3
_chemical_formula_sum   'Yb4 B16 Os1 Ru3'
_cell_volume   241.15560249
_cell_formula_units_Z   1
loop_
 _symmetry_equiv_pos_site_id
 _symmetry_equiv_pos_as_xyz
  1  'x, y, z'
loop_
 _atom_site_type_symbol
 _atom_site_label
 _atom_site_symmetry_multiplicity
 _atom_site_fract_x
 _atom_site_fract_y
 _atom_site_fract_z
 _atom_site_occupancy
  Yb  Yb0  1  0.000000  0.129062  0.650698  1
  Yb  Yb1  1  0.000000  0.870259  0.349317  1
  Yb  Yb2  1  0.000000  0.629359  0.849993  1
  Yb  Yb3  1  0.000000  0.370862  0.149714  1
  B  B4  1  0.500000  0.475794  0.692186  1
  B  B5  1  0.500000  0.524421  0.307973  1
  B  B6  1  0.500000  0.976135  0.807881  1
  B  B7  1  0.500000  0.023449  0.192032  1
  B  B8  1  0.500000  0.286175  0.815144  1
  B  B9  1  0.500000  0.713998  0.184838  1
  B  B10  1  0.500000  0.786585  0.684999  1
  B  B11  1  0.500000  0.213460  0.314904  1
  B  B12  1  0.500000  0.364523  0.968732  1
  B  B13  1  0.500000  0.635554  0.031237  1
  B  B14  1  0.500000  0.864262  0.531215  1
  B  B15  1  0.500000  0.135823  0.469195  1
  B  B16  1  0.500000  0.387078  0.547452  1
  B  B17  1  0.500000  0.613323  0.452817  1
  B  B18  1  0.500000  0.887228  0.952777  1
  B  B19  1  0.500000  0.112744  0.047265  1
  Os  Os20  1  0.000000  0.364641  0.412040  1
  Ru  Ru21  1  0.000000  0.135496  0.912304  1
  Ru  Ru22  1  0.000000  0.864853  0.087608  1
  Ru  Ru23  1  0.000000  0.634917  0.587679  1
