# generated using pymatgen
data_FeB2WO6
_symmetry_space_group_name_H-M   'P 1'
_cell_length_a   5.84861061
_cell_length_b   5.85552293
_cell_length_c   5.85630032
_cell_angle_alpha   48.25957904
_cell_angle_beta   48.17163777
_cell_angle_gamma   48.39723002
_symmetry_Int_Tables_number   1
_chemical_formula_structural   FeB2WO6
_chemical_formula_sum   'Fe1 B2 W1 O6'
_cell_volume   102.41372431
_cell_formula_units_Z   1
loop_
 _symmetry_equiv_pos_site_id
 _symmetry_equiv_pos_as_xyz
  1  'x, y, z'
loop_
 _atom_site_type_symbol
 _atom_site_label
 _atom_site_symmetry_multiplicity
 _atom_site_fract_x
 _atom_site_fract_y
 _atom_site_fract_z
 _atom_site_occupancy
  Fe  Fe0  1  0.000000  0.000000  0.000000  1
  B  B1  1  0.247950  0.247661  0.248221  1
  B  B2  1  0.752050  0.752339  0.751779  1
  W  W3  1  0.500000  0.500000  0.500000  1
  O  O4  1  0.740976  0.469306  0.047370  1
  O  O5  1  0.532612  0.953879  0.256646  1
  O  O6  1  0.047764  0.742657  0.466984  1
  O  O7  1  0.952236  0.257343  0.533016  1
  O  O8  1  0.467388  0.046121  0.743354  1
  O  O9  1  0.259024  0.530694  0.952631  1
