# generated using pymatgen
data_SrTb11Nb8(ReN4)12
_symmetry_space_group_name_H-M   'P 1'
_cell_length_a   11.19806540
_cell_length_b   11.18663636
_cell_length_c   11.19806524
_cell_angle_alpha   109.48003927
_cell_angle_beta   109.49495262
_cell_angle_gamma   109.48003730
_symmetry_Int_Tables_number   1
_chemical_formula_structural   SrTb11Nb8(ReN4)12
_chemical_formula_sum   'Sr1 Tb11 Nb8 Re12 N48'
_cell_volume   1079.29880975
_cell_formula_units_Z   1
loop_
 _symmetry_equiv_pos_site_id
 _symmetry_equiv_pos_as_xyz
  1  'x, y, z'
loop_
 _atom_site_type_symbol
 _atom_site_label
 _atom_site_symmetry_multiplicity
 _atom_site_fract_x
 _atom_site_fract_y
 _atom_site_fract_z
 _atom_site_occupancy
  Sr  Sr0  1  0.375000  0.750000  0.125000  1
  Tb  Tb1  1  0.249335  0.373446  0.126199  1
  Tb  Tb2  1  0.373801  0.126554  0.250665  1
  Tb  Tb3  1  0.876374  0.623928  0.249330  1
  Tb  Tb4  1  0.752753  0.126554  0.375890  1
  Tb  Tb5  1  0.125000  0.250000  0.375000  1
  Tb  Tb6  1  0.875000  0.750000  0.625001  1
  Tb  Tb7  1  0.250670  0.876072  0.623626  1
  Tb  Tb8  1  0.124110  0.373446  0.747247  1
  Tb  Tb9  1  0.625403  0.876072  0.752446  1
  Tb  Tb10  1  0.625000  0.250000  0.875000  1
  Tb  Tb11  1  0.747554  0.623929  0.874598  1
  Nb  Nb12  1  0.015707  0.014738  0.013907  1
  Nb  Nb13  1  0.497280  0.001211  0.015207  1
  Nb  Nb14  1  0.013997  0.498789  0.996069  1
  Nb  Nb15  1  0.484793  0.498789  0.002720  1
  Nb  Nb16  1  0.999031  0.014738  0.500832  1
  Nb  Nb17  1  0.503931  0.001211  0.486003  1
  Nb  Nb18  1  0.999168  0.485262  0.500969  1
  Nb  Nb19  1  0.486093  0.485262  0.484293  1
  Re  Re20  1  0.870514  0.249999  0.120514  1
  Re  Re21  1  0.751971  0.872938  0.121744  1
  Re  Re22  1  0.627241  0.379695  0.248551  1
  Re  Re23  1  0.120967  0.872938  0.251192  1
  Re  Re24  1  0.248807  0.627063  0.379033  1
  Re  Re25  1  0.631922  0.750000  0.381922  1
  Re  Re26  1  0.379486  0.250000  0.629487  1
  Re  Re27  1  0.752455  0.379695  0.631144  1
  Re  Re28  1  0.868856  0.120305  0.747545  1
  Re  Re29  1  0.378256  0.627062  0.748029  1
  Re  Re30  1  0.251448  0.120305  0.872760  1
  Re  Re31  1  0.118078  0.750000  0.868078  1
  N  N32  1  0.306750  0.902918  0.011063  1
  N  N33  1  0.206081  0.119425  0.019919  1
  N  N34  1  0.878138  0.399799  0.084246  1
  N  N35  1  0.705665  0.685837  0.085690  1
  N  N36  1  0.623518  0.414163  0.098093  1
  N  N37  1  0.980171  0.685837  0.100147  1
  N  N38  1  0.015835  0.203753  0.116690  1
  N  N39  1  0.607405  0.921265  0.116026  1
  N  N40  1  0.194760  0.578734  0.186140  1
  N  N41  1  0.488937  0.597082  0.193250  1
  N  N42  1  0.117358  0.018611  0.205179  1
  N  N43  1  0.586196  0.189349  0.204729  1
  N  N44  1  0.313860  0.921266  0.305240  1
  N  N45  1  0.480082  0.380576  0.293920  1
  N  N46  1  0.912937  0.296248  0.312082  1
  N  N47  1  0.901253  0.018610  0.313432  1
  N  N48  1  0.294822  0.481390  0.382643  1
  N  N49  1  0.596168  0.902918  0.391855  1
  N  N50  1  0.814053  0.519997  0.399070  1
  N  N51  1  0.084582  0.878680  0.400602  1
  N  N52  1  0.099398  0.621320  0.415418  1
  N  N53  1  0.818095  0.793704  0.416905  1
  N  N54  1  0.603153  0.189349  0.484620  1
  N  N55  1  0.383311  0.296248  0.484166  1
  N  N56  1  0.623198  0.706295  0.524390  1
  N  N57  1  0.399854  0.814163  0.519829  1
  N  N58  1  0.187918  0.203752  0.587063  1
  N  N59  1  0.900494  0.380576  0.586656  1
  N  N60  1  0.913343  0.119424  0.599505  1
  N  N61  1  0.186568  0.481390  0.598747  1
  N  N62  1  0.415754  0.100201  0.621862  1
  N  N63  1  0.705943  0.519996  0.620927  1
  N  N64  1  0.083095  0.706295  0.681904  1
  N  N65  1  0.100931  0.980003  0.685947  1
  N  N66  1  0.521922  0.621319  0.705902  1
  N  N67  1  0.683930  0.085837  0.709355  1
  N  N68  1  0.879072  0.980004  0.794057  1
  N  N69  1  0.414310  0.814162  0.794334  1
  N  N70  1  0.521661  0.399800  0.815553  1
  N  N71  1  0.790644  0.414163  0.816069  1
  N  N72  1  0.401907  0.085837  0.876482  1
  N  N73  1  0.975610  0.793705  0.876801  1
  N  N74  1  0.015380  0.310651  0.896847  1
  N  N75  1  0.383974  0.578734  0.892594  1
  N  N76  1  0.295271  0.310651  0.913804  1
  N  N77  1  0.108145  0.597081  0.903831  1
  N  N78  1  0.684447  0.100201  0.978339  1
  N  N79  1  0.794098  0.878680  0.978078  1
