# generated using pymatgen
data_Dy3PaNi4
_symmetry_space_group_name_H-M   'P 1'
_cell_length_a   4.33275000
_cell_length_b   5.38657694
_cell_length_c   6.75974937
_cell_angle_alpha   93.18194044
_cell_angle_beta   90.00000000
_cell_angle_gamma   90.00000000
_symmetry_Int_Tables_number   1
_chemical_formula_structural   Dy3PaNi4
_chemical_formula_sum   'Dy3 Pa1 Ni4'
_cell_volume   157.52048066
_cell_formula_units_Z   1
loop_
 _symmetry_equiv_pos_site_id
 _symmetry_equiv_pos_as_xyz
  1  'x, y, z'
loop_
 _atom_site_type_symbol
 _atom_site_label
 _atom_site_symmetry_multiplicity
 _atom_site_fract_x
 _atom_site_fract_y
 _atom_site_fract_z
 _atom_site_occupancy
  Dy  Dy0  1  0.000000  0.859560  0.812354  1
  Dy  Dy1  1  0.500000  0.357372  0.683228  1
  Dy  Dy2  1  0.500000  0.145006  0.181670  1
  Pa  Pa3  1  0.000000  0.645808  0.315237  1
  Ni  Ni4  1  0.000000  0.132058  0.448343  1
  Ni  Ni5  1  0.000000  0.381322  0.980246  1
  Ni  Ni6  1  0.500000  0.837321  0.517695  1
  Ni  Ni7  1  0.500000  0.641552  0.061227  1
