# generated using pymatgen
data_Pr2Ho3Er(RuO7)2
_symmetry_space_group_name_H-M   'P 1'
_cell_length_a   6.43297448
_cell_length_b   6.43106025
_cell_length_c   7.50404400
_cell_angle_alpha   90.00000000
_cell_angle_beta   90.00000000
_cell_angle_gamma   109.97167880
_symmetry_Int_Tables_number   1
_chemical_formula_structural   Pr2Ho3Er(RuO7)2
_chemical_formula_sum   'Pr2 Ho3 Er1 Ru2 O14'
_cell_volume   291.77875651
_cell_formula_units_Z   1
loop_
 _symmetry_equiv_pos_site_id
 _symmetry_equiv_pos_as_xyz
  1  'x, y, z'
loop_
 _atom_site_type_symbol
 _atom_site_label
 _atom_site_symmetry_multiplicity
 _atom_site_fract_x
 _atom_site_fract_y
 _atom_site_fract_z
 _atom_site_occupancy
  Pr  Pr0  1  0.000026  0.000005  0.499939  1
  Pr  Pr1  1  0.000026  0.000005  0.000061  1
  Ho  Ho2  1  0.482974  0.931909  0.750000  1
  Ho  Ho3  1  0.517012  0.068061  0.250000  1
  Ho  Ho4  1  0.931931  0.483016  0.750000  1
  Er  Er5  1  0.067387  0.516726  0.250000  1
  Ru  Ru6  1  0.500027  0.500036  0.499914  1
  Ru  Ru7  1  0.500027  0.500036  0.000086  1
  O  O8  1  0.590646  0.590607  0.750000  1
  O  O9  1  0.409056  0.409464  0.250000  1
  O  O10  1  0.836473  0.120023  0.750000  1
  O  O11  1  0.163376  0.878879  0.250000  1
  O  O12  1  0.120116  0.836526  0.750000  1
  O  O13  1  0.880420  0.164448  0.250000  1
  O  O14  1  0.440561  0.181122  0.963352  1
  O  O15  1  0.559496  0.818910  0.463348  1
  O  O16  1  0.181095  0.440767  0.963806  1
  O  O17  1  0.819099  0.559329  0.463039  1
  O  O18  1  0.440561  0.181122  0.536648  1
  O  O19  1  0.559496  0.818910  0.036652  1
  O  O20  1  0.819099  0.559329  0.036961  1
  O  O21  1  0.181095  0.440767  0.536194  1
