# generated using pymatgen
data_Eu4CuSi6Pt
_symmetry_space_group_name_H-M   'P 1'
_cell_length_a   8.21447300
_cell_length_b   8.21447436
_cell_length_c   4.37330400
_cell_angle_alpha   90.00000000
_cell_angle_beta   90.00000000
_cell_angle_gamma   120.00000661
_symmetry_Int_Tables_number   1
_chemical_formula_structural   Eu4CuSi6Pt
_chemical_formula_sum   'Eu4 Cu1 Si6 Pt1'
_cell_volume   255.56404590
_cell_formula_units_Z   1
loop_
 _symmetry_equiv_pos_site_id
 _symmetry_equiv_pos_as_xyz
  1  'x, y, z'
loop_
 _atom_site_type_symbol
 _atom_site_label
 _atom_site_symmetry_multiplicity
 _atom_site_fract_x
 _atom_site_fract_y
 _atom_site_fract_z
 _atom_site_occupancy
  Eu  Eu0  1  0.501377  0.498623  0.000000  1
  Eu  Eu1  1  0.997246  0.498623  0.000000  1
  Eu  Eu2  1  0.501377  0.002754  0.000000  1
  Eu  Eu3  1  0.000000  0.000000  0.000000  1
  Cu  Cu4  1  0.333333  0.666667  0.500000  1
  Si  Si5  1  0.834564  0.669130  0.500000  1
  Si  Si6  1  0.166949  0.833051  0.500000  1
  Si  Si7  1  0.666104  0.833051  0.500000  1
  Si  Si8  1  0.166949  0.333896  0.500000  1
  Si  Si9  1  0.834564  0.165436  0.500000  1
  Si  Si10  1  0.330870  0.165436  0.500000  1
  Pt  Pt11  1  0.666667  0.333333  0.500000  1
