# generated using pymatgen
data_YbSm5YFeI12
_symmetry_space_group_name_H-M   'P 1'
_cell_length_a   9.84361234
_cell_length_b   9.84284437
_cell_length_c   9.94220185
_cell_angle_alpha   106.71852089
_cell_angle_beta   107.16149903
_cell_angle_gamma   106.84926507
_symmetry_Int_Tables_number   1
_chemical_formula_structural   YbSm5YFeI12
_chemical_formula_sum   'Yb1 Sm5 Y1 Fe1 I12'
_cell_volume   804.19510182
_cell_formula_units_Z   1
loop_
 _symmetry_equiv_pos_site_id
 _symmetry_equiv_pos_as_xyz
  1  'x, y, z'
loop_
 _atom_site_type_symbol
 _atom_site_label
 _atom_site_symmetry_multiplicity
 _atom_site_fract_x
 _atom_site_fract_y
 _atom_site_fract_z
 _atom_site_occupancy
  Yb  Yb0  1  0.499826  0.499926  0.500101  1
  Sm  Sm1  1  0.709186  0.975529  0.906178  1
  Sm  Sm2  1  0.974586  0.901012  0.695547  1
  Sm  Sm3  1  0.094210  0.290065  0.024750  1
  Sm  Sm4  1  0.291110  0.024984  0.095424  1
  Sm  Sm5  1  0.905848  0.710346  0.975824  1
  Y  Y6  1  0.025591  0.097924  0.300768  1
  Fe  Fe7  1  0.000679  0.000604  0.000693  1
  I  I8  1  0.072954  0.226537  0.679445  1
  I  I9  1  0.377600  0.152875  0.457915  1
  I  I10  1  0.617955  0.846477  0.541747  1
  I  I11  1  0.226480  0.681885  0.073393  1
  I  I12  1  0.773560  0.318141  0.926692  1
  I  I13  1  0.684832  0.073259  0.226767  1
  I  I14  1  0.540663  0.618464  0.844981  1
  I  I15  1  0.846136  0.540270  0.620201  1
  I  I16  1  0.928031  0.777647  0.318555  1
  I  I17  1  0.320009  0.927739  0.776225  1
  I  I18  1  0.459410  0.381509  0.155145  1
  I  I19  1  0.151335  0.454805  0.379650  1
