# generated using pymatgen
data_Ho5Lu8Th3(CdIr)4
_symmetry_space_group_name_H-M   'P 1'
_cell_length_a   9.61239006
_cell_length_b   9.60894059
_cell_length_c   9.60894087
_cell_angle_alpha   59.85223494
_cell_angle_beta   59.87896407
_cell_angle_gamma   59.87896089
_symmetry_Int_Tables_number   1
_chemical_formula_structural   Ho5Lu8Th3(CdIr)4
_chemical_formula_sum   'Ho5 Lu8 Th3 Cd4 Ir4'
_cell_volume   625.72699870
_cell_formula_units_Z   1
loop_
 _symmetry_equiv_pos_site_id
 _symmetry_equiv_pos_as_xyz
  1  'x, y, z'
loop_
 _atom_site_type_symbol
 _atom_site_label
 _atom_site_symmetry_multiplicity
 _atom_site_fract_x
 _atom_site_fract_y
 _atom_site_fract_z
 _atom_site_occupancy
  Ho  Ho0  1  0.814504  0.185996  0.185996  1
  Ho  Ho1  1  0.816644  0.184792  0.815152  1
  Ho  Ho2  1  0.187567  0.812545  0.187106  1
  Ho  Ho3  1  0.816644  0.815152  0.184792  1
  Ho  Ho4  1  0.187567  0.187106  0.812545  1
  Lu  Lu5  1  0.198680  0.601152  0.601152  1
  Lu  Lu6  1  0.061559  0.438855  0.438855  1
  Lu  Lu7  1  0.434208  0.065091  0.065091  1
  Lu  Lu8  1  0.435015  0.063333  0.437308  1
  Lu  Lu9  1  0.063553  0.437283  0.061488  1
  Lu  Lu10  1  0.435015  0.437308  0.063333  1
  Lu  Lu11  1  0.063553  0.061488  0.437283  1
  Lu  Lu12  1  0.187716  0.813111  0.813111  1
  Th  Th13  1  0.597553  0.600235  0.600235  1
  Th  Th14  1  0.598993  0.601939  0.199138  1
  Th  Th15  1  0.598993  0.199138  0.601939  1
  Cd  Cd16  1  0.836157  0.829605  0.829605  1
  Cd  Cd17  1  0.834437  0.829990  0.503589  1
  Cd  Cd18  1  0.834437  0.503589  0.829990  1
  Cd  Cd19  1  0.499935  0.832059  0.832059  1
  Ir  Ir20  1  0.391284  0.392379  0.392379  1
  Ir  Ir21  1  0.391245  0.392138  0.823709  1
  Ir  Ir22  1  0.391245  0.823709  0.392138  1
  Ir  Ir23  1  0.823499  0.392010  0.392010  1
