# generated using pymatgen
data_Ce8Ti12Si15As
_symmetry_space_group_name_H-M   'P 1'
_cell_length_a   7.07530315
_cell_length_b   7.06912793
_cell_length_c   13.00430200
_cell_angle_alpha   89.98152854
_cell_angle_beta   89.81685540
_cell_angle_gamma   89.93480893
_symmetry_Int_Tables_number   1
_chemical_formula_structural   Ce8Ti12Si15As
_chemical_formula_sum   'Ce8 Ti12 Si15 As1'
_cell_volume   650.42229339
_cell_formula_units_Z   1
loop_
 _symmetry_equiv_pos_site_id
 _symmetry_equiv_pos_as_xyz
  1  'x, y, z'
loop_
 _atom_site_type_symbol
 _atom_site_label
 _atom_site_symmetry_multiplicity
 _atom_site_fract_x
 _atom_site_fract_y
 _atom_site_fract_z
 _atom_site_occupancy
  Ce  Ce0  1  0.335739  0.005825  0.466989  1
  Ce  Ce1  1  0.492587  0.835817  0.718127  1
  Ce  Ce2  1  0.507407  0.165325  0.217599  1
  Ce  Ce3  1  0.834119  0.492065  0.282060  1
  Ce  Ce4  1  0.165976  0.506246  0.782492  1
  Ce  Ce5  1  0.667125  0.990778  0.968677  1
  Ce  Ce6  1  0.003581  0.338063  0.530675  1
  Ce  Ce7  1  0.992706  0.665470  0.032304  1
  Ti  Ti8  1  0.327145  0.327684  0.999952  1
  Ti  Ti9  1  0.172271  0.828099  0.249843  1
  Ti  Ti10  1  0.825158  0.172357  0.750131  1
  Ti  Ti11  1  0.671819  0.671742  0.500268  1
  Ti  Ti12  1  0.158505  0.006955  0.875809  1
  Ti  Ti13  1  0.493940  0.656586  0.126073  1
  Ti  Ti14  1  0.506176  0.343284  0.627293  1
  Ti  Ti15  1  0.658420  0.496904  0.874550  1
  Ti  Ti16  1  0.342741  0.505762  0.373621  1
  Ti  Ti17  1  0.843128  0.994382  0.376164  1
  Ti  Ti18  1  0.006216  0.156582  0.123931  1
  Ti  Ti19  1  0.991406  0.839830  0.622564  1
  Si  Si20  1  0.372323  0.700797  0.937515  1
  Si  Si21  1  0.626012  0.300124  0.437976  1
  Si  Si22  1  0.700215  0.372420  0.062465  1
  Si  Si23  1  0.299958  0.627052  0.562454  1
  Si  Si24  1  0.800274  0.872506  0.188081  1
  Si  Si25  1  0.127857  0.199755  0.312514  1
  Si  Si26  1  0.873369  0.799846  0.812086  1
  Si  Si27  1  0.290748  0.956930  0.065814  1
  Si  Si28  1  0.543384  0.790059  0.315571  1
  Si  Si29  1  0.465757  0.211993  0.820368  1
  Si  Si30  1  0.790160  0.542984  0.684449  1
  Si  Si31  1  0.209281  0.456843  0.184073  1
  Si  Si32  1  0.708917  0.043138  0.565639  1
  Si  Si33  1  0.957365  0.290439  0.934296  1
  Si  Si34  1  0.043126  0.710141  0.433383  1
  As  As35  1  0.195090  0.125219  0.684189  1
