# generated using pymatgen
data_Pr5Sn2BiN
_symmetry_space_group_name_H-M   'P 1'
_cell_length_a   9.39950033
_cell_length_b   9.40817564
_cell_length_c   6.68696100
_cell_angle_alpha   90.00000000
_cell_angle_beta   90.00000000
_cell_angle_gamma   120.03053424
_symmetry_Int_Tables_number   1
_chemical_formula_structural   Pr5Sn2BiN
_chemical_formula_sum   'Pr10 Sn4 Bi2 N2'
_cell_volume   511.95984481
_cell_formula_units_Z   2
loop_
 _symmetry_equiv_pos_site_id
 _symmetry_equiv_pos_as_xyz
  1  'x, y, z'
loop_
 _atom_site_type_symbol
 _atom_site_label
 _atom_site_symmetry_multiplicity
 _atom_site_fract_x
 _atom_site_fract_y
 _atom_site_fract_z
 _atom_site_occupancy
  Pr  Pr0  1  0.670774  0.336372  0.004926  1
  Pr  Pr1  1  0.329226  0.665599  0.004926  1
  Pr  Pr2  1  0.329226  0.665599  0.495074  1
  Pr  Pr3  1  0.670774  0.336372  0.495074  1
  Pr  Pr4  1  0.787239  0.783749  0.750000  1
  Pr  Pr5  1  0.212761  0.996510  0.750000  1
  Pr  Pr6  1  0.000000  0.215753  0.750000  1
  Pr  Pr7  1  0.214011  0.213565  0.250000  1
  Pr  Pr8  1  0.785989  0.999554  0.250000  1
  Pr  Pr9  1  0.000000  0.784579  0.250000  1
  Sn  Sn10  1  0.000000  0.597480  0.750000  1
  Sn  Sn11  1  0.598459  0.598897  0.250000  1
  Sn  Sn12  1  0.401541  0.000438  0.250000  1
  Sn  Sn13  1  0.000000  0.401632  0.250000  1
  Bi  Bi14  1  0.401908  0.401909  0.750000  1
  Bi  Bi15  1  0.598092  0.000001  0.750000  1
  N  N16  1  0.000000  0.000996  0.997885  1
  N  N17  1  0.000000  0.000996  0.502115  1
