# generated using pymatgen
data_Y4Tm13Th3Sn16
_symmetry_space_group_name_H-M   'P 1'
_cell_length_a   8.03256456
_cell_length_b   8.14362854
_cell_length_c   15.34340655
_cell_angle_alpha   90.04265938
_cell_angle_beta   90.30382614
_cell_angle_gamma   89.86663537
_symmetry_Int_Tables_number   1
_chemical_formula_structural   Y4Tm13Th3Sn16
_chemical_formula_sum   'Y4 Tm13 Th3 Sn16'
_cell_volume   1003.65990294
_cell_formula_units_Z   1
loop_
 _symmetry_equiv_pos_site_id
 _symmetry_equiv_pos_as_xyz
  1  'x, y, z'
loop_
 _atom_site_type_symbol
 _atom_site_label
 _atom_site_symmetry_multiplicity
 _atom_site_fract_x
 _atom_site_fract_y
 _atom_site_fract_z
 _atom_site_occupancy
  Y  Y0  1  0.022106  0.177430  0.598410  1
  Y  Y1  1  0.479712  0.677459  0.402950  1
  Y  Y2  1  0.977895  0.821720  0.098417  1
  Y  Y3  1  0.479778  0.676326  0.096392  1
  Tm  Tm4  1  0.361295  0.835415  0.876966  1
  Tm  Tm5  1  0.860260  0.664292  0.624104  1
  Tm  Tm6  1  0.638705  0.163751  0.375516  1
  Tm  Tm7  1  0.136324  0.336843  0.123374  1
  Tm  Tm8  1  0.637222  0.162242  0.123574  1
  Tm  Tm9  1  0.140170  0.338029  0.375951  1
  Tm  Tm10  1  0.360719  0.838473  0.624828  1
  Tm  Tm11  1  0.863850  0.661992  0.876471  1
  Tm  Tm12  1  0.527237  0.323931  0.900993  1
  Tm  Tm13  1  0.192737  0.501997  0.750697  1
  Tm  Tm14  1  0.691532  0.998067  0.750167  1
  Tm  Tm15  1  0.806863  0.498819  0.249417  1
  Tm  Tm16  1  0.307277  0.002946  0.248800  1
  Th  Th17  1  0.983307  0.821254  0.403510  1
  Th  Th18  1  0.515984  0.322348  0.595331  1
  Th  Th19  1  0.017291  0.177589  0.905202  1
  Sn  Sn20  1  0.297372  0.035361  0.042901  1
  Sn  Sn21  1  0.799258  0.462419  0.457409  1
  Sn  Sn22  1  0.701972  0.963543  0.542446  1
  Sn  Sn23  1  0.209137  0.532836  0.956952  1
  Sn  Sn24  1  0.698850  0.959569  0.958458  1
  Sn  Sn25  1  0.197949  0.543482  0.540808  1
  Sn  Sn26  1  0.301178  0.041345  0.459565  1
  Sn  Sn27  1  0.795756  0.460322  0.040742  1
  Sn  Sn28  1  0.557855  0.622883  0.749635  1
  Sn  Sn29  1  0.057734  0.877747  0.750935  1
  Sn  Sn30  1  0.441026  0.378092  0.249337  1
  Sn  Sn31  1  0.941321  0.123296  0.250827  1
  Sn  Sn32  1  0.328426  0.147907  0.752742  1
  Sn  Sn33  1  0.827392  0.353314  0.748318  1
  Sn  Sn34  1  0.669785  0.850875  0.249757  1
  Sn  Sn35  1  0.174725  0.646089  0.248096  1
