# generated using pymatgen
data_Tb4HgPt3Pb2
_symmetry_space_group_name_H-M   'P 1'
_cell_length_a   8.19124894
_cell_length_b   8.19124894
_cell_length_c   3.60635400
_cell_angle_alpha   90.00000000
_cell_angle_beta   90.00000000
_cell_angle_gamma   89.11200697
_symmetry_Int_Tables_number   1
_chemical_formula_structural   Tb4HgPt3Pb2
_chemical_formula_sum   'Tb4 Hg1 Pt3 Pb2'
_cell_volume   241.94488419
_cell_formula_units_Z   1
loop_
 _symmetry_equiv_pos_site_id
 _symmetry_equiv_pos_as_xyz
  1  'x, y, z'
loop_
 _atom_site_type_symbol
 _atom_site_label
 _atom_site_symmetry_multiplicity
 _atom_site_fract_x
 _atom_site_fract_y
 _atom_site_fract_z
 _atom_site_occupancy
  Tb  Tb0  1  0.308262  0.159853  0.499999  1
  Tb  Tb1  1  0.853404  0.353404  0.499999  1
  Tb  Tb2  1  0.168553  0.668553  0.499999  1
  Tb  Tb3  1  0.659853  0.808262  0.499999  1
  Hg  Hg4  1  0.629000  0.129000  0.000000  1
  Pt  Pt5  1  0.132363  0.377160  0.000000  1
  Pt  Pt6  1  0.877160  0.632363  0.000000  1
  Pt  Pt7  1  0.377105  0.877105  0.000000  1
  Pb  Pb8  1  0.000313  0.993985  0.000000  1
  Pb  Pb9  1  0.493985  0.500313  0.000000  1
