# generated using pymatgen
data_SrCuPtO4
_symmetry_space_group_name_H-M   'P 1'
_cell_length_a   6.50640337
_cell_length_b   6.50640356
_cell_length_c   6.74231968
_cell_angle_alpha   123.00636834
_cell_angle_beta   127.99790279
_cell_angle_gamma   78.32038566
_symmetry_Int_Tables_number   1
_chemical_formula_structural   SrCuPtO4
_chemical_formula_sum   'Sr2 Cu2 Pt2 O8'
_cell_volume   184.76902484
_cell_formula_units_Z   2
loop_
 _symmetry_equiv_pos_site_id
 _symmetry_equiv_pos_as_xyz
  1  'x, y, z'
loop_
 _atom_site_type_symbol
 _atom_site_label
 _atom_site_symmetry_multiplicity
 _atom_site_fract_x
 _atom_site_fract_y
 _atom_site_fract_z
 _atom_site_occupancy
  Sr  Sr0  1  0.997755  0.997755  0.000000  1
  Sr  Sr1  1  0.752245  0.252245  0.500000  1
  Cu  Cu2  1  0.375000  0.625000  0.250000  1
  Cu  Cu3  1  0.375000  0.125000  0.750000  1
  Pt  Pt4  1  0.375000  0.625000  0.750000  1
  Pt  Pt5  1  0.875000  0.625000  0.250000  1
  O  O6  1  0.711701  0.304085  0.118302  1
  O  O7  1  0.185783  0.593400  0.881698  1
  O  O8  1  0.038299  0.945915  0.381698  1
  O  O9  1  0.564217  0.656600  0.618302  1
  O  O10  1  0.057041  0.434428  0.071723  1
  O  O11  1  0.362705  0.985317  0.928277  1
  O  O12  1  0.387295  0.264683  0.571723  1
  O  O13  1  0.692959  0.815572  0.428277  1
