# generated using pymatgen
data_Sc2Ga(SnRu2)3
_symmetry_space_group_name_H-M   'P 1'
_cell_length_a   4.50201300
_cell_length_b   6.39071701
_cell_length_c   13.51358902
_cell_angle_alpha   89.99397778
_cell_angle_beta   89.99939349
_cell_angle_gamma   89.99849601
_symmetry_Int_Tables_number   1
_chemical_formula_structural   Sc2Ga(SnRu2)3
_chemical_formula_sum   'Sc4 Ga2 Sn6 Ru12'
_cell_volume   388.80069788
_cell_formula_units_Z   2
loop_
 _symmetry_equiv_pos_site_id
 _symmetry_equiv_pos_as_xyz
  1  'x, y, z'
loop_
 _atom_site_type_symbol
 _atom_site_label
 _atom_site_symmetry_multiplicity
 _atom_site_fract_x
 _atom_site_fract_y
 _atom_site_fract_z
 _atom_site_occupancy
  Sc  Sc0  1  0.999989  0.999966  0.330324  1
  Sc  Sc1  1  0.500006  0.499968  0.500962  1
  Sc  Sc2  1  0.000051  0.999993  0.665698  1
  Sc  Sc3  1  0.500000  0.500026  0.836369  1
  Ga  Ga4  1  0.999969  0.999987  0.004731  1
  Ga  Ga5  1  0.499945  0.500046  0.161925  1
  Sn  Sn6  1  0.999966  0.500025  0.996093  1
  Sn  Sn7  1  0.500010  0.000023  0.170563  1
  Sn  Sn8  1  0.999913  0.500004  0.335291  1
  Sn  Sn9  1  0.499984  0.999929  0.496879  1
  Sn  Sn10  1  0.000145  0.500082  0.669790  1
  Sn  Sn11  1  0.500108  0.999970  0.831377  1
  Ru  Ru12  1  0.499968  0.237706  0.005489  1
  Ru  Ru13  1  0.499968  0.762377  0.005507  1
  Ru  Ru14  1  0.999965  0.262338  0.161181  1
  Ru  Ru15  1  0.999976  0.737664  0.161154  1
  Ru  Ru16  1  0.499988  0.261582  0.326206  1
  Ru  Ru17  1  0.499982  0.738388  0.326197  1
  Ru  Ru18  1  0.999993  0.248550  0.498915  1
  Ru  Ru19  1  0.999998  0.751384  0.498909  1
  Ru  Ru20  1  0.500070  0.251409  0.667747  1
  Ru  Ru21  1  0.500063  0.748572  0.667753  1
  Ru  Ru22  1  0.999967  0.238424  0.840465  1
  Ru  Ru23  1  0.999972  0.761594  0.840473  1
