# generated using pymatgen
data_DyHo2ZnSi2Ag3
_symmetry_space_group_name_H-M   'P 1'
_cell_length_a   7.11872803
_cell_length_b   7.11659414
_cell_length_c   4.14683800
_cell_angle_alpha   90.00000000
_cell_angle_beta   90.00000000
_cell_angle_gamma   119.99007938
_symmetry_Int_Tables_number   1
_chemical_formula_structural   DyHo2ZnSi2Ag3
_chemical_formula_sum   'Dy1 Ho2 Zn1 Si2 Ag3'
_cell_volume   181.95571772
_cell_formula_units_Z   1
loop_
 _symmetry_equiv_pos_site_id
 _symmetry_equiv_pos_as_xyz
  1  'x, y, z'
loop_
 _atom_site_type_symbol
 _atom_site_label
 _atom_site_symmetry_multiplicity
 _atom_site_fract_x
 _atom_site_fract_y
 _atom_site_fract_z
 _atom_site_occupancy
  Dy  Dy0  1  0.000000  0.580393  0.500000  1
  Ho  Ho1  1  0.419737  0.419649  0.500000  1
  Ho  Ho2  1  0.580263  0.999913  0.500000  1
  Zn  Zn3  1  0.000000  0.000383  0.500000  1
  Si  Si4  1  0.665918  0.332839  0.000000  1
  Si  Si5  1  0.334082  0.666922  0.000000  1
  Ag  Ag6  1  0.747324  0.747597  0.000000  1
  Ag  Ag7  1  0.252676  0.000272  0.000000  1
  Ag  Ag8  1  0.000000  0.252031  0.000000  1
