# generated using pymatgen
data_Ta2SiPRu2
_symmetry_space_group_name_H-M   'P 1'
_cell_length_a   3.80128700
_cell_length_b   6.33455500
_cell_length_c   7.25314500
_cell_angle_alpha   90.00000000
_cell_angle_beta   90.00000000
_cell_angle_gamma   90.00000000
_symmetry_Int_Tables_number   1
_chemical_formula_structural   Ta2SiPRu2
_chemical_formula_sum   'Ta4 Si2 P2 Ru4'
_cell_volume   174.65182631
_cell_formula_units_Z   2
loop_
 _symmetry_equiv_pos_site_id
 _symmetry_equiv_pos_as_xyz
  1  'x, y, z'
loop_
 _atom_site_type_symbol
 _atom_site_label
 _atom_site_symmetry_multiplicity
 _atom_site_fract_x
 _atom_site_fract_y
 _atom_site_fract_z
 _atom_site_occupancy
  Ta  Ta0  1  0.250000  0.021645  0.823945  1
  Ta  Ta1  1  0.250000  0.521645  0.676055  1
  Ta  Ta2  1  0.750000  0.975759  0.174923  1
  Ta  Ta3  1  0.750000  0.475759  0.325077  1
  Si  Si4  1  0.250000  0.771623  0.375427  1
  Si  Si5  1  0.250000  0.271623  0.124573  1
  P  P6  1  0.750000  0.227765  0.623653  1
  P  P7  1  0.750000  0.727765  0.876347  1
  Ru  Ru8  1  0.250000  0.151820  0.444405  1
  Ru  Ru9  1  0.250000  0.651820  0.055595  1
  Ru  Ru10  1  0.750000  0.851387  0.567176  1
  Ru  Ru11  1  0.750000  0.351387  0.932824  1
