# generated using pymatgen
data_Na4TlRhO6
_symmetry_space_group_name_H-M   'P 1'
_cell_length_a   5.71145695
_cell_length_b   5.71138650
_cell_length_c   5.76537800
_cell_angle_alpha   99.75324230
_cell_angle_beta   99.75112576
_cell_angle_gamma   119.90016573
_symmetry_Int_Tables_number   1
_chemical_formula_structural   Na4TlRhO6
_chemical_formula_sum   'Na4 Tl1 Rh1 O6'
_cell_volume   153.42502507
_cell_formula_units_Z   1
loop_
 _symmetry_equiv_pos_site_id
 _symmetry_equiv_pos_as_xyz
  1  'x, y, z'
loop_
 _atom_site_type_symbol
 _atom_site_label
 _atom_site_symmetry_multiplicity
 _atom_site_fract_x
 _atom_site_fract_y
 _atom_site_fract_z
 _atom_site_occupancy
  Na  Na0  1  0.498982  0.500989  0.000004  1
  Na  Na1  1  0.007214  0.992859  0.500025  1
  Na  Na2  1  0.660854  0.339085  0.500004  1
  Na  Na3  1  0.335358  0.664663  0.499987  1
  Tl  Tl4  1  0.834174  0.165848  0.000037  1
  Rh  Rh5  1  0.166719  0.833087  0.000072  1
  O  O6  1  0.952793  0.611157  0.208096  1
  O  O7  1  0.530742  0.914033  0.217251  1
  O  O8  1  0.229551  0.191254  0.216815  1
  O  O9  1  0.808741  0.770466  0.783170  1
  O  O10  1  0.085995  0.469294  0.782727  1
  O  O11  1  0.388882  0.047269  0.791817  1
