# generated using pymatgen
data_Fe7Si5(Mo3N)4
_symmetry_space_group_name_H-M   'P 1'
_cell_length_a   7.82927588
_cell_length_b   7.84625423
_cell_length_c   7.84625300
_cell_angle_alpha   60.00000098
_cell_angle_beta   59.92823920
_cell_angle_gamma   59.92824367
_symmetry_Int_Tables_number   1
_chemical_formula_structural   Fe7Si5(Mo3N)4
_chemical_formula_sum   'Fe7 Si5 Mo12 N4'
_cell_volume   340.45473907
_cell_formula_units_Z   1
loop_
 _symmetry_equiv_pos_site_id
 _symmetry_equiv_pos_as_xyz
  1  'x, y, z'
loop_
 _atom_site_type_symbol
 _atom_site_label
 _atom_site_symmetry_multiplicity
 _atom_site_fract_x
 _atom_site_fract_y
 _atom_site_fract_z
 _atom_site_occupancy
  Fe  Fe0  1  0.425853  0.738817  0.417665  1
  Fe  Fe1  1  0.425853  0.417665  0.738817  1
  Fe  Fe2  1  0.425853  0.417665  0.417665  1
  Fe  Fe3  1  0.497611  0.834130  0.834130  1
  Fe  Fe4  1  0.832594  0.504924  0.831241  1
  Fe  Fe5  1  0.832594  0.831241  0.504924  1
  Fe  Fe6  1  0.832594  0.831241  0.831241  1
  Si  Si7  1  0.126798  0.624401  0.624401  1
  Si  Si8  1  0.615834  0.115031  0.634568  1
  Si  Si9  1  0.615834  0.634568  0.115031  1
  Si  Si10  1  0.615834  0.634568  0.634568  1
  Si  Si11  1  0.739721  0.420093  0.420093  1
  Mo  Mo12  1  0.802278  0.797666  0.200028  1
  Mo  Mo13  1  0.194288  0.198625  0.803544  1
  Mo  Mo14  1  0.802278  0.200028  0.797666  1
  Mo  Mo15  1  0.194288  0.803544  0.198625  1
  Mo  Mo16  1  0.194288  0.803544  0.803544  1
  Mo  Mo17  1  0.802278  0.200028  0.200028  1
  Mo  Mo18  1  0.446517  0.442155  0.055664  1
  Mo  Mo19  1  0.059186  0.056747  0.442034  1
  Mo  Mo20  1  0.446517  0.055664  0.442155  1
  Mo  Mo21  1  0.059186  0.442034  0.056747  1
  Mo  Mo22  1  0.059186  0.442034  0.442034  1
  Mo  Mo23  1  0.446517  0.055664  0.055664  1
  N  N24  1  0.626521  0.124493  0.124493  1
  N  N25  1  0.126566  0.626659  0.123388  1
  N  N26  1  0.126566  0.123388  0.626659  1
  N  N27  1  0.126566  0.123388  0.123388  1
