# generated using pymatgen
data_Np3TlO12
_symmetry_space_group_name_H-M   'P 1'
_cell_length_a   7.12315432
_cell_length_b   7.17054723
_cell_length_c   7.12081900
_cell_angle_alpha   109.52143164
_cell_angle_beta   109.45558504
_cell_angle_gamma   109.52994536
_symmetry_Int_Tables_number   1
_chemical_formula_structural   Np3TlO12
_chemical_formula_sum   'Np3 Tl1 O12'
_cell_volume   279.66071809
_cell_formula_units_Z   1
loop_
 _symmetry_equiv_pos_site_id
 _symmetry_equiv_pos_as_xyz
  1  'x, y, z'
loop_
 _atom_site_type_symbol
 _atom_site_label
 _atom_site_symmetry_multiplicity
 _atom_site_fract_x
 _atom_site_fract_y
 _atom_site_fract_z
 _atom_site_occupancy
  Np  Np0  1  0.500021  0.496406  0.496404  1
  Np  Np1  1  0.000138  0.496667  0.996906  1
  Np  Np2  1  0.000020  0.996791  0.496735  1
  Tl  Tl3  1  0.499894  0.996425  0.996439  1
  O  O4  1  0.242259  0.423584  0.229510  1
  O  O5  1  0.757753  0.569370  0.763187  1
  O  O6  1  0.191373  0.990618  0.753540  1
  O  O7  1  0.808633  0.002998  0.239990  1
  O  O8  1  0.266732  0.199769  0.514032  1
  O  O9  1  0.733357  0.793433  0.479157  1
  O  O10  1  0.743310  0.242911  0.942767  1
  O  O11  1  0.256660  0.750661  0.050810  1
  O  O12  1  0.003822  0.691779  0.257396  1
  O  O13  1  0.995972  0.301451  0.736100  1
  O  O14  1  0.559003  0.291208  0.305717  1
  O  O15  1  0.441056  0.701654  0.687027  1
