# generated using pymatgen
data_TlNi3F12
_symmetry_space_group_name_H-M   'P 1'
_cell_length_a   7.28491806
_cell_length_b   7.28725766
_cell_length_c   7.64983000
_cell_angle_alpha   61.57911083
_cell_angle_beta   61.64122268
_cell_angle_gamma   59.94525685
_symmetry_Int_Tables_number   1
_chemical_formula_structural   TlNi3F12
_chemical_formula_sum   'Tl1 Ni3 F12'
_cell_volume   293.82503170
_cell_formula_units_Z   1
loop_
 _symmetry_equiv_pos_site_id
 _symmetry_equiv_pos_as_xyz
  1  'x, y, z'
loop_
 _atom_site_type_symbol
 _atom_site_label
 _atom_site_symmetry_multiplicity
 _atom_site_fract_x
 _atom_site_fract_y
 _atom_site_fract_z
 _atom_site_occupancy
  Tl  Tl0  1  0.000000  0.000000  0.499999  1
  Ni  Ni1  1  0.000000  0.000000  0.000000  1
  Ni  Ni2  1  0.500000  0.000000  0.000000  1
  Ni  Ni3  1  0.000000  0.500000  0.000000  1
  F  F4  1  0.687209  0.071064  0.044011  1
  F  F5  1  0.071593  0.697561  0.043436  1
  F  F6  1  0.697599  0.687375  0.043880  1
  F  F7  1  0.929827  0.348072  0.294813  1
  F  F8  1  0.347916  0.927752  0.294896  1
  F  F9  1  0.927730  0.929254  0.294679  1
  F  F10  1  0.652083  0.072249  0.705104  1
  F  F11  1  0.070174  0.651927  0.705187  1
  F  F12  1  0.072269  0.070745  0.705323  1
  F  F13  1  0.928406  0.302441  0.956564  1
  F  F14  1  0.312793  0.928935  0.955989  1
  F  F15  1  0.302400  0.312624  0.956122  1
