# generated using pymatgen
data_SrNd(Si2Rh3)2
_symmetry_space_group_name_H-M   'P 1'
_cell_length_a   6.72530652
_cell_length_b   6.72530583
_cell_length_c   6.72530703
_cell_angle_alpha   130.13151241
_cell_angle_beta   115.59273061
_cell_angle_gamma   85.61168992
_symmetry_Int_Tables_number   1
_chemical_formula_structural   SrNd(Si2Rh3)2
_chemical_formula_sum   'Sr1 Nd1 Si4 Rh6'
_cell_volume   200.55768598
_cell_formula_units_Z   1
loop_
 _symmetry_equiv_pos_site_id
 _symmetry_equiv_pos_as_xyz
  1  'x, y, z'
loop_
 _atom_site_type_symbol
 _atom_site_label
 _atom_site_symmetry_multiplicity
 _atom_site_fract_x
 _atom_site_fract_y
 _atom_site_fract_z
 _atom_site_occupancy
  Sr  Sr0  1  0.750000  0.030008  0.280008  1
  Nd  Nd1  1  0.250000  0.959226  0.709226  1
  Si  Si2  1  0.577973  0.378281  0.800309  1
  Si  Si3  1  0.422005  0.620490  0.198485  1
  Si  Si4  1  0.077995  0.276480  0.198485  1
  Si  Si5  1  0.922027  0.722336  0.800309  1
  Rh  Rh6  1  0.218450  0.503733  0.718976  1
  Rh  Rh7  1  0.715243  0.000526  0.718976  1
  Rh  Rh8  1  0.784757  0.503733  0.285283  1
  Rh  Rh9  1  0.281550  0.000526  0.285283  1
  Rh  Rh10  1  0.497935  0.502331  0.500266  1
  Rh  Rh11  1  0.002065  0.502331  0.004396  1
