# generated using pymatgen
data_Dy4Al3Ga3Pt8
_symmetry_space_group_name_H-M   'P 1'
_cell_length_a   8.14839767
_cell_length_b   8.14839864
_cell_length_c   7.64157867
_cell_angle_alpha   89.97418006
_cell_angle_beta   89.97417709
_cell_angle_gamma   139.98733955
_symmetry_Int_Tables_number   1
_chemical_formula_structural   Dy4Al3Ga3Pt8
_chemical_formula_sum   'Dy4 Al3 Ga3 Pt8'
_cell_volume   326.21883503
_cell_formula_units_Z   1
loop_
 _symmetry_equiv_pos_site_id
 _symmetry_equiv_pos_as_xyz
  1  'x, y, z'
loop_
 _atom_site_type_symbol
 _atom_site_label
 _atom_site_symmetry_multiplicity
 _atom_site_fract_x
 _atom_site_fract_y
 _atom_site_fract_z
 _atom_site_occupancy
  Dy  Dy0  1  0.606730  0.393242  0.906675  1
  Dy  Dy1  1  0.393243  0.607010  0.093196  1
  Dy  Dy2  1  0.892990  0.106757  0.406804  1
  Dy  Dy3  1  0.106758  0.893270  0.593325  1
  Al  Al4  1  0.499541  0.499838  0.500166  1
  Al  Al5  1  0.000162  0.000459  0.999834  1
  Al  Al6  1  0.023086  0.476914  0.750000  1
  Ga  Ga7  1  0.521323  0.978677  0.750000  1
  Ga  Ga8  1  0.978300  0.521700  0.250000  1
  Ga  Ga9  1  0.478082  0.021918  0.250000  1
  Pt  Pt10  1  0.692653  0.807347  0.750000  1
  Pt  Pt11  1  0.807433  0.692567  0.250000  1
  Pt  Pt12  1  0.307509  0.192491  0.250000  1
  Pt  Pt13  1  0.190753  0.309247  0.750000  1
  Pt  Pt14  1  0.687896  0.324939  0.529380  1
  Pt  Pt15  1  0.316116  0.677635  0.475578  1
  Pt  Pt16  1  0.822365  0.183884  0.024422  1
  Pt  Pt17  1  0.175061  0.812104  0.970620  1
