# generated using pymatgen
data_Lu2ZnInCu
_symmetry_space_group_name_H-M   'P 1'
_cell_length_a   7.51165393
_cell_length_b   7.51165393
_cell_length_c   3.71860800
_cell_angle_alpha   90.00000000
_cell_angle_beta   90.00000000
_cell_angle_gamma   88.92272504
_symmetry_Int_Tables_number   1
_chemical_formula_structural   Lu2ZnInCu
_chemical_formula_sum   'Lu4 Zn2 In2 Cu2'
_cell_volume   209.78516459
_cell_formula_units_Z   2
loop_
 _symmetry_equiv_pos_site_id
 _symmetry_equiv_pos_as_xyz
  1  'x, y, z'
loop_
 _atom_site_type_symbol
 _atom_site_label
 _atom_site_symmetry_multiplicity
 _atom_site_fract_x
 _atom_site_fract_y
 _atom_site_fract_z
 _atom_site_occupancy
  Lu  Lu0  1  0.664385  0.164385  0.500000  1
  Lu  Lu1  1  0.335615  0.835615  0.500000  1
  Lu  Lu2  1  0.179891  0.320109  0.500000  1
  Lu  Lu3  1  0.820109  0.679891  0.500000  1
  Zn  Zn4  1  0.122766  0.622766  0.000000  1
  Zn  Zn5  1  0.877234  0.377234  0.000000  1
  In  In6  1  0.500000  0.500000  0.000000  1
  In  In7  1  0.000000  0.000000  0.000000  1
  Cu  Cu8  1  0.620341  0.879659  0.000000  1
  Cu  Cu9  1  0.379659  0.120341  0.000000  1
