# generated using pymatgen
data_Ho5Er11CdNi4Ag3
_symmetry_space_group_name_H-M   'P 1'
_cell_length_a   9.38976465
_cell_length_b   9.40776186
_cell_length_c   9.40794172
_cell_angle_alpha   60.02349909
_cell_angle_beta   59.90849104
_cell_angle_gamma   59.91925001
_symmetry_Int_Tables_number   1
_chemical_formula_structural   Ho5Er11CdNi4Ag3
_chemical_formula_sum   'Ho5 Er11 Cd1 Ni4 Ag3'
_cell_volume   586.99025235
_cell_formula_units_Z   1
loop_
 _symmetry_equiv_pos_site_id
 _symmetry_equiv_pos_as_xyz
  1  'x, y, z'
loop_
 _atom_site_type_symbol
 _atom_site_label
 _atom_site_symmetry_multiplicity
 _atom_site_fract_x
 _atom_site_fract_y
 _atom_site_fract_z
 _atom_site_occupancy
  Ho  Ho0  1  0.349345  0.349573  0.349543  1
  Ho  Ho1  1  0.349857  0.350062  0.950587  1
  Ho  Ho2  1  0.349866  0.950540  0.350074  1
  Ho  Ho3  1  0.948732  0.350572  0.350591  1
  Ho  Ho4  1  0.811240  0.188677  0.188637  1
  Er  Er5  1  0.188263  0.811390  0.811358  1
  Er  Er6  1  0.188584  0.811032  0.189053  1
  Er  Er7  1  0.811131  0.188690  0.811116  1
  Er  Er8  1  0.188584  0.189030  0.811034  1
  Er  Er9  1  0.811117  0.811100  0.188718  1
  Er  Er10  1  0.933140  0.564756  0.564802  1
  Er  Er11  1  0.563139  0.936385  0.936432  1
  Er  Er12  1  0.563289  0.936111  0.564682  1
  Er  Er13  1  0.933231  0.564878  0.937675  1
  Er  Er14  1  0.563256  0.564644  0.936154  1
  Er  Er15  1  0.933262  0.937658  0.564875  1
  Cd  Cd16  1  0.262859  0.578973  0.578997  1
  Ni  Ni17  1  0.143399  0.142482  0.142526  1
  Ni  Ni18  1  0.142324  0.142707  0.572118  1
  Ni  Ni19  1  0.142275  0.572285  0.142585  1
  Ni  Ni20  1  0.571328  0.142276  0.142287  1
  Ag  Ag21  1  0.584079  0.582764  0.582688  1
  Ag  Ag22  1  0.583848  0.582759  0.250690  1
  Ag  Ag23  1  0.583853  0.250657  0.582778  1
