# generated using pymatgen
data_Ho16Ni3Ag4Ir
_symmetry_space_group_name_H-M   'P 1'
_cell_length_a   9.45708405
_cell_length_b   9.45708393
_cell_length_c   9.45708437
_cell_angle_alpha   59.85492281
_cell_angle_beta   59.85492451
_cell_angle_gamma   59.85492359
_symmetry_Int_Tables_number   1
_chemical_formula_structural   Ho16Ni3Ag4Ir
_chemical_formula_sum   'Ho16 Ni3 Ag4 Ir1'
_cell_volume   596.10751951
_cell_formula_units_Z   1
loop_
 _symmetry_equiv_pos_site_id
 _symmetry_equiv_pos_as_xyz
  1  'x, y, z'
loop_
 _atom_site_type_symbol
 _atom_site_label
 _atom_site_symmetry_multiplicity
 _atom_site_fract_x
 _atom_site_fract_y
 _atom_site_fract_z
 _atom_site_occupancy
  Ho  Ho0  1  0.348204  0.348204  0.348204  1
  Ho  Ho1  1  0.354810  0.354810  0.946772  1
  Ho  Ho2  1  0.354810  0.946772  0.354810  1
  Ho  Ho3  1  0.946772  0.354810  0.354810  1
  Ho  Ho4  1  0.808786  0.187972  0.187972  1
  Ho  Ho5  1  0.186842  0.811128  0.811128  1
  Ho  Ho6  1  0.187972  0.808786  0.187972  1
  Ho  Ho7  1  0.811128  0.186842  0.811128  1
  Ho  Ho8  1  0.187972  0.187972  0.808786  1
  Ho  Ho9  1  0.811128  0.811128  0.186842  1
  Ho  Ho10  1  0.934958  0.565335  0.565335  1
  Ho  Ho11  1  0.561410  0.937056  0.937056  1
  Ho  Ho12  1  0.565335  0.934958  0.565335  1
  Ho  Ho13  1  0.937056  0.561410  0.937056  1
  Ho  Ho14  1  0.565335  0.565335  0.934958  1
  Ho  Ho15  1  0.937056  0.937056  0.561410  1
  Ni  Ni16  1  0.142180  0.142180  0.572303  1
  Ni  Ni17  1  0.142180  0.572303  0.142180  1
  Ni  Ni18  1  0.572303  0.142180  0.142180  1
  Ag  Ag19  1  0.582585  0.582585  0.582585  1
  Ag  Ag20  1  0.581808  0.581808  0.253599  1
  Ag  Ag21  1  0.581808  0.253599  0.581808  1
  Ag  Ag22  1  0.253599  0.581808  0.581808  1
  Ir  Ir23  1  0.143965  0.143965  0.143965  1
