# generated using pymatgen
data_DyTh3MgNi4Hg
_symmetry_space_group_name_H-M   'P 1'
_cell_length_a   7.58578298
_cell_length_b   7.55662361
_cell_length_c   3.66929000
_cell_angle_alpha   90.00000000
_cell_angle_beta   90.00000000
_cell_angle_gamma   90.97598213
_symmetry_Int_Tables_number   1
_chemical_formula_structural   DyTh3MgNi4Hg
_chemical_formula_sum   'Dy1 Th3 Mg1 Ni4 Hg1'
_cell_volume   210.30385404
_cell_formula_units_Z   1
loop_
 _symmetry_equiv_pos_site_id
 _symmetry_equiv_pos_as_xyz
  1  'x, y, z'
loop_
 _atom_site_type_symbol
 _atom_site_label
 _atom_site_symmetry_multiplicity
 _atom_site_fract_x
 _atom_site_fract_y
 _atom_site_fract_z
 _atom_site_occupancy
  Dy  Dy0  1  0.829155  0.674886  0.500000  1
  Th  Th1  1  0.675032  0.171131  0.500000  1
  Th  Th2  1  0.327165  0.825123  0.500000  1
  Th  Th3  1  0.170711  0.330380  0.500000  1
  Mg  Mg4  1  0.507936  0.502522  0.000000  1
  Ni  Ni5  1  0.129929  0.617998  0.000000  1
  Ni  Ni6  1  0.873881  0.377090  0.000000  1
  Ni  Ni7  1  0.612896  0.880241  0.000000  1
  Ni  Ni8  1  0.377211  0.129972  0.000000  1
  Hg  Hg9  1  0.996087  0.990656  0.000000  1
