# generated using pymatgen
data_K4In3NiI16
_symmetry_space_group_name_H-M   'P 1'
_cell_length_a   8.29902384
_cell_length_b   8.55355572
_cell_length_c   16.81354545
_cell_angle_alpha   85.12027207
_cell_angle_beta   89.70140009
_cell_angle_gamma   89.95819288
_symmetry_Int_Tables_number   1
_chemical_formula_structural   K4In3NiI16
_chemical_formula_sum   'K4 In3 Ni1 I16'
_cell_volume   1189.18687698
_cell_formula_units_Z   1
loop_
 _symmetry_equiv_pos_site_id
 _symmetry_equiv_pos_as_xyz
  1  'x, y, z'
loop_
 _atom_site_type_symbol
 _atom_site_label
 _atom_site_symmetry_multiplicity
 _atom_site_fract_x
 _atom_site_fract_y
 _atom_site_fract_z
 _atom_site_occupancy
  K  K0  1  0.500763  0.256397  0.639924  1
  K  K1  1  0.002836  0.742790  0.860849  1
  K  K2  1  0.498467  0.743556  0.361260  1
  K  K3  1  0.999039  0.255933  0.137908  1
  In  In4  1  0.358539  0.243070  0.361235  1
  In  In5  1  0.858735  0.756550  0.138749  1
  In  In6  1  0.641646  0.757293  0.638891  1
  Ni  Ni7  1  0.140614  0.245487  0.860825  1
  I  I8  1  0.871757  0.139745  0.906962  1
  I  I9  1  0.344306  0.872493  0.589171  1
  I  I10  1  0.155437  0.871074  0.087779  1
  I  I11  1  0.654925  0.127246  0.411592  1
  I  I12  1  0.387496  0.426111  0.217633  1
  I  I13  1  0.887591  0.573666  0.281919  1
  I  I14  1  0.611039  0.574425  0.781975  1
  I  I15  1  0.113304  0.409084  0.730373  1
  I  I16  1  0.647141  0.998271  0.161756  1
  I  I17  1  0.147155  0.002114  0.337840  1
  I  I18  1  0.334800  0.026243  0.840295  1
  I  I19  1  0.852558  0.998059  0.662313  1
  I  I20  1  0.243710  0.433396  0.474076  1
  I  I21  1  0.743914  0.566492  0.026402  1
  I  I22  1  0.756380  0.566038  0.526624  1
  I  I23  1  0.247850  0.414468  0.963652  1
