# generated using pymatgen
data_Ho3Tm13In4(IrRh)2
_symmetry_space_group_name_H-M   'P 1'
_cell_length_a   9.54866354
_cell_length_b   9.54478048
_cell_length_c   9.57110508
_cell_angle_alpha   59.93559075
_cell_angle_beta   59.89535596
_cell_angle_gamma   59.90548136
_symmetry_Int_Tables_number   1
_chemical_formula_structural   Ho3Tm13In4(IrRh)2
_chemical_formula_sum   'Ho3 Tm13 In4 Ir2 Rh2'
_cell_volume   615.58648203
_cell_formula_units_Z   1
loop_
 _symmetry_equiv_pos_site_id
 _symmetry_equiv_pos_as_xyz
  1  'x, y, z'
loop_
 _atom_site_type_symbol
 _atom_site_label
 _atom_site_symmetry_multiplicity
 _atom_site_fract_x
 _atom_site_fract_y
 _atom_site_fract_z
 _atom_site_occupancy
  Ho  Ho0  1  0.058913  0.058913  0.441087  1
  Ho  Ho1  1  0.438396  0.062373  0.436703  1
  Ho  Ho2  1  0.062373  0.438396  0.062527  1
  Tm  Tm3  1  0.048512  0.648746  0.652298  1
  Tm  Tm4  1  0.437883  0.437883  0.062117  1
  Tm  Tm5  1  0.648746  0.048512  0.650445  1
  Tm  Tm6  1  0.190851  0.810084  0.189683  1
  Tm  Tm7  1  0.189698  0.189698  0.810302  1
  Tm  Tm8  1  0.810287  0.810287  0.189713  1
  Tm  Tm9  1  0.441668  0.059261  0.059489  1
  Tm  Tm10  1  0.810667  0.190210  0.189267  1
  Tm  Tm11  1  0.059261  0.441668  0.439582  1
  Tm  Tm12  1  0.810084  0.190851  0.809384  1
  Tm  Tm13  1  0.190210  0.810667  0.809856  1
  Tm  Tm14  1  0.651947  0.650000  0.045906  1
  Tm  Tm15  1  0.650000  0.651947  0.652149  1
  In  In16  1  0.416444  0.417588  0.415520  1
  In  In17  1  0.748147  0.418010  0.417512  1
  In  In18  1  0.418010  0.748147  0.416330  1
  In  In19  1  0.417588  0.416444  0.750447  1
  Ir  Ir20  1  0.859548  0.857375  0.425293  1
  Ir  Ir21  1  0.857375  0.859548  0.857785  1
  Rh  Rh22  1  0.424958  0.858435  0.859126  1
  Rh  Rh23  1  0.858435  0.424958  0.857481  1
