# generated using pymatgen
data_Nd2Ti3Si7Pt9
_symmetry_space_group_name_H-M   'P 1'
_cell_length_a   9.96125300
_cell_length_b   9.96125262
_cell_length_c   3.99770500
_cell_angle_alpha   90.00000000
_cell_angle_beta   90.00000000
_cell_angle_gamma   119.99999795
_symmetry_Int_Tables_number   1
_chemical_formula_structural   Nd2Ti3Si7Pt9
_chemical_formula_sum   'Nd2 Ti3 Si7 Pt9'
_cell_volume   343.53366973
_cell_formula_units_Z   1
loop_
 _symmetry_equiv_pos_site_id
 _symmetry_equiv_pos_as_xyz
  1  'x, y, z'
loop_
 _atom_site_type_symbol
 _atom_site_label
 _atom_site_symmetry_multiplicity
 _atom_site_fract_x
 _atom_site_fract_y
 _atom_site_fract_z
 _atom_site_occupancy
  Nd  Nd0  1  0.000000  0.000000  0.000000  1
  Nd  Nd1  1  0.333333  0.666667  0.500000  1
  Ti  Ti2  1  0.882423  0.450650  0.500000  1
  Ti  Ti3  1  0.568227  0.117577  0.500000  1
  Ti  Ti4  1  0.549350  0.431773  0.500000  1
  Si  Si5  1  0.258521  0.213542  0.500000  1
  Si  Si6  1  0.786458  0.044981  0.500000  1
  Si  Si7  1  0.955019  0.741479  0.500000  1
  Si  Si8  1  0.555256  0.636356  0.000000  1
  Si  Si9  1  0.363644  0.918899  0.000000  1
  Si  Si10  1  0.081101  0.444744  0.000000  1
  Si  Si11  1  0.666667  0.333333  0.000000  1
  Pt  Pt12  1  0.227057  0.943267  0.500000  1
  Pt  Pt13  1  0.056733  0.283790  0.500000  1
  Pt  Pt14  1  0.716210  0.772943  0.500000  1
  Pt  Pt15  1  0.306313  0.405233  0.000000  1
  Pt  Pt16  1  0.594767  0.901080  0.000000  1
  Pt  Pt17  1  0.098920  0.693687  0.000000  1
  Pt  Pt18  1  0.391101  0.175701  0.000000  1
  Pt  Pt19  1  0.824299  0.215401  0.000000  1
  Pt  Pt20  1  0.784599  0.608899  0.000000  1
