# generated using pymatgen
data_Th8Si11GePd4
_symmetry_space_group_name_H-M   'P 1'
_cell_length_a   8.29454500
_cell_length_b   8.29454556
_cell_length_c   8.50337500
_cell_angle_alpha   89.99975132
_cell_angle_beta   90.00024868
_cell_angle_gamma   119.99045462
_symmetry_Int_Tables_number   1
_chemical_formula_structural   Th8Si11GePd4
_chemical_formula_sum   'Th8 Si11 Ge1 Pd4'
_cell_volume   506.69765372
_cell_formula_units_Z   1
loop_
 _symmetry_equiv_pos_site_id
 _symmetry_equiv_pos_as_xyz
  1  'x, y, z'
loop_
 _atom_site_type_symbol
 _atom_site_label
 _atom_site_symmetry_multiplicity
 _atom_site_fract_x
 _atom_site_fract_y
 _atom_site_fract_z
 _atom_site_occupancy
  Th  Th0  1  0.500347  0.499653  0.749535  1
  Th  Th1  1  0.500566  0.499434  0.250456  1
  Th  Th2  1  0.000816  0.502180  0.748612  1
  Th  Th3  1  0.000350  0.501934  0.251396  1
  Th  Th4  1  0.497820  0.999184  0.748612  1
  Th  Th5  1  0.498066  0.999650  0.251396  1
  Th  Th6  1  0.001077  0.998923  0.748493  1
  Th  Th7  1  0.001032  0.998968  0.251497  1
  Si  Si8  1  0.165852  0.834148  0.000159  1
  Si  Si9  1  0.330717  0.164104  0.999857  1
  Si  Si10  1  0.165768  0.834232  0.499837  1
  Si  Si11  1  0.665573  0.827939  0.000163  1
  Si  Si12  1  0.834215  0.165785  0.500168  1
  Si  Si13  1  0.835896  0.669283  0.999857  1
  Si  Si14  1  0.668475  0.834292  0.499848  1
  Si  Si15  1  0.172061  0.334427  0.000163  1
  Si  Si16  1  0.331655  0.165637  0.500145  1
  Si  Si17  1  0.165708  0.331525  0.499848  1
  Si  Si18  1  0.834363  0.668345  0.500145  1
  Ge  Ge19  1  0.834247  0.165753  0.999827  1
  Pd  Pd20  1  0.662488  0.337512  0.999746  1
  Pd  Pd21  1  0.332711  0.667289  0.000240  1
  Pd  Pd22  1  0.333484  0.666516  0.499737  1
  Pd  Pd23  1  0.666713  0.333287  0.500265  1
