# generated using pymatgen
data_RbPrBeF6
_symmetry_space_group_name_H-M   'P 1'
_cell_length_a   6.11943800
_cell_length_b   6.65258168
_cell_length_c   7.46116931
_cell_angle_alpha   66.81829032
_cell_angle_beta   90.00000000
_cell_angle_gamma   90.00000000
_symmetry_Int_Tables_number   1
_chemical_formula_structural   RbPrBeF6
_chemical_formula_sum   'Rb2 Pr2 Be2 F12'
_cell_volume   279.22063376
_cell_formula_units_Z   2
loop_
 _symmetry_equiv_pos_site_id
 _symmetry_equiv_pos_as_xyz
  1  'x, y, z'
loop_
 _atom_site_type_symbol
 _atom_site_label
 _atom_site_symmetry_multiplicity
 _atom_site_fract_x
 _atom_site_fract_y
 _atom_site_fract_z
 _atom_site_occupancy
  Rb  Rb0  1  0.250000  0.074643  0.790844  1
  Rb  Rb1  1  0.750000  0.925357  0.209156  1
  Pr  Pr2  1  0.250000  0.387154  0.185507  1
  Pr  Pr3  1  0.750000  0.612846  0.814493  1
  Be  Be4  1  0.250000  0.767843  0.464944  1
  Be  Be5  1  0.750000  0.232157  0.535056  1
  F  F6  1  0.457618  0.766292  0.588978  1
  F  F7  1  0.542382  0.233708  0.411022  1
  F  F8  1  0.957618  0.233708  0.411022  1
  F  F9  1  0.042382  0.766292  0.588978  1
  F  F10  1  0.250000  0.565625  0.410344  1
  F  F11  1  0.750000  0.434375  0.589656  1
  F  F12  1  0.498632  0.681909  0.030786  1
  F  F13  1  0.501368  0.318091  0.969214  1
  F  F14  1  0.998632  0.318091  0.969214  1
  F  F15  1  0.001368  0.681909  0.030786  1
  F  F16  1  0.250000  0.984674  0.273980  1
  F  F17  1  0.750000  0.015326  0.726020  1
