# generated using pymatgen
data_ScNbN2
_symmetry_space_group_name_H-M   'P 1'
_cell_length_a   3.09415800
_cell_length_b   3.09415763
_cell_length_c   10.63755900
_cell_angle_alpha   90.00000000
_cell_angle_beta   90.00000000
_cell_angle_gamma   120.00000399
_symmetry_Int_Tables_number   1
_chemical_formula_structural   ScNbN2
_chemical_formula_sum   'Sc2 Nb2 N4'
_cell_volume   88.19775225
_cell_formula_units_Z   2
loop_
 _symmetry_equiv_pos_site_id
 _symmetry_equiv_pos_as_xyz
  1  'x, y, z'
loop_
 _atom_site_type_symbol
 _atom_site_label
 _atom_site_symmetry_multiplicity
 _atom_site_fract_x
 _atom_site_fract_y
 _atom_site_fract_z
 _atom_site_occupancy
  Sc  Sc0  1  0.000000  0.000000  0.000000  1
  Sc  Sc1  1  0.000000  0.000000  0.500000  1
  Nb  Nb2  1  0.333333  0.666667  0.250000  1
  Nb  Nb3  1  0.666667  0.333333  0.750000  1
  N  N4  1  0.333333  0.666667  0.623087  1
  N  N5  1  0.666667  0.333333  0.376913  1
  N  N6  1  0.666667  0.333333  0.123087  1
  N  N7  1  0.333333  0.666667  0.876913  1
