# generated using pymatgen
data_Dy6Er10In5Co2Hg
_symmetry_space_group_name_H-M   'P 1'
_cell_length_a   10.25108500
_cell_length_b   10.26368605
_cell_length_c   6.99203543
_cell_angle_alpha   90.05055758
_cell_angle_beta   90.00000000
_cell_angle_gamma   119.95938561
_symmetry_Int_Tables_number   1
_chemical_formula_structural   Dy6Er10In5Co2Hg
_chemical_formula_sum   'Dy6 Er10 In5 Co2 Hg1'
_cell_volume   637.36001388
_cell_formula_units_Z   1
loop_
 _symmetry_equiv_pos_site_id
 _symmetry_equiv_pos_as_xyz
  1  'x, y, z'
loop_
 _atom_site_type_symbol
 _atom_site_label
 _atom_site_symmetry_multiplicity
 _atom_site_fract_x
 _atom_site_fract_y
 _atom_site_fract_z
 _atom_site_occupancy
  Dy  Dy0  1  0.533846  0.067693  0.792291  1
  Dy  Dy1  1  0.927227  0.468675  0.791835  1
  Dy  Dy2  1  0.541448  0.468675  0.791835  1
  Dy  Dy3  1  0.464897  0.929795  0.288303  1
  Dy  Dy4  1  0.071695  0.533450  0.292763  1
  Dy  Dy5  1  0.461755  0.533450  0.292763  1
  Er  Er6  1  0.822322  0.644643  0.481845  1
  Er  Er7  1  0.357415  0.178136  0.498717  1
  Er  Er8  1  0.820722  0.178136  0.498717  1
  Er  Er9  1  0.178152  0.356303  0.994133  1
  Er  Er10  1  0.648539  0.819820  0.001509  1
  Er  Er11  1  0.171281  0.819820  0.001509  1
  Er  Er12  1  0.668073  0.336146  0.180402  1
  Er  Er13  1  0.333873  0.667747  0.684473  1
  Er  Er14  1  0.999032  0.998063  0.777891  1
  Er  Er15  1  0.002001  0.004001  0.278697  1
  In  In16  1  0.326470  0.162739  0.041395  1
  In  In17  1  0.836268  0.162739  0.041395  1
  In  In18  1  0.162399  0.324797  0.542867  1
  In  In19  1  0.673933  0.837204  0.542432  1
  In  In20  1  0.163273  0.837204  0.542432  1
  Co  Co21  1  0.666828  0.333655  0.564494  1
  Co  Co22  1  0.333361  0.666723  0.065439  1
  Hg  Hg23  1  0.835191  0.670384  0.047769  1
