# generated using pymatgen
data_Pr3Nb(Co4P3)2
_symmetry_space_group_name_H-M   'P 1'
_cell_length_a   3.80137200
_cell_length_b   10.84226500
_cell_length_c   12.56910200
_cell_angle_alpha   90.00000000
_cell_angle_beta   90.00000000
_cell_angle_gamma   90.00000000
_symmetry_Int_Tables_number   1
_chemical_formula_structural   Pr3Nb(Co4P3)2
_chemical_formula_sum   'Pr6 Nb2 Co16 P12'
_cell_volume   518.04160462
_cell_formula_units_Z   2
loop_
 _symmetry_equiv_pos_site_id
 _symmetry_equiv_pos_as_xyz
  1  'x, y, z'
loop_
 _atom_site_type_symbol
 _atom_site_label
 _atom_site_symmetry_multiplicity
 _atom_site_fract_x
 _atom_site_fract_y
 _atom_site_fract_z
 _atom_site_occupancy
  Pr  Pr0  1  0.000000  0.500000  0.526302  1
  Pr  Pr1  1  0.500000  0.000000  0.473698  1
  Pr  Pr2  1  0.500000  0.819261  0.205461  1
  Pr  Pr3  1  0.500000  0.180739  0.205461  1
  Pr  Pr4  1  0.000000  0.680739  0.794539  1
  Pr  Pr5  1  0.000000  0.319261  0.794539  1
  Nb  Nb6  1  0.500000  0.500000  0.153324  1
  Nb  Nb7  1  0.000000  0.000000  0.846676  1
  Co  Co8  1  0.500000  0.500000  0.703787  1
  Co  Co9  1  0.000000  0.000000  0.296213  1
  Co  Co10  1  0.000000  0.500000  0.986914  1
  Co  Co11  1  0.500000  0.000000  0.013086  1
  Co  Co12  1  0.500000  0.332695  0.992788  1
  Co  Co13  1  0.500000  0.667305  0.992788  1
  Co  Co14  1  0.000000  0.167305  0.007212  1
  Co  Co15  1  0.000000  0.832695  0.007212  1
  Co  Co16  1  0.500000  0.295467  0.431825  1
  Co  Co17  1  0.500000  0.704533  0.431825  1
  Co  Co18  1  0.000000  0.204533  0.568175  1
  Co  Co19  1  0.000000  0.795467  0.568175  1
  Co  Co20  1  0.500000  0.880624  0.705425  1
  Co  Co21  1  0.500000  0.119376  0.705425  1
  Co  Co22  1  0.000000  0.619376  0.294575  1
  Co  Co23  1  0.000000  0.380624  0.294575  1
  P  P24  1  0.500000  0.500000  0.886633  1
  P  P25  1  0.000000  0.000000  0.113367  1
  P  P26  1  0.500000  0.500000  0.349879  1
  P  P27  1  0.000000  0.000000  0.650121  1
  P  P28  1  0.500000  0.304615  0.613250  1
  P  P29  1  0.500000  0.695385  0.613250  1
  P  P30  1  0.000000  0.195385  0.386750  1
  P  P31  1  0.000000  0.804615  0.386750  1
  P  P32  1  0.500000  0.843986  0.897373  1
  P  P33  1  0.500000  0.156014  0.897373  1
  P  P34  1  0.000000  0.656014  0.102627  1
  P  P35  1  0.000000  0.343986  0.102627  1
