# generated using pymatgen
data_Th3MgPd11Au
_symmetry_space_group_name_H-M   'P 1'
_cell_length_a   5.89249900
_cell_length_b   5.89004526
_cell_length_c   9.72959200
_cell_angle_alpha   90.00000000
_cell_angle_beta   90.00000000
_cell_angle_gamma   120.01378732
_symmetry_Int_Tables_number   1
_chemical_formula_structural   Th3MgPd11Au
_chemical_formula_sum   'Th3 Mg1 Pd11 Au1'
_cell_volume   292.40382972
_cell_formula_units_Z   1
loop_
 _symmetry_equiv_pos_site_id
 _symmetry_equiv_pos_as_xyz
  1  'x, y, z'
loop_
 _atom_site_type_symbol
 _atom_site_label
 _atom_site_symmetry_multiplicity
 _atom_site_fract_x
 _atom_site_fract_y
 _atom_site_fract_z
 _atom_site_occupancy
  Th  Th0  1  0.003409  0.006818  0.498588  1
  Th  Th1  1  0.003409  0.006818  0.001412  1
  Th  Th2  1  0.666876  0.333751  0.750000  1
  Mg  Mg3  1  0.333426  0.666852  0.250000  1
  Pd  Pd4  1  0.499436  0.503206  0.496399  1
  Pd  Pd5  1  0.498611  0.997221  0.496248  1
  Pd  Pd6  1  0.003770  0.503206  0.496399  1
  Pd  Pd7  1  0.499436  0.503206  0.003601  1
  Pd  Pd8  1  0.498611  0.997221  0.003752  1
  Pd  Pd9  1  0.003770  0.503206  0.003601  1
  Pd  Pd10  1  0.340817  0.165651  0.250000  1
  Pd  Pd11  1  0.824834  0.165651  0.250000  1
  Pd  Pd12  1  0.176834  0.353667  0.750000  1
  Pd  Pd13  1  0.653726  0.828051  0.750000  1
  Pd  Pd14  1  0.174326  0.828051  0.750000  1
  Au  Au15  1  0.818710  0.637420  0.250000  1
