# generated using pymatgen
data_LaPr2In3Cu2Ir
_symmetry_space_group_name_H-M   'P 1'
_cell_length_a   7.71458092
_cell_length_b   7.72408864
_cell_length_c   4.09141600
_cell_angle_alpha   90.00000000
_cell_angle_beta   90.00000000
_cell_angle_gamma   119.58638227
_symmetry_Int_Tables_number   1
_chemical_formula_structural   LaPr2In3Cu2Ir
_chemical_formula_sum   'La1 Pr2 In3 Cu2 Ir1'
_cell_volume   212.01124770
_cell_formula_units_Z   1
loop_
 _symmetry_equiv_pos_site_id
 _symmetry_equiv_pos_as_xyz
  1  'x, y, z'
loop_
 _atom_site_type_symbol
 _atom_site_label
 _atom_site_symmetry_multiplicity
 _atom_site_fract_x
 _atom_site_fract_y
 _atom_site_fract_z
 _atom_site_occupancy
  La  La0  1  0.424538  0.407999  0.500000  1
  Pr  Pr1  1  0.592867  0.013283  0.500000  1
  Pr  Pr2  1  0.986208  0.578227  0.500000  1
  In  In3  1  0.754190  0.756863  0.000000  1
  In  In4  1  0.244571  0.995276  0.000000  1
  In  In5  1  0.001492  0.247387  0.000000  1
  Cu  Cu6  1  0.332901  0.667095  0.000000  1
  Cu  Cu7  1  0.999512  0.999502  0.500000  1
  Ir  Ir8  1  0.663721  0.334366  0.000000  1
