# generated using pymatgen
data_TbSn5BiRu4
_symmetry_space_group_name_H-M   'P 1'
_cell_length_a   6.94124988
_cell_length_b   6.94125016
_cell_length_c   7.01204915
_cell_angle_alpha   119.84984374
_cell_angle_beta   119.84984541
_cell_angle_gamma   89.84716624
_symmetry_Int_Tables_number   1
_chemical_formula_structural   TbSn5BiRu4
_chemical_formula_sum   'Tb1 Sn5 Bi1 Ru4'
_cell_volume   240.28676057
_cell_formula_units_Z   1
loop_
 _symmetry_equiv_pos_site_id
 _symmetry_equiv_pos_as_xyz
  1  'x, y, z'
loop_
 _atom_site_type_symbol
 _atom_site_label
 _atom_site_symmetry_multiplicity
 _atom_site_fract_x
 _atom_site_fract_y
 _atom_site_fract_z
 _atom_site_occupancy
  Tb  Tb0  1  0.994759  0.994759  0.993190  1
  Sn  Sn1  1  0.118099  0.118099  0.589133  1
  Sn  Sn2  1  0.882721  0.531442  0.410564  1
  Sn  Sn3  1  0.531442  0.882721  0.410564  1
  Sn  Sn4  1  0.002980  0.500732  0.003696  1
  Sn  Sn5  1  0.500732  0.002980  0.003696  1
  Bi  Bi6  1  0.466026  0.466026  0.585930  1
  Ru  Ru7  1  0.405283  0.405283  0.152606  1
  Ru  Ru8  1  0.751762  0.751762  0.156866  1
  Ru  Ru9  1  0.246469  0.599727  0.846876  1
  Ru  Ru10  1  0.599727  0.246469  0.846876  1
