# generated using pymatgen
data_NdHoErTaO7
_symmetry_space_group_name_H-M   'P 1'
_cell_length_a   6.48536318
_cell_length_b   6.48420361
_cell_length_c   7.57830500
_cell_angle_alpha   90.00000000
_cell_angle_beta   90.00000000
_cell_angle_gamma   109.14561811
_symmetry_Int_Tables_number   1
_chemical_formula_structural   NdHoErTaO7
_chemical_formula_sum   'Nd2 Ho2 Er2 Ta2 O14'
_cell_volume   301.05889530
_cell_formula_units_Z   2
loop_
 _symmetry_equiv_pos_site_id
 _symmetry_equiv_pos_as_xyz
  1  'x, y, z'
loop_
 _atom_site_type_symbol
 _atom_site_label
 _atom_site_symmetry_multiplicity
 _atom_site_fract_x
 _atom_site_fract_y
 _atom_site_fract_z
 _atom_site_occupancy
  Nd  Nd0  1  0.512665  0.512341  0.500030  1
  Nd  Nd1  1  0.487335  0.487659  0.000030  1
  Ho  Ho2  1  0.533921  0.000990  0.753707  1
  Ho  Ho3  1  0.466079  0.999010  0.253707  1
  Er  Er4  1  0.001136  0.532880  0.246395  1
  Er  Er5  1  0.998864  0.467120  0.746395  1
  Ta  Ta6  1  0.001519  0.001609  0.499981  1
  Ta  Ta7  1  0.998481  0.998391  0.999981  1
  O  O8  1  0.934842  0.066101  0.749977  1
  O  O9  1  0.065158  0.933899  0.249977  1
  O  O10  1  0.355175  0.643251  0.250053  1
  O  O11  1  0.644825  0.356749  0.750053  1
  O  O12  1  0.361549  0.636039  0.749898  1
  O  O13  1  0.638451  0.363961  0.249898  1
  O  O14  1  0.323729  0.073560  0.970984  1
  O  O15  1  0.676271  0.926440  0.470984  1
  O  O16  1  0.316983  0.063938  0.537147  1
  O  O17  1  0.683017  0.936062  0.037147  1
  O  O18  1  0.062246  0.316931  0.462369  1
  O  O19  1  0.937754  0.683069  0.962369  1
  O  O20  1  0.927913  0.676353  0.529459  1
  O  O21  1  0.072087  0.323647  0.029459  1
