# generated using pymatgen
data_Na3Nd8Y9Sn16
_symmetry_space_group_name_H-M   'P 1'
_cell_length_a   8.03128900
_cell_length_b   8.39532877
_cell_length_c   15.84525800
_cell_angle_alpha   90.00000000
_cell_angle_beta   90.00000000
_cell_angle_gamma   90.13343025
_symmetry_Int_Tables_number   1
_chemical_formula_structural   Na3Nd8Y9Sn16
_chemical_formula_sum   'Na3 Nd8 Y9 Sn16'
_cell_volume   1068.36856040
_cell_formula_units_Z   1
loop_
 _symmetry_equiv_pos_site_id
 _symmetry_equiv_pos_as_xyz
  1  'x, y, z'
loop_
 _atom_site_type_symbol
 _atom_site_label
 _atom_site_symmetry_multiplicity
 _atom_site_fract_x
 _atom_site_fract_y
 _atom_site_fract_z
 _atom_site_occupancy
  Na  Na0  1  0.334422  0.996586  0.750000  1
  Na  Na1  1  0.164942  0.495530  0.250000  1
  Na  Na2  1  0.664815  0.002752  0.250000  1
  Nd  Nd3  1  0.504514  0.684395  0.598129  1
  Nd  Nd4  1  0.008419  0.822991  0.903037  1
  Nd  Nd5  1  0.490909  0.316355  0.097131  1
  Nd  Nd6  1  0.992153  0.182393  0.402944  1
  Nd  Nd7  1  0.490909  0.316355  0.402869  1
  Nd  Nd8  1  0.992153  0.182393  0.097056  1
  Nd  Nd9  1  0.504514  0.684395  0.901871  1
  Nd  Nd10  1  0.008419  0.822991  0.596963  1
  Y  Y11  1  0.663961  0.166054  0.625902  1
  Y  Y12  1  0.169009  0.327741  0.874312  1
  Y  Y13  1  0.334795  0.828158  0.125217  1
  Y  Y14  1  0.836666  0.670204  0.375434  1
  Y  Y15  1  0.334795  0.828158  0.374783  1
  Y  Y16  1  0.836666  0.670204  0.124566  1
  Y  Y17  1  0.663961  0.166054  0.874098  1
  Y  Y18  1  0.169009  0.327741  0.625688  1
  Y  Y19  1  0.834730  0.502805  0.750000  1
  Sn  Sn20  1  0.674254  0.959223  0.462999  1
  Sn  Sn21  1  0.174364  0.538238  0.037457  1
  Sn  Sn22  1  0.326919  0.040108  0.963507  1
  Sn  Sn23  1  0.826310  0.464195  0.541382  1
  Sn  Sn24  1  0.326919  0.040108  0.536493  1
  Sn  Sn25  1  0.826310  0.464195  0.958618  1
  Sn  Sn26  1  0.674254  0.959223  0.037001  1
  Sn  Sn27  1  0.174364  0.538238  0.462543  1
  Sn  Sn28  1  0.471438  0.390365  0.750000  1
  Sn  Sn29  1  0.968056  0.119965  0.750000  1
  Sn  Sn30  1  0.532512  0.610374  0.250000  1
  Sn  Sn31  1  0.032485  0.886318  0.250000  1
  Sn  Sn32  1  0.708881  0.859151  0.750000  1
  Sn  Sn33  1  0.200808  0.636830  0.750000  1
  Sn  Sn34  1  0.290668  0.134217  0.250000  1
  Sn  Sn35  1  0.791696  0.365000  0.250000  1
