# generated using pymatgen
data_Ba2NaTeO6
_symmetry_space_group_name_H-M   'P 1'
_cell_length_a   8.33849900
_cell_length_b   8.33842840
_cell_length_c   10.21485182
_cell_angle_alpha   65.90854427
_cell_angle_beta   114.09169664
_cell_angle_gamma   90.00173222
_symmetry_Int_Tables_number   1
_chemical_formula_structural   Ba2NaTeO6
_chemical_formula_sum   'Ba8 Na4 Te4 O24'
_cell_volume   579.94857425
_cell_formula_units_Z   4
loop_
 _symmetry_equiv_pos_site_id
 _symmetry_equiv_pos_as_xyz
  1  'x, y, z'
loop_
 _atom_site_type_symbol
 _atom_site_label
 _atom_site_symmetry_multiplicity
 _atom_site_fract_x
 _atom_site_fract_y
 _atom_site_fract_z
 _atom_site_occupancy
  Ba  Ba0  1  0.874874  0.625103  0.249872  1
  Ba  Ba1  1  0.625054  0.374885  0.750116  1
  Ba  Ba2  1  0.374992  0.125034  0.249873  1
  Ba  Ba3  1  0.125050  0.875011  0.750114  1
  Ba  Ba4  1  0.125070  0.374869  0.750127  1
  Ba  Ba5  1  0.874890  0.125016  0.249887  1
  Ba  Ba6  1  0.625070  0.874995  0.750128  1
  Ba  Ba7  1  0.375007  0.625086  0.249885  1
  Na  Na8  1  0.500009  0.499998  0.000024  1
  Na  Na9  1  0.250013  0.249980  0.500024  1
  Na  Na10  1  0.749956  0.750012  0.499952  1
  Na  Na11  1  0.000004  0.000020  0.999990  1
  Te  Te12  1  0.500004  0.000000  0.000002  1
  Te  Te13  1  0.250000  0.750001  0.499994  1
  Te  Te14  1  0.000000  0.500002  0.999996  1
  Te  Te15  1  0.750004  0.249996  0.500006  1
  O  O16  1  0.384324  0.115676  0.768628  1
  O  O17  1  0.134288  0.865712  0.268556  1
  O  O18  1  0.884297  0.615703  0.768575  1
  O  O19  1  0.634297  0.365703  0.268575  1
  O  O20  1  0.268534  0.000019  0.999971  1
  O  O21  1  0.018454  0.749991  0.500029  1
  O  O22  1  0.768483  0.500020  0.999970  1
  O  O23  1  0.518474  0.249996  0.500019  1
  O  O24  1  0.500007  0.231450  0.000023  1
  O  O25  1  0.249979  0.981573  0.499969  1
  O  O26  1  0.000008  0.731478  0.000025  1
  O  O27  1  0.749983  0.481545  0.499974  1
  O  O28  1  0.615676  0.884326  0.231368  1
  O  O29  1  0.365718  0.634281  0.731457  1
  O  O30  1  0.115704  0.384296  0.231426  1
  O  O31  1  0.865700  0.134299  0.731420  1
  O  O32  1  0.500021  0.768526  0.000028  1
  O  O33  1  0.249992  0.518453  0.499975  1
  O  O34  1  0.000022  0.268496  0.000032  1
  O  O35  1  0.749996  0.018478  0.499980  1
  O  O36  1  0.731441  0.000006  0.999978  1
  O  O37  1  0.481569  0.749977  0.500034  1
  O  O38  1  0.231488  0.500006  0.999977  1
  O  O39  1  0.981549  0.249982  0.500025  1
