# generated using pymatgen
data_Lu2ZnPt3
_symmetry_space_group_name_H-M   'P 1'
_cell_length_a   5.21249498
_cell_length_b   5.21249341
_cell_length_c   5.48277870
_cell_angle_alpha   86.00833126
_cell_angle_beta   93.99167157
_cell_angle_gamma   130.50625347
_symmetry_Int_Tables_number   1
_chemical_formula_structural   Lu2ZnPt3
_chemical_formula_sum   'Lu2 Zn1 Pt3'
_cell_volume   112.93208401
_cell_formula_units_Z   1
loop_
 _symmetry_equiv_pos_site_id
 _symmetry_equiv_pos_as_xyz
  1  'x, y, z'
loop_
 _atom_site_type_symbol
 _atom_site_label
 _atom_site_symmetry_multiplicity
 _atom_site_fract_x
 _atom_site_fract_y
 _atom_site_fract_z
 _atom_site_occupancy
  Lu  Lu0  1  0.694549  0.305451  0.728212  1
  Lu  Lu1  1  0.305451  0.694549  0.271788  1
  Zn  Zn2  1  0.000000  0.000000  0.000000  1
  Pt  Pt3  1  0.000000  0.000000  0.500000  1
  Pt  Pt4  1  0.392112  0.607888  0.783188  1
  Pt  Pt5  1  0.607888  0.392112  0.216812  1
