# generated using pymatgen
data_Nd4MoOsO12
_symmetry_space_group_name_H-M   'P 1'
_cell_length_a   5.43054900
_cell_length_b   9.37668033
_cell_length_c   10.27640294
_cell_angle_alpha   89.66828944
_cell_angle_beta   90.00000000
_cell_angle_gamma   90.00000000
_symmetry_Int_Tables_number   1
_chemical_formula_structural   Nd4MoOsO12
_chemical_formula_sum   'Nd8 Mo2 Os2 O24'
_cell_volume   523.27103238
_cell_formula_units_Z   2
loop_
 _symmetry_equiv_pos_site_id
 _symmetry_equiv_pos_as_xyz
  1  'x, y, z'
loop_
 _atom_site_type_symbol
 _atom_site_label
 _atom_site_symmetry_multiplicity
 _atom_site_fract_x
 _atom_site_fract_y
 _atom_site_fract_z
 _atom_site_occupancy
  Nd  Nd0  1  0.021610  0.104704  0.462982  1
  Nd  Nd1  1  0.521610  0.395296  0.537018  1
  Nd  Nd2  1  0.972238  0.599739  0.038195  1
  Nd  Nd3  1  0.472238  0.900261  0.961805  1
  Nd  Nd4  1  0.036692  0.218537  0.869132  1
  Nd  Nd5  1  0.536692  0.281463  0.130868  1
  Nd  Nd6  1  0.970489  0.716618  0.630858  1
  Nd  Nd7  1  0.470489  0.783382  0.369142  1
  Mo  Mo8  1  0.458546  0.505902  0.850902  1
  Mo  Mo9  1  0.958546  0.994098  0.149098  1
  Os  Os10  1  0.543385  0.001598  0.645723  1
  Os  Os11  1  0.043385  0.498402  0.354277  1
  O  O12  1  0.250227  0.409821  0.991368  1
  O  O13  1  0.750227  0.090179  0.008632  1
  O  O14  1  0.756670  0.908857  0.506524  1
  O  O15  1  0.256670  0.591143  0.493476  1
  O  O16  1  0.224192  0.109183  0.064359  1
  O  O17  1  0.724192  0.390817  0.935641  1
  O  O18  1  0.779039  0.610178  0.432618  1
  O  O19  1  0.279039  0.889822  0.567382  1
  O  O20  1  0.306084  0.366615  0.321844  1
  O  O21  1  0.806084  0.133385  0.678156  1
  O  O22  1  0.688212  0.863733  0.177787  1
  O  O23  1  0.188212  0.636267  0.822213  1
  O  O24  1  0.169614  0.948816  0.288544  1
  O  O25  1  0.669614  0.551184  0.711456  1
  O  O26  1  0.826982  0.447169  0.213765  1
  O  O27  1  0.326982  0.052831  0.786235  1
  O  O28  1  0.180110  0.637998  0.242142  1
  O  O29  1  0.680110  0.862002  0.757858  1
  O  O30  1  0.815195  0.134731  0.259828  1
  O  O31  1  0.315195  0.365269  0.740172  1
  O  O32  1  0.070992  0.846647  0.028033  1
  O  O33  1  0.570992  0.653353  0.971967  1
  O  O34  1  0.929722  0.350654  0.477888  1
  O  O35  1  0.429722  0.149346  0.522112  1
