# generated using pymatgen
data_Yb3CeIn2Rh3
_symmetry_space_group_name_H-M   'P 1'
_cell_length_a   7.28388800
_cell_length_b   7.41766561
_cell_length_c   4.23168500
_cell_angle_alpha   90.00000000
_cell_angle_beta   90.00000000
_cell_angle_gamma   119.40518774
_symmetry_Int_Tables_number   1
_chemical_formula_structural   Yb3CeIn2Rh3
_chemical_formula_sum   'Yb3 Ce1 In2 Rh3'
_cell_volume   199.18032419
_cell_formula_units_Z   1
loop_
 _symmetry_equiv_pos_site_id
 _symmetry_equiv_pos_as_xyz
  1  'x, y, z'
loop_
 _atom_site_type_symbol
 _atom_site_label
 _atom_site_symmetry_multiplicity
 _atom_site_fract_x
 _atom_site_fract_y
 _atom_site_fract_z
 _atom_site_occupancy
  Yb  Yb0  1  0.623806  0.000000  0.500000  1
  Yb  Yb1  1  0.409388  0.438428  0.500000  1
  Yb  Yb2  1  0.970960  0.561572  0.500000  1
  Ce  Ce3  1  0.272719  0.000000  0.000000  1
  In  In4  1  0.747962  0.744363  0.000000  1
  In  In5  1  0.003599  0.255637  0.000000  1
  Rh  Rh6  1  0.009247  0.000000  0.500000  1
  Rh  Rh7  1  0.325215  0.688111  0.000000  1
  Rh  Rh8  1  0.637104  0.311889  0.000000  1
