# generated using pymatgen
data_Tm8Lu2AlSb5
_symmetry_space_group_name_H-M   'P 1'
_cell_length_a   8.78249100
_cell_length_b   8.79438211
_cell_length_c   6.27314415
_cell_angle_alpha   90.02158464
_cell_angle_beta   90.00000000
_cell_angle_gamma   119.95527835
_symmetry_Int_Tables_number   1
_chemical_formula_structural   Tm8Lu2AlSb5
_chemical_formula_sum   'Tm8 Lu2 Al1 Sb5'
_cell_volume   419.79227160
_cell_formula_units_Z   1
loop_
 _symmetry_equiv_pos_site_id
 _symmetry_equiv_pos_as_xyz
  1  'x, y, z'
loop_
 _atom_site_type_symbol
 _atom_site_label
 _atom_site_symmetry_multiplicity
 _atom_site_fract_x
 _atom_site_fract_y
 _atom_site_fract_z
 _atom_site_occupancy
  Tm  Tm0  1  0.664871  0.326088  0.001686  1
  Tm  Tm1  1  0.338782  0.673912  0.498314  1
  Tm  Tm2  1  0.246942  0.000000  0.250000  1
  Tm  Tm3  1  0.759554  0.000000  0.750000  1
  Tm  Tm4  1  0.990223  0.234754  0.249956  1
  Tm  Tm5  1  0.755469  0.765246  0.250044  1
  Tm  Tm6  1  0.243313  0.242547  0.750018  1
  Tm  Tm7  1  0.000765  0.757453  0.749982  1
  Lu  Lu8  1  0.338986  0.674144  0.001847  1
  Lu  Lu9  1  0.664842  0.325856  0.498153  1
  Al  Al10  1  0.602417  0.000000  0.250000  1
  Sb  Sb11  1  0.393912  0.000000  0.750000  1
  Sb  Sb12  1  0.997763  0.608658  0.250048  1
  Sb  Sb13  1  0.389104  0.391342  0.249952  1
  Sb  Sb14  1  0.609662  0.606267  0.749946  1
  Sb  Sb15  1  0.003395  0.393733  0.750054  1
