# generated using pymatgen
data_BaTh(CuGe)2
_symmetry_space_group_name_H-M   'P 1'
_cell_length_a   4.35640900
_cell_length_b   4.35640937
_cell_length_c   8.63096500
_cell_angle_alpha   90.00000000
_cell_angle_beta   90.00000000
_cell_angle_gamma   120.00000480
_symmetry_Int_Tables_number   1
_chemical_formula_structural   BaTh(CuGe)2
_chemical_formula_sum   'Ba1 Th1 Cu2 Ge2'
_cell_volume   141.85586493
_cell_formula_units_Z   1
loop_
 _symmetry_equiv_pos_site_id
 _symmetry_equiv_pos_as_xyz
  1  'x, y, z'
loop_
 _atom_site_type_symbol
 _atom_site_label
 _atom_site_symmetry_multiplicity
 _atom_site_fract_x
 _atom_site_fract_y
 _atom_site_fract_z
 _atom_site_occupancy
  Ba  Ba0  1  0.000000  0.000000  0.000000  1
  Th  Th1  1  0.000000  0.000000  0.500000  1
  Cu  Cu2  1  0.333333  0.666667  0.712534  1
  Cu  Cu3  1  0.666667  0.333333  0.287466  1
  Ge  Ge4  1  0.666667  0.333333  0.712385  1
  Ge  Ge5  1  0.333333  0.666667  0.287615  1
