# generated using pymatgen
data_Eu2ZnCd(BPt3)2
_symmetry_space_group_name_H-M   'P 1'
_cell_length_a   5.65161900
_cell_length_b   5.65161821
_cell_length_c   7.47927500
_cell_angle_alpha   90.00000000
_cell_angle_beta   90.00000000
_cell_angle_gamma   119.99999879
_symmetry_Int_Tables_number   1
_chemical_formula_structural   Eu2ZnCd(BPt3)2
_chemical_formula_sum   'Eu2 Zn1 Cd1 B2 Pt6'
_cell_volume   206.88825229
_cell_formula_units_Z   1
loop_
 _symmetry_equiv_pos_site_id
 _symmetry_equiv_pos_as_xyz
  1  'x, y, z'
loop_
 _atom_site_type_symbol
 _atom_site_label
 _atom_site_symmetry_multiplicity
 _atom_site_fract_x
 _atom_site_fract_y
 _atom_site_fract_z
 _atom_site_occupancy
  Eu  Eu0  1  0.000000  0.000000  0.500000  1
  Eu  Eu1  1  0.000000  0.000000  0.000000  1
  Zn  Zn2  1  0.666667  0.333333  0.000000  1
  Cd  Cd3  1  0.333333  0.666667  0.000000  1
  B  B4  1  0.666667  0.333333  0.500000  1
  B  B5  1  0.333333  0.666667  0.500000  1
  Pt  Pt6  1  0.501204  0.498796  0.697424  1
  Pt  Pt7  1  0.501204  0.002407  0.697424  1
  Pt  Pt8  1  0.997593  0.498796  0.697424  1
  Pt  Pt9  1  0.501204  0.498796  0.302576  1
  Pt  Pt10  1  0.501204  0.002407  0.302576  1
  Pt  Pt11  1  0.997593  0.498796  0.302576  1
