# generated using pymatgen
data_Nb5AlSi2
_symmetry_space_group_name_H-M   'P 1'
_cell_length_a   6.68035128
_cell_length_b   6.68035224
_cell_length_c   7.63401241
_cell_angle_alpha   115.94694777
_cell_angle_beta   115.94695412
_cell_angle_gamma   89.99999987
_symmetry_Int_Tables_number   1
_chemical_formula_structural   Nb5AlSi2
_chemical_formula_sum   'Nb10 Al2 Si4'
_cell_volume   267.63086894
_cell_formula_units_Z   2
loop_
 _symmetry_equiv_pos_site_id
 _symmetry_equiv_pos_as_xyz
  1  'x, y, z'
loop_
 _atom_site_type_symbol
 _atom_site_label
 _atom_site_symmetry_multiplicity
 _atom_site_fract_x
 _atom_site_fract_y
 _atom_site_fract_z
 _atom_site_occupancy
  Nb  Nb0  1  0.500000  0.500000  0.000000  1
  Nb  Nb1  1  0.000000  0.000000  0.000000  1
  Nb  Nb2  1  0.982305  0.812522  0.294826  1
  Nb  Nb3  1  0.312522  0.482305  0.294826  1
  Nb  Nb4  1  0.812522  0.312522  0.294826  1
  Nb  Nb5  1  0.482305  0.982305  0.294826  1
  Nb  Nb6  1  0.017695  0.187478  0.705174  1
  Nb  Nb7  1  0.687478  0.517695  0.705174  1
  Nb  Nb8  1  0.187478  0.687478  0.705174  1
  Nb  Nb9  1  0.517695  0.017695  0.705174  1
  Al  Al10  1  0.750000  0.750000  0.500000  1
  Al  Al11  1  0.250000  0.250000  0.500000  1
  Si  Si12  1  0.629584  0.870416  0.000000  1
  Si  Si13  1  0.370416  0.129584  0.000000  1
  Si  Si14  1  0.870416  0.370416  0.000000  1
  Si  Si15  1  0.129584  0.629584  0.000000  1
