# generated using pymatgen
data_Ba2DyU7O22
_symmetry_space_group_name_H-M   'P 1'
_cell_length_a   6.87592375
_cell_length_b   6.73176208
_cell_length_c   13.36126592
_cell_angle_alpha   90.00000045
_cell_angle_beta   89.80619544
_cell_angle_gamma   119.30883055
_symmetry_Int_Tables_number   1
_chemical_formula_structural   Ba2DyU7O22
_chemical_formula_sum   'Ba2 Dy1 U7 O22'
_cell_volume   539.28403849
_cell_formula_units_Z   1
loop_
 _symmetry_equiv_pos_site_id
 _symmetry_equiv_pos_as_xyz
  1  'x, y, z'
loop_
 _atom_site_type_symbol
 _atom_site_label
 _atom_site_symmetry_multiplicity
 _atom_site_fract_x
 _atom_site_fract_y
 _atom_site_fract_z
 _atom_site_occupancy
  Ba  Ba0  1  0.328311  0.664636  0.747783  1
  Ba  Ba1  1  0.671689  0.336324  0.252217  1
  Dy  Dy2  1  0.000000  0.636416  0.500000  1
  U  U3  1  0.000000  0.359755  0.000000  1
  U  U4  1  0.330147  0.663418  0.250412  1
  U  U5  1  0.351320  0.352328  0.501427  1
  U  U6  1  0.647332  0.648828  0.999867  1
  U  U7  1  0.352668  0.001496  0.000133  1
  U  U8  1  0.669853  0.333270  0.749588  1
  U  U9  1  0.648680  0.001007  0.498573  1
  O  O10  1  0.000000  0.742315  0.000000  1
  O  O11  1  0.075424  0.637673  0.332717  1
  O  O12  1  0.056369  0.408702  0.150620  1
  O  O13  1  0.000000  0.254217  0.500000  1
  O  O14  1  0.355793  0.942155  0.154026  1
  O  O15  1  0.339518  0.667449  0.536098  1
  O  O16  1  0.336574  0.670938  0.965481  1
  O  O17  1  0.577751  0.937174  0.342347  1
  O  O18  1  0.255321  0.253520  0.999211  1
  O  O19  1  0.357110  0.415924  0.343467  1
  O  O20  1  0.422249  0.359423  0.657653  1
  O  O21  1  0.256491  0.019041  0.499556  1
  O  O22  1  0.575354  0.643272  0.157235  1
  O  O23  1  0.644207  0.586362  0.845974  1
  O  O24  1  0.743509  0.762550  0.500444  1
  O  O25  1  0.424646  0.067918  0.842765  1
  O  O26  1  0.663426  0.334363  0.034519  1
  O  O27  1  0.660482  0.327930  0.463902  1
  O  O28  1  0.642890  0.058813  0.656533  1
  O  O29  1  0.924576  0.562250  0.667283  1
  O  O30  1  0.744679  0.998200  0.000789  1
  O  O31  1  0.943631  0.352333  0.849380  1
