# generated using pymatgen
data_Cs2Pd3O7
_symmetry_space_group_name_H-M   'P 1'
_cell_length_a   8.00551226
_cell_length_b   8.27105239
_cell_length_c   8.26281716
_cell_angle_alpha   104.71741835
_cell_angle_beta   104.90819621
_cell_angle_gamma   118.63503465
_symmetry_Int_Tables_number   1
_chemical_formula_structural   Cs2Pd3O7
_chemical_formula_sum   'Cs4 Pd6 O14'
_cell_volume   415.57791134
_cell_formula_units_Z   2
loop_
 _symmetry_equiv_pos_site_id
 _symmetry_equiv_pos_as_xyz
  1  'x, y, z'
loop_
 _atom_site_type_symbol
 _atom_site_label
 _atom_site_symmetry_multiplicity
 _atom_site_fract_x
 _atom_site_fract_y
 _atom_site_fract_z
 _atom_site_occupancy
  Cs  Cs0  1  0.310768  0.800512  0.060143  1
  Cs  Cs1  1  0.258872  0.685308  0.489393  1
  Cs  Cs2  1  0.741128  0.314692  0.510608  1
  Cs  Cs3  1  0.689233  0.199488  0.939857  1
  Pd  Pd4  1  0.358488  0.356956  0.074574  1
  Pd  Pd5  1  0.071996  0.072593  0.216356  1
  Pd  Pd6  1  0.784525  0.786761  0.357261  1
  Pd  Pd7  1  0.215474  0.213239  0.642739  1
  Pd  Pd8  1  0.928005  0.927407  0.783643  1
  Pd  Pd9  1  0.641512  0.643044  0.925426  1
  O  O10  1  0.047826  0.190589  0.026867  1
  O  O11  1  0.673907  0.530789  0.125940  1
  O  O12  1  0.753420  0.903069  0.163093  1
  O  O13  1  0.370906  0.216070  0.238035  1
  O  O14  1  0.471892  0.625388  0.286198  1
  O  O15  1  0.104493  0.958396  0.406647  1
  O  O16  1  0.147112  0.300710  0.444210  1
  O  O17  1  0.852888  0.699290  0.555790  1
  O  O18  1  0.895507  0.041604  0.593353  1
  O  O19  1  0.528108  0.374612  0.713802  1
  O  O20  1  0.629095  0.783930  0.761967  1
  O  O21  1  0.246579  0.096931  0.836906  1
  O  O22  1  0.326094  0.469211  0.874059  1
  O  O23  1  0.952173  0.809411  0.973133  1
