# generated using pymatgen
data_Sm3Y3Co2(P3Rh4)4
_symmetry_space_group_name_H-M   'P 1'
_cell_length_a   3.88705400
_cell_length_b   11.16662561
_cell_length_c   12.84046670
_cell_angle_alpha   90.03798259
_cell_angle_beta   90.00000000
_cell_angle_gamma   90.00000000
_symmetry_Int_Tables_number   1
_chemical_formula_structural   Sm3Y3Co2(P3Rh4)4
_chemical_formula_sum   'Sm3 Y3 Co2 P12 Rh16'
_cell_volume   557.34388857
_cell_formula_units_Z   1
loop_
 _symmetry_equiv_pos_site_id
 _symmetry_equiv_pos_as_xyz
  1  'x, y, z'
loop_
 _atom_site_type_symbol
 _atom_site_label
 _atom_site_symmetry_multiplicity
 _atom_site_fract_x
 _atom_site_fract_y
 _atom_site_fract_z
 _atom_site_occupancy
  Sm  Sm0  1  0.000000  0.500087  0.521972  1
  Sm  Sm1  1  0.500000  0.999961  0.478232  1
  Sm  Sm2  1  0.500000  0.815277  0.201821  1
  Y  Y3  1  0.500000  0.184990  0.201719  1
  Y  Y4  1  0.000000  0.684775  0.798187  1
  Y  Y5  1  0.000000  0.315215  0.798110  1
  Co  Co6  1  0.000000  0.499639  0.979939  1
  Co  Co7  1  0.500000  0.000548  0.019298  1
  P  P8  1  0.500000  0.499760  0.882023  1
  P  P9  1  0.000000  0.000752  0.117293  1
  P  P10  1  0.500000  0.500057  0.349384  1
  P  P11  1  0.000000  0.999965  0.650694  1
  P  P12  1  0.500000  0.314702  0.619769  1
  P  P13  1  0.500000  0.685157  0.620027  1
  P  P14  1  0.000000  0.185749  0.380397  1
  P  P15  1  0.000000  0.814688  0.381524  1
  P  P16  1  0.500000  0.853138  0.896272  1
  P  P17  1  0.500000  0.146830  0.896151  1
  P  P18  1  0.000000  0.645515  0.102980  1
  P  P19  1  0.000000  0.353354  0.103664  1
  Rh  Rh20  1  0.500000  0.500046  0.167767  1
  Rh  Rh21  1  0.000000  0.000348  0.832073  1
  Rh  Rh22  1  0.500000  0.499884  0.704825  1
  Rh  Rh23  1  0.000000  0.001212  0.295828  1
  Rh  Rh24  1  0.500000  0.336624  0.993899  1
  Rh  Rh25  1  0.500000  0.662996  0.993379  1
  Rh  Rh26  1  0.000000  0.163799  0.005926  1
  Rh  Rh27  1  0.000000  0.836784  0.004811  1
  Rh  Rh28  1  0.500000  0.293421  0.429697  1
  Rh  Rh29  1  0.500000  0.706330  0.430315  1
  Rh  Rh30  1  0.000000  0.206721  0.570452  1
  Rh  Rh31  1  0.000000  0.793499  0.570603  1
  Rh  Rh32  1  0.500000  0.873497  0.713002  1
  Rh  Rh33  1  0.500000  0.126427  0.712835  1
  Rh  Rh34  1  0.000000  0.624881  0.288067  1
  Rh  Rh35  1  0.000000  0.373372  0.287065  1
