# generated using pymatgen
data_Ho3Er17Si15Rh
_symmetry_space_group_name_H-M   'P 1'
_cell_length_a   7.37126091
_cell_length_b   7.61164544
_cell_length_c   14.44904223
_cell_angle_alpha   90.31694327
_cell_angle_beta   90.36354898
_cell_angle_gamma   90.17291377
_symmetry_Int_Tables_number   1
_chemical_formula_structural   Ho3Er17Si15Rh
_chemical_formula_sum   'Ho3 Er17 Si15 Rh1'
_cell_volume   810.66604501
_cell_formula_units_Z   1
loop_
 _symmetry_equiv_pos_site_id
 _symmetry_equiv_pos_as_xyz
  1  'x, y, z'
loop_
 _atom_site_type_symbol
 _atom_site_label
 _atom_site_symmetry_multiplicity
 _atom_site_fract_x
 _atom_site_fract_y
 _atom_site_fract_z
 _atom_site_occupancy
  Ho  Ho0  1  0.025018  0.818663  0.599440  1
  Ho  Ho1  1  0.525339  0.683221  0.597663  1
  Ho  Ho2  1  0.321393  0.818785  0.121767  1
  Er  Er3  1  0.816834  0.679904  0.122566  1
  Er  Er4  1  0.851585  0.506269  0.749245  1
  Er  Er5  1  0.471385  0.316093  0.099563  1
  Er  Er6  1  0.028211  0.818220  0.901674  1
  Er  Er7  1  0.472096  0.315964  0.401729  1
  Er  Er8  1  0.652773  0.012218  0.257810  1
  Er  Er9  1  0.529608  0.682456  0.900415  1
  Er  Er10  1  0.681155  0.179890  0.877521  1
  Er  Er11  1  0.177943  0.320985  0.623872  1
  Er  Er12  1  0.184397  0.322693  0.875667  1
  Er  Er13  1  0.816357  0.688306  0.382201  1
  Er  Er14  1  0.323365  0.825165  0.377937  1
  Er  Er15  1  0.352225  0.990706  0.747534  1
  Er  Er16  1  0.683370  0.165131  0.618133  1
  Er  Er17  1  0.147184  0.490187  0.252209  1
  Er  Er18  1  0.971294  0.181188  0.098255  1
  Er  Er19  1  0.971610  0.177055  0.401388  1
  Si  Si20  1  0.233286  0.629147  0.750938  1
  Si  Si21  1  0.342999  0.028630  0.541012  1
  Si  Si22  1  0.026802  0.892985  0.246851  1
  Si  Si23  1  0.733842  0.869477  0.752283  1
  Si  Si24  1  0.265576  0.128646  0.246347  1
  Si  Si25  1  0.851252  0.471450  0.541866  1
  Si  Si26  1  0.481415  0.391693  0.748736  1
  Si  Si27  1  0.148326  0.531346  0.461448  1
  Si  Si28  1  0.147096  0.527789  0.039846  1
  Si  Si29  1  0.977772  0.104270  0.751833  1
  Si  Si30  1  0.768399  0.375930  0.248826  1
  Si  Si31  1  0.350958  0.030186  0.959679  1
  Si  Si32  1  0.855970  0.471358  0.959204  1
  Si  Si33  1  0.647139  0.971071  0.039099  1
  Si  Si34  1  0.522221  0.603090  0.248608  1
  Rh  Rh35  1  0.643805  0.979834  0.456833  1
