# generated using pymatgen
data_Ti24P8H
_symmetry_space_group_name_H-M   'P 1'
_cell_length_a   4.98494600
_cell_length_b   9.96591528
_cell_length_c   9.97451031
_cell_angle_alpha   89.95529359
_cell_angle_beta   90.00000000
_cell_angle_gamma   90.00000000
_symmetry_Int_Tables_number   1
_chemical_formula_structural   Ti24P8H
_chemical_formula_sum   'Ti24 P8 H1'
_cell_volume   495.52902814
_cell_formula_units_Z   1
loop_
 _symmetry_equiv_pos_site_id
 _symmetry_equiv_pos_as_xyz
  1  'x, y, z'
loop_
 _atom_site_type_symbol
 _atom_site_label
 _atom_site_symmetry_multiplicity
 _atom_site_fract_x
 _atom_site_fract_y
 _atom_site_fract_z
 _atom_site_occupancy
  Ti  Ti0  1  0.788512  0.393331  0.916345  1
  Ti  Ti1  1  0.788512  0.606669  0.083655  1
  Ti  Ti2  1  0.288415  0.583442  0.893290  1
  Ti  Ti3  1  0.288415  0.416558  0.106710  1
  Ti  Ti4  1  0.220473  0.109736  0.585359  1
  Ti  Ti5  1  0.220473  0.890264  0.414641  1
  Ti  Ti6  1  0.712432  0.913749  0.610231  1
  Ti  Ti7  1  0.712432  0.086251  0.389769  1
  Ti  Ti8  1  0.972515  0.028508  0.861463  1
  Ti  Ti9  1  0.972515  0.971492  0.138537  1
  Ti  Ti10  1  0.472516  0.639843  0.528229  1
  Ti  Ti11  1  0.472516  0.360157  0.471771  1
  Ti  Ti12  1  0.032468  0.472103  0.639085  1
  Ti  Ti13  1  0.032468  0.527897  0.360915  1
  Ti  Ti14  1  0.531319  0.860565  0.971510  1
  Ti  Ti15  1  0.531319  0.139435  0.028490  1
  Ti  Ti16  1  0.263920  0.284195  0.819508  1
  Ti  Ti17  1  0.263920  0.715805  0.180492  1
  Ti  Ti18  1  0.762750  0.680663  0.784044  1
  Ti  Ti19  1  0.762750  0.319337  0.215956  1
  Ti  Ti20  1  0.741398  0.217733  0.682273  1
  Ti  Ti21  1  0.741398  0.782267  0.317727  1
  Ti  Ti22  1  0.238865  0.818086  0.718235  1
  Ti  Ti23  1  0.238865  0.181914  0.281765  1
  P  P24  1  0.466803  0.040807  0.793595  1
  P  P25  1  0.466803  0.959193  0.206405  1
  P  P26  1  0.965973  0.706575  0.540743  1
  P  P27  1  0.965973  0.293425  0.459257  1
  P  P28  1  0.538483  0.459492  0.706900  1
  P  P29  1  0.538483  0.540508  0.293100  1
  P  P30  1  0.037841  0.792796  0.959439  1
  P  P31  1  0.037841  0.207204  0.040561  1
  H  H32  1  0.966232  0.000000  0.500000  1
