# generated using pymatgen
data_Ce3Dy9MnCo3
_symmetry_space_group_name_H-M   'P 1'
_cell_length_a   6.28951475
_cell_length_b   6.86638499
_cell_length_c   9.57217100
_cell_angle_alpha   90.00000000
_cell_angle_beta   90.00000000
_cell_angle_gamma   92.84885877
_symmetry_Int_Tables_number   1
_chemical_formula_structural   Ce3Dy9MnCo3
_chemical_formula_sum   'Ce3 Dy9 Mn1 Co3'
_cell_volume   412.87507875
_cell_formula_units_Z   1
loop_
 _symmetry_equiv_pos_site_id
 _symmetry_equiv_pos_as_xyz
  1  'x, y, z'
loop_
 _atom_site_type_symbol
 _atom_site_label
 _atom_site_symmetry_multiplicity
 _atom_site_fract_x
 _atom_site_fract_y
 _atom_site_fract_z
 _atom_site_occupancy
  Ce  Ce0  1  0.157037  0.442232  0.750000  1
  Ce  Ce1  1  0.364538  0.925423  0.750000  1
  Ce  Ce2  1  0.844893  0.560893  0.250000  1
  Dy  Dy3  1  0.677519  0.325273  0.933295  1
  Dy  Dy4  1  0.641673  0.047514  0.250000  1
  Dy  Dy5  1  0.175217  0.172007  0.429111  1
  Dy  Dy6  1  0.830706  0.829200  0.567510  1
  Dy  Dy7  1  0.175217  0.172007  0.070889  1
  Dy  Dy8  1  0.830706  0.829200  0.932490  1
  Dy  Dy9  1  0.677519  0.325273  0.566705  1
  Dy  Dy10  1  0.324647  0.671347  0.067823  1
  Dy  Dy11  1  0.324647  0.671347  0.432177  1
  Mn  Mn12  1  0.482509  0.636409  0.750000  1
  Co  Co13  1  0.983550  0.136544  0.750000  1
  Co  Co14  1  0.027021  0.857181  0.250000  1
  Co  Co15  1  0.482601  0.398153  0.250000  1
