# generated using pymatgen
data_RbAg(PO3)4
_symmetry_space_group_name_H-M   'P 1'
_cell_length_a   10.51296956
_cell_length_b   10.51297000
_cell_length_c   5.61807221
_cell_angle_alpha   79.44523485
_cell_angle_beta   79.44523663
_cell_angle_gamma   74.59606545
_symmetry_Int_Tables_number   1
_chemical_formula_structural   RbAg(PO3)4
_chemical_formula_sum   'Rb2 Ag2 P8 O24'
_cell_volume   582.53201228
_cell_formula_units_Z   2
loop_
 _symmetry_equiv_pos_site_id
 _symmetry_equiv_pos_as_xyz
  1  'x, y, z'
loop_
 _atom_site_type_symbol
 _atom_site_label
 _atom_site_symmetry_multiplicity
 _atom_site_fract_x
 _atom_site_fract_y
 _atom_site_fract_z
 _atom_site_occupancy
  Rb  Rb0  1  0.391835  0.391835  0.721567  1
  Rb  Rb1  1  0.608165  0.608165  0.278433  1
  Ag  Ag2  1  0.500000  0.000000  0.000000  1
  Ag  Ag3  1  0.000000  0.500000  0.000000  1
  P  P4  1  0.799803  0.348886  0.817114  1
  P  P5  1  0.069227  0.301397  0.493762  1
  P  P6  1  0.301397  0.069227  0.493762  1
  P  P7  1  0.651114  0.200197  0.182886  1
  P  P8  1  0.348886  0.799803  0.817114  1
  P  P9  1  0.698603  0.930773  0.506238  1
  P  P10  1  0.930773  0.698603  0.506238  1
  P  P11  1  0.200197  0.651114  0.182886  1
  O  O12  1  0.446626  0.832078  0.956966  1
  O  O13  1  0.391428  0.122970  0.601656  1
  O  O14  1  0.408538  0.676809  0.703287  1
  O  O15  1  0.167922  0.553374  0.043034  1
  O  O16  1  0.553374  0.167922  0.043034  1
  O  O17  1  0.935680  0.678550  0.782788  1
  O  O18  1  0.212175  0.787825  0.000000  1
  O  O19  1  0.591462  0.323191  0.296713  1
  O  O20  1  0.608572  0.877030  0.398344  1
  O  O21  1  0.713867  0.075664  0.369939  1
  O  O22  1  0.323191  0.591462  0.296713  1
  O  O23  1  0.877030  0.608572  0.398344  1
  O  O24  1  0.832078  0.446626  0.956966  1
  O  O25  1  0.075664  0.713867  0.369939  1
  O  O26  1  0.146395  0.146395  0.547622  1
  O  O27  1  0.122970  0.391428  0.601656  1
  O  O28  1  0.676809  0.408538  0.703287  1
  O  O29  1  0.286133  0.924336  0.630061  1
  O  O30  1  0.787825  0.212175  0.000000  1
  O  O31  1  0.321450  0.064320  0.217212  1
  O  O32  1  0.678550  0.935680  0.782788  1
  O  O33  1  0.853605  0.853605  0.452378  1
  O  O34  1  0.924336  0.286133  0.630061  1
  O  O35  1  0.064320  0.321450  0.217212  1
