# generated using pymatgen
data_Nd3Th2Bi3C
_symmetry_space_group_name_H-M   'P 1'
_cell_length_a   9.49609690
_cell_length_b   9.49609673
_cell_length_c   6.59556300
_cell_angle_alpha   90.00000000
_cell_angle_beta   90.00000000
_cell_angle_gamma   120.42366086
_symmetry_Int_Tables_number   1
_chemical_formula_structural   Nd3Th2Bi3C
_chemical_formula_sum   'Nd6 Th4 Bi6 C2'
_cell_volume   512.86475628
_cell_formula_units_Z   2
loop_
 _symmetry_equiv_pos_site_id
 _symmetry_equiv_pos_as_xyz
  1  'x, y, z'
loop_
 _atom_site_type_symbol
 _atom_site_label
 _atom_site_symmetry_multiplicity
 _atom_site_fract_x
 _atom_site_fract_y
 _atom_site_fract_z
 _atom_site_occupancy
  Nd  Nd0  1  0.664299  0.332275  0.998806  1
  Nd  Nd1  1  0.332275  0.664299  0.998806  1
  Nd  Nd2  1  0.332275  0.664299  0.501194  1
  Nd  Nd3  1  0.664299  0.332275  0.501194  1
  Nd  Nd4  1  0.777748  0.997978  0.250000  1
  Nd  Nd5  1  0.997978  0.777748  0.250000  1
  Th  Th6  1  0.787772  0.787772  0.750000  1
  Th  Th7  1  0.217202  0.001138  0.750000  1
  Th  Th8  1  0.001138  0.217202  0.750000  1
  Th  Th9  1  0.212115  0.212115  0.250000  1
  Bi  Bi10  1  0.402738  0.402738  0.750000  1
  Bi  Bi11  1  0.599848  0.999645  0.750000  1
  Bi  Bi12  1  0.999645  0.599848  0.750000  1
  Bi  Bi13  1  0.599347  0.599347  0.250000  1
  Bi  Bi14  1  0.399372  0.997613  0.250000  1
  Bi  Bi15  1  0.997613  0.399372  0.250000  1
  C  C16  1  0.007169  0.007169  0.992246  1
  C  C17  1  0.007169  0.007169  0.507754  1
