# generated using pymatgen
data_Li4Pr2HoSn4
_symmetry_space_group_name_H-M   'P 1'
_cell_length_a   8.79432040
_cell_length_b   8.79431981
_cell_length_c   8.79432070
_cell_angle_alpha   148.70798701
_cell_angle_beta   133.02143690
_cell_angle_gamma   57.53372007
_symmetry_Int_Tables_number   1
_chemical_formula_structural   Li4Pr2HoSn4
_chemical_formula_sum   'Li4 Pr2 Ho1 Sn4'
_cell_volume   256.35606973
_cell_formula_units_Z   1
loop_
 _symmetry_equiv_pos_site_id
 _symmetry_equiv_pos_as_xyz
  1  'x, y, z'
loop_
 _atom_site_type_symbol
 _atom_site_label
 _atom_site_symmetry_multiplicity
 _atom_site_fract_x
 _atom_site_fract_y
 _atom_site_fract_z
 _atom_site_occupancy
  Li  Li0  1  0.638073  0.328258  0.309814  1
  Li  Li1  1  0.361927  0.671742  0.690186  1
  Li  Li2  1  0.018443  0.328258  0.690186  1
  Li  Li3  1  0.981557  0.671742  0.309814  1
  Pr  Pr4  1  0.369762  0.869762  0.500000  1
  Pr  Pr5  1  0.630238  0.130238  0.500000  1
  Ho  Ho6  1  0.000000  0.000000  0.000000  1
  Sn  Sn7  1  0.209800  0.209800  0.000000  1
  Sn  Sn8  1  0.790200  0.790200  0.000000  1
  Sn  Sn9  1  0.705444  0.500000  0.205444  1
  Sn  Sn10  1  0.294556  0.500000  0.794556  1
