# generated using pymatgen
data_Lu10Ga4BiTe
_symmetry_space_group_name_H-M   'P 1'
_cell_length_a   8.53751324
_cell_length_b   8.53751284
_cell_length_c   6.36235000
_cell_angle_alpha   90.00000000
_cell_angle_beta   90.00000000
_cell_angle_gamma   119.92573379
_symmetry_Int_Tables_number   1
_chemical_formula_structural   Lu10Ga4BiTe
_chemical_formula_sum   'Lu10 Ga4 Bi1 Te1'
_cell_volume   401.91616009
_cell_formula_units_Z   1
loop_
 _symmetry_equiv_pos_site_id
 _symmetry_equiv_pos_as_xyz
  1  'x, y, z'
loop_
 _atom_site_type_symbol
 _atom_site_label
 _atom_site_symmetry_multiplicity
 _atom_site_fract_x
 _atom_site_fract_y
 _atom_site_fract_z
 _atom_site_occupancy
  Lu  Lu0  1  0.680431  0.322082  0.000777  1
  Lu  Lu1  1  0.322082  0.680431  0.000777  1
  Lu  Lu2  1  0.322082  0.680431  0.499223  1
  Lu  Lu3  1  0.680431  0.322082  0.499223  1
  Lu  Lu4  1  0.770910  0.770910  0.750000  1
  Lu  Lu5  1  0.232797  0.981911  0.750000  1
  Lu  Lu6  1  0.981911  0.232797  0.750000  1
  Lu  Lu7  1  0.227562  0.227562  0.250000  1
  Lu  Lu8  1  0.766302  0.017773  0.250000  1
  Lu  Lu9  1  0.017773  0.766302  0.250000  1
  Ga  Ga10  1  0.598254  0.995412  0.750000  1
  Ga  Ga11  1  0.995412  0.598254  0.750000  1
  Ga  Ga12  1  0.400441  0.007211  0.250000  1
  Ga  Ga13  1  0.007211  0.400441  0.250000  1
  Bi  Bi14  1  0.606273  0.606273  0.250000  1
  Te  Te15  1  0.390126  0.390126  0.750000  1
