# generated using pymatgen
data_Li6CeDyUN6
_symmetry_space_group_name_H-M   'P 1'
_cell_length_a   6.09953300
_cell_length_b   6.09953416
_cell_length_c   5.47153500
_cell_angle_alpha   90.00000000
_cell_angle_beta   90.00000000
_cell_angle_gamma   120.00000999
_symmetry_Int_Tables_number   1
_chemical_formula_structural   Li6CeDyUN6
_chemical_formula_sum   'Li6 Ce1 Dy1 U1 N6'
_cell_volume   176.29216961
_cell_formula_units_Z   1
loop_
 _symmetry_equiv_pos_site_id
 _symmetry_equiv_pos_as_xyz
  1  'x, y, z'
loop_
 _atom_site_type_symbol
 _atom_site_label
 _atom_site_symmetry_multiplicity
 _atom_site_fract_x
 _atom_site_fract_y
 _atom_site_fract_z
 _atom_site_occupancy
  Li  Li0  1  0.977759  0.648635  0.603850  1
  Li  Li1  1  0.351365  0.329123  0.603850  1
  Li  Li2  1  0.670877  0.022241  0.603850  1
  Li  Li3  1  0.006688  0.336641  0.394078  1
  Li  Li4  1  0.663359  0.670046  0.394078  1
  Li  Li5  1  0.329954  0.993312  0.394078  1
  Ce  Ce6  1  0.333333  0.666667  0.992993  1
  Dy  Dy7  1  0.000000  0.000000  0.998104  1
  U  U8  1  0.666667  0.333333  0.006812  1
  N  N9  1  0.982031  0.647413  0.226660  1
  N  N10  1  0.352587  0.334617  0.226660  1
  N  N11  1  0.665383  0.017969  0.226660  1
  N  N12  1  0.978054  0.334770  0.776110  1
  N  N13  1  0.665230  0.643283  0.776110  1
  N  N14  1  0.356717  0.021946  0.776110  1
