# generated using pymatgen
data_DyY9Hg3Ru
_symmetry_space_group_name_H-M   'P 1'
_cell_length_a   9.66037272
_cell_length_b   9.65899842
_cell_length_c   9.71281525
_cell_angle_alpha   89.99982998
_cell_angle_beta   89.93238416
_cell_angle_gamma   119.99481053
_symmetry_Int_Tables_number   1
_chemical_formula_structural   DyY9Hg3Ru
_chemical_formula_sum   'Dy2 Y18 Hg6 Ru2'
_cell_volume   784.91755381
_cell_formula_units_Z   2
loop_
 _symmetry_equiv_pos_site_id
 _symmetry_equiv_pos_as_xyz
  1  'x, y, z'
loop_
 _atom_site_type_symbol
 _atom_site_label
 _atom_site_symmetry_multiplicity
 _atom_site_fract_x
 _atom_site_fract_y
 _atom_site_fract_z
 _atom_site_occupancy
  Dy  Dy0  1  0.209876  0.790036  0.439100  1
  Dy  Dy1  1  0.209878  0.419840  0.439103  1
  Y  Y2  1  0.000322  0.000161  0.499766  1
  Y  Y3  1  0.000022  0.000010  0.999994  1
  Y  Y4  1  0.581240  0.790616  0.440013  1
  Y  Y5  1  0.790726  0.209570  0.560218  1
  Y  Y6  1  0.790729  0.581158  0.560215  1
  Y  Y7  1  0.418892  0.209446  0.560189  1
  Y  Y8  1  0.790582  0.209513  0.939707  1
  Y  Y9  1  0.790579  0.581070  0.939708  1
  Y  Y10  1  0.418938  0.209471  0.939734  1
  Y  Y11  1  0.209460  0.790649  0.060348  1
  Y  Y12  1  0.209457  0.418808  0.060348  1
  Y  Y13  1  0.581022  0.790510  0.060187  1
  Y  Y14  1  0.541040  0.458854  0.250110  1
  Y  Y15  1  0.541040  0.082186  0.250111  1
  Y  Y16  1  0.918003  0.459001  0.250224  1
  Y  Y17  1  0.458764  0.541128  0.749832  1
  Y  Y18  1  0.458764  0.917637  0.749834  1
  Y  Y19  1  0.082490  0.541246  0.749658  1
  Hg  Hg20  1  0.881240  0.118781  0.250015  1
  Hg  Hg21  1  0.881235  0.762457  0.250015  1
  Hg  Hg22  1  0.237518  0.118759  0.249918  1
  Hg  Hg23  1  0.118730  0.881170  0.750041  1
  Hg  Hg24  1  0.118732  0.237559  0.750042  1
  Hg  Hg25  1  0.762337  0.881168  0.750020  1
  Ru  Ru26  1  0.331786  0.665892  0.251698  1
  Ru  Ru27  1  0.666598  0.333302  0.749850  1
