# generated using pymatgen
data_Tb4Tm2CoTe2
_symmetry_space_group_name_H-M   'P 1'
_cell_length_a   8.23913100
_cell_length_b   8.39112024
_cell_length_c   3.92513900
_cell_angle_alpha   90.00000000
_cell_angle_beta   90.00000000
_cell_angle_gamma   119.40259877
_symmetry_Int_Tables_number   1
_chemical_formula_structural   Tb4Tm2CoTe2
_chemical_formula_sum   'Tb4 Tm2 Co1 Te2'
_cell_volume   236.41228732
_cell_formula_units_Z   1
loop_
 _symmetry_equiv_pos_site_id
 _symmetry_equiv_pos_as_xyz
  1  'x, y, z'
loop_
 _atom_site_type_symbol
 _atom_site_label
 _atom_site_symmetry_multiplicity
 _atom_site_fract_x
 _atom_site_fract_y
 _atom_site_fract_z
 _atom_site_occupancy
  Tb  Tb0  1  0.000277  0.401542  0.500000  1
  Tb  Tb1  1  0.598735  0.598458  0.500000  1
  Tb  Tb2  1  0.392578  0.000000  0.500000  1
  Tb  Tb3  1  0.764002  0.000000  0.000000  1
  Tm  Tm4  1  0.996092  0.764862  0.000000  1
  Tm  Tm5  1  0.231230  0.235138  0.000000  1
  Co  Co6  1  0.020068  0.000000  0.500000  1
  Te  Te7  1  0.330699  0.664381  0.000000  1
  Te  Te8  1  0.666319  0.335619  0.000000  1
