# generated using pymatgen
data_CeLu3BeRh12
_symmetry_space_group_name_H-M   'P 1'
_cell_length_a   7.05625679
_cell_length_b   7.05625645
_cell_length_c   7.05625704
_cell_angle_alpha   109.50227873
_cell_angle_beta   109.50227877
_cell_angle_gamma   109.50228417
_symmetry_Int_Tables_number   1
_chemical_formula_structural   CeLu3BeRh12
_chemical_formula_sum   'Ce1 Lu3 Be1 Rh12'
_cell_volume   270.14740827
_cell_formula_units_Z   1
loop_
 _symmetry_equiv_pos_site_id
 _symmetry_equiv_pos_as_xyz
  1  'x, y, z'
loop_
 _atom_site_type_symbol
 _atom_site_label
 _atom_site_symmetry_multiplicity
 _atom_site_fract_x
 _atom_site_fract_y
 _atom_site_fract_z
 _atom_site_occupancy
  Ce  Ce0  1  0.500000  0.500000  0.500000  1
  Lu  Lu1  1  0.000000  0.000000  0.500000  1
  Lu  Lu2  1  0.000000  0.500000  0.000000  1
  Lu  Lu3  1  0.500000  0.000000  0.000000  1
  Be  Be4  1  0.000000  0.000000  0.000000  1
  Rh  Rh5  1  0.750741  0.249259  0.500000  1
  Rh  Rh6  1  0.750741  0.500000  0.249259  1
  Rh  Rh7  1  0.500000  0.249259  0.750741  1
  Rh  Rh8  1  0.249259  0.500000  0.750741  1
  Rh  Rh9  1  0.249259  0.750741  0.500000  1
  Rh  Rh10  1  0.500000  0.750741  0.249259  1
  Rh  Rh11  1  0.730910  0.730910  0.001947  1
  Rh  Rh12  1  0.269090  0.998053  0.269090  1
  Rh  Rh13  1  0.998053  0.269090  0.269090  1
  Rh  Rh14  1  0.269090  0.269090  0.998053  1
  Rh  Rh15  1  0.730910  0.001947  0.730910  1
  Rh  Rh16  1  0.001947  0.730910  0.730910  1
