# generated using pymatgen
data_Ta2Ti2NbGa3B
_symmetry_space_group_name_H-M   'P 1'
_cell_length_a   7.76534200
_cell_length_b   7.75878796
_cell_length_c   5.29944700
_cell_angle_alpha   90.00000000
_cell_angle_beta   90.00000000
_cell_angle_gamma   120.02793867
_symmetry_Int_Tables_number   1
_chemical_formula_structural   Ta2Ti2NbGa3B
_chemical_formula_sum   'Ta4 Ti4 Nb2 Ga6 B2'
_cell_volume   276.43518545
_cell_formula_units_Z   2
loop_
 _symmetry_equiv_pos_site_id
 _symmetry_equiv_pos_as_xyz
  1  'x, y, z'
loop_
 _atom_site_type_symbol
 _atom_site_label
 _atom_site_symmetry_multiplicity
 _atom_site_fract_x
 _atom_site_fract_y
 _atom_site_fract_z
 _atom_site_occupancy
  Ta  Ta0  1  0.000429  0.240009  0.250000  1
  Ta  Ta1  1  0.999571  0.759991  0.750000  1
  Ta  Ta2  1  0.760421  0.759991  0.250000  1
  Ta  Ta3  1  0.239579  0.240009  0.750000  1
  Ti  Ti4  1  0.333153  0.666306  0.000000  1
  Ti  Ti5  1  0.666847  0.333694  0.000000  1
  Ti  Ti6  1  0.666847  0.333694  0.500000  1
  Ti  Ti7  1  0.333153  0.666306  0.500000  1
  Nb  Nb8  1  0.240226  0.000000  0.250000  1
  Nb  Nb9  1  0.759774  0.000000  0.750000  1
  Ga  Ga10  1  0.598488  0.000000  0.250000  1
  Ga  Ga11  1  0.401512  0.000000  0.750000  1
  Ga  Ga12  1  0.999921  0.598312  0.250000  1
  Ga  Ga13  1  0.000079  0.401688  0.750000  1
  Ga  Ga14  1  0.401608  0.401688  0.250000  1
  Ga  Ga15  1  0.598392  0.598312  0.750000  1
  B  B16  1  0.000000  0.000000  0.000000  1
  B  B17  1  0.000000  0.000000  0.500000  1
