# generated using pymatgen
data_Ac2P7IrRu11
_symmetry_space_group_name_H-M   'P 1'
_cell_length_a   9.56646649
_cell_length_b   9.61349486
_cell_length_c   4.01512700
_cell_angle_alpha   90.00000000
_cell_angle_beta   90.00000000
_cell_angle_gamma   119.77491523
_symmetry_Int_Tables_number   1
_chemical_formula_structural   Ac2P7IrRu11
_chemical_formula_sum   'Ac2 P7 Ir1 Ru11'
_cell_volume   320.51129219
_cell_formula_units_Z   1
loop_
 _symmetry_equiv_pos_site_id
 _symmetry_equiv_pos_as_xyz
  1  'x, y, z'
loop_
 _atom_site_type_symbol
 _atom_site_label
 _atom_site_symmetry_multiplicity
 _atom_site_fract_x
 _atom_site_fract_y
 _atom_site_fract_z
 _atom_site_occupancy
  Ac  Ac0  1  0.667380  0.335011  0.500000  1
  Ac  Ac1  1  0.331858  0.663640  0.000000  1
  P  P2  1  0.609094  0.709044  0.500000  1
  P  P3  1  0.999041  0.998753  0.000000  1
  P  P4  1  0.283009  0.893297  0.500000  1
  P  P5  1  0.103777  0.389805  0.500000  1
  P  P6  1  0.897375  0.584605  0.000000  1
  P  P7  1  0.417119  0.312383  0.000000  1
  P  P8  1  0.692986  0.109730  0.000000  1
  Ir  Ir9  1  0.559247  0.949038  0.500000  1
  Ru  Ru10  1  0.387443  0.435293  0.500000  1
  Ru  Ru11  1  0.911083  0.120204  0.500000  1
  Ru  Ru12  1  0.206455  0.086110  0.500000  1
  Ru  Ru13  1  0.881408  0.797347  0.500000  1
  Ru  Ru14  1  0.731555  0.893146  0.000000  1
  Ru  Ru15  1  0.109927  0.842214  0.000000  1
  Ru  Ru16  1  0.157359  0.264495  0.000000  1
  Ru  Ru17  1  0.424512  0.065152  0.000000  1
  Ru  Ru18  1  0.937964  0.359341  0.000000  1
  Ru  Ru19  1  0.642834  0.580266  0.000000  1
  Ru  Ru20  1  0.048574  0.611126  0.500000  1
