# generated using pymatgen
data_Nd9Dy(Pb3Cl)2
_symmetry_space_group_name_H-M   'P 1'
_cell_length_a   9.53996900
_cell_length_b   9.53996695
_cell_length_c   6.82292900
_cell_angle_alpha   90.00000000
_cell_angle_beta   90.00000000
_cell_angle_gamma   119.99999672
_symmetry_Int_Tables_number   1
_chemical_formula_structural   Nd9Dy(Pb3Cl)2
_chemical_formula_sum   'Nd9 Dy1 Pb6 Cl2'
_cell_volume   537.76846514
_cell_formula_units_Z   1
loop_
 _symmetry_equiv_pos_site_id
 _symmetry_equiv_pos_as_xyz
  1  'x, y, z'
loop_
 _atom_site_type_symbol
 _atom_site_label
 _atom_site_symmetry_multiplicity
 _atom_site_fract_x
 _atom_site_fract_y
 _atom_site_fract_z
 _atom_site_occupancy
  Nd  Nd0  1  0.333333  0.666667  0.000000  1
  Nd  Nd1  1  0.666667  0.333333  0.000000  1
  Nd  Nd2  1  0.666667  0.333333  0.500000  1
  Nd  Nd3  1  0.258963  0.999567  0.250492  1
  Nd  Nd4  1  0.740605  0.999567  0.749508  1
  Nd  Nd5  1  0.000433  0.259395  0.250492  1
  Nd  Nd6  1  0.000433  0.741037  0.749508  1
  Nd  Nd7  1  0.740605  0.741037  0.250492  1
  Nd  Nd8  1  0.258963  0.259395  0.749508  1
  Dy  Dy9  1  0.333333  0.666667  0.500000  1
  Pb  Pb10  1  0.609635  0.998380  0.251140  1
  Pb  Pb11  1  0.388743  0.998380  0.748860  1
  Pb  Pb12  1  0.001620  0.611257  0.251140  1
  Pb  Pb13  1  0.001620  0.390365  0.748860  1
  Pb  Pb14  1  0.388743  0.390365  0.251140  1
  Pb  Pb15  1  0.609635  0.611257  0.748860  1
  Cl  Cl16  1  0.000000  0.000000  0.000000  1
  Cl  Cl17  1  0.000000  0.000000  0.500000  1
