# generated using pymatgen
data_Tb3Dy11(Tm3Pb8)2
_symmetry_space_group_name_H-M   'P 1'
_cell_length_a   8.15560107
_cell_length_b   8.24199001
_cell_length_c   15.58815600
_cell_angle_alpha   89.99848453
_cell_angle_beta   90.00746090
_cell_angle_gamma   89.99812324
_symmetry_Int_Tables_number   1
_chemical_formula_structural   Tb3Dy11(Tm3Pb8)2
_chemical_formula_sum   'Tb3 Dy11 Tm6 Pb16'
_cell_volume   1047.81062291
_cell_formula_units_Z   1
loop_
 _symmetry_equiv_pos_site_id
 _symmetry_equiv_pos_as_xyz
  1  'x, y, z'
loop_
 _atom_site_type_symbol
 _atom_site_label
 _atom_site_symmetry_multiplicity
 _atom_site_fract_x
 _atom_site_fract_y
 _atom_site_fract_z
 _atom_site_occupancy
  Tb  Tb0  1  0.968754  0.821366  0.403065  1
  Tb  Tb1  1  0.532783  0.324789  0.599536  1
  Tb  Tb2  1  0.032808  0.175174  0.900471  1
  Dy  Dy3  1  0.626952  0.157125  0.380009  1
  Dy  Dy4  1  0.126973  0.342915  0.119971  1
  Dy  Dy5  1  0.625013  0.158624  0.121515  1
  Dy  Dy6  1  0.125042  0.341335  0.378475  1
  Dy  Dy7  1  0.375060  0.842739  0.621294  1
  Dy  Dy8  1  0.875116  0.657308  0.878710  1
  Dy  Dy9  1  0.533729  0.323521  0.901142  1
  Dy  Dy10  1  0.033712  0.176531  0.598875  1
  Dy  Dy11  1  0.466090  0.676730  0.401693  1
  Dy  Dy12  1  0.966062  0.823227  0.098338  1
  Dy  Dy13  1  0.468638  0.678568  0.096954  1
  Tm  Tm14  1  0.372499  0.843962  0.876412  1
  Tm  Tm15  1  0.872464  0.656043  0.623644  1
  Tm  Tm16  1  0.206181  0.505322  0.749975  1
  Tm  Tm17  1  0.706171  0.994663  0.750037  1
  Tm  Tm18  1  0.793907  0.495160  0.250703  1
  Tm  Tm19  1  0.294019  0.004863  0.249211  1
  Pb  Pb20  1  0.284125  0.033108  0.041807  1
  Pb  Pb21  1  0.784018  0.466718  0.458209  1
  Pb  Pb22  1  0.718779  0.962278  0.544493  1
  Pb  Pb23  1  0.218944  0.537843  0.955617  1
  Pb  Pb24  1  0.712162  0.963970  0.956075  1
  Pb  Pb25  1  0.212168  0.536042  0.543928  1
  Pb  Pb26  1  0.284297  0.034496  0.456168  1
  Pb  Pb27  1  0.784026  0.465692  0.043876  1
  Pb  Pb28  1  0.568493  0.626047  0.750451  1
  Pb  Pb29  1  0.068483  0.873955  0.749536  1
  Pb  Pb30  1  0.430942  0.375586  0.250615  1
  Pb  Pb31  1  0.930948  0.124487  0.249374  1
  Pb  Pb32  1  0.345985  0.156134  0.750302  1
  Pb  Pb33  1  0.846017  0.343844  0.749705  1
  Pb  Pb34  1  0.654215  0.844065  0.250113  1
  Pb  Pb35  1  0.154420  0.655772  0.249702  1
