# generated using pymatgen
data_Ho11TmCoTc3
_symmetry_space_group_name_H-M   'P 1'
_cell_length_a   6.25314976
_cell_length_b   7.29391271
_cell_length_c   9.12551809
_cell_angle_alpha   90.01707947
_cell_angle_beta   90.05319761
_cell_angle_gamma   90.16423402
_symmetry_Int_Tables_number   1
_chemical_formula_structural   Ho11TmCoTc3
_chemical_formula_sum   'Ho11 Tm1 Co1 Tc3'
_cell_volume   416.21231943
_cell_formula_units_Z   1
loop_
 _symmetry_equiv_pos_site_id
 _symmetry_equiv_pos_as_xyz
  1  'x, y, z'
loop_
 _atom_site_type_symbol
 _atom_site_label
 _atom_site_symmetry_multiplicity
 _atom_site_fract_x
 _atom_site_fract_y
 _atom_site_fract_z
 _atom_site_occupancy
  Ho  Ho0  1  0.371569  0.540537  0.249824  1
  Ho  Ho1  1  0.127380  0.041608  0.249772  1
  Ho  Ho2  1  0.830251  0.677695  0.435764  1
  Ho  Ho3  1  0.331949  0.821760  0.936505  1
  Ho  Ho4  1  0.165803  0.326863  0.565091  1
  Ho  Ho5  1  0.663338  0.175889  0.438185  1
  Ho  Ho6  1  0.165744  0.326721  0.935056  1
  Ho  Ho7  1  0.331535  0.821404  0.563581  1
  Ho  Ho8  1  0.873275  0.951449  0.750226  1
  Ho  Ho9  1  0.642327  0.457603  0.750177  1
  Ho  Ho10  1  0.830024  0.677753  0.064192  1
  Tm  Tm11  1  0.663379  0.175570  0.061603  1
  Co  Co12  1  0.039673  0.615773  0.749986  1
  Tc  Tc13  1  0.959355  0.388828  0.249714  1
  Tc  Tc14  1  0.463874  0.113232  0.750471  1
  Tc  Tc15  1  0.540525  0.887318  0.249852  1
