# generated using pymatgen
data_Ti5Zn6GaRh12
_symmetry_space_group_name_H-M   'P 1'
_cell_length_a   4.34727300
_cell_length_b   6.06690000
_cell_length_c   12.93971900
_cell_angle_alpha   90.00000000
_cell_angle_beta   89.99954569
_cell_angle_gamma   90.00000000
_symmetry_Int_Tables_number   1
_chemical_formula_structural   Ti5Zn6GaRh12
_chemical_formula_sum   'Ti5 Zn6 Ga1 Rh12'
_cell_volume   341.27823786
_cell_formula_units_Z   1
loop_
 _symmetry_equiv_pos_site_id
 _symmetry_equiv_pos_as_xyz
  1  'x, y, z'
loop_
 _atom_site_type_symbol
 _atom_site_label
 _atom_site_symmetry_multiplicity
 _atom_site_fract_x
 _atom_site_fract_y
 _atom_site_fract_z
 _atom_site_occupancy
  Ti  Ti0  1  0.000007  0.500000  0.998375  1
  Ti  Ti1  1  0.499704  0.000000  0.166226  1
  Ti  Ti2  1  0.999705  0.500000  0.333332  1
  Ti  Ti3  1  0.499997  0.000000  0.500439  1
  Ti  Ti4  1  0.000298  0.500000  0.668295  1
  Zn  Zn5  1  0.999988  0.000000  0.002220  1
  Zn  Zn6  1  0.499705  0.500000  0.164297  1
  Zn  Zn7  1  0.999695  0.000000  0.333341  1
  Zn  Zn8  1  0.500001  0.500000  0.502360  1
  Zn  Zn9  1  0.000303  0.000000  0.664447  1
  Zn  Zn10  1  0.500289  0.500000  0.833336  1
  Ga  Ga11  1  0.500302  0.000000  0.833329  1
  Rh  Rh12  1  0.499996  0.247247  0.998299  1
  Rh  Rh13  1  0.499996  0.752753  0.998299  1
  Rh  Rh14  1  0.999725  0.250360  0.167002  1
  Rh  Rh15  1  0.999725  0.749640  0.167002  1
  Rh  Rh16  1  0.499717  0.250406  0.333331  1
  Rh  Rh17  1  0.499717  0.749594  0.333331  1
  Rh  Rh18  1  0.999998  0.250366  0.499669  1
  Rh  Rh19  1  0.999998  0.749634  0.499669  1
  Rh  Rh20  1  0.500290  0.247250  0.668368  1
  Rh  Rh21  1  0.500290  0.752750  0.668368  1
  Rh  Rh22  1  0.000273  0.247079  0.833333  1
  Rh  Rh23  1  0.000273  0.752921  0.833333  1
