# generated using pymatgen
data_Tb12Fe4PdPb
_symmetry_space_group_name_H-M   'P 1'
_cell_length_a   8.37040564
_cell_length_b   8.37054665
_cell_length_c   8.37040500
_cell_angle_alpha   111.38667074
_cell_angle_beta   109.64795796
_cell_angle_gamma   107.40288411
_symmetry_Int_Tables_number   1
_chemical_formula_structural   Tb12Fe4PdPb
_chemical_formula_sum   'Tb12 Fe4 Pd1 Pb1'
_cell_volume   450.92246606
_cell_formula_units_Z   1
loop_
 _symmetry_equiv_pos_site_id
 _symmetry_equiv_pos_as_xyz
  1  'x, y, z'
loop_
 _atom_site_type_symbol
 _atom_site_label
 _atom_site_symmetry_multiplicity
 _atom_site_fract_x
 _atom_site_fract_y
 _atom_site_fract_z
 _atom_site_occupancy
  Tb  Tb0  1  0.415126  0.211030  0.204093  1
  Tb  Tb1  1  0.584874  0.788970  0.795907  1
  Tb  Tb2  1  0.006937  0.211030  0.795904  1
  Tb  Tb3  1  0.993063  0.788970  0.204096  1
  Tb  Tb4  1  0.186997  0.291459  0.478470  1
  Tb  Tb5  1  0.813003  0.708541  0.521530  1
  Tb  Tb6  1  0.187011  0.708541  0.895537  1
  Tb  Tb7  1  0.812989  0.291459  0.104463  1
  Tb  Tb8  1  0.312766  0.613768  0.301002  1
  Tb  Tb9  1  0.687234  0.386232  0.698998  1
  Tb  Tb10  1  0.312759  0.011746  0.698987  1
  Tb  Tb11  1  0.687241  0.988254  0.301013  1
  Fe  Fe12  1  0.388099  0.000000  0.388099  1
  Fe  Fe13  1  0.611901  0.000000  0.611901  1
  Fe  Fe14  1  0.107934  0.607925  0.499991  1
  Fe  Fe15  1  0.892066  0.392075  0.500009  1
  Pd  Pd16  1  0.000000  0.000000  0.000000  1
  Pb  Pb17  1  0.500000  0.500000  0.000000  1
