# generated using pymatgen
data_CaCuOs2O7
_symmetry_space_group_name_H-M   'P 1'
_cell_length_a   7.18537432
_cell_length_b   7.18537382
_cell_length_c   7.18537478
_cell_angle_alpha   118.86938184
_cell_angle_beta   122.14599294
_cell_angle_gamma   89.14666892
_symmetry_Int_Tables_number   1
_chemical_formula_structural   CaCuOs2O7
_chemical_formula_sum   'Ca2 Cu2 Os4 O14'
_cell_volume   260.00578513
_cell_formula_units_Z   2
loop_
 _symmetry_equiv_pos_site_id
 _symmetry_equiv_pos_as_xyz
  1  'x, y, z'
loop_
 _atom_site_type_symbol
 _atom_site_label
 _atom_site_symmetry_multiplicity
 _atom_site_fract_x
 _atom_site_fract_y
 _atom_site_fract_z
 _atom_site_occupancy
  Ca  Ca0  1  0.500000  0.500000  0.500000  1
  Ca  Ca1  1  0.500000  0.000000  0.000000  1
  Cu  Cu2  1  0.500000  0.500000  0.000000  1
  Cu  Cu3  1  0.000000  0.000000  0.000000  1
  Os  Os4  1  0.000000  0.500000  0.000000  1
  Os  Os5  1  0.000000  0.000000  0.500000  1
  Os  Os6  1  0.000000  0.500000  0.500000  1
  Os  Os7  1  0.500000  0.000000  0.500000  1
  O  O8  1  0.939241  0.583344  0.758362  1
  O  O9  1  0.060759  0.819121  0.644103  1
  O  O10  1  0.675017  0.916656  0.355897  1
  O  O11  1  0.324983  0.680879  0.241638  1
  O  O12  1  0.060759  0.416656  0.241638  1
  O  O13  1  0.939241  0.180879  0.355897  1
  O  O14  1  0.324983  0.083344  0.644103  1
  O  O15  1  0.675017  0.319121  0.758362  1
  O  O16  1  0.080683  0.250000  0.830683  1
  O  O17  1  0.919317  0.750000  0.169317  1
  O  O18  1  0.325086  0.082742  0.242344  1
  O  O19  1  0.674914  0.917258  0.757656  1
  O  O20  1  0.659601  0.417258  0.242344  1
  O  O21  1  0.340399  0.582742  0.757656  1
