# generated using pymatgen
data_Tb11TmInCo4Rh
_symmetry_space_group_name_H-M   'P 1'
_cell_length_a   8.31969694
_cell_length_b   8.32701008
_cell_length_c   8.32701055
_cell_angle_alpha   110.82810861
_cell_angle_beta   110.56076040
_cell_angle_gamma   107.08561649
_symmetry_Int_Tables_number   1
_chemical_formula_structural   Tb11TmInCo4Rh
_chemical_formula_sum   'Tb11 Tm1 In1 Co4 Rh1'
_cell_volume   443.31146936
_cell_formula_units_Z   1
loop_
 _symmetry_equiv_pos_site_id
 _symmetry_equiv_pos_as_xyz
  1  'x, y, z'
loop_
 _atom_site_type_symbol
 _atom_site_label
 _atom_site_symmetry_multiplicity
 _atom_site_fract_x
 _atom_site_fract_y
 _atom_site_fract_z
 _atom_site_occupancy
  Tb  Tb0  1  0.597384  0.791210  0.806174  1
  Tb  Tb1  1  0.015636  0.209126  0.806509  1
  Tb  Tb2  1  0.985525  0.790406  0.195120  1
  Tb  Tb3  1  0.187043  0.293721  0.479999  1
  Tb  Tb4  1  0.811710  0.704082  0.516735  1
  Tb  Tb5  1  0.187043  0.707044  0.893321  1
  Tb  Tb6  1  0.811710  0.294975  0.107629  1
  Tb  Tb7  1  0.314702  0.617684  0.304807  1
  Tb  Tb8  1  0.684569  0.380370  0.693766  1
  Tb  Tb9  1  0.314702  0.009896  0.697018  1
  Tb  Tb10  1  0.684569  0.990802  0.304199  1
  Tm  Tm11  1  0.405397  0.209952  0.195446  1
  In  In12  1  0.499772  0.499277  0.000494  1
  Co  Co13  1  0.379369  0.000261  0.379109  1
  Co  Co14  1  0.617672  0.999440  0.618233  1
  Co  Co15  1  0.112042  0.612000  0.500042  1
  Co  Co16  1  0.885479  0.387615  0.497864  1
  Rh  Rh17  1  0.005677  0.002141  0.003535  1
