# generated using pymatgen
data_Er8InNi2Ag
_symmetry_space_group_name_H-M   'P 1'
_cell_length_a   9.41066097
_cell_length_b   9.41073711
_cell_length_c   9.45761100
_cell_angle_alpha   59.83829839
_cell_angle_beta   59.83914687
_cell_angle_gamma   60.14120294
_symmetry_Int_Tables_number   1
_chemical_formula_structural   Er8InNi2Ag
_chemical_formula_sum   'Er16 In2 Ni4 Ag2'
_cell_volume   591.43395476
_cell_formula_units_Z   2
loop_
 _symmetry_equiv_pos_site_id
 _symmetry_equiv_pos_as_xyz
  1  'x, y, z'
loop_
 _atom_site_type_symbol
 _atom_site_label
 _atom_site_symmetry_multiplicity
 _atom_site_fract_x
 _atom_site_fract_y
 _atom_site_fract_z
 _atom_site_occupancy
  Er  Er0  1  0.348836  0.348808  0.347438  1
  Er  Er1  1  0.348828  0.348794  0.954922  1
  Er  Er2  1  0.354127  0.949008  0.348413  1
  Er  Er3  1  0.949019  0.354089  0.348428  1
  Er  Er4  1  0.810825  0.189498  0.189059  1
  Er  Er5  1  0.189509  0.810798  0.810633  1
  Er  Er6  1  0.189509  0.810838  0.189053  1
  Er  Er7  1  0.810780  0.189505  0.810657  1
  Er  Er8  1  0.189799  0.189789  0.810229  1
  Er  Er9  1  0.809750  0.809798  0.190227  1
  Er  Er10  1  0.940193  0.564388  0.564394  1
  Er  Er11  1  0.564377  0.940194  0.931045  1
  Er  Er12  1  0.564388  0.940188  0.564385  1
  Er  Er13  1  0.940202  0.564372  0.931034  1
  Er  Er14  1  0.564960  0.564945  0.935051  1
  Er  Er15  1  0.939047  0.939035  0.560960  1
  In  In16  1  0.579008  0.579009  0.585502  1
  In  In17  1  0.579010  0.579008  0.256484  1
  Ni  Ni18  1  0.141877  0.141926  0.145646  1
  Ni  Ni19  1  0.141839  0.141951  0.570524  1
  Ni  Ni20  1  0.141467  0.572814  0.142869  1
  Ni  Ni21  1  0.572836  0.141444  0.142861  1
  Ag  Ag22  1  0.579947  0.249864  0.585092  1
  Ag  Ag23  1  0.249866  0.579938  0.585095  1
