# generated using pymatgen
data_Tm12TcRuRh2
_symmetry_space_group_name_H-M   'P 1'
_cell_length_a   6.25947770
_cell_length_b   7.23737193
_cell_length_c   9.04947600
_cell_angle_alpha   90.00000000
_cell_angle_beta   90.00000000
_cell_angle_gamma   90.17480824
_symmetry_Int_Tables_number   1
_chemical_formula_structural   Tm12TcRuRh2
_chemical_formula_sum   'Tm12 Tc1 Ru1 Rh2'
_cell_volume   409.95897572
_cell_formula_units_Z   1
loop_
 _symmetry_equiv_pos_site_id
 _symmetry_equiv_pos_as_xyz
  1  'x, y, z'
loop_
 _atom_site_type_symbol
 _atom_site_label
 _atom_site_symmetry_multiplicity
 _atom_site_fract_x
 _atom_site_fract_y
 _atom_site_fract_z
 _atom_site_occupancy
  Tm  Tm0  1  0.630397  0.039497  0.250000  1
  Tm  Tm1  1  0.375406  0.961468  0.750000  1
  Tm  Tm2  1  0.131214  0.463185  0.750000  1
  Tm  Tm3  1  0.868114  0.538408  0.250000  1
  Tm  Tm4  1  0.164862  0.174213  0.060996  1
  Tm  Tm5  1  0.832441  0.824353  0.937610  1
  Tm  Tm6  1  0.672235  0.319552  0.934884  1
  Tm  Tm7  1  0.832441  0.824353  0.562390  1
  Tm  Tm8  1  0.327773  0.681553  0.064968  1
  Tm  Tm9  1  0.164862  0.174213  0.439004  1
  Tm  Tm10  1  0.327773  0.681553  0.435032  1
  Tm  Tm11  1  0.672235  0.319552  0.565116  1
  Tc  Tc12  1  0.965836  0.114779  0.750000  1
  Ru  Ru13  1  0.036507  0.882521  0.250000  1
  Rh  Rh14  1  0.456963  0.386489  0.250000  1
  Rh  Rh15  1  0.540939  0.614309  0.750000  1
