# generated using pymatgen
data_UFeH6
_symmetry_space_group_name_H-M   'P 1'
_cell_length_a   4.35818743
_cell_length_b   4.35818833
_cell_length_c   4.35948966
_cell_angle_alpha   58.79217048
_cell_angle_beta   58.79216026
_cell_angle_gamma   58.80685525
_symmetry_Int_Tables_number   1
_chemical_formula_structural   UFeH6
_chemical_formula_sum   'U1 Fe1 H6'
_cell_volume   56.94226152
_cell_formula_units_Z   1
loop_
 _symmetry_equiv_pos_site_id
 _symmetry_equiv_pos_as_xyz
  1  'x, y, z'
loop_
 _atom_site_type_symbol
 _atom_site_label
 _atom_site_symmetry_multiplicity
 _atom_site_fract_x
 _atom_site_fract_y
 _atom_site_fract_z
 _atom_site_occupancy
  U  U0  1  0.500000  0.500000  0.500000  1
  Fe  Fe1  1  0.000000  0.000000  0.000000  1
  H  H2  1  0.564477  0.101754  0.101664  1
  H  H3  1  0.101754  0.564477  0.101664  1
  H  H4  1  0.898368  0.898368  0.435399  1
  H  H5  1  0.101632  0.101632  0.564600  1
  H  H6  1  0.898246  0.435522  0.898336  1
  H  H7  1  0.435522  0.898246  0.898336  1
