# generated using pymatgen
data_Nd2MnIr2Ru
_symmetry_space_group_name_H-M   'P 1'
_cell_length_a   5.27366890
_cell_length_b   5.28382233
_cell_length_c   5.28382124
_cell_angle_alpha   63.98902011
_cell_angle_beta   63.69703699
_cell_angle_gamma   63.69702912
_symmetry_Int_Tables_number   1
_chemical_formula_structural   Nd2MnIr2Ru
_chemical_formula_sum   'Nd2 Mn1 Ir2 Ru1'
_cell_volume   112.82342377
_cell_formula_units_Z   1
loop_
 _symmetry_equiv_pos_site_id
 _symmetry_equiv_pos_as_xyz
  1  'x, y, z'
loop_
 _atom_site_type_symbol
 _atom_site_label
 _atom_site_symmetry_multiplicity
 _atom_site_fract_x
 _atom_site_fract_y
 _atom_site_fract_z
 _atom_site_occupancy
  Nd  Nd0  1  0.624056  0.625684  0.625684  1
  Nd  Nd1  1  0.375944  0.374316  0.374316  1
  Mn  Mn2  1  0.000000  0.000000  0.000000  1
  Ir  Ir3  1  0.000000  0.500000  0.000000  1
  Ir  Ir4  1  0.000000  0.000000  0.500000  1
  Ru  Ru5  1  0.500000  0.000000  0.000000  1
