# generated using pymatgen
data_Mg4CuSbPd10
_symmetry_space_group_name_H-M   'P 1'
_cell_length_a   4.19125100
_cell_length_b   5.52513776
_cell_length_c   10.87825467
_cell_angle_alpha   89.12168430
_cell_angle_beta   90.00000000
_cell_angle_gamma   90.00000000
_symmetry_Int_Tables_number   1
_chemical_formula_structural   Mg4CuSbPd10
_chemical_formula_sum   'Mg4 Cu1 Sb1 Pd10'
_cell_volume   251.88074694
_cell_formula_units_Z   1
loop_
 _symmetry_equiv_pos_site_id
 _symmetry_equiv_pos_as_xyz
  1  'x, y, z'
loop_
 _atom_site_type_symbol
 _atom_site_label
 _atom_site_symmetry_multiplicity
 _atom_site_fract_x
 _atom_site_fract_y
 _atom_site_fract_z
 _atom_site_occupancy
  Mg  Mg0  1  0.500000  0.169730  0.148815  1
  Mg  Mg1  1  0.500000  0.830270  0.851185  1
  Mg  Mg2  1  0.500000  0.316881  0.633037  1
  Mg  Mg3  1  0.500000  0.683119  0.366963  1
  Cu  Cu4  1  0.000000  0.000000  0.500000  1
  Sb  Sb5  1  0.000000  0.500000  0.000000  1
  Pd  Pd6  1  0.500000  0.187744  0.392742  1
  Pd  Pd7  1  0.500000  0.812256  0.607258  1
  Pd  Pd8  1  0.500000  0.305629  0.887744  1
  Pd  Pd9  1  0.500000  0.694371  0.112256  1
  Pd  Pd10  1  0.000000  0.425056  0.246102  1
  Pd  Pd11  1  0.000000  0.574944  0.753898  1
  Pd  Pd12  1  0.000000  0.076627  0.738658  1
  Pd  Pd13  1  0.000000  0.923373  0.261342  1
  Pd  Pd14  1  0.000000  0.000000  0.000000  1
  Pd  Pd15  1  0.000000  0.500000  0.500000  1
