# generated using pymatgen
data_Tm2Be2Rh5Pb
_symmetry_space_group_name_H-M   'P 1'
_cell_length_a   9.59094400
_cell_length_b   9.59094400
_cell_length_c   3.28937900
_cell_angle_alpha   90.00000000
_cell_angle_beta   90.00000000
_cell_angle_gamma   90.00000000
_symmetry_Int_Tables_number   1
_chemical_formula_structural   Tm2Be2Rh5Pb
_chemical_formula_sum   'Tm4 Be4 Rh10 Pb2'
_cell_volume   302.57749697
_cell_formula_units_Z   2
loop_
 _symmetry_equiv_pos_site_id
 _symmetry_equiv_pos_as_xyz
  1  'x, y, z'
loop_
 _atom_site_type_symbol
 _atom_site_label
 _atom_site_symmetry_multiplicity
 _atom_site_fract_x
 _atom_site_fract_y
 _atom_site_fract_z
 _atom_site_occupancy
  Tm  Tm0  1  0.675638  0.175638  0.000000  1
  Tm  Tm1  1  0.324362  0.824362  0.000000  1
  Tm  Tm2  1  0.175638  0.324362  0.000000  1
  Tm  Tm3  1  0.824362  0.675638  0.000000  1
  Be  Be4  1  0.119973  0.619973  0.000000  1
  Be  Be5  1  0.880027  0.380027  0.000000  1
  Be  Be6  1  0.619973  0.880027  0.000000  1
  Be  Be7  1  0.380027  0.119973  0.000000  1
  Rh  Rh8  1  0.500000  0.000000  0.500000  1
  Rh  Rh9  1  0.000000  0.500000  0.500000  1
  Rh  Rh10  1  0.219865  0.070419  0.500000  1
  Rh  Rh11  1  0.780135  0.929581  0.500000  1
  Rh  Rh12  1  0.070419  0.780135  0.500000  1
  Rh  Rh13  1  0.719865  0.429581  0.500000  1
  Rh  Rh14  1  0.929581  0.219865  0.500000  1
  Rh  Rh15  1  0.280135  0.570419  0.500000  1
  Rh  Rh16  1  0.570419  0.719865  0.500000  1
  Rh  Rh17  1  0.429581  0.280135  0.500000  1
  Pb  Pb18  1  0.000000  0.000000  0.000000  1
  Pb  Pb19  1  0.500000  0.500000  0.000000  1
