# generated using pymatgen
data_Ca3Yb(Al3Ni)6
_symmetry_space_group_name_H-M   'P 1'
_cell_length_a   7.42883324
_cell_length_b   7.42730105
_cell_length_c   9.37349300
_cell_angle_alpha   90.00000000
_cell_angle_beta   90.00000000
_cell_angle_gamma   119.42455932
_symmetry_Int_Tables_number   1
_chemical_formula_structural   Ca3Yb(Al3Ni)6
_chemical_formula_sum   'Ca3 Yb1 Al18 Ni6'
_cell_volume   450.47728989
_cell_formula_units_Z   1
loop_
 _symmetry_equiv_pos_site_id
 _symmetry_equiv_pos_as_xyz
  1  'x, y, z'
loop_
 _atom_site_type_symbol
 _atom_site_label
 _atom_site_symmetry_multiplicity
 _atom_site_fract_x
 _atom_site_fract_y
 _atom_site_fract_z
 _atom_site_occupancy
  Ca  Ca0  1  0.994544  0.671192  0.250000  1
  Ca  Ca1  1  0.005250  0.328949  0.750000  1
  Ca  Ca2  1  0.671061  0.994655  0.250000  1
  Yb  Yb3  1  0.328633  0.004646  0.750000  1
  Al  Al4  1  0.126711  0.126666  0.250000  1
  Al  Al5  1  0.873791  0.873300  0.750000  1
  Al  Al6  1  0.998456  0.334593  0.070744  1
  Al  Al7  1  0.001917  0.665357  0.928321  1
  Al  Al8  1  0.001917  0.665357  0.571679  1
  Al  Al9  1  0.334584  0.998473  0.429544  1
  Al  Al10  1  0.998456  0.334593  0.429256  1
  Al  Al11  1  0.665276  0.002002  0.571748  1
  Al  Al12  1  0.665276  0.002002  0.928252  1
  Al  Al13  1  0.334584  0.998473  0.070456  1
  Al  Al14  1  0.332114  0.331959  0.547550  1
  Al  Al15  1  0.667682  0.667765  0.454296  1
  Al  Al16  1  0.667682  0.667765  0.045704  1
  Al  Al17  1  0.332114  0.331959  0.952450  1
  Al  Al18  1  0.340525  0.550724  0.250000  1
  Al  Al19  1  0.658918  0.448689  0.750000  1
  Al  Al20  1  0.550403  0.340523  0.250000  1
  Al  Al21  1  0.449499  0.659892  0.750000  1
  Ni  Ni22  1  0.669008  0.329742  0.999559  1
  Ni  Ni23  1  0.330345  0.670343  0.999287  1
  Ni  Ni24  1  0.330345  0.670343  0.500713  1
  Ni  Ni25  1  0.669008  0.329742  0.500441  1
  Ni  Ni26  1  0.000951  0.000147  0.998608  1
  Ni  Ni27  1  0.000951  0.000147  0.501392  1
