# generated using pymatgen
data_Sr4Os3(RuO6)3
_symmetry_space_group_name_H-M   'P 1'
_cell_length_a   8.01779747
_cell_length_b   8.02467645
_cell_length_c   8.02467637
_cell_angle_alpha   109.48857156
_cell_angle_beta   109.45386224
_cell_angle_gamma   109.45386287
_symmetry_Int_Tables_number   1
_chemical_formula_structural   Sr4Os3(RuO6)3
_chemical_formula_sum   'Sr4 Os3 Ru3 O18'
_cell_volume   397.54037873
_cell_formula_units_Z   1
loop_
 _symmetry_equiv_pos_site_id
 _symmetry_equiv_pos_as_xyz
  1  'x, y, z'
loop_
 _atom_site_type_symbol
 _atom_site_label
 _atom_site_symmetry_multiplicity
 _atom_site_fract_x
 _atom_site_fract_y
 _atom_site_fract_z
 _atom_site_occupancy
  Sr  Sr0  1  0.995908  0.993897  0.399344  1
  Sr  Sr1  1  0.002011  0.405447  0.006103  1
  Sr  Sr2  1  0.596564  0.600656  0.594553  1
  Sr  Sr3  1  0.403175  0.000000  0.000000  1
  Os  Os4  1  0.368588  0.503263  0.868519  1
  Os  Os5  1  0.865325  0.365256  0.496737  1
  Os  Os6  1  0.500069  0.131481  0.634744  1
  Ru  Ru7  1  0.133958  0.633280  0.497003  1
  Ru  Ru8  1  0.500678  0.863723  0.366720  1
  Ru  Ru9  1  0.636956  0.502997  0.136277  1
  O  O10  1  0.333534  0.006107  0.338568  1
  O  O11  1  0.327427  0.332461  0.993893  1
  O  O12  1  0.994966  0.661432  0.667539  1
  O  O13  1  0.665049  0.670958  0.997008  1
  O  O14  1  0.994091  0.326051  0.329042  1
  O  O15  1  0.668041  0.002992  0.673949  1
  O  O16  1  0.365598  0.300188  0.642251  1
  O  O17  1  0.065408  0.342064  0.699812  1
  O  O18  1  0.723345  0.357749  0.657936  1
  O  O19  1  0.364047  0.660890  0.728378  1
  O  O20  1  0.275496  0.938853  0.637511  1
  O  O21  1  0.637984  0.362489  0.301341  1
  O  O22  1  0.300196  0.632089  0.362183  1
  O  O23  1  0.703155  0.067487  0.339110  1
  O  O24  1  0.938014  0.637817  0.269907  1
  O  O25  1  0.668106  0.730093  0.367911  1
  O  O26  1  0.635667  0.271622  0.932513  1
  O  O27  1  0.336644  0.698659  0.061147  1
