# generated using pymatgen
data_TbErB5
_symmetry_space_group_name_H-M   'P 1'
_cell_length_a   7.09167000
_cell_length_b   7.08175184
_cell_length_c   7.11082350
_cell_angle_alpha   76.32923521
_cell_angle_beta   90.00000000
_cell_angle_gamma   90.00000000
_symmetry_Int_Tables_number   1
_chemical_formula_structural   TbErB5
_chemical_formula_sum   'Tb4 Er4 B20'
_cell_volume   346.99869685
_cell_formula_units_Z   4
loop_
 _symmetry_equiv_pos_site_id
 _symmetry_equiv_pos_as_xyz
  1  'x, y, z'
loop_
 _atom_site_type_symbol
 _atom_site_label
 _atom_site_symmetry_multiplicity
 _atom_site_fract_x
 _atom_site_fract_y
 _atom_site_fract_z
 _atom_site_occupancy
  Tb  Tb0  1  0.692213  0.771907  0.624362  1
  Tb  Tb1  1  0.192213  0.228093  0.875638  1
  Tb  Tb2  1  0.307787  0.228093  0.375638  1
  Tb  Tb3  1  0.807787  0.771907  0.124362  1
  Er  Er4  1  0.315029  0.754252  0.252121  1
  Er  Er5  1  0.815029  0.245748  0.247879  1
  Er  Er6  1  0.684971  0.245748  0.747879  1
  Er  Er7  1  0.184971  0.754252  0.752121  1
  B  B8  1  0.503286  0.313291  0.042196  1
  B  B9  1  0.003286  0.686709  0.457804  1
  B  B10  1  0.496714  0.686709  0.957804  1
  B  B11  1  0.996714  0.313291  0.542196  1
  B  B12  1  0.486841  0.927505  0.923213  1
  B  B13  1  0.986841  0.072495  0.576787  1
  B  B14  1  0.513159  0.072495  0.076787  1
  B  B15  1  0.013159  0.927505  0.423213  1
  B  B16  1  0.326243  0.495905  0.039933  1
  B  B17  1  0.826243  0.504095  0.460067  1
  B  B18  1  0.673757  0.504095  0.960067  1
  B  B19  1  0.173757  0.495905  0.539933  1
  B  B20  1  0.910861  0.499107  0.910938  1
  B  B21  1  0.410861  0.500893  0.589062  1
  B  B22  1  0.089139  0.500893  0.089062  1
  B  B23  1  0.589139  0.499107  0.410938  1
  B  B24  1  0.961677  0.496551  0.674325  1
  B  B25  1  0.461677  0.503449  0.825675  1
  B  B26  1  0.038323  0.503449  0.325675  1
  B  B27  1  0.538323  0.496551  0.174325  1
