# generated using pymatgen
data_Pr10Si16Ag
_symmetry_space_group_name_H-M   'P 1'
_cell_length_a   11.57777456
_cell_length_b   11.57866121
_cell_length_c   11.57776416
_cell_angle_alpha   144.88872789
_cell_angle_beta   136.30826652
_cell_angle_gamma   57.23979158
_symmetry_Int_Tables_number   1
_chemical_formula_structural   Pr10Si16Ag
_chemical_formula_sum   'Pr10 Si16 Ag1'
_cell_volume   611.67610257
_cell_formula_units_Z   1
loop_
 _symmetry_equiv_pos_site_id
 _symmetry_equiv_pos_as_xyz
  1  'x, y, z'
loop_
 _atom_site_type_symbol
 _atom_site_label
 _atom_site_symmetry_multiplicity
 _atom_site_fract_x
 _atom_site_fract_y
 _atom_site_fract_z
 _atom_site_occupancy
  Pr  Pr0  1  0.051643  0.565936  0.020491  1
  Pr  Pr1  1  0.351304  0.367116  0.518152  1
  Pr  Pr2  1  0.153633  0.163615  0.517805  1
  Pr  Pr3  1  0.450721  0.964408  0.014960  1
  Pr  Pr4  1  0.645808  0.163616  0.009981  1
  Pr  Pr5  1  0.949446  0.964408  0.513686  1
  Pr  Pr6  1  0.848965  0.367114  0.015812  1
  Pr  Pr7  1  0.545444  0.565936  0.514292  1
  Pr  Pr8  1  0.253618  0.768195  0.017851  1
  Pr  Pr9  1  0.750345  0.768193  0.514575  1
  Si  Si10  1  0.109309  0.051919  0.942611  1
  Si  Si11  1  0.797139  0.194836  0.397695  1
  Si  Si12  1  0.300072  0.901815  0.601741  1
  Si  Si13  1  0.400033  0.502604  0.102573  1
  Si  Si14  1  0.889262  0.850827  0.961562  1
  Si  Si15  1  0.102191  0.703856  0.601667  1
  Si  Si16  1  0.198984  0.609580  0.410597  1
  Si  Si17  1  0.700388  0.296652  0.596265  1
  Si  Si18  1  0.001918  0.432767  0.430852  1
  Si  Si19  1  0.707299  0.649464  0.942166  1
  Si  Si20  1  0.600893  0.701285  0.100393  1
  Si  Si21  1  0.999335  0.088940  0.089606  1
  Si  Si22  1  0.501511  0.417199  0.915690  1
  Si  Si23  1  0.293547  0.238551  0.945006  1
  Si  Si24  1  0.592396  0.035644  0.443249  1
  Si  Si25  1  0.406980  0.850269  0.443288  1
  Ag  Ag26  1  0.897817  0.504171  0.606353  1
