# generated using pymatgen
data_Pr2B4IrOs2Rh
_symmetry_space_group_name_H-M   'P 1'
_cell_length_a   6.98311271
_cell_length_b   6.10245149
_cell_length_c   5.65011782
_cell_angle_alpha   72.79294672
_cell_angle_beta   56.59225667
_cell_angle_gamma   50.19748979
_symmetry_Int_Tables_number   1
_chemical_formula_structural   Pr2B4IrOs2Rh
_chemical_formula_sum   'Pr2 B4 Ir1 Os2 Rh1'
_cell_volume   153.81022284
_cell_formula_units_Z   1
loop_
 _symmetry_equiv_pos_site_id
 _symmetry_equiv_pos_as_xyz
  1  'x, y, z'
loop_
 _atom_site_type_symbol
 _atom_site_label
 _atom_site_symmetry_multiplicity
 _atom_site_fract_x
 _atom_site_fract_y
 _atom_site_fract_z
 _atom_site_occupancy
  Pr  Pr0  1  0.002202  0.002202  0.997798  1
  Pr  Pr1  1  0.246031  0.246031  0.253969  1
  B  B2  1  0.659201  0.325046  0.701868  1
  B  B3  1  0.325046  0.659201  0.313886  1
  B  B4  1  0.925700  0.589426  0.929973  1
  B  B5  1  0.589426  0.925700  0.554901  1
  Ir  Ir6  1  0.619095  0.619095  0.880905  1
  Os  Os7  1  0.364568  0.364568  0.635432  1
  Os  Os8  1  0.886987  0.886987  0.613013  1
  Rh  Rh9  1  0.631744  0.631744  0.368256  1
