# generated using pymatgen
data_Tb7Y(OsI4)2
_symmetry_space_group_name_H-M   'P 1'
_cell_length_a   11.44062062
_cell_length_b   11.43212814
_cell_length_c   6.21385200
_cell_angle_alpha   90.02014735
_cell_angle_beta   90.02005414
_cell_angle_gamma   88.33080450
_symmetry_Int_Tables_number   1
_chemical_formula_structural   Tb7Y(OsI4)2
_chemical_formula_sum   'Tb7 Y1 Os2 I8'
_cell_volume   812.36872643
_cell_formula_units_Z   1
loop_
 _symmetry_equiv_pos_site_id
 _symmetry_equiv_pos_as_xyz
  1  'x, y, z'
loop_
 _atom_site_type_symbol
 _atom_site_label
 _atom_site_symmetry_multiplicity
 _atom_site_fract_x
 _atom_site_fract_y
 _atom_site_fract_z
 _atom_site_occupancy
  Tb  Tb0  1  0.801993  0.084209  0.999173  1
  Tb  Tb1  1  0.084102  0.801889  0.499158  1
  Tb  Tb2  1  0.078692  0.195521  0.000357  1
  Tb  Tb3  1  0.195512  0.078700  0.500360  1
  Tb  Tb4  1  0.921391  0.804479  0.999650  1
  Tb  Tb5  1  0.915780  0.198060  0.500823  1
  Tb  Tb6  1  0.198051  0.915849  0.000829  1
  Y  Y7  1  0.804451  0.921289  0.499586  1
  Os  Os8  1  0.000006  0.000164  0.249833  1
  Os  Os9  1  0.000236  0.999930  0.750173  1
  I  I10  1  0.644955  0.152116  0.510292  1
  I  I11  1  0.858242  0.648693  0.505599  1
  I  I12  1  0.351479  0.141602  0.994399  1
  I  I13  1  0.141583  0.351481  0.494401  1
  I  I14  1  0.648503  0.858383  0.005652  1
  I  I15  1  0.355072  0.847645  0.489712  1
  I  I16  1  0.152318  0.644927  0.010296  1
  I  I17  1  0.847636  0.355065  0.989707  1
