# generated using pymatgen
data_LaTbSn5Rh3
_symmetry_space_group_name_H-M   'P 1'
_cell_length_a   13.57941406
_cell_length_b   13.57941416
_cell_length_c   7.30101400
_cell_angle_alpha   90.00000000
_cell_angle_beta   90.00000000
_cell_angle_gamma   160.87006993
_symmetry_Int_Tables_number   1
_chemical_formula_structural   LaTbSn5Rh3
_chemical_formula_sum   'La2 Tb2 Sn10 Rh6'
_cell_volume   441.20141354
_cell_formula_units_Z   2
loop_
 _symmetry_equiv_pos_site_id
 _symmetry_equiv_pos_as_xyz
  1  'x, y, z'
loop_
 _atom_site_type_symbol
 _atom_site_label
 _atom_site_symmetry_multiplicity
 _atom_site_fract_x
 _atom_site_fract_y
 _atom_site_fract_z
 _atom_site_occupancy
  La  La0  1  0.171965  0.828035  0.755640  1
  La  La1  1  0.828035  0.171965  0.255640  1
  Tb  Tb2  1  0.476577  0.523423  0.735560  1
  Tb  Tb3  1  0.523423  0.476577  0.235560  1
  Sn  Sn4  1  0.880454  0.119546  0.733220  1
  Sn  Sn5  1  0.119546  0.880454  0.233220  1
  Sn  Sn6  1  0.705115  0.294885  0.053309  1
  Sn  Sn7  1  0.294885  0.705115  0.553309  1
  Sn  Sn8  1  0.594934  0.405066  0.609380  1
  Sn  Sn9  1  0.405066  0.594934  0.109380  1
  Sn  Sn10  1  0.952726  0.047274  0.399991  1
  Sn  Sn11  1  0.047274  0.952726  0.899991  1
  Sn  Sn12  1  0.290225  0.709775  0.974186  1
  Sn  Sn13  1  0.709775  0.290225  0.474186  1
  Rh  Rh14  1  0.049936  0.950064  0.517937  1
  Rh  Rh15  1  0.950064  0.049936  0.017937  1
  Rh  Rh16  1  0.777505  0.222495  0.764309  1
  Rh  Rh17  1  0.222495  0.777505  0.264309  1
  Rh  Rh18  1  0.394603  0.605397  0.484466  1
  Rh  Rh19  1  0.605397  0.394603  0.984466  1
