# generated using pymatgen
data_Er4Ga24FePd8
_symmetry_space_group_name_H-M   'P 1'
_cell_length_a   7.44025030
_cell_length_b   7.50690020
_cell_length_c   13.40866641
_cell_angle_alpha   84.67839750
_cell_angle_beta   79.55285651
_cell_angle_gamma   60.61181425
_symmetry_Int_Tables_number   1
_chemical_formula_structural   Er4Ga24FePd8
_chemical_formula_sum   'Er4 Ga24 Fe1 Pd8'
_cell_volume   641.71910638
_cell_formula_units_Z   1
loop_
 _symmetry_equiv_pos_site_id
 _symmetry_equiv_pos_as_xyz
  1  'x, y, z'
loop_
 _atom_site_type_symbol
 _atom_site_label
 _atom_site_symmetry_multiplicity
 _atom_site_fract_x
 _atom_site_fract_y
 _atom_site_fract_z
 _atom_site_occupancy
  Er  Er0  1  0.400610  0.164773  0.811597  1
  Er  Er1  1  0.599390  0.835227  0.188403  1
  Er  Er2  1  0.728086  0.497554  0.812014  1
  Er  Er3  1  0.271914  0.502446  0.187986  1
  Ga  Ga4  1  0.696712  0.822312  0.942813  1
  Ga  Ga5  1  0.303288  0.177688  0.057187  1
  Ga  Ga6  1  0.145020  0.833928  0.558045  1
  Ga  Ga7  1  0.854980  0.166072  0.441955  1
  Ga  Ga8  1  0.477979  0.167678  0.556189  1
  Ga  Ga9  1  0.522021  0.832322  0.443811  1
  Ga  Ga10  1  0.219096  0.165547  0.321158  1
  Ga  Ga11  1  0.780904  0.834453  0.678842  1
  Ga  Ga12  1  0.433955  0.505673  0.677726  1
  Ga  Ga13  1  0.566045  0.494327  0.322274  1
  Ga  Ga14  1  0.107018  0.161377  0.675701  1
  Ga  Ga15  1  0.892982  0.838623  0.324299  1
  Ga  Ga16  1  0.344845  0.498926  0.944755  1
  Ga  Ga17  1  0.655155  0.501074  0.055245  1
  Ga  Ga18  1  0.019123  0.182787  0.946794  1
  Ga  Ga19  1  0.980877  0.817213  0.053206  1
  Ga  Ga20  1  0.188012  0.497422  0.444629  1
  Ga  Ga21  1  0.811988  0.502578  0.555371  1
  Ga  Ga22  1  0.734568  0.164465  0.181024  1
  Ga  Ga23  1  0.265432  0.835535  0.818976  1
  Ga  Ga24  1  0.061152  0.618712  0.822604  1
  Ga  Ga25  1  0.938848  0.381288  0.177396  1
  Ga  Ga26  1  0.859595  0.038157  0.818218  1
  Ga  Ga27  1  0.140405  0.961843  0.181782  1
  Fe  Fe28  1  0.000000  0.500000  0.000000  1
  Pd  Pd29  1  0.115459  0.495550  0.641055  1
  Pd  Pd30  1  0.884541  0.504450  0.358945  1
  Pd  Pd31  1  0.660349  0.168335  0.999089  1
  Pd  Pd32  1  0.339651  0.831665  0.000911  1
  Pd  Pd33  1  0.540757  0.165947  0.360177  1
  Pd  Pd34  1  0.459243  0.834053  0.639823  1
  Pd  Pd35  1  0.777237  0.175090  0.638394  1
  Pd  Pd36  1  0.222763  0.824910  0.361606  1
