# generated using pymatgen
data_Ac17Yb3Pb16
_symmetry_space_group_name_H-M   'P 1'
_cell_length_a   8.83291200
_cell_length_b   8.89966776
_cell_length_c   17.12472600
_cell_angle_alpha   90.00000000
_cell_angle_beta   90.00000000
_cell_angle_gamma   89.56561968
_symmetry_Int_Tables_number   1
_chemical_formula_structural   Ac17Yb3Pb16
_chemical_formula_sum   'Ac17 Yb3 Pb16'
_cell_volume   1346.13571868
_cell_formula_units_Z   1
loop_
 _symmetry_equiv_pos_site_id
 _symmetry_equiv_pos_as_xyz
  1  'x, y, z'
loop_
 _atom_site_type_symbol
 _atom_site_label
 _atom_site_symmetry_multiplicity
 _atom_site_fract_x
 _atom_site_fract_y
 _atom_site_fract_z
 _atom_site_occupancy
  Ac  Ac0  1  0.381453  0.842716  0.883724  1
  Ac  Ac1  1  0.876877  0.660143  0.616377  1
  Ac  Ac2  1  0.619626  0.158369  0.381713  1
  Ac  Ac3  1  0.118169  0.340430  0.119260  1
  Ac  Ac4  1  0.619626  0.158369  0.118287  1
  Ac  Ac5  1  0.118169  0.340430  0.380740  1
  Ac  Ac6  1  0.381453  0.842716  0.616276  1
  Ac  Ac7  1  0.876877  0.660143  0.883623  1
  Ac  Ac8  1  0.533130  0.319315  0.900971  1
  Ac  Ac9  1  0.030310  0.177570  0.599445  1
  Ac  Ac10  1  0.469864  0.680046  0.398621  1
  Ac  Ac11  1  0.970030  0.818738  0.100171  1
  Ac  Ac12  1  0.469864  0.680046  0.101379  1
  Ac  Ac13  1  0.970030  0.818738  0.399829  1
  Ac  Ac14  1  0.533130  0.319315  0.599029  1
  Ac  Ac15  1  0.030310  0.177570  0.900555  1
  Ac  Ac16  1  0.209361  0.501216  0.750000  1
  Yb  Yb17  1  0.711786  0.995690  0.750000  1
  Yb  Yb18  1  0.787195  0.497428  0.250000  1
  Yb  Yb19  1  0.288112  0.002134  0.250000  1
  Pb  Pb20  1  0.280282  0.029329  0.047931  1
  Pb  Pb21  1  0.781139  0.469116  0.453307  1
  Pb  Pb22  1  0.718764  0.971910  0.545664  1
  Pb  Pb23  1  0.218635  0.531783  0.956517  1
  Pb  Pb24  1  0.718764  0.971910  0.954336  1
  Pb  Pb25  1  0.218635  0.531783  0.543483  1
  Pb  Pb26  1  0.280282  0.029329  0.452069  1
  Pb  Pb27  1  0.781139  0.469116  0.046693  1
  Pb  Pb28  1  0.581951  0.622091  0.750000  1
  Pb  Pb29  1  0.074475  0.891958  0.750000  1
  Pb  Pb30  1  0.422459  0.387748  0.250000  1
  Pb  Pb31  1  0.924105  0.110991  0.250000  1
  Pb  Pb32  1  0.340461  0.139442  0.750000  1
  Pb  Pb33  1  0.828908  0.350515  0.750000  1
  Pb  Pb34  1  0.666711  0.854705  0.250000  1
  Pb  Pb35  1  0.167918  0.647154  0.250000  1
