# generated using pymatgen
data_Hf18TiCo2Mo7
_symmetry_space_group_name_H-M   'P 1'
_cell_length_a   8.36696900
_cell_length_b   8.71380819
_cell_length_c   8.71380900
_cell_angle_alpha   119.98936279
_cell_angle_beta   89.99906184
_cell_angle_gamma   90.00094235
_symmetry_Int_Tables_number   1
_chemical_formula_structural   Hf18TiCo2Mo7
_chemical_formula_sum   'Hf18 Ti1 Co2 Mo7'
_cell_volume   550.25166403
_cell_formula_units_Z   1
loop_
 _symmetry_equiv_pos_site_id
 _symmetry_equiv_pos_as_xyz
  1  'x, y, z'
loop_
 _atom_site_type_symbol
 _atom_site_label
 _atom_site_symmetry_multiplicity
 _atom_site_fract_x
 _atom_site_fract_y
 _atom_site_fract_z
 _atom_site_occupancy
  Hf  Hf0  1  0.557677  0.798161  0.596314  1
  Hf  Hf1  1  0.557702  0.798151  0.201849  1
  Hf  Hf2  1  0.557675  0.403686  0.201840  1
  Hf  Hf3  1  0.442323  0.201839  0.403686  1
  Hf  Hf4  1  0.442298  0.201849  0.798151  1
  Hf  Hf5  1  0.442325  0.596314  0.798160  1
  Hf  Hf6  1  0.058874  0.201709  0.403424  1
  Hf  Hf7  1  0.058896  0.201721  0.798280  1
  Hf  Hf8  1  0.058873  0.596576  0.798291  1
  Hf  Hf9  1  0.941126  0.798291  0.596576  1
  Hf  Hf10  1  0.941104  0.798279  0.201720  1
  Hf  Hf11  1  0.941127  0.403424  0.201709  1
  Hf  Hf12  1  0.750282  0.458192  0.916416  1
  Hf  Hf13  1  0.750282  0.458203  0.541800  1
  Hf  Hf14  1  0.750282  0.083583  0.541809  1
  Hf  Hf15  1  0.249718  0.541808  0.083584  1
  Hf  Hf16  1  0.249718  0.541797  0.458200  1
  Hf  Hf17  1  0.249718  0.916417  0.458191  1
  Ti  Ti18  1  0.500000  0.000000  0.000000  1
  Co  Co19  1  0.751062  0.666641  0.333358  1
  Co  Co20  1  0.248938  0.333359  0.666642  1
  Mo  Mo21  1  0.749816  0.113283  0.226595  1
  Mo  Mo22  1  0.749820  0.113286  0.886713  1
  Mo  Mo23  1  0.749814  0.773405  0.886717  1
  Mo  Mo24  1  0.250184  0.886717  0.773405  1
  Mo  Mo25  1  0.250180  0.886714  0.113287  1
  Mo  Mo26  1  0.250186  0.226595  0.113283  1
  Mo  Mo27  1  0.000000  0.000000  0.000000  1
