# generated using pymatgen
data_Lu2Ta3NbC5
_symmetry_space_group_name_H-M   'P 1'
_cell_length_a   5.63687650
_cell_length_b   5.64564932
_cell_length_c   5.57306422
_cell_angle_alpha   81.65229619
_cell_angle_beta   81.47194314
_cell_angle_gamma   120.91118456
_symmetry_Int_Tables_number   1
_chemical_formula_structural   Lu2Ta3NbC5
_chemical_formula_sum   'Lu2 Ta3 Nb1 C5'
_cell_volume   145.27148681
_cell_formula_units_Z   1
loop_
 _symmetry_equiv_pos_site_id
 _symmetry_equiv_pos_as_xyz
  1  'x, y, z'
loop_
 _atom_site_type_symbol
 _atom_site_label
 _atom_site_symmetry_multiplicity
 _atom_site_fract_x
 _atom_site_fract_y
 _atom_site_fract_z
 _atom_site_occupancy
  Lu  Lu0  1  0.757370  0.757993  0.754743  1
  Lu  Lu1  1  0.242413  0.241780  0.245306  1
  Ta  Ta2  1  0.099066  0.449311  0.740600  1
  Ta  Ta3  1  0.551039  0.900099  0.258772  1
  Ta  Ta4  1  0.899950  0.550262  0.259885  1
  Nb  Nb5  1  0.448362  0.100096  0.741722  1
  C  C6  1  0.500196  0.503493  0.498476  1
  C  C7  1  0.680022  0.323138  0.001613  1
  C  C8  1  0.320885  0.675369  0.001728  1
  C  C9  1  0.824948  0.177963  0.498753  1
  C  C10  1  0.175749  0.820494  0.498402  1
