# generated using pymatgen
data_Hf2Ga2CoPt
_symmetry_space_group_name_H-M   'P 1'
_cell_length_a   7.16415000
_cell_length_b   7.16415059
_cell_length_c   6.66188400
_cell_angle_alpha   90.00000000
_cell_angle_beta   90.00000000
_cell_angle_gamma   120.00000651
_symmetry_Int_Tables_number   1
_chemical_formula_structural   Hf2Ga2CoPt
_chemical_formula_sum   'Hf6 Ga6 Co3 Pt3'
_cell_volume   296.11270793
_cell_formula_units_Z   3
loop_
 _symmetry_equiv_pos_site_id
 _symmetry_equiv_pos_as_xyz
  1  'x, y, z'
loop_
 _atom_site_type_symbol
 _atom_site_label
 _atom_site_symmetry_multiplicity
 _atom_site_fract_x
 _atom_site_fract_y
 _atom_site_fract_z
 _atom_site_occupancy
  Hf  Hf0  1  0.392733  0.378936  0.255225  1
  Hf  Hf1  1  0.616866  0.003777  0.744503  1
  Hf  Hf2  1  0.386911  0.383134  0.744503  1
  Hf  Hf3  1  0.996223  0.613089  0.744503  1
  Hf  Hf4  1  0.986202  0.607267  0.255225  1
  Hf  Hf5  1  0.621064  0.013798  0.255225  1
  Ga  Ga6  1  0.244151  0.995010  0.000203  1
  Ga  Ga7  1  0.277043  0.006767  0.500573  1
  Ga  Ga8  1  0.993233  0.270276  0.500573  1
  Ga  Ga9  1  0.004990  0.249142  0.000203  1
  Ga  Ga10  1  0.750858  0.755849  0.000203  1
  Ga  Ga11  1  0.729724  0.722957  0.500573  1
  Co  Co12  1  0.666667  0.333333  0.506841  1
  Co  Co13  1  0.000000  0.000000  0.723692  1
  Co  Co14  1  0.000000  0.000000  0.277021  1
  Pt  Pt15  1  0.666667  0.333333  0.991928  1
  Pt  Pt16  1  0.333333  0.666667  0.006525  1
  Pt  Pt17  1  0.333333  0.666667  0.492482  1
