# generated using pymatgen
data_Dy3Tm(SiAu2)8
_symmetry_space_group_name_H-M   'P 1'
_cell_length_a   4.41601300
_cell_length_b   4.41601300
_cell_length_c   26.96108500
_cell_angle_alpha   90.00000000
_cell_angle_beta   90.00000000
_cell_angle_gamma   90.00000000
_symmetry_Int_Tables_number   1
_chemical_formula_structural   Dy3Tm(SiAu2)8
_chemical_formula_sum   'Dy3 Tm1 Si8 Au16'
_cell_volume   525.77272397
_cell_formula_units_Z   1
loop_
 _symmetry_equiv_pos_site_id
 _symmetry_equiv_pos_as_xyz
  1  'x, y, z'
loop_
 _atom_site_type_symbol
 _atom_site_label
 _atom_site_symmetry_multiplicity
 _atom_site_fract_x
 _atom_site_fract_y
 _atom_site_fract_z
 _atom_site_occupancy
  Dy  Dy0  1  0.000000  0.500000  0.749397  1
  Dy  Dy1  1  0.500000  0.000000  0.250603  1
  Dy  Dy2  1  0.500000  0.500000  0.500000  1
  Tm  Tm3  1  0.500000  0.500000  0.000000  1
  Si  Si4  1  0.000000  0.000000  0.956928  1
  Si  Si5  1  0.000000  0.000000  0.456868  1
  Si  Si6  1  0.500000  0.000000  0.792725  1
  Si  Si7  1  0.500000  0.000000  0.706139  1
  Si  Si8  1  0.000000  0.500000  0.207275  1
  Si  Si9  1  0.000000  0.500000  0.293861  1
  Si  Si10  1  0.000000  0.000000  0.043072  1
  Si  Si11  1  0.000000  0.000000  0.543132  1
  Au  Au12  1  0.500000  0.000000  0.085449  1
  Au  Au13  1  0.500000  0.500000  0.663207  1
  Au  Au14  1  0.500000  0.500000  0.835731  1
  Au  Au15  1  0.000000  0.500000  0.084762  1
  Au  Au16  1  0.500000  0.000000  0.915238  1
  Au  Au17  1  0.000000  0.000000  0.664421  1
  Au  Au18  1  0.000000  0.500000  0.415244  1
  Au  Au19  1  0.500000  0.500000  0.336793  1
  Au  Au20  1  0.500000  0.000000  0.414512  1
  Au  Au21  1  0.000000  0.000000  0.335579  1
  Au  Au22  1  0.000000  0.000000  0.165371  1
  Au  Au23  1  0.500000  0.000000  0.584756  1
  Au  Au24  1  0.000000  0.000000  0.834629  1
  Au  Au25  1  0.500000  0.500000  0.164269  1
  Au  Au26  1  0.000000  0.500000  0.585488  1
  Au  Au27  1  0.000000  0.500000  0.914551  1
