# generated using pymatgen
data_Tb11Dy8TmSn16
_symmetry_space_group_name_H-M   'P 1'
_cell_length_a   8.04790610
_cell_length_b   8.19696418
_cell_length_c   15.49201502
_cell_angle_alpha   90.00368872
_cell_angle_beta   90.00434208
_cell_angle_gamma   89.96714908
_symmetry_Int_Tables_number   1
_chemical_formula_structural   Tb11Dy8TmSn16
_chemical_formula_sum   'Tb11 Dy8 Tm1 Sn16'
_cell_volume   1021.98324083
_cell_formula_units_Z   1
loop_
 _symmetry_equiv_pos_site_id
 _symmetry_equiv_pos_as_xyz
  1  'x, y, z'
loop_
 _atom_site_type_symbol
 _atom_site_label
 _atom_site_symmetry_multiplicity
 _atom_site_fract_x
 _atom_site_fract_y
 _atom_site_fract_z
 _atom_site_occupancy
  Tb  Tb0  1  0.132529  0.336227  0.378551  1
  Tb  Tb1  1  0.367249  0.836147  0.622127  1
  Tb  Tb2  1  0.867873  0.663415  0.877956  1
  Tb  Tb3  1  0.519893  0.320545  0.902044  1
  Tb  Tb4  1  0.020251  0.179994  0.598027  1
  Tb  Tb5  1  0.480070  0.679785  0.402401  1
  Tb  Tb6  1  0.979906  0.820172  0.097794  1
  Tb  Tb7  1  0.480018  0.679760  0.097542  1
  Tb  Tb8  1  0.979889  0.820226  0.402245  1
  Tb  Tb9  1  0.519916  0.320629  0.597973  1
  Tb  Tb10  1  0.020328  0.179952  0.902009  1
  Dy  Dy11  1  0.367127  0.836188  0.877881  1
  Dy  Dy12  1  0.867788  0.663344  0.622059  1
  Dy  Dy13  1  0.632589  0.163710  0.378219  1
  Dy  Dy14  1  0.132579  0.336306  0.121406  1
  Dy  Dy15  1  0.632547  0.163747  0.121804  1
  Dy  Dy16  1  0.698593  0.997898  0.749982  1
  Dy  Dy17  1  0.801016  0.497476  0.249979  1
  Dy  Dy18  1  0.301103  0.002409  0.249939  1
  Tm  Tm19  1  0.199224  0.502650  0.750031  1
  Sn  Sn20  1  0.292761  0.035499  0.041688  1
  Sn  Sn21  1  0.792331  0.464180  0.458351  1
  Sn  Sn22  1  0.707516  0.964353  0.542083  1
  Sn  Sn23  1  0.207594  0.535363  0.957304  1
  Sn  Sn24  1  0.707109  0.964541  0.957930  1
  Sn  Sn25  1  0.207223  0.535343  0.542828  1
  Sn  Sn26  1  0.292852  0.035423  0.458206  1
  Sn  Sn27  1  0.792524  0.463955  0.041836  1
  Sn  Sn28  1  0.564317  0.618301  0.749999  1
  Sn  Sn29  1  0.065514  0.880613  0.750012  1
  Sn  Sn30  1  0.434563  0.381191  0.249927  1
  Sn  Sn31  1  0.934527  0.118797  0.249935  1
  Sn  Sn32  1  0.328076  0.148224  0.750060  1
  Sn  Sn33  1  0.829215  0.353939  0.749949  1
  Sn  Sn34  1  0.671525  0.853795  0.249991  1
  Sn  Sn35  1  0.171865  0.645903  0.249935  1
