# generated using pymatgen
data_Tm4Al15Ga3Ir5Au
_symmetry_space_group_name_H-M   'P 1'
_cell_length_a   7.56785964
_cell_length_b   7.56417128
_cell_length_c   9.44618649
_cell_angle_alpha   90.02551016
_cell_angle_beta   89.95335885
_cell_angle_gamma   119.41539215
_symmetry_Int_Tables_number   1
_chemical_formula_structural   Tm4Al15Ga3Ir5Au
_chemical_formula_sum   'Tm4 Al15 Ga3 Ir5 Au1'
_cell_volume   471.03131935
_cell_formula_units_Z   1
loop_
 _symmetry_equiv_pos_site_id
 _symmetry_equiv_pos_as_xyz
  1  'x, y, z'
loop_
 _atom_site_type_symbol
 _atom_site_label
 _atom_site_symmetry_multiplicity
 _atom_site_fract_x
 _atom_site_fract_y
 _atom_site_fract_z
 _atom_site_occupancy
  Tm  Tm0  1  0.995127  0.675544  0.250406  1
  Tm  Tm1  1  0.004619  0.322716  0.751814  1
  Tm  Tm2  1  0.679056  0.997779  0.249799  1
  Tm  Tm3  1  0.322978  0.005001  0.748790  1
  Al  Al4  1  0.998636  0.654893  0.919860  1
  Al  Al5  1  0.999588  0.663269  0.574298  1
  Al  Al6  1  0.337039  0.999844  0.425406  1
  Al  Al7  1  0.001044  0.336572  0.428303  1
  Al  Al8  1  0.663133  0.999844  0.574246  1
  Al  Al9  1  0.653843  0.997626  0.919500  1
  Al  Al10  1  0.345082  0.001501  0.079401  1
  Al  Al11  1  0.333406  0.333292  0.556600  1
  Al  Al12  1  0.667076  0.667315  0.443219  1
  Al  Al13  1  0.657768  0.658031  0.062214  1
  Al  Al14  1  0.342114  0.342395  0.938145  1
  Al  Al15  1  0.338751  0.553754  0.250572  1
  Al  Al16  1  0.663062  0.447203  0.748202  1
  Al  Al17  1  0.551661  0.337754  0.250603  1
  Al  Al18  1  0.446458  0.661830  0.748287  1
  Ga  Ga19  1  0.142338  0.139666  0.255682  1
  Ga  Ga20  1  0.858514  0.859040  0.743665  1
  Ga  Ga21  1  0.999654  0.345669  0.085992  1
  Ir  Ir22  1  0.668930  0.328008  0.998537  1
  Ir  Ir23  1  0.330016  0.673688  0.999129  1
  Ir  Ir24  1  0.327825  0.671404  0.499381  1
  Ir  Ir25  1  0.672063  0.328311  0.499020  1
  Ir  Ir26  1  0.999993  0.000465  0.499556  1
  Au  Au27  1  0.000226  0.997586  0.999378  1
