# generated using pymatgen
data_Dy9HoSn5Sb
_symmetry_space_group_name_H-M   'P 1'
_cell_length_a   8.97970000
_cell_length_b   8.97124586
_cell_length_c   6.49731100
_cell_angle_alpha   90.00198036
_cell_angle_beta   89.99881577
_cell_angle_gamma   120.03133464
_symmetry_Int_Tables_number   1
_chemical_formula_structural   Dy9HoSn5Sb
_chemical_formula_sum   'Dy9 Ho1 Sn5 Sb1'
_cell_volume   453.14966017
_cell_formula_units_Z   1
loop_
 _symmetry_equiv_pos_site_id
 _symmetry_equiv_pos_as_xyz
  1  'x, y, z'
loop_
 _atom_site_type_symbol
 _atom_site_label
 _atom_site_symmetry_multiplicity
 _atom_site_fract_x
 _atom_site_fract_y
 _atom_site_fract_z
 _atom_site_occupancy
  Dy  Dy0  1  0.998046  0.760103  0.750018  1
  Dy  Dy1  1  0.000699  0.238942  0.249988  1
  Dy  Dy2  1  0.761732  0.761072  0.249982  1
  Dy  Dy3  1  0.761921  0.999983  0.750014  1
  Dy  Dy4  1  0.237927  0.239907  0.750015  1
  Dy  Dy5  1  0.238975  0.999984  0.249990  1
  Dy  Dy6  1  0.333149  0.665695  0.499808  1
  Dy  Dy7  1  0.667447  0.334298  0.000187  1
  Dy  Dy8  1  0.667449  0.334301  0.499815  1
  Ho  Ho9  1  0.333154  0.665703  0.000189  1
  Sn  Sn10  1  0.395573  0.394885  0.249939  1
  Sn  Sn11  1  0.000847  0.605193  0.249938  1
  Sn  Sn12  1  0.999921  0.395575  0.750059  1
  Sn  Sn13  1  0.604265  0.604509  0.750063  1
  Sn  Sn14  1  0.605297  0.999920  0.249942  1
  Sb  Sb15  1  0.393596  0.999929  0.750053  1
