# generated using pymatgen
data_Ba4CdIrO8
_symmetry_space_group_name_H-M   'P 1'
_cell_length_a   7.30870029
_cell_length_b   7.30870006
_cell_length_c   6.06414700
_cell_angle_alpha   90.00000000
_cell_angle_beta   90.00000000
_cell_angle_gamma   131.38698098
_symmetry_Int_Tables_number   1
_chemical_formula_structural   Ba4CdIrO8
_chemical_formula_sum   'Ba4 Cd1 Ir1 O8'
_cell_volume   243.03150024
_cell_formula_units_Z   1
loop_
 _symmetry_equiv_pos_site_id
 _symmetry_equiv_pos_as_xyz
  1  'x, y, z'
loop_
 _atom_site_type_symbol
 _atom_site_label
 _atom_site_symmetry_multiplicity
 _atom_site_fract_x
 _atom_site_fract_y
 _atom_site_fract_z
 _atom_site_occupancy
  Ba  Ba0  1  0.643874  0.356126  0.000000  1
  Ba  Ba1  1  0.143095  0.856905  0.500000  1
  Ba  Ba2  1  0.856905  0.143095  0.500000  1
  Ba  Ba3  1  0.356126  0.643874  0.000000  1
  Cd  Cd4  1  0.000000  0.000000  0.000000  1
  Ir  Ir5  1  0.500000  0.500000  0.500000  1
  O  O6  1  0.729768  0.729768  0.275944  1
  O  O7  1  0.270232  0.270232  0.724056  1
  O  O8  1  0.270232  0.270232  0.275944  1
  O  O9  1  0.729768  0.729768  0.724056  1
  O  O10  1  0.833874  0.166126  0.000000  1
  O  O11  1  0.348636  0.651364  0.500000  1
  O  O12  1  0.651364  0.348636  0.500000  1
  O  O13  1  0.166126  0.833874  0.000000  1
