# generated using pymatgen
data_Er3ThMgNi
_symmetry_space_group_name_H-M   'P 1'
_cell_length_a   9.62877769
_cell_length_b   9.62877752
_cell_length_c   9.62877700
_cell_angle_alpha   59.99999834
_cell_angle_beta   59.99999894
_cell_angle_gamma   60.00000266
_symmetry_Int_Tables_number   1
_chemical_formula_structural   Er3ThMgNi
_chemical_formula_sum   'Er12 Th4 Mg4 Ni4'
_cell_volume   631.24571410
_cell_formula_units_Z   4
loop_
 _symmetry_equiv_pos_site_id
 _symmetry_equiv_pos_as_xyz
  1  'x, y, z'
loop_
 _atom_site_type_symbol
 _atom_site_label
 _atom_site_symmetry_multiplicity
 _atom_site_fract_x
 _atom_site_fract_y
 _atom_site_fract_z
 _atom_site_occupancy
  Er  Er0  1  0.813659  0.186341  0.186341  1
  Er  Er1  1  0.186341  0.813659  0.813659  1
  Er  Er2  1  0.186341  0.813659  0.186341  1
  Er  Er3  1  0.813659  0.186341  0.813659  1
  Er  Er4  1  0.186341  0.186341  0.813659  1
  Er  Er5  1  0.813659  0.813659  0.186341  1
  Er  Er6  1  0.932739  0.567261  0.567261  1
  Er  Er7  1  0.567261  0.932739  0.932739  1
  Er  Er8  1  0.567261  0.932739  0.567261  1
  Er  Er9  1  0.932739  0.567261  0.932739  1
  Er  Er10  1  0.567261  0.567261  0.932739  1
  Er  Er11  1  0.932739  0.932739  0.567261  1
  Th  Th12  1  0.346358  0.346358  0.346358  1
  Th  Th13  1  0.346358  0.346358  0.960929  1
  Th  Th14  1  0.346358  0.960929  0.346358  1
  Th  Th15  1  0.960929  0.346358  0.346358  1
  Mg  Mg16  1  0.580583  0.580583  0.580583  1
  Mg  Mg17  1  0.580583  0.580583  0.258250  1
  Mg  Mg18  1  0.580583  0.258250  0.580583  1
  Mg  Mg19  1  0.258250  0.580583  0.580583  1
  Ni  Ni20  1  0.142780  0.142780  0.142780  1
  Ni  Ni21  1  0.142780  0.142780  0.571659  1
  Ni  Ni22  1  0.142780  0.571659  0.142780  1
  Ni  Ni23  1  0.571659  0.142780  0.142780  1
