# generated using pymatgen
data_PrHo2Th(AsPt)4
_symmetry_space_group_name_H-M   'P 1'
_cell_length_a   4.30809900
_cell_length_b   4.30809910
_cell_length_c   15.79123200
_cell_angle_alpha   90.00000000
_cell_angle_beta   90.00000000
_cell_angle_gamma   120.00000693
_symmetry_Int_Tables_number   1
_chemical_formula_structural   PrHo2Th(AsPt)4
_chemical_formula_sum   'Pr1 Ho2 Th1 As4 Pt4'
_cell_volume   253.81540351
_cell_formula_units_Z   1
loop_
 _symmetry_equiv_pos_site_id
 _symmetry_equiv_pos_as_xyz
  1  'x, y, z'
loop_
 _atom_site_type_symbol
 _atom_site_label
 _atom_site_symmetry_multiplicity
 _atom_site_fract_x
 _atom_site_fract_y
 _atom_site_fract_z
 _atom_site_occupancy
  Pr  Pr0  1  0.000000  0.000000  0.000000  1
  Ho  Ho1  1  0.000000  0.000000  0.246834  1
  Ho  Ho2  1  0.000000  0.000000  0.753166  1
  Th  Th3  1  0.000000  0.000000  0.500000  1
  As  As4  1  0.333333  0.666667  0.881327  1
  As  As5  1  0.666667  0.333333  0.118673  1
  As  As6  1  0.666667  0.333333  0.382517  1
  As  As7  1  0.333333  0.666667  0.617483  1
  Pt  Pt8  1  0.333333  0.666667  0.359726  1
  Pt  Pt9  1  0.666667  0.333333  0.640274  1
  Pt  Pt10  1  0.666667  0.333333  0.855092  1
  Pt  Pt11  1  0.333333  0.666667  0.144908  1
