# generated using pymatgen
data_Zr6BeZn14Cu9
_symmetry_space_group_name_H-M   'P 1'
_cell_length_a   8.61845317
_cell_length_b   8.61845250
_cell_length_c   8.61845200
_cell_angle_alpha   60.02573018
_cell_angle_beta   60.02573275
_cell_angle_gamma   60.02572965
_symmetry_Int_Tables_number   1
_chemical_formula_structural   Zr6BeZn14Cu9
_chemical_formula_sum   'Zr6 Be1 Zn14 Cu9'
_cell_volume   452.92483305
_cell_formula_units_Z   1
loop_
 _symmetry_equiv_pos_site_id
 _symmetry_equiv_pos_as_xyz
  1  'x, y, z'
loop_
 _atom_site_type_symbol
 _atom_site_label
 _atom_site_symmetry_multiplicity
 _atom_site_fract_x
 _atom_site_fract_y
 _atom_site_fract_z
 _atom_site_occupancy
  Zr  Zr0  1  0.713458  0.291382  0.291382  1
  Zr  Zr1  1  0.286542  0.708618  0.708618  1
  Zr  Zr2  1  0.291382  0.713458  0.291382  1
  Zr  Zr3  1  0.708618  0.286542  0.708618  1
  Zr  Zr4  1  0.291382  0.291382  0.713458  1
  Zr  Zr5  1  0.708618  0.708618  0.286542  1
  Be  Be6  1  0.500000  0.500000  0.500000  1
  Zn  Zn7  1  0.120307  0.120307  0.637488  1
  Zn  Zn8  1  0.120307  0.637488  0.120307  1
  Zn  Zn9  1  0.879693  0.879693  0.362512  1
  Zn  Zn10  1  0.879693  0.362512  0.879693  1
  Zn  Zn11  1  0.637488  0.120307  0.120307  1
  Zn  Zn12  1  0.362512  0.879693  0.879693  1
  Zn  Zn13  1  0.337907  0.337907  0.337907  1
  Zn  Zn14  1  0.662093  0.662093  0.662093  1
  Zn  Zn15  1  0.332510  0.332510  0.998631  1
  Zn  Zn16  1  0.332510  0.998631  0.332510  1
  Zn  Zn17  1  0.667490  0.667490  0.001369  1
  Zn  Zn18  1  0.667490  0.001369  0.667490  1
  Zn  Zn19  1  0.998631  0.332510  0.332510  1
  Zn  Zn20  1  0.001369  0.667490  0.667490  1
  Cu  Cu21  1  0.121088  0.121088  0.121088  1
  Cu  Cu22  1  0.878912  0.878912  0.878912  1
  Cu  Cu23  1  0.500000  0.000000  0.000000  1
  Cu  Cu24  1  0.000000  0.500000  0.500000  1
  Cu  Cu25  1  0.000000  0.500000  0.000000  1
  Cu  Cu26  1  0.500000  0.000000  0.500000  1
  Cu  Cu27  1  0.000000  0.000000  0.500000  1
  Cu  Cu28  1  0.500000  0.500000  0.000000  1
  Cu  Cu29  1  0.000000  0.000000  0.000000  1
