# generated using pymatgen
data_Y2Ni5P4Ru
_symmetry_space_group_name_H-M   'P 1'
_cell_length_a   3.78596100
_cell_length_b   10.55192122
_cell_length_c   12.42948163
_cell_angle_alpha   89.55419178
_cell_angle_beta   89.99921470
_cell_angle_gamma   89.99999304
_symmetry_Int_Tables_number   1
_chemical_formula_structural   Y2Ni5P4Ru
_chemical_formula_sum   'Y6 Ni15 P12 Ru3'
_cell_volume   496.53234717
_cell_formula_units_Z   3
loop_
 _symmetry_equiv_pos_site_id
 _symmetry_equiv_pos_as_xyz
  1  'x, y, z'
loop_
 _atom_site_type_symbol
 _atom_site_label
 _atom_site_symmetry_multiplicity
 _atom_site_fract_x
 _atom_site_fract_y
 _atom_site_fract_z
 _atom_site_occupancy
  Y  Y0  1  0.751864  0.992783  0.475671  1
  Y  Y1  1  0.251876  0.505586  0.522313  1
  Y  Y2  1  0.251808  0.686108  0.793148  1
  Y  Y3  1  0.251794  0.316709  0.797239  1
  Y  Y4  1  0.751796  0.813944  0.206622  1
  Y  Y5  1  0.751797  0.184301  0.204130  1
  Ni  Ni6  1  0.751869  0.999034  0.017179  1
  Ni  Ni7  1  0.251834  0.501346  0.982724  1
  Ni  Ni8  1  0.251919  0.801005  0.570583  1
  Ni  Ni9  1  0.751908  0.300707  0.430967  1
  Ni  Ni10  1  0.751905  0.697907  0.428440  1
  Ni  Ni11  1  0.251867  0.619318  0.290056  1
  Ni  Ni12  1  0.251830  0.375978  0.291189  1
  Ni  Ni13  1  0.751868  0.879159  0.710059  1
  Ni  Ni14  1  0.751858  0.121575  0.711675  1
  Ni  Ni15  1  0.251796  0.169140  0.010944  1
  Ni  Ni16  1  0.251808  0.830532  0.011158  1
  Ni  Ni17  1  0.751819  0.332464  0.990278  1
  Ni  Ni18  1  0.751807  0.669452  0.988397  1
  Ni  Ni19  1  0.251882  0.999511  0.297854  1
  Ni  Ni20  1  0.751875  0.500539  0.701241  1
  P  P21  1  0.251839  0.183511  0.380627  1
  P  P22  1  0.251827  0.813000  0.384283  1
  P  P23  1  0.751875  0.317526  0.617369  1
  P  P24  1  0.751869  0.687128  0.614900  1
  P  P25  1  0.251807  0.999078  0.122715  1
  P  P26  1  0.751825  0.501300  0.877132  1
  P  P27  1  0.251709  0.649343  0.107531  1
  P  P28  1  0.251731  0.350413  0.107128  1
  P  P29  1  0.751727  0.850790  0.892707  1
  P  P30  1  0.751711  0.150824  0.894875  1
  P  P31  1  0.251814  0.996660  0.652872  1
  P  P32  1  0.751840  0.501114  0.346940  1
  Ru  Ru33  1  0.251950  0.201025  0.569346  1
  Ru  Ru34  1  0.251692  0.000181  0.842286  1
  Ru  Ru35  1  0.751606  0.501010  0.157423  1
