# generated using pymatgen
data_TmZr3(Ga3Rh)6
_symmetry_space_group_name_H-M   'P 1'
_cell_length_a   7.49960900
_cell_length_b   7.49413776
_cell_length_c   9.39379900
_cell_angle_alpha   90.00000000
_cell_angle_beta   90.00000000
_cell_angle_gamma   120.02872174
_symmetry_Int_Tables_number   1
_chemical_formula_structural   TmZr3(Ga3Rh)6
_chemical_formula_sum   'Tm1 Zr3 Ga18 Rh6'
_cell_volume   457.09494966
_cell_formula_units_Z   1
loop_
 _symmetry_equiv_pos_site_id
 _symmetry_equiv_pos_as_xyz
  1  'x, y, z'
loop_
 _atom_site_type_symbol
 _atom_site_label
 _atom_site_symmetry_multiplicity
 _atom_site_fract_x
 _atom_site_fract_y
 _atom_site_fract_z
 _atom_site_occupancy
  Tm  Tm0  1  0.331145  0.003701  0.750000  1
  Zr  Zr1  1  0.996058  0.669305  0.250000  1
  Zr  Zr2  1  0.004182  0.331615  0.750000  1
  Zr  Zr3  1  0.668840  0.996010  0.250000  1
  Ga  Ga4  1  0.121615  0.122798  0.250000  1
  Ga  Ga5  1  0.873975  0.875900  0.750000  1
  Ga  Ga6  1  0.995723  0.333949  0.081454  1
  Ga  Ga7  1  0.001360  0.663176  0.921692  1
  Ga  Ga8  1  0.001360  0.663176  0.578308  1
  Ga  Ga9  1  0.334014  0.996209  0.415306  1
  Ga  Ga10  1  0.995723  0.333949  0.418546  1
  Ga  Ga11  1  0.669102  0.003898  0.578545  1
  Ga  Ga12  1  0.669102  0.003898  0.921455  1
  Ga  Ga13  1  0.334014  0.996209  0.084694  1
  Ga  Ga14  1  0.330216  0.332732  0.568931  1
  Ga  Ga15  1  0.669532  0.669592  0.427348  1
  Ga  Ga16  1  0.669532  0.669592  0.072652  1
  Ga  Ga17  1  0.330216  0.332732  0.931069  1
  Ga  Ga18  1  0.337235  0.551229  0.250000  1
  Ga  Ga19  1  0.665355  0.453035  0.750000  1
  Ga  Ga20  1  0.552999  0.338175  0.250000  1
  Ga  Ga21  1  0.449344  0.660624  0.750000  1
  Rh  Rh22  1  0.671155  0.327702  0.000639  1
  Rh  Rh23  1  0.328638  0.672590  0.001187  1
  Rh  Rh24  1  0.328638  0.672590  0.498813  1
  Rh  Rh25  1  0.671155  0.327702  0.499361  1
  Rh  Rh26  1  0.999888  0.998957  0.001150  1
  Rh  Rh27  1  0.999888  0.998957  0.498850  1
