# generated using pymatgen
data_Hf3Zr2Co16(TcP4)3
_symmetry_space_group_name_H-M   'P 1'
_cell_length_a   11.86225500
_cell_length_b   11.86225633
_cell_length_c   3.64634500
_cell_angle_alpha   90.00000000
_cell_angle_beta   90.00000000
_cell_angle_gamma   119.99999350
_symmetry_Int_Tables_number   1
_chemical_formula_structural   Hf3Zr2Co16(TcP4)3
_chemical_formula_sum   'Hf3 Zr2 Co16 Tc3 P12'
_cell_volume   444.34774180
_cell_formula_units_Z   1
loop_
 _symmetry_equiv_pos_site_id
 _symmetry_equiv_pos_as_xyz
  1  'x, y, z'
loop_
 _atom_site_type_symbol
 _atom_site_label
 _atom_site_symmetry_multiplicity
 _atom_site_fract_x
 _atom_site_fract_y
 _atom_site_fract_z
 _atom_site_occupancy
  Hf  Hf0  1  0.820490  0.820490  0.500000  1
  Hf  Hf1  1  0.179510  0.000000  0.500000  1
  Hf  Hf2  1  0.000000  0.179510  0.500000  1
  Zr  Zr3  1  0.666667  0.333333  0.000000  1
  Zr  Zr4  1  0.333333  0.666667  0.000000  1
  Co  Co5  1  0.193554  0.372503  0.000000  1
  Co  Co6  1  0.178949  0.806446  0.000000  1
  Co  Co7  1  0.821051  0.627497  0.000000  1
  Co  Co8  1  0.806446  0.178949  0.000000  1
  Co  Co9  1  0.372503  0.193554  0.000000  1
  Co  Co10  1  0.128190  0.482932  0.500000  1
  Co  Co11  1  0.354743  0.871810  0.500000  1
  Co  Co12  1  0.517068  0.645257  0.500000  1
  Co  Co13  1  0.645257  0.517068  0.500000  1
  Co  Co14  1  0.871810  0.354743  0.500000  1
  Co  Co15  1  0.482932  0.128190  0.500000  1
  Co  Co16  1  0.000000  0.000000  0.000000  1
  Co  Co17  1  0.719320  0.000000  0.500000  1
  Co  Co18  1  0.000000  0.719320  0.500000  1
  Co  Co19  1  0.627497  0.821051  0.000000  1
  Co  Co20  1  0.280680  0.280680  0.500000  1
  Tc  Tc21  1  0.447748  0.447748  0.000000  1
  Tc  Tc22  1  0.552252  0.000000  0.000000  1
  Tc  Tc23  1  0.000000  0.552252  0.000000  1
  P  P24  1  0.642181  0.642181  0.000000  1
  P  P25  1  0.357819  0.000000  0.000000  1
  P  P26  1  0.000000  0.357819  0.000000  1
  P  P27  1  0.481294  0.315093  0.500000  1
  P  P28  1  0.684907  0.166202  0.500000  1
  P  P29  1  0.833798  0.518706  0.500000  1
  P  P30  1  0.518706  0.833798  0.500000  1
  P  P31  1  0.166202  0.684907  0.500000  1
  P  P32  1  0.824290  0.000000  0.000000  1
  P  P33  1  0.000000  0.824290  0.000000  1
  P  P34  1  0.315093  0.481294  0.500000  1
  P  P35  1  0.175710  0.175710  0.000000  1
