# generated using pymatgen
data_Ag6Pt2RhF18
_symmetry_space_group_name_H-M   'P 1'
_cell_length_a   9.90994800
_cell_length_b   9.90994788
_cell_length_c   5.31259100
_cell_angle_alpha   90.00000000
_cell_angle_beta   90.00000000
_cell_angle_gamma   120.00000708
_symmetry_Int_Tables_number   1
_chemical_formula_structural   Ag6Pt2RhF18
_chemical_formula_sum   'Ag6 Pt2 Rh1 F18'
_cell_volume   451.83485400
_cell_formula_units_Z   1
loop_
 _symmetry_equiv_pos_site_id
 _symmetry_equiv_pos_as_xyz
  1  'x, y, z'
loop_
 _atom_site_type_symbol
 _atom_site_label
 _atom_site_symmetry_multiplicity
 _atom_site_fract_x
 _atom_site_fract_y
 _atom_site_fract_z
 _atom_site_occupancy
  Ag  Ag0  1  0.000000  0.632384  0.500000  1
  Ag  Ag1  1  0.632384  0.000000  0.500000  1
  Ag  Ag2  1  0.367616  0.367616  0.500000  1
  Ag  Ag3  1  0.288561  0.000000  0.000000  1
  Ag  Ag4  1  0.711439  0.711439  0.000000  1
  Ag  Ag5  1  0.000000  0.288561  0.000000  1
  Pt  Pt6  1  0.333333  0.666667  0.002926  1
  Pt  Pt7  1  0.666667  0.333333  0.997074  1
  Rh  Rh8  1  0.000000  0.000000  0.500000  1
  F  F9  1  0.088004  0.895018  0.295845  1
  F  F10  1  0.807014  0.911996  0.295845  1
  F  F11  1  0.104982  0.192986  0.295845  1
  F  F12  1  0.911996  0.807014  0.704155  1
  F  F13  1  0.895018  0.088004  0.704155  1
  F  F14  1  0.192986  0.104982  0.704155  1
  F  F15  1  0.222827  0.746794  0.792345  1
  F  F16  1  0.523967  0.777173  0.792345  1
  F  F17  1  0.253206  0.476033  0.792345  1
  F  F18  1  0.777173  0.523967  0.207655  1
  F  F19  1  0.746794  0.222827  0.207655  1
  F  F20  1  0.476033  0.253206  0.207655  1
  F  F21  1  0.408902  0.857632  0.212947  1
  F  F22  1  0.448730  0.591098  0.212947  1
  F  F23  1  0.142368  0.551270  0.212947  1
  F  F24  1  0.591098  0.448730  0.787053  1
  F  F25  1  0.857632  0.408902  0.787053  1
  F  F26  1  0.551270  0.142368  0.787053  1
