# generated using pymatgen
data_TbHo5Ti2(Al11Ru4)2
_symmetry_space_group_name_H-M   'P 1'
_cell_length_a   8.85298700
_cell_length_b   8.83225886
_cell_length_c   9.52967195
_cell_angle_alpha   89.95560745
_cell_angle_beta   90.00000000
_cell_angle_gamma   120.07766041
_symmetry_Int_Tables_number   1
_chemical_formula_structural   TbHo5Ti2(Al11Ru4)2
_chemical_formula_sum   'Tb1 Ho5 Ti2 Al22 Ru8'
_cell_volume   644.80683342
_cell_formula_units_Z   1
loop_
 _symmetry_equiv_pos_site_id
 _symmetry_equiv_pos_as_xyz
  1  'x, y, z'
loop_
 _atom_site_type_symbol
 _atom_site_label
 _atom_site_symmetry_multiplicity
 _atom_site_fract_x
 _atom_site_fract_y
 _atom_site_fract_z
 _atom_site_occupancy
  Tb  Tb0  1  0.193751  0.387503  0.251542  1
  Ho  Ho1  1  0.805760  0.611520  0.748385  1
  Ho  Ho2  1  0.612050  0.805867  0.251556  1
  Ho  Ho3  1  0.388327  0.194390  0.748393  1
  Ho  Ho4  1  0.193816  0.805867  0.251556  1
  Ho  Ho5  1  0.806064  0.194390  0.748393  1
  Ti  Ti6  1  0.333389  0.666779  0.996783  1
  Ti  Ti7  1  0.666782  0.333562  0.002941  1
  Al  Al8  1  0.667016  0.334031  0.517761  1
  Al  Al9  1  0.333192  0.666384  0.482602  1
  Al  Al10  1  0.161853  0.323707  0.577910  1
  Al  Al11  1  0.838139  0.676277  0.422578  1
  Al  Al12  1  0.676767  0.838632  0.577699  1
  Al  Al13  1  0.840870  0.681739  0.077338  1
  Al  Al14  1  0.323470  0.161218  0.422599  1
  Al  Al15  1  0.159098  0.318198  0.922118  1
  Al  Al16  1  0.161865  0.838632  0.577699  1
  Al  Al17  1  0.318296  0.158861  0.077318  1
  Al  Al18  1  0.837748  0.161218  0.422599  1
  Al  Al19  1  0.681843  0.840949  0.922444  1
  Al  Al20  1  0.840567  0.158861  0.077318  1
  Al  Al21  1  0.159105  0.840949  0.922444  1
  Al  Al22  1  0.560501  0.121001  0.252429  1
  Al  Al23  1  0.439467  0.878934  0.747604  1
  Al  Al24  1  0.878408  0.439624  0.252422  1
  Al  Al25  1  0.121109  0.560545  0.747607  1
  Al  Al26  1  0.561215  0.439624  0.252422  1
  Al  Al27  1  0.439436  0.560545  0.747607  1
  Al  Al28  1  0.999765  0.999530  0.250353  1
  Al  Al29  1  0.999919  0.999839  0.749683  1
  Ru  Ru30  1  0.499993  0.999985  0.999946  1
  Ru  Ru31  1  0.999798  0.500148  0.999617  1
  Ru  Ru32  1  0.500066  0.000131  0.500096  1
  Ru  Ru33  1  0.500350  0.500148  0.999617  1
  Ru  Ru34  1  0.999839  0.500178  0.500267  1
  Ru  Ru35  1  0.500340  0.500178  0.500267  1
  Ru  Ru36  1  0.000028  0.000056  0.000129  1
  Ru  Ru37  1  0.999999  0.999998  0.499957  1
