# generated using pymatgen
data_DyY2U(Al3Ir)6
_symmetry_space_group_name_H-M   'P 1'
_cell_length_a   7.57579408
_cell_length_b   7.58684926
_cell_length_c   9.41337300
_cell_angle_alpha   90.00000000
_cell_angle_beta   90.00000000
_cell_angle_gamma   119.53080018
_symmetry_Int_Tables_number   1
_chemical_formula_structural   DyY2U(Al3Ir)6
_chemical_formula_sum   'Dy1 Y2 U1 Al18 Ir6'
_cell_volume   470.75993220
_cell_formula_units_Z   1
loop_
 _symmetry_equiv_pos_site_id
 _symmetry_equiv_pos_as_xyz
  1  'x, y, z'
loop_
 _atom_site_type_symbol
 _atom_site_label
 _atom_site_symmetry_multiplicity
 _atom_site_fract_x
 _atom_site_fract_y
 _atom_site_fract_z
 _atom_site_occupancy
  Dy  Dy0  1  0.329016  0.005642  0.250000  1
  Y  Y1  1  0.994066  0.671680  0.750000  1
  Y  Y2  1  0.004511  0.329130  0.250000  1
  U  U3  1  0.673956  0.998539  0.750000  1
  Al  Al4  1  0.130071  0.132125  0.750000  1
  Al  Al5  1  0.873841  0.872272  0.250000  1
  Al  Al6  1  0.003061  0.337793  0.576099  1
  Al  Al7  1  0.999515  0.664991  0.424613  1
  Al  Al8  1  0.999515  0.664991  0.075387  1
  Al  Al9  1  0.334177  0.000394  0.924084  1
  Al  Al10  1  0.003061  0.337793  0.923901  1
  Al  Al11  1  0.664092  0.998471  0.075940  1
  Al  Al12  1  0.664092  0.998471  0.424060  1
  Al  Al13  1  0.334177  0.000394  0.575916  1
  Al  Al14  1  0.332536  0.332268  0.054152  1
  Al  Al15  1  0.665574  0.664426  0.948204  1
  Al  Al16  1  0.665574  0.664426  0.551796  1
  Al  Al17  1  0.332536  0.332268  0.445848  1
  Al  Al18  1  0.344309  0.550305  0.750000  1
  Al  Al19  1  0.660174  0.450158  0.250000  1
  Al  Al20  1  0.547144  0.337967  0.750000  1
  Al  Al21  1  0.449112  0.659344  0.250000  1
  Ir  Ir22  1  0.671903  0.325693  0.502689  1
  Ir  Ir23  1  0.329552  0.673362  0.502211  1
  Ir  Ir24  1  0.329552  0.673362  0.997789  1
  Ir  Ir25  1  0.671903  0.325693  0.997311  1
  Ir  Ir26  1  0.996488  0.999020  0.503735  1
  Ir  Ir27  1  0.996488  0.999020  0.996265  1
