# generated using pymatgen
data_Tb3DyGa17SiIr6
_symmetry_space_group_name_H-M   'P 1'
_cell_length_a   7.59478804
_cell_length_b   7.57513070
_cell_length_c   9.51050980
_cell_angle_alpha   90.03181227
_cell_angle_beta   89.84946162
_cell_angle_gamma   119.87452466
_symmetry_Int_Tables_number   1
_chemical_formula_structural   Tb3DyGa17SiIr6
_chemical_formula_sum   'Tb3 Dy1 Ga17 Si1 Ir6'
_cell_volume   474.44543967
_cell_formula_units_Z   1
loop_
 _symmetry_equiv_pos_site_id
 _symmetry_equiv_pos_as_xyz
  1  'x, y, z'
loop_
 _atom_site_type_symbol
 _atom_site_label
 _atom_site_symmetry_multiplicity
 _atom_site_fract_x
 _atom_site_fract_y
 _atom_site_fract_z
 _atom_site_occupancy
  Tb  Tb0  1  0.997108  0.664741  0.248227  1
  Tb  Tb1  1  0.002597  0.331095  0.751018  1
  Tb  Tb2  1  0.673867  0.002353  0.248250  1
  Dy  Dy3  1  0.330529  0.002400  0.749526  1
  Ga  Ga4  1  0.130134  0.129280  0.250874  1
  Ga  Ga5  1  0.872761  0.874072  0.750744  1
  Ga  Ga6  1  0.999020  0.671208  0.917650  1
  Ga  Ga7  1  0.000510  0.666257  0.580109  1
  Ga  Ga8  1  0.333900  0.998282  0.419938  1
  Ga  Ga9  1  0.000040  0.334652  0.420930  1
  Ga  Ga10  1  0.664898  0.999955  0.580226  1
  Ga  Ga11  1  0.658092  0.994389  0.917684  1
  Ga  Ga12  1  0.333589  0.998143  0.080970  1
  Ga  Ga13  1  0.332457  0.331409  0.564479  1
  Ga  Ga14  1  0.668617  0.669057  0.435214  1
  Ga  Ga15  1  0.667927  0.669163  0.067222  1
  Ga  Ga16  1  0.338374  0.332329  0.933873  1
  Ga  Ga17  1  0.341159  0.546158  0.251602  1
  Ga  Ga18  1  0.661133  0.452201  0.751076  1
  Ga  Ga19  1  0.547090  0.339431  0.250713  1
  Ga  Ga20  1  0.451910  0.659357  0.750409  1
  Si  Si21  1  0.000013  0.334396  0.072356  1
  Ir  Ir22  1  0.683199  0.329476  0.003086  1
  Ir  Ir23  1  0.313685  0.656609  0.001532  1
  Ir  Ir24  1  0.328318  0.670991  0.500682  1
  Ir  Ir25  1  0.671041  0.328526  0.500386  1
  Ir  Ir26  1  0.998426  0.013971  0.001217  1
  Ir  Ir27  1  0.999603  0.000096  0.500009  1
