# generated using pymatgen
data_Pr4Sn(GeRh2)2
_symmetry_space_group_name_H-M   'P 1'
_cell_length_a   11.14119521
_cell_length_b   11.14119374
_cell_length_c   8.23591006
_cell_angle_alpha   70.01549652
_cell_angle_beta   70.01550026
_cell_angle_gamma   30.39512121
_symmetry_Int_Tables_number   1
_chemical_formula_structural   Pr4Sn(GeRh2)2
_chemical_formula_sum   'Pr8 Sn2 Ge4 Rh8'
_cell_volume   483.71608179
_cell_formula_units_Z   2
loop_
 _symmetry_equiv_pos_site_id
 _symmetry_equiv_pos_as_xyz
  1  'x, y, z'
loop_
 _atom_site_type_symbol
 _atom_site_label
 _atom_site_symmetry_multiplicity
 _atom_site_fract_x
 _atom_site_fract_y
 _atom_site_fract_z
 _atom_site_occupancy
  Pr  Pr0  1  0.215384  0.436710  0.391541  1
  Pr  Pr1  1  0.563290  0.784616  0.108459  1
  Pr  Pr2  1  0.436710  0.215384  0.891541  1
  Pr  Pr3  1  0.919479  0.217717  0.335085  1
  Pr  Pr4  1  0.782283  0.080521  0.164915  1
  Pr  Pr5  1  0.080521  0.782283  0.664915  1
  Pr  Pr6  1  0.217717  0.919479  0.835085  1
  Pr  Pr7  1  0.784616  0.563290  0.608459  1
  Sn  Sn8  1  0.650460  0.349540  0.750000  1
  Sn  Sn9  1  0.349540  0.650460  0.250000  1
  Ge  Ge10  1  0.290571  0.057388  0.439320  1
  Ge  Ge11  1  0.942612  0.709429  0.060680  1
  Ge  Ge12  1  0.709429  0.942612  0.560680  1
  Ge  Ge13  1  0.057388  0.290571  0.939320  1
  Rh  Rh14  1  0.286428  0.578936  0.022251  1
  Rh  Rh15  1  0.578936  0.286428  0.522251  1
  Rh  Rh16  1  0.713572  0.421064  0.977749  1
  Rh  Rh17  1  0.078305  0.361873  0.180120  1
  Rh  Rh18  1  0.638127  0.921695  0.319880  1
  Rh  Rh19  1  0.421064  0.713572  0.477749  1
  Rh  Rh20  1  0.921695  0.638127  0.819880  1
  Rh  Rh21  1  0.361873  0.078305  0.680120  1
