# generated using pymatgen
data_Hf3Nb2GaSiGe
_symmetry_space_group_name_H-M   'P 1'
_cell_length_a   7.87984637
_cell_length_b   7.91161082
_cell_length_c   5.40948500
_cell_angle_alpha   90.00000000
_cell_angle_beta   90.00000000
_cell_angle_gamma   120.13343352
_symmetry_Int_Tables_number   1
_chemical_formula_structural   Hf3Nb2GaSiGe
_chemical_formula_sum   'Hf6 Nb4 Ga2 Si2 Ge2'
_cell_volume   291.66459239
_cell_formula_units_Z   2
loop_
 _symmetry_equiv_pos_site_id
 _symmetry_equiv_pos_as_xyz
  1  'x, y, z'
loop_
 _atom_site_type_symbol
 _atom_site_label
 _atom_site_symmetry_multiplicity
 _atom_site_fract_x
 _atom_site_fract_y
 _atom_site_fract_z
 _atom_site_occupancy
  Hf  Hf0  1  0.750987  0.747656  0.250000  1
  Hf  Hf1  1  0.750987  0.003331  0.750000  1
  Hf  Hf2  1  0.000337  0.257661  0.250000  1
  Hf  Hf3  1  0.246625  0.250161  0.750000  1
  Hf  Hf4  1  0.246625  0.996464  0.250000  1
  Hf  Hf5  1  0.000337  0.742677  0.750000  1
  Nb  Nb6  1  0.674400  0.337200  0.000000  1
  Nb  Nb7  1  0.674400  0.337200  0.500000  1
  Nb  Nb8  1  0.326906  0.663453  0.500000  1
  Nb  Nb9  1  0.326906  0.663453  0.000000  1
  Ga  Ga10  1  0.395890  0.392852  0.250000  1
  Ga  Ga11  1  0.395890  0.003037  0.750000  1
  Si  Si12  1  0.001002  0.393197  0.750000  1
  Si  Si13  1  0.001002  0.607806  0.250000  1
  Ge  Ge14  1  0.603854  0.998509  0.250000  1
  Ge  Ge15  1  0.603854  0.605344  0.750000  1
