# generated using pymatgen
data_Mg2CuB2Pt4Rh
_symmetry_space_group_name_H-M   'P 1'
_cell_length_a   9.28410900
_cell_length_b   3.11559600
_cell_length_c   9.28410900
_cell_angle_alpha   90.00000000
_cell_angle_beta   90.00000000
_cell_angle_gamma   90.00000000
_symmetry_Int_Tables_number   1
_chemical_formula_structural   Mg2CuB2Pt4Rh
_chemical_formula_sum   'Mg4 Cu2 B4 Pt8 Rh2'
_cell_volume   268.54779999
_cell_formula_units_Z   2
loop_
 _symmetry_equiv_pos_site_id
 _symmetry_equiv_pos_as_xyz
  1  'x, y, z'
loop_
 _atom_site_type_symbol
 _atom_site_label
 _atom_site_symmetry_multiplicity
 _atom_site_fract_x
 _atom_site_fract_y
 _atom_site_fract_z
 _atom_site_occupancy
  Mg  Mg0  1  0.326308  0.000000  0.173692  1
  Mg  Mg1  1  0.826307  0.000000  0.326308  1
  Mg  Mg2  1  0.173692  0.000000  0.673693  1
  Mg  Mg3  1  0.673693  0.000000  0.826307  1
  Cu  Cu4  1  0.000000  0.000000  0.000000  1
  Cu  Cu5  1  0.499999  0.000000  0.499999  1
  B  B6  1  0.624925  0.000000  0.124924  1
  B  B7  1  0.124924  0.000000  0.375076  1
  B  B8  1  0.875075  0.000000  0.624925  1
  B  B9  1  0.375076  0.000000  0.875075  1
  Pt  Pt10  1  0.785544  0.500001  0.071963  1
  Pt  Pt11  1  0.071963  0.500001  0.214457  1
  Pt  Pt12  1  0.571963  0.500001  0.285543  1
  Pt  Pt13  1  0.285543  0.500001  0.428037  1
  Pt  Pt14  1  0.714457  0.500001  0.571963  1
  Pt  Pt15  1  0.428037  0.500001  0.714457  1
  Pt  Pt16  1  0.928038  0.500001  0.785544  1
  Pt  Pt17  1  0.214457  0.500001  0.928038  1
  Rh  Rh18  1  0.499999  0.500001  0.000000  1
  Rh  Rh19  1  0.000000  0.500001  0.499999  1
