# generated using pymatgen
data_La3Pr3(HfBi5)2
_symmetry_space_group_name_H-M   'P 1'
_cell_length_a   9.81270503
_cell_length_b   9.80849801
_cell_length_c   6.59557100
_cell_angle_alpha   90.00000000
_cell_angle_beta   90.00000000
_cell_angle_gamma   120.00566594
_symmetry_Int_Tables_number   1
_chemical_formula_structural   La3Pr3(HfBi5)2
_chemical_formula_sum   'La3 Pr3 Hf2 Bi10'
_cell_volume   549.73005999
_cell_formula_units_Z   1
loop_
 _symmetry_equiv_pos_site_id
 _symmetry_equiv_pos_as_xyz
  1  'x, y, z'
loop_
 _atom_site_type_symbol
 _atom_site_label
 _atom_site_symmetry_multiplicity
 _atom_site_fract_x
 _atom_site_fract_y
 _atom_site_fract_z
 _atom_site_occupancy
  La  La0  1  0.618453  0.618474  0.750000  1
  La  La1  1  0.380944  0.000158  0.750000  1
  La  La2  1  0.619296  0.000150  0.250000  1
  Pr  Pr3  1  0.000141  0.380767  0.750000  1
  Pr  Pr4  1  0.380105  0.380106  0.250000  1
  Pr  Pr5  1  0.000119  0.619344  0.250000  1
  Hf  Hf6  1  0.000263  0.000272  0.000005  1
  Hf  Hf7  1  0.000263  0.000272  0.499995  1
  Bi  Bi8  1  0.261024  0.000074  0.250000  1
  Bi  Bi9  1  0.001606  0.262369  0.250000  1
  Bi  Bi10  1  0.000086  0.738761  0.750000  1
  Bi  Bi11  1  0.331474  0.664783  0.499193  1
  Bi  Bi12  1  0.331474  0.664783  0.000807  1
  Bi  Bi13  1  0.260402  0.261897  0.750000  1
  Bi  Bi14  1  0.667380  0.334088  0.499182  1
  Bi  Bi15  1  0.739593  0.738101  0.250000  1
  Bi  Bi16  1  0.739997  0.001513  0.750000  1
  Bi  Bi17  1  0.667380  0.334088  0.000818  1
