# generated using pymatgen
data_CeTiBrO3
_symmetry_space_group_name_H-M   'P 1'
_cell_length_a   5.35625042
_cell_length_b   5.35625124
_cell_length_c   10.81410740
_cell_angle_alpha   104.63708245
_cell_angle_beta   104.63708596
_cell_angle_gamma   44.28204872
_symmetry_Int_Tables_number   1
_chemical_formula_structural   CeTiBrO3
_chemical_formula_sum   'Ce2 Ti2 Br2 O6'
_cell_volume   208.39729765
_cell_formula_units_Z   2
loop_
 _symmetry_equiv_pos_site_id
 _symmetry_equiv_pos_as_xyz
  1  'x, y, z'
loop_
 _atom_site_type_symbol
 _atom_site_label
 _atom_site_symmetry_multiplicity
 _atom_site_fract_x
 _atom_site_fract_y
 _atom_site_fract_z
 _atom_site_occupancy
  Ce  Ce0  1  0.223097  0.223097  0.224727  1
  Ce  Ce1  1  0.776902  0.776902  0.775273  1
  Ti  Ti2  1  0.623700  0.623700  0.441678  1
  Ti  Ti3  1  0.376301  0.376301  0.558322  1
  Br  Br4  1  0.890051  0.890051  0.099515  1
  Br  Br5  1  0.109948  0.109948  0.900485  1
  O  O6  1  0.657749  0.657749  0.275133  1
  O  O7  1  0.426328  0.426328  0.386046  1
  O  O8  1  0.169048  0.169048  0.441915  1
  O  O9  1  0.830953  0.830953  0.558084  1
  O  O10  1  0.573672  0.573672  0.613954  1
  O  O11  1  0.342251  0.342251  0.724868  1
