# generated using pymatgen
data_Sm4Cu3Si2Pd25
_symmetry_space_group_name_H-M   'P 1'
_cell_length_a   8.89185241
_cell_length_b   8.89185241
_cell_length_c   7.09008730
_cell_angle_alpha   90.17282125
_cell_angle_beta   90.17282125
_cell_angle_gamma   91.06237228
_symmetry_Int_Tables_number   1
_chemical_formula_structural   Sm4Cu3Si2Pd25
_chemical_formula_sum   'Sm4 Cu3 Si2 Pd25'
_cell_volume   560.47647487
_cell_formula_units_Z   1
loop_
 _symmetry_equiv_pos_site_id
 _symmetry_equiv_pos_as_xyz
  1  'x, y, z'
loop_
 _atom_site_type_symbol
 _atom_site_label
 _atom_site_symmetry_multiplicity
 _atom_site_fract_x
 _atom_site_fract_y
 _atom_site_fract_z
 _atom_site_occupancy
  Sm  Sm0  1  0.503731  0.003731  0.932280  1
  Sm  Sm1  1  0.996269  0.496269  0.067720  1
  Sm  Sm2  1  0.001492  0.998508  0.500000  1
  Sm  Sm3  1  0.498508  0.501492  0.500000  1
  Cu  Cu4  1  0.250000  0.750000  0.000000  1
  Cu  Cu5  1  0.250000  0.250000  0.000000  1
  Cu  Cu6  1  0.750000  0.750000  0.000000  1
  Si  Si7  1  0.500648  0.000648  0.443703  1
  Si  Si8  1  0.999352  0.499352  0.556297  1
  Pd  Pd9  1  0.333377  0.833377  0.619037  1
  Pd  Pd10  1  0.333806  0.164256  0.613958  1
  Pd  Pd11  1  0.664256  0.833806  0.613958  1
  Pd  Pd12  1  0.666814  0.166814  0.618942  1
  Pd  Pd13  1  0.166623  0.666623  0.380963  1
  Pd  Pd14  1  0.166194  0.335744  0.386042  1
  Pd  Pd15  1  0.835744  0.666194  0.386042  1
  Pd  Pd16  1  0.833186  0.333186  0.381058  1
  Pd  Pd17  1  0.496956  0.769269  0.252003  1
  Pd  Pd18  1  0.497746  0.232541  0.253389  1
  Pd  Pd19  1  0.269269  0.996956  0.252003  1
  Pd  Pd20  1  0.732541  0.997746  0.253389  1
  Pd  Pd21  1  0.003044  0.730731  0.747997  1
  Pd  Pd22  1  0.002254  0.267459  0.746611  1
  Pd  Pd23  1  0.230731  0.503044  0.747997  1
  Pd  Pd24  1  0.767459  0.502254  0.746611  1
  Pd  Pd25  1  0.493565  0.348020  0.859010  1
  Pd  Pd26  1  0.499130  0.660843  0.864856  1
  Pd  Pd27  1  0.848020  0.993565  0.859010  1
  Pd  Pd28  1  0.160843  0.999130  0.864856  1
  Pd  Pd29  1  0.006435  0.151980  0.140990  1
  Pd  Pd30  1  0.000870  0.839157  0.135144  1
  Pd  Pd31  1  0.651980  0.506435  0.140990  1
  Pd  Pd32  1  0.339157  0.500870  0.135144  1
  Pd  Pd33  1  0.750000  0.250000  0.000000  1
