# generated using pymatgen
data_Na2LiInAs2
_symmetry_space_group_name_H-M   'P 1'
_cell_length_a   9.57315176
_cell_length_b   9.57315308
_cell_length_c   6.13863400
_cell_angle_alpha   90.00000000
_cell_angle_beta   90.00000000
_cell_angle_gamma   98.09879239
_symmetry_Int_Tables_number   1
_chemical_formula_structural   Na2LiInAs2
_chemical_formula_sum   'Na8 Li4 In4 As8'
_cell_volume   556.96584471
_cell_formula_units_Z   4
loop_
 _symmetry_equiv_pos_site_id
 _symmetry_equiv_pos_as_xyz
  1  'x, y, z'
loop_
 _atom_site_type_symbol
 _atom_site_label
 _atom_site_symmetry_multiplicity
 _atom_site_fract_x
 _atom_site_fract_y
 _atom_site_fract_z
 _atom_site_occupancy
  Na  Na0  1  0.429343  0.070657  0.250000  1
  Na  Na1  1  0.070657  0.429343  0.750000  1
  Na  Na2  1  0.570657  0.929343  0.750000  1
  Na  Na3  1  0.322621  0.677379  0.278037  1
  Na  Na4  1  0.822621  0.177379  0.221963  1
  Na  Na5  1  0.677379  0.322621  0.721963  1
  Na  Na6  1  0.177379  0.822621  0.778037  1
  Na  Na7  1  0.929343  0.570657  0.250000  1
  Li  Li8  1  0.381475  0.381475  0.500000  1
  Li  Li9  1  0.118525  0.118525  0.000000  1
  Li  Li10  1  0.618525  0.618525  0.500000  1
  Li  Li11  1  0.881475  0.881475  0.000000  1
  In  In12  1  0.868322  0.868322  0.500000  1
  In  In13  1  0.131678  0.131678  0.500000  1
  In  In14  1  0.631678  0.631678  0.000000  1
  In  In15  1  0.368322  0.368322  0.000000  1
  As  As16  1  0.111541  0.888459  0.260327  1
  As  As17  1  0.611541  0.388459  0.239673  1
  As  As18  1  0.888459  0.111541  0.739673  1
  As  As19  1  0.388459  0.611541  0.760327  1
  As  As20  1  0.134829  0.365171  0.250000  1
  As  As21  1  0.365171  0.134829  0.750000  1
  As  As22  1  0.865171  0.634829  0.750000  1
  As  As23  1  0.634829  0.865171  0.250000  1
