# generated using pymatgen
data_Li4Co2Ni7MoP7
_symmetry_space_group_name_H-M   'P 1'
_cell_length_a   9.10155438
_cell_length_b   9.02767522
_cell_length_c   3.59268000
_cell_angle_alpha   90.00000000
_cell_angle_beta   90.00000000
_cell_angle_gamma   120.00631005
_symmetry_Int_Tables_number   1
_chemical_formula_structural   Li4Co2Ni7MoP7
_chemical_formula_sum   'Li4 Co2 Ni7 Mo1 P7'
_cell_volume   255.63072097
_cell_formula_units_Z   1
loop_
 _symmetry_equiv_pos_site_id
 _symmetry_equiv_pos_as_xyz
  1  'x, y, z'
loop_
 _atom_site_type_symbol
 _atom_site_label
 _atom_site_symmetry_multiplicity
 _atom_site_fract_x
 _atom_site_fract_y
 _atom_site_fract_z
 _atom_site_occupancy
  Li  Li0  1  0.899102  0.123778  0.500000  1
  Li  Li1  1  0.221233  0.099222  0.500000  1
  Li  Li2  1  0.334333  0.665959  0.000000  1
  Li  Li3  1  0.662783  0.331732  0.500000  1
  Co  Co4  1  0.565849  0.954185  0.500000  1
  Co  Co5  1  0.390512  0.435181  0.500000  1
  Ni  Ni6  1  0.714251  0.882814  0.000000  1
  Ni  Ni7  1  0.163245  0.283221  0.000000  1
  Ni  Ni8  1  0.126199  0.834245  0.000000  1
  Ni  Ni9  1  0.625954  0.567792  0.000000  1
  Ni  Ni10  1  0.939175  0.371132  0.000000  1
  Ni  Ni11  1  0.429719  0.060116  0.000000  1
  Ni  Ni12  1  0.053641  0.610780  0.500000  1
  Mo  Mo13  1  0.873161  0.781282  0.500000  1
  P  P14  1  0.579096  0.710771  0.500000  1
  P  P15  1  0.133499  0.416878  0.500000  1
  P  P16  1  0.296554  0.874698  0.500000  1
  P  P17  1  0.000666  0.995954  0.000000  1
  P  P18  1  0.878093  0.578322  0.000000  1
  P  P19  1  0.693706  0.120206  0.000000  1
  P  P20  1  0.419232  0.301731  0.000000  1
