# generated using pymatgen
data_DyCuNi3Au
_symmetry_space_group_name_H-M   'P 1'
_cell_length_a   4.96095160
_cell_length_b   4.96095187
_cell_length_c   4.96276517
_cell_angle_alpha   60.01208352
_cell_angle_beta   60.01208547
_cell_angle_gamma   59.99999229
_symmetry_Int_Tables_number   1
_chemical_formula_structural   DyCuNi3Au
_chemical_formula_sum   'Dy1 Cu1 Ni3 Au1'
_cell_volume   86.38095642
_cell_formula_units_Z   1
loop_
 _symmetry_equiv_pos_site_id
 _symmetry_equiv_pos_as_xyz
  1  'x, y, z'
loop_
 _atom_site_type_symbol
 _atom_site_label
 _atom_site_symmetry_multiplicity
 _atom_site_fract_x
 _atom_site_fract_y
 _atom_site_fract_z
 _atom_site_occupancy
  Dy  Dy0  1  0.000463  0.000463  0.998612  1
  Cu  Cu1  1  0.624366  0.624366  0.126904  1
  Ni  Ni2  1  0.624264  0.126814  0.624658  1
  Ni  Ni3  1  0.126814  0.624264  0.624658  1
  Ni  Ni4  1  0.624264  0.624264  0.624658  1
  Au  Au5  1  0.249830  0.249830  0.250510  1
