# generated using pymatgen
data_Nd5TmSc4(GaO4)6
_symmetry_space_group_name_H-M   'P 1'
_cell_length_a   11.08596835
_cell_length_b   11.08596953
_cell_length_c   11.07530300
_cell_angle_alpha   109.41962744
_cell_angle_beta   109.41963507
_cell_angle_gamma   109.61335230
_symmetry_Int_Tables_number   1
_chemical_formula_structural   Nd5TmSc4(GaO4)6
_chemical_formula_sum   'Nd10 Tm2 Sc8 Ga12 O48'
_cell_volume   1047.29937582
_cell_formula_units_Z   2
loop_
 _symmetry_equiv_pos_site_id
 _symmetry_equiv_pos_as_xyz
  1  'x, y, z'
loop_
 _atom_site_type_symbol
 _atom_site_label
 _atom_site_symmetry_multiplicity
 _atom_site_fract_x
 _atom_site_fract_y
 _atom_site_fract_z
 _atom_site_occupancy
  Nd  Nd0  1  0.249713  0.375372  0.123714  1
  Nd  Nd1  1  0.750287  0.624628  0.876286  1
  Nd  Nd2  1  0.751659  0.126000  0.376286  1
  Nd  Nd3  1  0.124628  0.250287  0.376286  1
  Nd  Nd4  1  0.374000  0.748341  0.123714  1
  Nd  Nd5  1  0.248341  0.874000  0.623714  1
  Nd  Nd6  1  0.875372  0.749713  0.623714  1
  Nd  Nd7  1  0.626000  0.251659  0.876286  1
  Nd  Nd8  1  0.375000  0.125000  0.250000  1
  Nd  Nd9  1  0.625000  0.875000  0.750000  1
  Tm  Tm10  1  0.125000  0.375000  0.750000  1
  Tm  Tm11  1  0.875000  0.625000  0.250000  1
  Sc  Sc12  1  0.000000  0.000000  0.000000  1
  Sc  Sc13  1  0.500000  0.000000  0.500000  1
  Sc  Sc14  1  0.000000  0.500000  0.500000  1
  Sc  Sc15  1  0.500000  0.000000  0.000000  1
  Sc  Sc16  1  0.500000  0.500000  0.000000  1
  Sc  Sc17  1  0.500000  0.500000  0.500000  1
  Sc  Sc18  1  0.000000  0.000000  0.500000  1
  Sc  Sc19  1  0.000000  0.500000  0.000000  1
  Ga  Ga20  1  0.248051  0.624651  0.373941  1
  Ga  Ga21  1  0.751949  0.375349  0.626059  1
  Ga  Ga22  1  0.750710  0.874110  0.126059  1
  Ga  Ga23  1  0.374110  0.250710  0.626059  1
  Ga  Ga24  1  0.625890  0.749290  0.373941  1
  Ga  Ga25  1  0.249290  0.125890  0.873941  1
  Ga  Ga26  1  0.124651  0.748051  0.873941  1
  Ga  Ga27  1  0.875349  0.251949  0.126059  1
  Ga  Ga28  1  0.627433  0.377433  0.250000  1
  Ga  Ga29  1  0.372567  0.622567  0.750000  1
  Ga  Ga30  1  0.877433  0.127433  0.750000  1
  Ga  Ga31  1  0.122567  0.872567  0.250000  1
  O  O32  1  0.475854  0.378047  0.291057  1
  O  O33  1  0.524146  0.621953  0.708943  1
  O  O34  1  0.586990  0.184797  0.208943  1
  O  O35  1  0.922753  0.131788  0.601756  1
  O  O36  1  0.290553  0.474956  0.377870  1
  O  O37  1  0.315203  0.913010  0.291057  1
  O  O38  1  0.413010  0.815203  0.791057  1
  O  O39  1  0.077247  0.868212  0.398244  1
  O  O40  1  0.709447  0.525044  0.622130  1
  O  O41  1  0.684797  0.086990  0.708943  1
  O  O42  1  0.030033  0.320999  0.898244  1
  O  O43  1  0.208609  0.585744  0.182522  1
  O  O44  1  0.121953  0.024146  0.208943  1
  O  O45  1  0.969967  0.679001  0.101756  1
  O  O46  1  0.791391  0.414256  0.817478  1
  O  O47  1  0.878047  0.975854  0.791057  1
  O  O48  1  0.597087  0.912683  0.122130  1
  O  O49  1  0.179001  0.469967  0.601756  1
  O  O50  1  0.402913  0.087317  0.877870  1
  O  O51  1  0.820999  0.530033  0.398244  1
  O  O52  1  0.903221  0.026086  0.317478  1
  O  O53  1  0.368212  0.577247  0.898244  1
  O  O54  1  0.096779  0.973914  0.682522  1
  O  O55  1  0.631788  0.422753  0.101756  1
  O  O56  1  0.376568  0.291068  0.474506  1
  O  O57  1  0.587317  0.902913  0.377870  1
  O  O58  1  0.623432  0.708932  0.525494  1
  O  O59  1  0.412683  0.097087  0.622130  1
  O  O60  1  0.122123  0.593600  0.910349  1
  O  O61  1  0.025044  0.209447  0.122130  1
  O  O62  1  0.877877  0.406400  0.089651  1
  O  O63  1  0.974956  0.790553  0.877870  1
  O  O64  1  0.316561  0.902062  0.025494  1
  O  O65  1  0.914256  0.291391  0.317478  1
  O  O66  1  0.683439  0.097938  0.974506  1
  O  O67  1  0.085744  0.708609  0.682522  1
  O  O68  1  0.183251  0.211774  0.589651  1
  O  O69  1  0.473914  0.596779  0.182522  1
  O  O70  1  0.816749  0.788226  0.410349  1
  O  O71  1  0.526086  0.403221  0.817478  1
  O  O72  1  0.288226  0.316749  0.910349  1
  O  O73  1  0.711774  0.683251  0.089651  1
  O  O74  1  0.208932  0.123432  0.025494  1
  O  O75  1  0.791068  0.876568  0.974506  1
  O  O76  1  0.906400  0.377877  0.589651  1
  O  O77  1  0.093600  0.622123  0.410349  1
  O  O78  1  0.597938  0.183439  0.474506  1
  O  O79  1  0.402062  0.816561  0.525494  1
