# generated using pymatgen
data_LaNd3(GdSe3)4
_symmetry_space_group_name_H-M   'P 1'
_cell_length_a   4.14370400
_cell_length_b   10.97633807
_cell_length_c   11.35854900
_cell_angle_alpha   90.00637876
_cell_angle_beta   90.00000000
_cell_angle_gamma   90.00000000
_symmetry_Int_Tables_number   1
_chemical_formula_structural   LaNd3(GdSe3)4
_chemical_formula_sum   'La1 Nd3 Gd4 Se12'
_cell_volume   516.61742749
_cell_formula_units_Z   1
loop_
 _symmetry_equiv_pos_site_id
 _symmetry_equiv_pos_as_xyz
  1  'x, y, z'
loop_
 _atom_site_type_symbol
 _atom_site_label
 _atom_site_symmetry_multiplicity
 _atom_site_fract_x
 _atom_site_fract_y
 _atom_site_fract_z
 _atom_site_occupancy
  La  La0  1  0.750000  0.498732  0.695504  1
  Nd  Nd1  1  0.750000  0.001140  0.195675  1
  Nd  Nd2  1  0.250000  0.500096  0.304072  1
  Nd  Nd3  1  0.250000  0.000052  0.804213  1
  Gd  Gd4  1  0.250000  0.187643  0.490968  1
  Gd  Gd5  1  0.250000  0.311563  0.991390  1
  Gd  Gd6  1  0.750000  0.813036  0.509069  1
  Gd  Gd7  1  0.750000  0.688919  0.010058  1
  Se  Se8  1  0.250000  0.294385  0.731530  1
  Se  Se9  1  0.250000  0.202805  0.230642  1
  Se  Se10  1  0.750000  0.702760  0.268855  1
  Se  Se11  1  0.750000  0.797962  0.769495  1
  Se  Se12  1  0.750000  0.055136  0.616617  1
  Se  Se13  1  0.750000  0.445190  0.116735  1
  Se  Se14  1  0.250000  0.945295  0.383307  1
  Se  Se15  1  0.250000  0.555519  0.885105  1
  Se  Se16  1  0.250000  0.629489  0.541612  1
  Se  Se17  1  0.250000  0.872328  0.043173  1
  Se  Se18  1  0.750000  0.369941  0.455121  1
  Se  Se19  1  0.750000  0.128008  0.956857  1
