# generated using pymatgen
data_Hf3Ti2Ga3N
_symmetry_space_group_name_H-M   'P 1'
_cell_length_a   7.87162400
_cell_length_b   7.87162369
_cell_length_c   5.47716500
_cell_angle_alpha   90.00000000
_cell_angle_beta   90.00000000
_cell_angle_gamma   120.00000128
_symmetry_Int_Tables_number   1
_chemical_formula_structural   Hf3Ti2Ga3N
_chemical_formula_sum   'Hf6 Ti4 Ga6 N2'
_cell_volume   293.91050966
_cell_formula_units_Z   2
loop_
 _symmetry_equiv_pos_site_id
 _symmetry_equiv_pos_as_xyz
  1  'x, y, z'
loop_
 _atom_site_type_symbol
 _atom_site_label
 _atom_site_symmetry_multiplicity
 _atom_site_fract_x
 _atom_site_fract_y
 _atom_site_fract_z
 _atom_site_occupancy
  Hf  Hf0  1  0.230082  0.000000  0.250000  1
  Hf  Hf1  1  0.769918  0.000000  0.750000  1
  Hf  Hf2  1  0.000000  0.230082  0.250000  1
  Hf  Hf3  1  0.000000  0.769918  0.750000  1
  Hf  Hf4  1  0.769918  0.769918  0.250000  1
  Hf  Hf5  1  0.230082  0.230082  0.750000  1
  Ti  Ti6  1  0.333333  0.666667  0.000000  1
  Ti  Ti7  1  0.666667  0.333333  0.000000  1
  Ti  Ti8  1  0.666667  0.333333  0.500000  1
  Ti  Ti9  1  0.333333  0.666667  0.500000  1
  Ga  Ga10  1  0.592640  0.000000  0.250000  1
  Ga  Ga11  1  0.407360  0.000000  0.750000  1
  Ga  Ga12  1  0.000000  0.592640  0.250000  1
  Ga  Ga13  1  0.000000  0.407360  0.750000  1
  Ga  Ga14  1  0.407360  0.407360  0.250000  1
  Ga  Ga15  1  0.592640  0.592640  0.750000  1
  N  N16  1  0.000000  0.000000  0.000000  1
  N  N17  1  0.000000  0.000000  0.500000  1
