# generated using pymatgen
data_Be4Al3Cr4CoO16
_symmetry_space_group_name_H-M   'P 1'
_cell_length_a   4.51924818
_cell_length_b   5.64985112
_cell_length_c   9.83280029
_cell_angle_alpha   89.98797484
_cell_angle_beta   90.02519806
_cell_angle_gamma   90.02013546
_symmetry_Int_Tables_number   1
_chemical_formula_structural   Be4Al3Cr4CoO16
_chemical_formula_sum   'Be4 Al3 Cr4 Co1 O16'
_cell_volume   251.06162507
_cell_formula_units_Z   1
loop_
 _symmetry_equiv_pos_site_id
 _symmetry_equiv_pos_as_xyz
  1  'x, y, z'
loop_
 _atom_site_type_symbol
 _atom_site_label
 _atom_site_symmetry_multiplicity
 _atom_site_fract_x
 _atom_site_fract_y
 _atom_site_fract_z
 _atom_site_occupancy
  Be  Be0  1  0.929656  0.750006  0.412300  1
  Be  Be1  1  0.571097  0.748534  0.913208  1
  Be  Be2  1  0.070339  0.249995  0.587701  1
  Be  Be3  1  0.428906  0.251466  0.086790  1
  Al  Al4  1  0.500002  0.500003  0.499999  1
  Al  Al5  1  0.999997  0.000004  0.000000  1
  Al  Al6  1  0.500002  0.999997  0.500000  1
  Cr  Cr7  1  0.498682  0.750288  0.231691  1
  Cr  Cr8  1  0.001362  0.749958  0.732280  1
  Cr  Cr9  1  0.501309  0.249707  0.768302  1
  Cr  Cr10  1  0.998648  0.250043  0.267724  1
  Co  Co11  1  0.999997  0.500000  0.000000  1
  O  O12  1  0.279654  0.749942  0.415299  1
  O  O13  1  0.220336  0.753720  0.914350  1
  O  O14  1  0.720343  0.250058  0.584698  1
  O  O15  1  0.779669  0.246284  0.085654  1
  O  O16  1  0.747186  0.753125  0.062676  1
  O  O17  1  0.749466  0.749854  0.562759  1
  O  O18  1  0.252811  0.246876  0.937321  1
  O  O19  1  0.250538  0.250146  0.437246  1
  O  O20  1  0.755155  0.979804  0.343040  1
  O  O21  1  0.741669  0.521625  0.841995  1
  O  O22  1  0.245408  0.480060  0.657117  1
  O  O23  1  0.256269  0.020186  0.156644  1
  O  O24  1  0.244844  0.020195  0.656961  1
  O  O25  1  0.258329  0.478374  0.158006  1
  O  O26  1  0.754593  0.519938  0.342883  1
  O  O27  1  0.743732  0.979814  0.843355  1
