# generated using pymatgen
data_Yb5PdRh
_symmetry_space_group_name_H-M   'P 1'
_cell_length_a   8.67287168
_cell_length_b   8.67287244
_cell_length_c   7.46472605
_cell_angle_alpha   83.14839346
_cell_angle_beta   83.14839192
_cell_angle_gamma   43.59616637
_symmetry_Int_Tables_number   1
_chemical_formula_structural   Yb5PdRh
_chemical_formula_sum   'Yb10 Pd2 Rh2'
_cell_volume   383.97603036
_cell_formula_units_Z   2
loop_
 _symmetry_equiv_pos_site_id
 _symmetry_equiv_pos_as_xyz
  1  'x, y, z'
loop_
 _atom_site_type_symbol
 _atom_site_label
 _atom_site_symmetry_multiplicity
 _atom_site_fract_x
 _atom_site_fract_y
 _atom_site_fract_z
 _atom_site_occupancy
  Yb  Yb0  1  0.029824  0.791707  0.914160  1
  Yb  Yb1  1  0.208293  0.970176  0.585840  1
  Yb  Yb2  1  0.984570  0.197171  0.076284  1
  Yb  Yb3  1  0.802829  0.015430  0.423716  1
  Yb  Yb4  1  0.361146  0.203491  0.814212  1
  Yb  Yb5  1  0.796509  0.638854  0.685788  1
  Yb  Yb6  1  0.630431  0.799711  0.174666  1
  Yb  Yb7  1  0.200289  0.369569  0.325334  1
  Yb  Yb8  1  0.569361  0.430639  0.750000  1
  Yb  Yb9  1  0.419961  0.580039  0.250000  1
  Pd  Pd10  1  0.820460  0.401678  0.420177  1
  Pd  Pd11  1  0.598322  0.179541  0.079823  1
  Rh  Rh12  1  0.178013  0.600007  0.579871  1
  Rh  Rh13  1  0.399993  0.821987  0.920129  1
