# generated using pymatgen
data_Y5Er5(Ga2Bi)2
_symmetry_space_group_name_H-M   'P 1'
_cell_length_a   8.71413325
_cell_length_b   8.74561184
_cell_length_c   6.55663000
_cell_angle_alpha   90.00076966
_cell_angle_beta   89.99919032
_cell_angle_gamma   120.13354538
_symmetry_Int_Tables_number   1
_chemical_formula_structural   Y5Er5(Ga2Bi)2
_chemical_formula_sum   'Y5 Er5 Ga4 Bi2'
_cell_volume   432.15515881
_cell_formula_units_Z   1
loop_
 _symmetry_equiv_pos_site_id
 _symmetry_equiv_pos_as_xyz
  1  'x, y, z'
loop_
 _atom_site_type_symbol
 _atom_site_label
 _atom_site_symmetry_multiplicity
 _atom_site_fract_x
 _atom_site_fract_y
 _atom_site_fract_z
 _atom_site_occupancy
  Y  Y0  1  0.982993  0.748650  0.750002  1
  Y  Y1  1  0.982875  0.234269  0.250000  1
  Y  Y2  1  0.767987  0.768514  0.250006  1
  Y  Y3  1  0.767524  0.999262  0.749995  1
  Y  Y4  1  0.234341  0.250869  0.750002  1
  Er  Er5  1  0.234262  0.982753  0.249999  1
  Er  Er6  1  0.329789  0.665122  0.499858  1
  Er  Er7  1  0.692006  0.345991  0.000018  1
  Er  Er8  1  0.692005  0.345989  0.499980  1
  Er  Er9  1  0.329788  0.665120  0.000139  1
  Ga  Ga10  1  0.002047  0.601368  0.250001  1
  Ga  Ga11  1  0.001640  0.401001  0.750000  1
  Ga  Ga12  1  0.595868  0.600778  0.749998  1
  Ga  Ga13  1  0.595437  0.995082  0.250000  1
  Bi  Bi14  1  0.395838  0.006168  0.749999  1
  Bi  Bi15  1  0.395600  0.389065  0.250000  1
