# generated using pymatgen
data_Hf2PRh6
_symmetry_space_group_name_H-M   'P 1'
_cell_length_a   5.84329979
_cell_length_b   5.84329950
_cell_length_c   5.84330000
_cell_angle_alpha   59.99999714
_cell_angle_beta   59.99999881
_cell_angle_gamma   60.00000081
_symmetry_Int_Tables_number   1
_chemical_formula_structural   Hf2PRh6
_chemical_formula_sum   'Hf2 P1 Rh6'
_cell_volume   141.07806369
_cell_formula_units_Z   1
loop_
 _symmetry_equiv_pos_site_id
 _symmetry_equiv_pos_as_xyz
  1  'x, y, z'
loop_
 _atom_site_type_symbol
 _atom_site_label
 _atom_site_symmetry_multiplicity
 _atom_site_fract_x
 _atom_site_fract_y
 _atom_site_fract_z
 _atom_site_occupancy
  Hf  Hf0  1  0.250001  0.250001  0.250001  1
  Hf  Hf1  1  0.750000  0.750000  0.750000  1
  P  P2  1  0.500000  0.500000  0.500000  1
  Rh  Rh3  1  0.764677  0.235323  0.235323  1
  Rh  Rh4  1  0.235323  0.764677  0.235323  1
  Rh  Rh5  1  0.764677  0.764677  0.235323  1
  Rh  Rh6  1  0.235323  0.235323  0.764677  1
  Rh  Rh7  1  0.764677  0.235323  0.764677  1
  Rh  Rh8  1  0.235323  0.764677  0.764677  1
