# generated using pymatgen
data_La13Th(IrRh)3
_symmetry_space_group_name_H-M   'P 1'
_cell_length_a   6.52055901
_cell_length_b   10.23722338
_cell_length_c   10.23722329
_cell_angle_alpha   119.97028264
_cell_angle_beta   89.99536135
_cell_angle_gamma   90.00464571
_symmetry_Int_Tables_number   1
_chemical_formula_structural   La13Th(IrRh)3
_chemical_formula_sum   'La13 Th1 Ir3 Rh3'
_cell_volume   591.98375315
_cell_formula_units_Z   1
loop_
 _symmetry_equiv_pos_site_id
 _symmetry_equiv_pos_as_xyz
  1  'x, y, z'
loop_
 _atom_site_type_symbol
 _atom_site_label
 _atom_site_symmetry_multiplicity
 _atom_site_fract_x
 _atom_site_fract_y
 _atom_site_fract_z
 _atom_site_occupancy
  La  La0  1  0.973526  0.666664  0.333336  1
  La  La1  1  0.250260  0.126603  0.873397  1
  La  La2  1  0.250355  0.746751  0.873397  1
  La  La3  1  0.250355  0.126603  0.253249  1
  La  La4  1  0.747994  0.874358  0.125642  1
  La  La5  1  0.747938  0.251345  0.125628  1
  La  La6  1  0.747938  0.874372  0.748655  1
  La  La7  1  0.436505  0.538037  0.461963  1
  La  La8  1  0.436251  0.923891  0.462006  1
  La  La9  1  0.436251  0.537994  0.076109  1
  La  La10  1  0.940761  0.459767  0.540233  1
  La  La11  1  0.940693  0.080403  0.540122  1
  La  La12  1  0.940693  0.459878  0.919597  1
  Th  Th13  1  0.479133  0.333316  0.666684  1
  Ir  Ir14  1  0.684231  0.191446  0.808554  1
  Ir  Ir15  1  0.684288  0.617147  0.808527  1
  Ir  Ir16  1  0.684288  0.191473  0.382853  1
  Rh  Rh17  1  0.190082  0.811059  0.188941  1
  Rh  Rh18  1  0.190225  0.377844  0.188949  1
  Rh  Rh19  1  0.190225  0.811051  0.622156  1
