# generated using pymatgen
data_Tb2EuY(Co5P3)4
_symmetry_space_group_name_H-M   'P 1'
_cell_length_a   3.64347000
_cell_length_b   10.29871068
_cell_length_c   11.74620078
_cell_angle_alpha   89.95818364
_cell_angle_beta   90.00000000
_cell_angle_gamma   90.00000000
_symmetry_Int_Tables_number   1
_chemical_formula_structural   Tb2EuY(Co5P3)4
_chemical_formula_sum   'Tb2 Eu1 Y1 Co20 P12'
_cell_volume   440.75308461
_cell_formula_units_Z   1
loop_
 _symmetry_equiv_pos_site_id
 _symmetry_equiv_pos_as_xyz
  1  'x, y, z'
loop_
 _atom_site_type_symbol
 _atom_site_label
 _atom_site_symmetry_multiplicity
 _atom_site_fract_x
 _atom_site_fract_y
 _atom_site_fract_z
 _atom_site_occupancy
  Tb  Tb0  1  0.750000  0.417074  0.297665  1
  Tb  Tb1  1  0.750000  0.083231  0.797166  1
  Eu  Eu2  1  0.250000  0.916304  0.203027  1
  Y  Y3  1  0.250000  0.582825  0.702589  1
  Co  Co4  1  0.250000  0.714716  0.990756  1
  Co  Co5  1  0.250000  0.784837  0.491171  1
  Co  Co6  1  0.750000  0.284786  0.008242  1
  Co  Co7  1  0.750000  0.215512  0.510146  1
  Co  Co8  1  0.250000  0.406494  0.488292  1
  Co  Co9  1  0.250000  0.094915  0.987058  1
  Co  Co10  1  0.750000  0.593133  0.512352  1
  Co  Co11  1  0.750000  0.907378  0.008006  1
  Co  Co12  1  0.250000  0.221762  0.175766  1
  Co  Co13  1  0.250000  0.279127  0.676572  1
  Co  Co14  1  0.750000  0.777665  0.822803  1
  Co  Co15  1  0.750000  0.718554  0.324891  1
  Co  Co16  1  0.250000  0.882268  0.698656  1
  Co  Co17  1  0.250000  0.616040  0.198281  1
  Co  Co18  1  0.750000  0.120580  0.302928  1
  Co  Co19  1  0.750000  0.382709  0.801443  1
  Co  Co20  1  0.250000  0.467753  0.931602  1
  Co  Co21  1  0.250000  0.033018  0.433666  1
  Co  Co22  1  0.750000  0.531570  0.067774  1
  Co  Co23  1  0.750000  0.967602  0.568869  1
  P  P24  1  0.250000  0.418311  0.111531  1
  P  P25  1  0.250000  0.081655  0.612484  1
  P  P26  1  0.750000  0.581447  0.888096  1
  P  P27  1  0.750000  0.918528  0.389045  1
  P  P28  1  0.250000  0.271655  0.870152  1
  P  P29  1  0.250000  0.228665  0.370174  1
  P  P30  1  0.750000  0.727809  0.129202  1
  P  P31  1  0.750000  0.770835  0.629604  1
  P  P32  1  0.250000  0.602683  0.391819  1
  P  P33  1  0.250000  0.897215  0.891703  1
  P  P34  1  0.750000  0.397845  0.608442  1
  P  P35  1  0.750000  0.103499  0.108028  1
