# generated using pymatgen
data_Sm4Y2C2Br7
_symmetry_space_group_name_H-M   'P 1'
_cell_length_a   10.71634725
_cell_length_b   10.71634655
_cell_length_c   12.17311003
_cell_angle_alpha   57.47032051
_cell_angle_beta   57.47032243
_cell_angle_gamma   20.85509346
_symmetry_Int_Tables_number   1
_chemical_formula_structural   Sm4Y2C2Br7
_chemical_formula_sum   'Sm4 Y2 C2 Br7'
_cell_volume   416.70182244
_cell_formula_units_Z   1
loop_
 _symmetry_equiv_pos_site_id
 _symmetry_equiv_pos_as_xyz
  1  'x, y, z'
loop_
 _atom_site_type_symbol
 _atom_site_label
 _atom_site_symmetry_multiplicity
 _atom_site_fract_x
 _atom_site_fract_y
 _atom_site_fract_z
 _atom_site_occupancy
  Sm  Sm0  1  0.229470  0.229470  0.837793  1
  Sm  Sm1  1  0.314969  0.314969  0.364667  1
  Sm  Sm2  1  0.129272  0.129272  0.444143  1
  Sm  Sm3  1  0.867746  0.867746  0.558667  1
  Y  Y4  1  0.687901  0.687901  0.633150  1
  Y  Y5  1  0.769105  0.769105  0.168194  1
  C  C6  1  0.277964  0.277964  0.607290  1
  C  C7  1  0.719395  0.719395  0.393669  1
  Br  Br8  1  0.167969  0.167969  0.163199  1
  Br  Br9  1  0.836379  0.836379  0.836212  1
  Br  Br10  1  0.061458  0.061458  0.719465  1
  Br  Br11  1  0.943285  0.943285  0.278280  1
  Br  Br12  1  0.499790  0.499790  0.499917  1
  Br  Br13  1  0.385918  0.385918  0.067581  1
  Br  Br14  1  0.609378  0.609378  0.927774  1
