# generated using pymatgen
data_Tb3Dy9Os4
_symmetry_space_group_name_H-M   'P 1'
_cell_length_a   6.31825748
_cell_length_b   7.39263386
_cell_length_c   9.11193900
_cell_angle_alpha   90.00000000
_cell_angle_beta   90.00000000
_cell_angle_gamma   89.98163659
_symmetry_Int_Tables_number   1
_chemical_formula_structural   Tb3Dy9Os4
_chemical_formula_sum   'Tb3 Dy9 Os4'
_cell_volume   425.60556597
_cell_formula_units_Z   1
loop_
 _symmetry_equiv_pos_site_id
 _symmetry_equiv_pos_as_xyz
  1  'x, y, z'
loop_
 _atom_site_type_symbol
 _atom_site_label
 _atom_site_symmetry_multiplicity
 _atom_site_fract_x
 _atom_site_fract_y
 _atom_site_fract_z
 _atom_site_occupancy
  Tb  Tb0  1  0.869709  0.537981  0.250000  1
  Tb  Tb1  1  0.630409  0.038100  0.250000  1
  Tb  Tb2  1  0.130561  0.461917  0.750000  1
  Dy  Dy3  1  0.332426  0.675906  0.062897  1
  Dy  Dy4  1  0.167980  0.175132  0.437217  1
  Dy  Dy5  1  0.667329  0.324235  0.563023  1
  Dy  Dy6  1  0.831827  0.824654  0.936875  1
  Dy  Dy7  1  0.667329  0.324235  0.936977  1
  Dy  Dy8  1  0.831827  0.824654  0.563125  1
  Dy  Dy9  1  0.332426  0.675906  0.437103  1
  Dy  Dy10  1  0.167980  0.175132  0.062783  1
  Dy  Dy11  1  0.369339  0.961779  0.750000  1
  Os  Os12  1  0.042016  0.883338  0.250000  1
  Os  Os13  1  0.458052  0.383300  0.250000  1
  Os  Os14  1  0.959218  0.116661  0.750000  1
  Os  Os15  1  0.541574  0.617071  0.750000  1
