# generated using pymatgen
data_Yb3MoCl2O5
_symmetry_space_group_name_H-M   'P 1'
_cell_length_a   6.63606753
_cell_length_b   6.63606782
_cell_length_c   10.77257700
_cell_angle_alpha   90.00000000
_cell_angle_beta   90.00000000
_cell_angle_gamma   131.57998805
_symmetry_Int_Tables_number   1
_chemical_formula_structural   Yb3MoCl2O5
_chemical_formula_sum   'Yb6 Mo2 Cl4 O10'
_cell_volume   354.86257435
_cell_formula_units_Z   2
loop_
 _symmetry_equiv_pos_site_id
 _symmetry_equiv_pos_as_xyz
  1  'x, y, z'
loop_
 _atom_site_type_symbol
 _atom_site_label
 _atom_site_symmetry_multiplicity
 _atom_site_fract_x
 _atom_site_fract_y
 _atom_site_fract_z
 _atom_site_occupancy
  Yb  Yb0  1  0.660859  0.339141  0.533837  1
  Yb  Yb1  1  0.339141  0.660859  0.033837  1
  Yb  Yb2  1  0.660859  0.339141  0.966163  1
  Yb  Yb3  1  0.897431  0.102569  0.750000  1
  Yb  Yb4  1  0.339141  0.660859  0.466163  1
  Yb  Yb5  1  0.102569  0.897431  0.250000  1
  Mo  Mo6  1  0.759647  0.240353  0.250000  1
  Mo  Mo7  1  0.240353  0.759647  0.750000  1
  Cl  Cl8  1  0.496354  0.503646  0.250000  1
  Cl  Cl9  1  0.000000  0.000000  0.500000  1
  Cl  Cl10  1  0.503646  0.496354  0.750000  1
  Cl  Cl11  1  0.000000  0.000000  0.000000  1
  O  O12  1  0.477647  0.040763  0.372122  1
  O  O13  1  0.040763  0.477647  0.627878  1
  O  O14  1  0.522353  0.959237  0.872122  1
  O  O15  1  0.522353  0.959237  0.627878  1
  O  O16  1  0.097280  0.902720  0.750000  1
  O  O17  1  0.040763  0.477647  0.872122  1
  O  O18  1  0.477647  0.040763  0.127878  1
  O  O19  1  0.959237  0.522353  0.372122  1
  O  O20  1  0.902720  0.097280  0.250000  1
  O  O21  1  0.959237  0.522353  0.127878  1
