# generated using pymatgen
data_Y6Al2Si2IrRh3
_symmetry_space_group_name_H-M   'P 1'
_cell_length_a   5.58699700
_cell_length_b   7.92575017
_cell_length_c   13.30674266
_cell_angle_alpha   89.91504296
_cell_angle_beta   90.00000000
_cell_angle_gamma   90.00000000
_symmetry_Int_Tables_number   1
_chemical_formula_structural   Y6Al2Si2IrRh3
_chemical_formula_sum   'Y12 Al4 Si4 Ir2 Rh6'
_cell_volume   589.23711963
_cell_formula_units_Z   2
loop_
 _symmetry_equiv_pos_site_id
 _symmetry_equiv_pos_as_xyz
  1  'x, y, z'
loop_
 _atom_site_type_symbol
 _atom_site_label
 _atom_site_symmetry_multiplicity
 _atom_site_fract_x
 _atom_site_fract_y
 _atom_site_fract_z
 _atom_site_occupancy
  Y  Y0  1  0.142690  0.602378  0.103999  1
  Y  Y1  1  0.142690  0.897622  0.896001  1
  Y  Y2  1  0.857402  0.102819  0.396302  1
  Y  Y3  1  0.857402  0.397181  0.603698  1
  Y  Y4  1  0.856662  0.395807  0.896788  1
  Y  Y5  1  0.856662  0.104193  0.103212  1
  Y  Y6  1  0.142529  0.897001  0.603673  1
  Y  Y7  1  0.142529  0.602999  0.396327  1
  Y  Y8  1  0.368231  0.245386  0.249536  1
  Y  Y9  1  0.368231  0.254614  0.750464  1
  Y  Y10  1  0.631365  0.743908  0.249655  1
  Y  Y11  1  0.631365  0.756092  0.750345  1
  Al  Al12  1  0.380995  0.250000  0.000000  1
  Al  Al13  1  0.621689  0.750000  0.500000  1
  Al  Al14  1  0.621056  0.750000  0.000000  1
  Al  Al15  1  0.378162  0.250000  0.500000  1
  Si  Si16  1  0.862028  0.391458  0.250166  1
  Si  Si17  1  0.862028  0.108542  0.749834  1
  Si  Si18  1  0.137736  0.890965  0.250030  1
  Si  Si19  1  0.137736  0.609035  0.749970  1
  Ir  Ir20  1  0.644309  0.470876  0.094091  1
  Ir  Ir21  1  0.644309  0.029124  0.905909  1
  Rh  Rh22  1  0.356557  0.970741  0.406398  1
  Rh  Rh23  1  0.356557  0.529259  0.593602  1
  Rh  Rh24  1  0.356021  0.529705  0.906043  1
  Rh  Rh25  1  0.356021  0.970295  0.093957  1
  Rh  Rh26  1  0.643519  0.029389  0.593626  1
  Rh  Rh27  1  0.643519  0.470611  0.406374  1
