# generated using pymatgen
data_Lu3Mn5(P3Ir2)2
_symmetry_space_group_name_H-M   'P 1'
_cell_length_a   3.81932100
_cell_length_b   10.66847700
_cell_length_c   12.64357900
_cell_angle_alpha   90.00000000
_cell_angle_beta   90.00000000
_cell_angle_gamma   90.00000000
_symmetry_Int_Tables_number   1
_chemical_formula_structural   Lu3Mn5(P3Ir2)2
_chemical_formula_sum   'Lu6 Mn10 P12 Ir8'
_cell_volume   515.17954655
_cell_formula_units_Z   2
loop_
 _symmetry_equiv_pos_site_id
 _symmetry_equiv_pos_as_xyz
  1  'x, y, z'
loop_
 _atom_site_type_symbol
 _atom_site_label
 _atom_site_symmetry_multiplicity
 _atom_site_fract_x
 _atom_site_fract_y
 _atom_site_fract_z
 _atom_site_occupancy
  Lu  Lu0  1  0.000000  0.500000  0.524348  1
  Lu  Lu1  1  0.500000  0.000000  0.475652  1
  Lu  Lu2  1  0.500000  0.817306  0.201515  1
  Lu  Lu3  1  0.500000  0.182694  0.201515  1
  Lu  Lu4  1  0.000000  0.682694  0.798485  1
  Lu  Lu5  1  0.000000  0.317306  0.798485  1
  Mn  Mn6  1  0.000000  0.500000  0.991369  1
  Mn  Mn7  1  0.500000  0.000000  0.008631  1
  Mn  Mn8  1  0.500000  0.882662  0.710483  1
  Mn  Mn9  1  0.500000  0.117338  0.710483  1
  Mn  Mn10  1  0.000000  0.617338  0.289517  1
  Mn  Mn11  1  0.000000  0.382662  0.289517  1
  Mn  Mn12  1  0.500000  0.327703  0.996130  1
  Mn  Mn13  1  0.500000  0.672297  0.996130  1
  Mn  Mn14  1  0.000000  0.172297  0.003870  1
  Mn  Mn15  1  0.000000  0.827703  0.003870  1
  P  P16  1  0.500000  0.304121  0.624553  1
  P  P17  1  0.500000  0.695879  0.624553  1
  P  P18  1  0.000000  0.195879  0.375447  1
  P  P19  1  0.000000  0.804121  0.375447  1
  P  P20  1  0.500000  0.500000  0.886238  1
  P  P21  1  0.000000  0.000000  0.113762  1
  P  P22  1  0.500000  0.845478  0.885680  1
  P  P23  1  0.500000  0.154522  0.885680  1
  P  P24  1  0.000000  0.654522  0.114320  1
  P  P25  1  0.000000  0.345478  0.114320  1
  P  P26  1  0.500000  0.500000  0.341118  1
  P  P27  1  0.000000  0.000000  0.658882  1
  Ir  Ir28  1  0.500000  0.302165  0.429758  1
  Ir  Ir29  1  0.500000  0.697835  0.429758  1
  Ir  Ir30  1  0.000000  0.197835  0.570242  1
  Ir  Ir31  1  0.000000  0.802165  0.570242  1
  Ir  Ir32  1  0.500000  0.500000  0.155243  1
  Ir  Ir33  1  0.000000  0.000000  0.844757  1
  Ir  Ir34  1  0.500000  0.500000  0.699710  1
  Ir  Ir35  1  0.000000  0.000000  0.300290  1
