# generated using pymatgen
data_EuDy3Cr2(SbO7)2
_symmetry_space_group_name_H-M   'P 1'
_cell_length_a   7.29498566
_cell_length_b   7.35388505
_cell_length_c   7.29520477
_cell_angle_alpha   59.74196438
_cell_angle_beta   59.94398870
_cell_angle_gamma   59.74710973
_symmetry_Int_Tables_number   1
_chemical_formula_structural   EuDy3Cr2(SbO7)2
_chemical_formula_sum   'Eu1 Dy3 Cr2 Sb2 O14'
_cell_volume   275.54544493
_cell_formula_units_Z   1
loop_
 _symmetry_equiv_pos_site_id
 _symmetry_equiv_pos_as_xyz
  1  'x, y, z'
loop_
 _atom_site_type_symbol
 _atom_site_label
 _atom_site_symmetry_multiplicity
 _atom_site_fract_x
 _atom_site_fract_y
 _atom_site_fract_z
 _atom_site_occupancy
  Eu  Eu0  1  0.125000  0.625000  0.125000  1
  Dy  Dy1  1  0.125000  0.125000  0.625000  1
  Dy  Dy2  1  0.625000  0.125000  0.125000  1
  Dy  Dy3  1  0.125000  0.125000  0.125000  1
  Cr  Cr4  1  0.125000  0.625000  0.625000  1
  Cr  Cr5  1  0.625000  0.625000  0.125000  1
  Sb  Sb6  1  0.625000  0.625000  0.625000  1
  Sb  Sb7  1  0.625000  0.125000  0.625000  1
  O  O8  1  0.294773  0.715980  0.699794  1
  O  O9  1  0.546496  0.961377  0.955758  1
  O  O10  1  0.706147  0.293732  0.706028  1
  O  O11  1  0.294220  0.288675  0.703437  1
  O  O12  1  0.699557  0.716296  0.294717  1
  O  O13  1  0.995722  0.008765  0.995685  1
  O  O14  1  0.284778  0.717207  0.284728  1
  O  O15  1  0.965222  0.532793  0.965272  1
  O  O16  1  0.955780  0.961325  0.546563  1
  O  O17  1  0.550443  0.533704  0.955283  1
  O  O18  1  0.254278  0.241235  0.254315  1
  O  O19  1  0.543853  0.956268  0.543972  1
  O  O20  1  0.703504  0.288623  0.294242  1
  O  O21  1  0.955227  0.534020  0.550206  1
