# generated using pymatgen
data_Tb8YHoRu4
_symmetry_space_group_name_H-M   'P 1'
_cell_length_a   6.40021336
_cell_length_b   7.28783297
_cell_length_c   8.53558814
_cell_angle_alpha   96.66329996
_cell_angle_beta   112.03403623
_cell_angle_gamma   89.86596885
_symmetry_Int_Tables_number   1
_chemical_formula_structural   Tb8YHoRu4
_chemical_formula_sum   'Tb8 Y1 Ho1 Ru4'
_cell_volume   366.19231596
_cell_formula_units_Z   1
loop_
 _symmetry_equiv_pos_site_id
 _symmetry_equiv_pos_as_xyz
  1  'x, y, z'
loop_
 _atom_site_type_symbol
 _atom_site_label
 _atom_site_symmetry_multiplicity
 _atom_site_fract_x
 _atom_site_fract_y
 _atom_site_fract_z
 _atom_site_occupancy
  Tb  Tb0  1  0.793007  0.584229  0.813852  1
  Tb  Tb1  1  0.020812  0.085080  0.813998  1
  Tb  Tb2  1  0.206363  0.414874  0.186244  1
  Tb  Tb3  1  0.640657  0.814478  0.433690  1
  Tb  Tb4  1  0.206719  0.685518  0.566239  1
  Tb  Tb5  1  0.359858  0.185779  0.566536  1
  Tb  Tb6  1  0.793349  0.314308  0.433350  1
  Tb  Tb7  1  0.422256  0.750000  0.000016  1
  Y  Y8  1  0.978646  0.916131  0.185946  1
  Ho  Ho9  1  0.576732  0.250093  0.999905  1
  Ru  Ru10  1  0.824010  0.574001  0.220158  1
  Ru  Ru11  1  0.604327  0.925363  0.779889  1
  Ru  Ru12  1  0.175812  0.424103  0.779433  1
  Ru  Ru13  1  0.397453  0.076042  0.220744  1
