# generated using pymatgen
data_Ho5Tm(ThSn2)4
_symmetry_space_group_name_H-M   'P 1'
_cell_length_a   8.11221400
_cell_length_b   8.20132300
_cell_length_c   15.49731700
_cell_angle_alpha   90.00000000
_cell_angle_beta   90.00000000
_cell_angle_gamma   90.00000000
_symmetry_Int_Tables_number   1
_chemical_formula_structural   Ho5Tm(ThSn2)4
_chemical_formula_sum   'Ho10 Tm2 Th8 Sn16'
_cell_volume   1031.05025015
_cell_formula_units_Z   2
loop_
 _symmetry_equiv_pos_site_id
 _symmetry_equiv_pos_as_xyz
  1  'x, y, z'
loop_
 _atom_site_type_symbol
 _atom_site_label
 _atom_site_symmetry_multiplicity
 _atom_site_fract_x
 _atom_site_fract_y
 _atom_site_fract_z
 _atom_site_occupancy
  Ho  Ho0  1  0.361991  0.837358  0.875997  1
  Ho  Ho1  1  0.861991  0.662642  0.624003  1
  Ho  Ho2  1  0.638002  0.162656  0.375922  1
  Ho  Ho3  1  0.138002  0.337344  0.124078  1
  Ho  Ho4  1  0.638002  0.162656  0.124078  1
  Ho  Ho5  1  0.138002  0.337344  0.375922  1
  Ho  Ho6  1  0.361991  0.837358  0.624003  1
  Ho  Ho7  1  0.861991  0.662642  0.875997  1
  Ho  Ho8  1  0.191636  0.498220  0.750000  1
  Ho  Ho9  1  0.691636  0.001780  0.750000  1
  Tm  Tm10  1  0.808225  0.501663  0.250000  1
  Tm  Tm11  1  0.308225  0.998337  0.250000  1
  Th  Th12  1  0.519299  0.321076  0.903910  1
  Th  Th13  1  0.019299  0.178924  0.596090  1
  Th  Th14  1  0.480662  0.678834  0.403854  1
  Th  Th15  1  0.980662  0.821166  0.096146  1
  Th  Th16  1  0.480662  0.678834  0.096146  1
  Th  Th17  1  0.980662  0.821166  0.403854  1
  Th  Th18  1  0.519299  0.321076  0.596090  1
  Th  Th19  1  0.019299  0.178924  0.903910  1
  Sn  Sn20  1  0.298809  0.039923  0.042639  1
  Sn  Sn21  1  0.798809  0.460077  0.457361  1
  Sn  Sn22  1  0.701265  0.959996  0.542338  1
  Sn  Sn23  1  0.201265  0.540004  0.957662  1
  Sn  Sn24  1  0.701265  0.959996  0.957662  1
  Sn  Sn25  1  0.201265  0.540004  0.542338  1
  Sn  Sn26  1  0.298809  0.039923  0.457361  1
  Sn  Sn27  1  0.798809  0.460077  0.042639  1
  Sn  Sn28  1  0.557797  0.623121  0.750000  1
  Sn  Sn29  1  0.057797  0.876879  0.750000  1
  Sn  Sn30  1  0.442567  0.376728  0.250000  1
  Sn  Sn31  1  0.942567  0.123272  0.250000  1
  Sn  Sn32  1  0.326237  0.142882  0.750000  1
  Sn  Sn33  1  0.826237  0.357118  0.750000  1
  Sn  Sn34  1  0.673482  0.856692  0.250000  1
  Sn  Sn35  1  0.173482  0.643308  0.250000  1
