# generated using pymatgen
data_Ca(PrSi)2
_symmetry_space_group_name_H-M   'P 1'
_cell_length_a   7.74521900
_cell_length_b   7.74521900
_cell_length_c   4.42922800
_cell_angle_alpha   90.00000000
_cell_angle_beta   90.00000000
_cell_angle_gamma   90.00000000
_symmetry_Int_Tables_number   1
_chemical_formula_structural   Ca(PrSi)2
_chemical_formula_sum   'Ca2 Pr4 Si4'
_cell_volume   265.70237784
_cell_formula_units_Z   2
loop_
 _symmetry_equiv_pos_site_id
 _symmetry_equiv_pos_as_xyz
  1  'x, y, z'
loop_
 _atom_site_type_symbol
 _atom_site_label
 _atom_site_symmetry_multiplicity
 _atom_site_fract_x
 _atom_site_fract_y
 _atom_site_fract_z
 _atom_site_occupancy
  Ca  Ca0  1  0.000000  0.000000  0.000000  1
  Ca  Ca1  1  0.500000  0.500000  0.000000  1
  Pr  Pr2  1  0.678663  0.178663  0.500000  1
  Pr  Pr3  1  0.321337  0.821337  0.500000  1
  Pr  Pr4  1  0.178663  0.321337  0.500000  1
  Pr  Pr5  1  0.821337  0.678663  0.500000  1
  Si  Si6  1  0.110298  0.610298  0.000000  1
  Si  Si7  1  0.889702  0.389702  0.000000  1
  Si  Si8  1  0.610298  0.889702  0.000000  1
  Si  Si9  1  0.389702  0.110298  0.000000  1
