# generated using pymatgen
data_Al2Pd3Pt
_symmetry_space_group_name_H-M   'P 1'
_cell_length_a   5.49398363
_cell_length_b   4.10422900
_cell_length_c   7.89077782
_cell_angle_alpha   90.00000000
_cell_angle_beta   89.78549289
_cell_angle_gamma   90.00000000
_symmetry_Int_Tables_number   1
_chemical_formula_structural   Al2Pd3Pt
_chemical_formula_sum   'Al4 Pd6 Pt2'
_cell_volume   177.92448492
_cell_formula_units_Z   2
loop_
 _symmetry_equiv_pos_site_id
 _symmetry_equiv_pos_as_xyz
  1  'x, y, z'
loop_
 _atom_site_type_symbol
 _atom_site_label
 _atom_site_symmetry_multiplicity
 _atom_site_fract_x
 _atom_site_fract_y
 _atom_site_fract_z
 _atom_site_occupancy
  Al  Al0  1  0.306513  0.250001  0.104043  1
  Al  Al1  1  0.799268  0.250001  0.392998  1
  Al  Al2  1  0.197196  0.750000  0.605948  1
  Al  Al3  1  0.694897  0.750000  0.898441  1
  Pd  Pd4  1  0.041275  0.750000  0.288928  1
  Pd  Pd5  1  0.331836  0.250001  0.433054  1
  Pd  Pd6  1  0.666432  0.750000  0.568364  1
  Pd  Pd7  1  0.959959  0.250001  0.710221  1
  Pd  Pd8  1  0.459032  0.250001  0.786964  1
  Pd  Pd9  1  0.166010  0.750000  0.932151  1
  Pt  Pt10  1  0.837289  0.250001  0.065717  1
  Pt  Pt11  1  0.540295  0.750000  0.213173  1
