# generated using pymatgen
data_Pu(BrO4)2
_symmetry_space_group_name_H-M   'P 1'
_cell_length_a   16.78869400
_cell_length_b   4.40918401
_cell_length_c   6.05241805
_cell_angle_alpha   64.44651301
_cell_angle_beta   90.00000000
_cell_angle_gamma   90.00000000
_symmetry_Int_Tables_number   1
_chemical_formula_structural   Pu(BrO4)2
_chemical_formula_sum   'Pu2 Br4 O16'
_cell_volume   404.20221918
_cell_formula_units_Z   2
loop_
 _symmetry_equiv_pos_site_id
 _symmetry_equiv_pos_as_xyz
  1  'x, y, z'
loop_
 _atom_site_type_symbol
 _atom_site_label
 _atom_site_symmetry_multiplicity
 _atom_site_fract_x
 _atom_site_fract_y
 _atom_site_fract_z
 _atom_site_occupancy
  Pu  Pu0  1  0.500000  0.500000  0.000000  1
  Pu  Pu1  1  0.000000  0.500000  0.500000  1
  Br  Br2  1  0.652894  0.951321  0.240859  1
  Br  Br3  1  0.152894  0.048679  0.259141  1
  Br  Br4  1  0.347106  0.048679  0.759141  1
  Br  Br5  1  0.847106  0.951321  0.740859  1
  O  O6  1  0.443954  0.346006  0.275042  1
  O  O7  1  0.943954  0.653994  0.224958  1
  O  O8  1  0.556046  0.653994  0.724958  1
  O  O9  1  0.056046  0.346006  0.775042  1
  O  O10  1  0.624741  0.321998  0.243652  1
  O  O11  1  0.124741  0.678002  0.256348  1
  O  O12  1  0.938038  0.922213  0.605786  1
  O  O13  1  0.438038  0.077787  0.894214  1
  O  O14  1  0.061962  0.077787  0.394214  1
  O  O15  1  0.561962  0.922213  0.105786  1
  O  O16  1  0.778293  0.038900  0.530909  1
  O  O17  1  0.278293  0.961100  0.969091  1
  O  O18  1  0.221707  0.961100  0.469091  1
  O  O19  1  0.721707  0.038900  0.030909  1
  O  O20  1  0.875259  0.321998  0.743652  1
  O  O21  1  0.375259  0.678002  0.756348  1
