# generated using pymatgen
data_MnSeIO6
_symmetry_space_group_name_H-M   'P 1'
_cell_length_a   5.37347000
_cell_length_b   5.45851963
_cell_length_c   9.13829871
_cell_angle_alpha   94.63899615
_cell_angle_beta   90.00087427
_cell_angle_gamma   89.99993846
_symmetry_Int_Tables_number   1
_chemical_formula_structural   MnSeIO6
_chemical_formula_sum   'Mn2 Se2 I2 O12'
_cell_volume   267.15911653
_cell_formula_units_Z   2
loop_
 _symmetry_equiv_pos_site_id
 _symmetry_equiv_pos_as_xyz
  1  'x, y, z'
loop_
 _atom_site_type_symbol
 _atom_site_label
 _atom_site_symmetry_multiplicity
 _atom_site_fract_x
 _atom_site_fract_y
 _atom_site_fract_z
 _atom_site_occupancy
  Mn  Mn0  1  0.814821  0.723507  0.261291  1
  Mn  Mn1  1  0.314820  0.276496  0.738708  1
  Se  Se2  1  0.710645  0.237976  0.436750  1
  Se  Se3  1  0.210643  0.762027  0.563254  1
  I  I4  1  0.740084  0.763989  0.897415  1
  I  I5  1  0.240084  0.236012  0.102589  1
  O  O6  1  0.632084  0.644386  0.072326  1
  O  O7  1  0.132072  0.355607  0.927673  1
  O  O8  1  0.011946  0.847189  0.424734  1
  O  O9  1  0.511934  0.152816  0.575261  1
  O  O10  1  0.564046  0.483411  0.369518  1
  O  O11  1  0.064034  0.516588  0.630481  1
  O  O12  1  0.562452  0.051143  0.906871  1
  O  O13  1  0.062462  0.948846  0.093129  1
  O  O14  1  0.531706  0.575027  0.775549  1
  O  O15  1  0.031716  0.424976  0.224455  1
  O  O16  1  0.607476  0.011833  0.297527  1
  O  O17  1  0.107471  0.988173  0.702471  1
