# generated using pymatgen
data_DyEr9In8(RuPt)2
_symmetry_space_group_name_H-M   'P 1'
_cell_length_a   3.59354400
_cell_length_b   8.04514363
_cell_length_c   18.23786422
_cell_angle_alpha   89.95442348
_cell_angle_beta   90.00000000
_cell_angle_gamma   90.00000000
_symmetry_Int_Tables_number   1
_chemical_formula_structural   DyEr9In8(RuPt)2
_chemical_formula_sum   'Dy1 Er9 In8 Ru2 Pt2'
_cell_volume   527.26702239
_cell_formula_units_Z   1
loop_
 _symmetry_equiv_pos_site_id
 _symmetry_equiv_pos_as_xyz
  1  'x, y, z'
loop_
 _atom_site_type_symbol
 _atom_site_label
 _atom_site_symmetry_multiplicity
 _atom_site_fract_x
 _atom_site_fract_y
 _atom_site_fract_z
 _atom_site_occupancy
  Dy  Dy0  1  0.000000  0.500000  0.500000  1
  Er  Er1  1  0.000000  0.116514  0.412262  1
  Er  Er2  1  0.000000  0.883486  0.587738  1
  Er  Er3  1  0.000000  0.381088  0.913536  1
  Er  Er4  1  0.000000  0.618912  0.086464  1
  Er  Er5  1  0.000000  0.235272  0.222483  1
  Er  Er6  1  0.000000  0.764728  0.777517  1
  Er  Er7  1  0.000000  0.247967  0.720756  1
  Er  Er8  1  0.000000  0.752033  0.279244  1
  Er  Er9  1  0.000000  0.000000  0.000000  1
  In  In10  1  0.500000  0.424305  0.351265  1
  In  In11  1  0.500000  0.575695  0.648735  1
  In  In12  1  0.500000  0.068095  0.850368  1
  In  In13  1  0.500000  0.931905  0.149632  1
  In  In14  1  0.500000  0.292624  0.065948  1
  In  In15  1  0.500000  0.707376  0.934052  1
  In  In16  1  0.500000  0.205671  0.568658  1
  In  In17  1  0.500000  0.794329  0.431342  1
  Ru  Ru18  1  0.500000  0.021021  0.303910  1
  Ru  Ru19  1  0.500000  0.978979  0.696090  1
  Pt  Pt20  1  0.500000  0.477814  0.803274  1
  Pt  Pt21  1  0.500000  0.522186  0.196726  1
