# generated using pymatgen
data_Y8Er2Si5Sn
_symmetry_space_group_name_H-M   'P 1'
_cell_length_a   8.51798600
_cell_length_b   8.54459958
_cell_length_c   6.39418303
_cell_angle_alpha   90.01032341
_cell_angle_beta   90.00000000
_cell_angle_gamma   119.89702104
_symmetry_Int_Tables_number   1
_chemical_formula_structural   Y8Er2Si5Sn
_chemical_formula_sum   'Y8 Er2 Si5 Sn1'
_cell_volume   403.45402205
_cell_formula_units_Z   1
loop_
 _symmetry_equiv_pos_site_id
 _symmetry_equiv_pos_as_xyz
  1  'x, y, z'
loop_
 _atom_site_type_symbol
 _atom_site_label
 _atom_site_symmetry_multiplicity
 _atom_site_fract_x
 _atom_site_fract_y
 _atom_site_fract_z
 _atom_site_occupancy
  Y  Y0  1  0.989540  0.748350  0.750093  1
  Y  Y1  1  0.998985  0.243421  0.250033  1
  Y  Y2  1  0.755563  0.756579  0.249967  1
  Y  Y3  1  0.764506  0.000000  0.750000  1
  Y  Y4  1  0.241190  0.251650  0.749907  1
  Y  Y5  1  0.241812  0.000000  0.250000  1
  Y  Y6  1  0.673189  0.341463  0.496944  1
  Y  Y7  1  0.331726  0.658537  0.003056  1
  Er  Er8  1  0.331653  0.658316  0.496968  1
  Er  Er9  1  0.673337  0.341684  0.003032  1
  Si  Si10  1  0.393877  0.392817  0.250070  1
  Si  Si11  1  0.001060  0.607183  0.249930  1
  Si  Si12  1  0.998757  0.394502  0.750002  1
  Si  Si13  1  0.604255  0.605498  0.749998  1
  Si  Si14  1  0.605674  0.000000  0.250000  1
  Sn  Sn15  1  0.394875  0.000000  0.750000  1
