# generated using pymatgen
data_Li4Pr4Si7Ge
_symmetry_space_group_name_H-M   'P 1'
_cell_length_a   3.90760700
_cell_length_b   7.75759267
_cell_length_c   10.61313595
_cell_angle_alpha   89.95196830
_cell_angle_beta   90.00000000
_cell_angle_gamma   90.00000000
_symmetry_Int_Tables_number   1
_chemical_formula_structural   Li4Pr4Si7Ge
_chemical_formula_sum   'Li4 Pr4 Si7 Ge1'
_cell_volume   321.72249339
_cell_formula_units_Z   1
loop_
 _symmetry_equiv_pos_site_id
 _symmetry_equiv_pos_as_xyz
  1  'x, y, z'
loop_
 _atom_site_type_symbol
 _atom_site_label
 _atom_site_symmetry_multiplicity
 _atom_site_fract_x
 _atom_site_fract_y
 _atom_site_fract_z
 _atom_site_occupancy
  Li  Li0  1  0.750000  0.507609  0.112243  1
  Li  Li1  1  0.750000  0.005730  0.389711  1
  Li  Li2  1  0.250000  0.993331  0.609470  1
  Li  Li3  1  0.250000  0.495752  0.888533  1
  Pr  Pr4  1  0.250000  0.137427  0.136563  1
  Pr  Pr5  1  0.250000  0.640009  0.365538  1
  Pr  Pr6  1  0.750000  0.360024  0.633119  1
  Pr  Pr7  1  0.750000  0.858976  0.865408  1
  Si  Si8  1  0.250000  0.725909  0.072914  1
  Si  Si9  1  0.750000  0.836595  0.177468  1
  Si  Si10  1  0.750000  0.336740  0.323053  1
  Si  Si11  1  0.250000  0.226160  0.427167  1
  Si  Si12  1  0.750000  0.773445  0.572458  1
  Si  Si13  1  0.250000  0.662919  0.676793  1
  Si  Si14  1  0.250000  0.160438  0.819430  1
  Ge  Ge15  1  0.750000  0.278935  0.930133  1
