# generated using pymatgen
data_Be(Nb2Sb)2
_symmetry_space_group_name_H-M   'P 1'
_cell_length_a   7.74789741
_cell_length_b   7.74789871
_cell_length_c   7.74789789
_cell_angle_alpha   95.65928907
_cell_angle_beta   95.68504414
_cell_angle_gamma   143.35292318
_symmetry_Int_Tables_number   1
_chemical_formula_structural   Be(Nb2Sb)2
_chemical_formula_sum   'Be2 Nb8 Sb4'
_cell_volume   263.53825136
_cell_formula_units_Z   2
loop_
 _symmetry_equiv_pos_site_id
 _symmetry_equiv_pos_as_xyz
  1  'x, y, z'
loop_
 _atom_site_type_symbol
 _atom_site_label
 _atom_site_symmetry_multiplicity
 _atom_site_fract_x
 _atom_site_fract_y
 _atom_site_fract_z
 _atom_site_occupancy
  Be  Be0  1  0.250000  0.250000  0.000000  1
  Be  Be1  1  0.750000  0.750000  0.000000  1
  Nb  Nb2  1  0.918270  0.800972  0.719238  1
  Nb  Nb3  1  0.800983  0.081749  0.882734  1
  Nb  Nb4  1  0.418266  0.699028  0.117298  1
  Nb  Nb5  1  0.581734  0.300972  0.882702  1
  Nb  Nb6  1  0.699016  0.581749  0.280766  1
  Nb  Nb7  1  0.300984  0.418251  0.719234  1
  Nb  Nb8  1  0.199017  0.918251  0.117266  1
  Nb  Nb9  1  0.081730  0.199028  0.280762  1
  Sb  Sb10  1  0.641393  0.858632  0.500028  1
  Sb  Sb11  1  0.141396  0.641368  0.782760  1
  Sb  Sb12  1  0.858604  0.358632  0.217239  1
  Sb  Sb13  1  0.358607  0.141368  0.499972  1
