# generated using pymatgen
data_Tb7Nd13Si15Sn
_symmetry_space_group_name_H-M   'P 1'
_cell_length_a   7.88689521
_cell_length_b   7.89629707
_cell_length_c   14.68570971
_cell_angle_alpha   89.79732986
_cell_angle_beta   90.17650335
_cell_angle_gamma   90.09274224
_symmetry_Int_Tables_number   1
_chemical_formula_structural   Tb7Nd13Si15Sn
_chemical_formula_sum   'Tb7 Nd13 Si15 Sn1'
_cell_volume   914.57462870
_cell_formula_units_Z   1
loop_
 _symmetry_equiv_pos_site_id
 _symmetry_equiv_pos_as_xyz
  1  'x, y, z'
loop_
 _atom_site_type_symbol
 _atom_site_label
 _atom_site_symmetry_multiplicity
 _atom_site_fract_x
 _atom_site_fract_y
 _atom_site_fract_z
 _atom_site_occupancy
  Tb  Tb0  1  0.489436  0.363340  0.122697  1
  Tb  Tb1  1  0.979231  0.145744  0.632545  1
  Tb  Tb2  1  0.866279  0.009685  0.873707  1
  Tb  Tb3  1  0.133111  0.991471  0.369120  1
  Tb  Tb4  1  0.511947  0.630100  0.625776  1
  Tb  Tb5  1  0.366752  0.489285  0.876453  1
  Tb  Tb6  1  0.638183  0.504406  0.375166  1
  Nd  Nd7  1  0.011838  0.864741  0.125529  1
  Nd  Nd8  1  0.639483  0.992726  0.452676  1
  Nd  Nd9  1  0.368783  0.007661  0.955435  1
  Nd  Nd10  1  0.985173  0.629970  0.546083  1
  Nd  Nd11  1  0.490456  0.863721  0.206615  1
  Nd  Nd12  1  0.514501  0.142978  0.712035  1
  Nd  Nd13  1  0.867887  0.491625  0.796221  1
  Nd  Nd14  1  0.131071  0.506812  0.293063  1
  Nd  Nd15  1  0.011191  0.362029  0.042480  1
  Nd  Nd16  1  0.310183  0.329426  0.498082  1
  Nd  Nd17  1  0.185277  0.814237  0.756535  1
  Nd  Nd18  1  0.815389  0.184677  0.248046  1
  Nd  Nd19  1  0.688117  0.686489  0.000702  1
  Si  Si20  1  0.709688  0.073223  0.056401  1
  Si  Si21  1  0.928235  0.287309  0.441976  1
  Si  Si22  1  0.429921  0.210167  0.308510  1
  Si  Si23  1  0.572575  0.786300  0.807641  1
  Si  Si24  1  0.211025  0.431138  0.692806  1
  Si  Si25  1  0.783226  0.568887  0.193064  1
  Si  Si26  1  0.071638  0.704080  0.941650  1
  Si  Si27  1  0.795117  0.842271  0.690993  1
  Si  Si28  1  0.206569  0.161303  0.190992  1
  Si  Si29  1  0.840101  0.793067  0.311068  1
  Si  Si30  1  0.347948  0.702219  0.428223  1
  Si  Si31  1  0.656226  0.292673  0.937778  1
  Si  Si32  1  0.698830  0.340750  0.558747  1
  Si  Si33  1  0.299547  0.654144  0.057720  1
  Si  Si34  1  0.158810  0.204783  0.812374  1
  Sn  Sn35  1  0.286254  0.936564  0.561090  1
