# generated using pymatgen
data_Ce3Al2Pd3Au
_symmetry_space_group_name_H-M   'P 1'
_cell_length_a   7.22283008
_cell_length_b   7.44816330
_cell_length_c   4.13027300
_cell_angle_alpha   90.00000000
_cell_angle_beta   90.00000000
_cell_angle_gamma   121.03747560
_symmetry_Int_Tables_number   1
_chemical_formula_structural   Ce3Al2Pd3Au
_chemical_formula_sum   'Ce3 Al2 Pd3 Au1'
_cell_volume   190.38386279
_cell_formula_units_Z   1
loop_
 _symmetry_equiv_pos_site_id
 _symmetry_equiv_pos_as_xyz
  1  'x, y, z'
loop_
 _atom_site_type_symbol
 _atom_site_label
 _atom_site_symmetry_multiplicity
 _atom_site_fract_x
 _atom_site_fract_y
 _atom_site_fract_z
 _atom_site_occupancy
  Ce  Ce0  1  0.000000  0.575331  0.500000  1
  Ce  Ce1  1  0.404986  0.414001  0.500000  1
  Ce  Ce2  1  0.595014  0.009015  0.500000  1
  Al  Al3  1  0.762930  0.763903  0.000000  1
  Al  Al4  1  0.237070  0.000973  0.000000  1
  Pd  Pd5  1  0.000000  0.963552  0.500000  1
  Pd  Pd6  1  0.351890  0.691989  0.000000  1
  Pd  Pd7  1  0.648110  0.340098  0.000000  1
  Au  Au8  1  0.000000  0.241138  0.000000  1
