# generated using pymatgen
data_Dy2YTm17(CoSb2)4
_symmetry_space_group_name_H-M   'P 1'
_cell_length_a   7.77872116
_cell_length_b   8.71554400
_cell_length_c   12.06285678
_cell_angle_alpha   90.00000000
_cell_angle_beta   90.09040611
_cell_angle_gamma   90.00000000
_symmetry_Int_Tables_number   1
_chemical_formula_structural   Dy2YTm17(CoSb2)4
_chemical_formula_sum   'Dy2 Y1 Tm17 Co4 Sb8'
_cell_volume   817.80984538
_cell_formula_units_Z   1
loop_
 _symmetry_equiv_pos_site_id
 _symmetry_equiv_pos_as_xyz
  1  'x, y, z'
loop_
 _atom_site_type_symbol
 _atom_site_label
 _atom_site_symmetry_multiplicity
 _atom_site_fract_x
 _atom_site_fract_y
 _atom_site_fract_z
 _atom_site_occupancy
  Dy  Dy0  1  0.878410  0.750000  0.807167  1
  Dy  Dy1  1  0.121776  0.250000  0.192837  1
  Y  Y2  1  0.377652  0.250000  0.693414  1
  Tm  Tm3  1  0.155478  0.750000  0.203469  1
  Tm  Tm4  1  0.344992  0.750000  0.703161  1
  Tm  Tm5  1  0.845174  0.250000  0.796906  1
  Tm  Tm6  1  0.655052  0.250000  0.296767  1
  Tm  Tm7  1  0.450240  0.750000  0.998158  1
  Tm  Tm8  1  0.049510  0.750000  0.497982  1
  Tm  Tm9  1  0.549326  0.250000  0.002172  1
  Tm  Tm10  1  0.949570  0.250000  0.501765  1
  Tm  Tm11  1  0.620311  0.750000  0.308642  1
  Tm  Tm12  1  0.823183  0.536437  0.065381  1
  Tm  Tm13  1  0.677065  0.962695  0.564687  1
  Tm  Tm14  1  0.176782  0.036774  0.934883  1
  Tm  Tm15  1  0.323770  0.464743  0.434168  1
  Tm  Tm16  1  0.176782  0.463226  0.934883  1
  Tm  Tm17  1  0.323770  0.035257  0.434168  1
  Tm  Tm18  1  0.823183  0.963563  0.065381  1
  Tm  Tm19  1  0.677065  0.537305  0.564687  1
  Co  Co20  1  0.433450  0.750000  0.491161  1
  Co  Co21  1  0.066897  0.750000  0.991415  1
  Co  Co22  1  0.567726  0.250000  0.507376  1
  Co  Co23  1  0.932982  0.250000  0.008800  1
  Sb  Sb24  1  0.929063  0.509392  0.327999  1
  Sb  Sb25  1  0.569885  0.991281  0.828179  1
  Sb  Sb26  1  0.069773  0.008691  0.671906  1
  Sb  Sb27  1  0.431204  0.492201  0.172201  1
  Sb  Sb28  1  0.069773  0.491309  0.671906  1
  Sb  Sb29  1  0.431204  0.007799  0.172201  1
  Sb  Sb30  1  0.929063  0.990608  0.327999  1
  Sb  Sb31  1  0.569885  0.508719  0.828179  1
