# generated using pymatgen
data_La8Sb14Rh17
_symmetry_space_group_name_H-M   'P 1'
_cell_length_a   13.76375459
_cell_length_b   13.76375449
_cell_length_c   13.76375500
_cell_angle_alpha   126.24561854
_cell_angle_beta   126.24561825
_cell_angle_gamma   79.48482385
_symmetry_Int_Tables_number   1
_chemical_formula_structural   La8Sb14Rh17
_chemical_formula_sum   'La16 Sb28 Rh34'
_cell_volume   1639.02477632
_cell_formula_units_Z   2
loop_
 _symmetry_equiv_pos_site_id
 _symmetry_equiv_pos_as_xyz
  1  'x, y, z'
loop_
 _atom_site_type_symbol
 _atom_site_label
 _atom_site_symmetry_multiplicity
 _atom_site_fract_x
 _atom_site_fract_y
 _atom_site_fract_z
 _atom_site_occupancy
  La  La0  1  0.910431  0.410431  0.967560  1
  La  La1  1  0.442870  0.942871  0.032440  1
  La  La2  1  0.410431  0.442871  0.500000  1
  La  La3  1  0.942871  0.910431  0.500000  1
  La  La4  1  0.172557  0.172557  0.000000  1
  La  La5  1  0.672557  0.672557  0.000000  1
  La  La6  1  0.173959  0.673959  0.500000  1
  La  La7  1  0.673959  0.173959  0.500000  1
  La  La8  1  0.673147  0.432061  0.252153  1
  La  La9  1  0.179908  0.420995  0.747847  1
  La  La10  1  0.432061  0.179908  0.758913  1
  La  La11  1  0.679908  0.932061  0.758913  1
  La  La12  1  0.420995  0.673147  0.241087  1
  La  La13  1  0.173147  0.920995  0.241087  1
  La  La14  1  0.920995  0.679908  0.747847  1
  La  La15  1  0.932061  0.173147  0.252153  1
  Sb  Sb16  1  0.221708  0.483734  0.237658  1
  Sb  Sb17  1  0.246076  0.984050  0.762342  1
  Sb  Sb18  1  0.483734  0.246076  0.262027  1
  Sb  Sb19  1  0.746076  0.983734  0.262027  1
  Sb  Sb20  1  0.984050  0.221708  0.737973  1
  Sb  Sb21  1  0.721708  0.484050  0.737973  1
  Sb  Sb22  1  0.484050  0.746076  0.762342  1
  Sb  Sb23  1  0.983734  0.721708  0.237658  1
  Sb  Sb24  1  0.165550  0.212939  0.267091  1
  Sb  Sb25  1  0.945848  0.898459  0.732909  1
  Sb  Sb26  1  0.212939  0.945848  0.047389  1
  Sb  Sb27  1  0.445848  0.712939  0.047389  1
  Sb  Sb28  1  0.898459  0.165550  0.952611  1
  Sb  Sb29  1  0.665550  0.398459  0.952611  1
  Sb  Sb30  1  0.398459  0.445848  0.732909  1
  Sb  Sb31  1  0.712939  0.665550  0.267091  1
  Sb  Sb32  1  0.374250  0.374250  0.000000  1
  Sb  Sb33  1  0.874250  0.874250  0.000000  1
  Sb  Sb34  1  0.114297  0.614297  0.670182  1
  Sb  Sb35  1  0.944115  0.444115  0.329818  1
  Sb  Sb36  1  0.614297  0.944115  0.500000  1
  Sb  Sb37  1  0.444115  0.114297  0.500000  1
  Sb  Sb38  1  0.376640  0.876640  0.500000  1
  Sb  Sb39  1  0.876640  0.376640  0.500000  1
  Sb  Sb40  1  0.113106  0.613106  0.987055  1
  Sb  Sb41  1  0.626052  0.126052  0.012945  1
  Sb  Sb42  1  0.613106  0.626052  0.500000  1
  Sb  Sb43  1  0.126052  0.113106  0.500000  1
  Rh  Rh44  1  0.377565  0.160851  0.310792  1
  Rh  Rh45  1  0.850059  0.066773  0.689208  1
  Rh  Rh46  1  0.160851  0.850059  0.783286  1
  Rh  Rh47  1  0.350059  0.660851  0.783286  1
  Rh  Rh48  1  0.066773  0.377565  0.216714  1
  Rh  Rh49  1  0.877565  0.566773  0.216714  1
  Rh  Rh50  1  0.566773  0.350059  0.689208  1
  Rh  Rh51  1  0.660851  0.877565  0.310792  1
  Rh  Rh52  1  0.918506  0.418506  0.740144  1
  Rh  Rh53  1  0.678363  0.178363  0.259856  1
  Rh  Rh54  1  0.418506  0.678363  0.500000  1
  Rh  Rh55  1  0.178363  0.918506  0.500000  1
  Rh  Rh56  1  0.668996  0.168996  0.749058  1
  Rh  Rh57  1  0.419938  0.919938  0.250942  1
  Rh  Rh58  1  0.168996  0.419938  0.500000  1
  Rh  Rh59  1  0.919938  0.668996  0.500000  1
  Rh  Rh60  1  0.216123  0.716123  0.951847  1
  Rh  Rh61  1  0.764276  0.264276  0.048153  1
  Rh  Rh62  1  0.716123  0.764276  0.500000  1
  Rh  Rh63  1  0.264276  0.216123  0.500000  1
  Rh  Rh64  1  0.419672  0.431164  0.247689  1
  Rh  Rh65  1  0.183475  0.171983  0.752311  1
  Rh  Rh66  1  0.431164  0.183475  0.011491  1
  Rh  Rh67  1  0.683475  0.931164  0.011491  1
  Rh  Rh68  1  0.171983  0.419672  0.988509  1
  Rh  Rh69  1  0.919672  0.671983  0.988509  1
  Rh  Rh70  1  0.671983  0.683475  0.752311  1
  Rh  Rh71  1  0.931164  0.919672  0.247689  1
  Rh  Rh72  1  0.434054  0.934054  0.752104  1
  Rh  Rh73  1  0.181950  0.681950  0.247896  1
  Rh  Rh74  1  0.934054  0.181950  0.500000  1
  Rh  Rh75  1  0.681950  0.434054  0.500000  1
  Rh  Rh76  1  0.000798  0.000798  0.000000  1
  Rh  Rh77  1  0.500798  0.500798  0.000000  1
