# generated using pymatgen
data_Ce2Fe4SiPC2
_symmetry_space_group_name_H-M   'P 1'
_cell_length_a   5.59368544
_cell_length_b   5.59368514
_cell_length_c   6.69113100
_cell_angle_alpha   90.00000000
_cell_angle_beta   90.00000000
_cell_angle_gamma   140.41653164
_symmetry_Int_Tables_number   1
_chemical_formula_structural   Ce2Fe4SiPC2
_chemical_formula_sum   'Ce2 Fe4 Si1 P1 C2'
_cell_volume   133.40511428
_cell_formula_units_Z   1
loop_
 _symmetry_equiv_pos_site_id
 _symmetry_equiv_pos_as_xyz
  1  'x, y, z'
loop_
 _atom_site_type_symbol
 _atom_site_label
 _atom_site_symmetry_multiplicity
 _atom_site_fract_x
 _atom_site_fract_y
 _atom_site_fract_z
 _atom_site_occupancy
  Ce  Ce0  1  0.555951  0.444049  0.250000  1
  Ce  Ce1  1  0.443945  0.556055  0.750000  1
  Fe  Fe2  1  0.834967  0.165033  0.062350  1
  Fe  Fe3  1  0.165965  0.834035  0.945997  1
  Fe  Fe4  1  0.165965  0.834035  0.554003  1
  Fe  Fe5  1  0.834967  0.165033  0.437650  1
  Si  Si6  1  0.724931  0.275069  0.750000  1
  P  P7  1  0.274109  0.725891  0.250000  1
  C  C8  1  0.999599  0.000401  0.998628  1
  C  C9  1  0.999599  0.000401  0.501372  1
