# generated using pymatgen
data_Yb2ThSi6Pd19Pt
_symmetry_space_group_name_H-M   'P 1'
_cell_length_a   8.73017379
_cell_length_b   8.73017402
_cell_length_c   8.73017272
_cell_angle_alpha   59.94124773
_cell_angle_beta   59.94124679
_cell_angle_gamma   59.94124463
_symmetry_Int_Tables_number   1
_chemical_formula_structural   Yb2ThSi6Pd19Pt
_chemical_formula_sum   'Yb2 Th1 Si6 Pd19 Pt1'
_cell_volume   469.86652866
_cell_formula_units_Z   1
loop_
 _symmetry_equiv_pos_site_id
 _symmetry_equiv_pos_as_xyz
  1  'x, y, z'
loop_
 _atom_site_type_symbol
 _atom_site_label
 _atom_site_symmetry_multiplicity
 _atom_site_fract_x
 _atom_site_fract_y
 _atom_site_fract_z
 _atom_site_occupancy
  Yb  Yb0  1  0.749950  0.749950  0.749950  1
  Yb  Yb1  1  0.999994  0.999994  0.999994  1
  Th  Th2  1  0.249892  0.249892  0.249892  1
  Si  Si3  1  0.732356  0.267051  0.267051  1
  Si  Si4  1  0.266636  0.733605  0.733605  1
  Si  Si5  1  0.267051  0.732356  0.267051  1
  Si  Si6  1  0.733605  0.266636  0.733605  1
  Si  Si7  1  0.267051  0.267051  0.732356  1
  Si  Si8  1  0.733605  0.733605  0.266636  1
  Pd  Pd9  1  0.616549  0.616549  0.616549  1
  Pd  Pd10  1  0.384128  0.384128  0.847454  1
  Pd  Pd11  1  0.384128  0.847454  0.384128  1
  Pd  Pd12  1  0.617646  0.617646  0.149553  1
  Pd  Pd13  1  0.617646  0.149553  0.617646  1
  Pd  Pd14  1  0.847454  0.384128  0.384128  1
  Pd  Pd15  1  0.149553  0.617646  0.617646  1
  Pd  Pd16  1  0.344090  0.001104  0.001104  1
  Pd  Pd17  1  0.652988  0.001426  0.001426  1
  Pd  Pd18  1  0.000963  0.343578  0.653325  1
  Pd  Pd19  1  0.000963  0.653325  0.343578  1
  Pd  Pd20  1  0.001104  0.344090  0.001104  1
  Pd  Pd21  1  0.653325  0.000963  0.343578  1
  Pd  Pd22  1  0.001426  0.652988  0.001426  1
  Pd  Pd23  1  0.343578  0.000963  0.653325  1
  Pd  Pd24  1  0.001104  0.001104  0.344090  1
  Pd  Pd25  1  0.001426  0.001426  0.652988  1
  Pd  Pd26  1  0.653325  0.343578  0.000963  1
  Pd  Pd27  1  0.343578  0.653325  0.000963  1
  Pt  Pt28  1  0.384882  0.384882  0.384882  1
