# generated using pymatgen
data_Ho4ScAl3Ir4
_symmetry_space_group_name_H-M   'P 1'
_cell_length_a   4.26443000
_cell_length_b   6.91943588
_cell_length_c   8.04678356
_cell_angle_alpha   91.10403325
_cell_angle_beta   90.00000000
_cell_angle_gamma   90.00000000
_symmetry_Int_Tables_number   1
_chemical_formula_structural   Ho4ScAl3Ir4
_chemical_formula_sum   'Ho4 Sc1 Al3 Ir4'
_cell_volume   237.39598437
_cell_formula_units_Z   1
loop_
 _symmetry_equiv_pos_site_id
 _symmetry_equiv_pos_as_xyz
  1  'x, y, z'
loop_
 _atom_site_type_symbol
 _atom_site_label
 _atom_site_symmetry_multiplicity
 _atom_site_fract_x
 _atom_site_fract_y
 _atom_site_fract_z
 _atom_site_occupancy
  Ho  Ho0  1  0.250000  0.528068  0.174619  1
  Ho  Ho1  1  0.750000  0.460498  0.830440  1
  Ho  Ho2  1  0.750000  0.981067  0.683376  1
  Ho  Ho3  1  0.250000  0.040485  0.317397  1
  Sc  Sc4  1  0.250000  0.633865  0.563880  1
  Al  Al5  1  0.750000  0.359036  0.436861  1
  Al  Al6  1  0.750000  0.861168  0.057606  1
  Al  Al7  1  0.250000  0.140995  0.937153  1
  Ir  Ir8  1  0.250000  0.768451  0.886523  1
  Ir  Ir9  1  0.750000  0.227846  0.117850  1
  Ir  Ir10  1  0.750000  0.738226  0.372448  1
  Ir  Ir11  1  0.250000  0.260292  0.621849  1
