# generated using pymatgen
data_Ba12Na4V4SbRu3O34
_symmetry_space_group_name_H-M   'P 1'
_cell_length_a   5.94350400
_cell_length_b   5.94350498
_cell_length_c   30.21098500
_cell_angle_alpha   90.00000000
_cell_angle_beta   90.00000000
_cell_angle_gamma   120.00000570
_symmetry_Int_Tables_number   1
_chemical_formula_structural   Ba12Na4V4SbRu3O34
_chemical_formula_sum   'Ba12 Na4 V4 Sb1 Ru3 O34'
_cell_volume   924.23132051
_cell_formula_units_Z   1
loop_
 _symmetry_equiv_pos_site_id
 _symmetry_equiv_pos_as_xyz
  1  'x, y, z'
loop_
 _atom_site_type_symbol
 _atom_site_label
 _atom_site_symmetry_multiplicity
 _atom_site_fract_x
 _atom_site_fract_y
 _atom_site_fract_z
 _atom_site_occupancy
  Ba  Ba0  1  0.000000  0.000000  0.752942  1
  Ba  Ba1  1  0.000000  0.000000  0.249904  1
  Ba  Ba2  1  0.000000  0.000000  0.499889  1
  Ba  Ba3  1  0.000000  0.000000  0.999824  1
  Ba  Ba4  1  0.333333  0.666667  0.908104  1
  Ba  Ba5  1  0.666667  0.333333  0.407320  1
  Ba  Ba6  1  0.666667  0.333333  0.092588  1
  Ba  Ba7  1  0.333333  0.666667  0.591906  1
  Ba  Ba8  1  0.333333  0.666667  0.318933  1
  Ba  Ba9  1  0.666667  0.333333  0.823096  1
  Ba  Ba10  1  0.666667  0.333333  0.680738  1
  Ba  Ba11  1  0.333333  0.666667  0.180763  1
  Na  Na12  1  0.000000  0.000000  0.375907  1
  Na  Na13  1  0.000000  0.000000  0.875795  1
  Na  Na14  1  0.000000  0.000000  0.623661  1
  Na  Na15  1  0.000000  0.000000  0.123965  1
  V  V16  1  0.333333  0.666667  0.448042  1
  V  V17  1  0.666667  0.333333  0.948379  1
  V  V18  1  0.666667  0.333333  0.551998  1
  V  V19  1  0.333333  0.666667  0.052161  1
  Sb  Sb20  1  0.333333  0.666667  0.795681  1
  Ru  Ru21  1  0.666667  0.333333  0.296212  1
  Ru  Ru22  1  0.666667  0.333333  0.203900  1
  Ru  Ru23  1  0.333333  0.666667  0.701909  1
  O  O24  1  0.333333  0.666667  0.995055  1
  O  O25  1  0.666667  0.333333  0.494851  1
  O  O26  1  0.666667  0.333333  0.005488  1
  O  O27  1  0.333333  0.666667  0.505149  1
  O  O28  1  0.484636  0.969272  0.749368  1
  O  O29  1  0.513984  0.486016  0.250028  1
  O  O30  1  0.972031  0.486016  0.250028  1
  O  O31  1  0.030728  0.515364  0.749368  1
  O  O32  1  0.484636  0.515364  0.749368  1
  O  O33  1  0.513984  0.027969  0.250028  1
  O  O34  1  0.177298  0.822702  0.668916  1
  O  O35  1  0.177298  0.354595  0.668916  1
  O  O36  1  0.645405  0.822702  0.668916  1
  O  O37  1  0.354064  0.177032  0.170286  1
  O  O38  1  0.822848  0.645696  0.329863  1
  O  O39  1  0.822968  0.177032  0.170286  1
  O  O40  1  0.822968  0.645936  0.170286  1
  O  O41  1  0.172280  0.827720  0.829579  1
  O  O42  1  0.655440  0.827720  0.829579  1
  O  O43  1  0.354304  0.177152  0.329863  1
  O  O44  1  0.822848  0.177152  0.329863  1
  O  O45  1  0.172280  0.344560  0.829579  1
  O  O46  1  0.174715  0.825285  0.072747  1
  O  O47  1  0.174715  0.349430  0.072747  1
  O  O48  1  0.174688  0.349375  0.427480  1
  O  O49  1  0.825065  0.174935  0.927689  1
  O  O50  1  0.349870  0.174935  0.927689  1
  O  O51  1  0.650625  0.825312  0.427480  1
  O  O52  1  0.174688  0.825312  0.427480  1
  O  O53  1  0.825192  0.650384  0.572657  1
  O  O54  1  0.825192  0.174808  0.572657  1
  O  O55  1  0.825065  0.650130  0.927689  1
  O  O56  1  0.349616  0.174808  0.572657  1
  O  O57  1  0.650570  0.825285  0.072747  1
