# generated using pymatgen
data_Tb4Nd(TcB3)2
_symmetry_space_group_name_H-M   'P 1'
_cell_length_a   5.53539498
_cell_length_b   5.53539480
_cell_length_c   8.64938049
_cell_angle_alpha   71.33781102
_cell_angle_beta   71.33780997
_cell_angle_gamma   60.00002169
_symmetry_Int_Tables_number   1
_chemical_formula_structural   Tb4Nd(TcB3)2
_chemical_formula_sum   'Tb4 Nd1 Tc2 B6'
_cell_volume   213.27420738
_cell_formula_units_Z   1
loop_
 _symmetry_equiv_pos_site_id
 _symmetry_equiv_pos_as_xyz
  1  'x, y, z'
loop_
 _atom_site_type_symbol
 _atom_site_label
 _atom_site_symmetry_multiplicity
 _atom_site_fract_x
 _atom_site_fract_y
 _atom_site_fract_z
 _atom_site_occupancy
  Tb  Tb0  1  0.246799  0.246799  0.259604  1
  Tb  Tb1  1  0.753201  0.753201  0.740396  1
  Tb  Tb2  1  0.419795  0.419795  0.740613  1
  Tb  Tb3  1  0.580205  0.580205  0.259387  1
  Nd  Nd4  1  0.000000  0.000000  0.000000  1
  Tc  Tc5  1  0.112246  0.112246  0.663262  1
  Tc  Tc6  1  0.887754  0.887754  0.336738  1
  B  B7  1  0.170215  0.829785  0.500000  1
  B  B8  1  0.829785  0.500000  0.500000  1
  B  B9  1  0.500000  0.170215  0.500000  1
  B  B10  1  0.170215  0.500000  0.500000  1
  B  B11  1  0.500000  0.829785  0.500000  1
  B  B12  1  0.829785  0.170215  0.500000  1
