# generated using pymatgen
data_LiTm12TlFe2Tc
_symmetry_space_group_name_H-M   'P 1'
_cell_length_a   8.23188091
_cell_length_b   8.23189018
_cell_length_c   8.23188300
_cell_angle_alpha   108.82607530
_cell_angle_beta   109.00934705
_cell_angle_gamma   110.58401221
_symmetry_Int_Tables_number   1
_chemical_formula_structural   LiTm12TlFe2Tc
_chemical_formula_sum   'Li1 Tm12 Tl1 Fe2 Tc1'
_cell_volume   429.29113583
_cell_formula_units_Z   1
loop_
 _symmetry_equiv_pos_site_id
 _symmetry_equiv_pos_as_xyz
  1  'x, y, z'
loop_
 _atom_site_type_symbol
 _atom_site_label
 _atom_site_symmetry_multiplicity
 _atom_site_fract_x
 _atom_site_fract_y
 _atom_site_fract_z
 _atom_site_occupancy
  Li  Li0  1  0.000000  0.500000  0.500000  1
  Tm  Tm1  1  0.193620  0.435814  0.242194  1
  Tm  Tm2  1  0.806380  0.564186  0.757806  1
  Tm  Tm3  1  0.193620  0.951427  0.757805  1
  Tm  Tm4  1  0.958121  0.194132  0.763988  1
  Tm  Tm5  1  0.806380  0.048573  0.242195  1
  Tm  Tm6  1  0.041879  0.805868  0.236012  1
  Tm  Tm7  1  0.430144  0.194132  0.236012  1
  Tm  Tm8  1  0.569856  0.805868  0.763988  1
  Tm  Tm9  1  0.310927  0.306813  0.617741  1
  Tm  Tm10  1  0.689073  0.693187  0.382259  1
  Tm  Tm11  1  0.689072  0.306813  0.995886  1
  Tm  Tm12  1  0.310928  0.693187  0.004114  1
  Tl  Tl13  1  0.500000  0.000000  0.500000  1
  Fe  Fe14  1  0.383074  0.383085  0.000011  1
  Fe  Fe15  1  0.616926  0.616915  0.999989  1
  Tc  Tc16  1  0.000000  0.000000  0.000000  1
