# generated using pymatgen
data_YHo3(ZnOs3)2
_symmetry_space_group_name_H-M   'P 1'
_cell_length_a   5.35333315
_cell_length_b   5.35333382
_cell_length_c   8.80285142
_cell_angle_alpha   90.03060827
_cell_angle_beta   89.96939408
_cell_angle_gamma   120.14861492
_symmetry_Int_Tables_number   1
_chemical_formula_structural   YHo3(ZnOs3)2
_chemical_formula_sum   'Y1 Ho3 Zn2 Os6'
_cell_volume   218.14747626
_cell_formula_units_Z   1
loop_
 _symmetry_equiv_pos_site_id
 _symmetry_equiv_pos_as_xyz
  1  'x, y, z'
loop_
 _atom_site_type_symbol
 _atom_site_label
 _atom_site_symmetry_multiplicity
 _atom_site_fract_x
 _atom_site_fract_y
 _atom_site_fract_z
 _atom_site_occupancy
  Y  Y0  1  0.338712  0.661288  0.068828  1
  Ho  Ho1  1  0.338586  0.661414  0.431046  1
  Ho  Ho2  1  0.672828  0.327172  0.556680  1
  Ho  Ho3  1  0.672813  0.327187  0.943173  1
  Zn  Zn4  1  0.159905  0.353131  0.749844  1
  Zn  Zn5  1  0.646869  0.840095  0.749844  1
  Os  Os6  1  0.011379  0.988621  0.502353  1
  Os  Os7  1  0.011405  0.988595  0.997409  1
  Os  Os8  1  0.823689  0.176311  0.250302  1
  Os  Os9  1  0.836166  0.665723  0.250331  1
  Os  Os10  1  0.334277  0.163834  0.250331  1
  Os  Os11  1  0.153370  0.846630  0.749860  1
