# generated using pymatgen
data_Dy3Er3(Lu7Sb6)2
_symmetry_space_group_name_H-M   'P 1'
_cell_length_a   8.05586816
_cell_length_b   9.14557000
_cell_length_c   11.69548387
_cell_angle_alpha   90.00000000
_cell_angle_beta   89.98453564
_cell_angle_gamma   90.00000000
_symmetry_Int_Tables_number   1
_chemical_formula_structural   Dy3Er3(Lu7Sb6)2
_chemical_formula_sum   'Dy3 Er3 Lu14 Sb12'
_cell_volume   861.67066208
_cell_formula_units_Z   1
loop_
 _symmetry_equiv_pos_site_id
 _symmetry_equiv_pos_as_xyz
  1  'x, y, z'
loop_
 _atom_site_type_symbol
 _atom_site_label
 _atom_site_symmetry_multiplicity
 _atom_site_fract_x
 _atom_site_fract_y
 _atom_site_fract_z
 _atom_site_occupancy
  Dy  Dy0  1  0.674960  0.750000  0.271628  1
  Dy  Dy1  1  0.841986  0.250000  0.790563  1
  Dy  Dy2  1  0.324760  0.250000  0.729126  1
  Er  Er3  1  0.825121  0.750000  0.771669  1
  Er  Er4  1  0.658110  0.250000  0.290536  1
  Er  Er5  1  0.175071  0.250000  0.228905  1
  Lu  Lu6  1  0.309273  0.561566  0.433924  1
  Lu  Lu7  1  0.190825  0.938324  0.933955  1
  Lu  Lu8  1  0.309273  0.938434  0.433924  1
  Lu  Lu9  1  0.690534  0.438726  0.565287  1
  Lu  Lu10  1  0.809292  0.438441  0.065724  1
  Lu  Lu11  1  0.975333  0.750000  0.495105  1
  Lu  Lu12  1  0.159225  0.750000  0.209559  1
  Lu  Lu13  1  0.475101  0.250000  0.004692  1
  Lu  Lu14  1  0.809292  0.061559  0.065724  1
  Lu  Lu15  1  0.190825  0.561676  0.933955  1
  Lu  Lu16  1  0.025124  0.250000  0.504154  1
  Lu  Lu17  1  0.340921  0.750000  0.709763  1
  Lu  Lu18  1  0.690534  0.061274  0.565287  1
  Lu  Lu19  1  0.524750  0.750000  0.995103  1
  Sb  Sb20  1  0.098855  0.250000  0.975495  1
  Sb  Sb21  1  0.937230  0.491267  0.326283  1
  Sb  Sb22  1  0.434657  0.990969  0.173030  1
  Sb  Sb23  1  0.064214  0.989750  0.672976  1
  Sb  Sb24  1  0.434657  0.509031  0.173030  1
  Sb  Sb25  1  0.596835  0.750000  0.527473  1
  Sb  Sb26  1  0.401822  0.250000  0.474027  1
  Sb  Sb27  1  0.563461  0.492516  0.826542  1
  Sb  Sb28  1  0.064214  0.510250  0.672976  1
  Sb  Sb29  1  0.903052  0.750000  0.026759  1
  Sb  Sb30  1  0.563461  0.007484  0.826542  1
  Sb  Sb31  1  0.937230  0.008733  0.326283  1
