# generated using pymatgen
data_Nb16VSi3Te16
_symmetry_space_group_name_H-M   'P 1'
_cell_length_a   4.86966400
_cell_length_b   11.05402291
_cell_length_c   19.24193300
_cell_angle_alpha   89.97679458
_cell_angle_beta   90.00000000
_cell_angle_gamma   90.00000000
_symmetry_Int_Tables_number   1
_chemical_formula_structural   Nb16VSi3Te16
_chemical_formula_sum   'Nb16 V1 Si3 Te16'
_cell_volume   1035.78118848
_cell_formula_units_Z   1
loop_
 _symmetry_equiv_pos_site_id
 _symmetry_equiv_pos_as_xyz
  1  'x, y, z'
loop_
 _atom_site_type_symbol
 _atom_site_label
 _atom_site_symmetry_multiplicity
 _atom_site_fract_x
 _atom_site_fract_y
 _atom_site_fract_z
 _atom_site_occupancy
  Nb  Nb0  1  0.499975  0.562980  0.384409  1
  Nb  Nb1  1  0.499975  0.437020  0.615591  1
  Nb  Nb2  1  0.502016  0.063464  0.116591  1
  Nb  Nb3  1  0.502016  0.936536  0.883409  1
  Nb  Nb4  1  0.499997  0.701589  0.536025  1
  Nb  Nb5  1  0.499997  0.298411  0.463975  1
  Nb  Nb6  1  0.502124  0.203516  0.963642  1
  Nb  Nb7  1  0.502124  0.796484  0.036358  1
  Nb  Nb8  1  0.999981  0.686973  0.443525  1
  Nb  Nb9  1  0.999981  0.313027  0.556475  1
  Nb  Nb10  1  0.997830  0.188751  0.056948  1
  Nb  Nb11  1  0.997830  0.811249  0.943052  1
  Nb  Nb12  1  0.999967  0.402148  0.392757  1
  Nb  Nb13  1  0.999967  0.597852  0.607243  1
  Nb  Nb14  1  0.998063  0.901175  0.108196  1
  Nb  Nb15  1  0.998063  0.098825  0.891804  1
  V  V16  1  0.250069  0.000000  0.000000  1
  Si  Si17  1  0.249952  0.500000  0.500000  1
  Si  Si18  1  0.750307  0.000000  0.000000  1
  Si  Si19  1  0.750010  0.500000  0.500000  1
  Te  Te20  1  0.999953  0.843176  0.561353  1
  Te  Te21  1  0.999953  0.156824  0.438647  1
  Te  Te22  1  0.003266  0.344617  0.938108  1
  Te  Te23  1  0.003266  0.655383  0.061892  1
  Te  Te24  1  0.500010  0.333288  0.317340  1
  Te  Te25  1  0.500010  0.666712  0.682660  1
  Te  Te26  1  0.497174  0.832587  0.183334  1
  Te  Te27  1  0.497174  0.167413  0.816666  1
  Te  Te28  1  0.500055  0.818662  0.403978  1
  Te  Te29  1  0.500055  0.181338  0.596022  1
  Te  Te30  1  0.496496  0.320046  0.096336  1
  Te  Te31  1  0.496496  0.679954  0.903664  1
  Te  Te32  1  0.999946  0.606963  0.302800  1
  Te  Te33  1  0.999946  0.393037  0.697200  1
  Te  Te34  1  0.002983  0.107265  0.197890  1
  Te  Te35  1  0.002983  0.892735  0.802110  1
