# generated using pymatgen
data_Tm3ThSb10
_symmetry_space_group_name_H-M   'P 1'
_cell_length_a   4.23441100
_cell_length_b   13.19932611
_cell_length_c   14.63531632
_cell_angle_alpha   78.12029133
_cell_angle_beta   90.00000000
_cell_angle_gamma   90.00000000
_symmetry_Int_Tables_number   1
_chemical_formula_structural   Tm3ThSb10
_chemical_formula_sum   'Tm6 Th2 Sb20'
_cell_volume   800.46819909
_cell_formula_units_Z   2
loop_
 _symmetry_equiv_pos_site_id
 _symmetry_equiv_pos_as_xyz
  1  'x, y, z'
loop_
 _atom_site_type_symbol
 _atom_site_label
 _atom_site_symmetry_multiplicity
 _atom_site_fract_x
 _atom_site_fract_y
 _atom_site_fract_z
 _atom_site_occupancy
  Tm  Tm0  1  0.250000  0.391227  0.774120  1
  Tm  Tm1  1  0.750000  0.608773  0.225880  1
  Tm  Tm2  1  0.250000  0.951006  0.354953  1
  Tm  Tm3  1  0.750000  0.048994  0.645047  1
  Tm  Tm4  1  0.250000  0.661662  0.857853  1
  Tm  Tm5  1  0.750000  0.338338  0.142147  1
  Th  Th6  1  0.250000  0.674475  0.571771  1
  Th  Th7  1  0.750000  0.325525  0.428229  1
  Sb  Sb8  1  0.250000  0.428423  0.555449  1
  Sb  Sb9  1  0.750000  0.571577  0.444551  1
  Sb  Sb10  1  0.250000  0.721661  0.062010  1
  Sb  Sb11  1  0.750000  0.278339  0.937990  1
  Sb  Sb12  1  0.250000  0.420516  0.977297  1
  Sb  Sb13  1  0.750000  0.579484  0.022703  1
  Sb  Sb14  1  0.250000  0.864055  0.686822  1
  Sb  Sb15  1  0.750000  0.135945  0.313178  1
  Sb  Sb16  1  0.250000  0.152905  0.165428  1
  Sb  Sb17  1  0.750000  0.847095  0.834572  1
  Sb  Sb18  1  0.250000  0.714985  0.340638  1
  Sb  Sb19  1  0.750000  0.285015  0.659362  1
  Sb  Sb20  1  0.250000  0.142405  0.778145  1
  Sb  Sb21  1  0.750000  0.857595  0.221855  1
  Sb  Sb22  1  0.250000  0.424397  0.263586  1
  Sb  Sb23  1  0.750000  0.575603  0.736414  1
  Sb  Sb24  1  0.250000  0.133906  0.485285  1
  Sb  Sb25  1  0.750000  0.866094  0.514715  1
  Sb  Sb26  1  0.250000  0.968528  0.088908  1
  Sb  Sb27  1  0.750000  0.031472  0.911092  1
