# generated using pymatgen
data_DyTm19(GaBi2)4
_symmetry_space_group_name_H-M   'P 1'
_cell_length_a   8.00045710
_cell_length_b   9.23119005
_cell_length_c   11.91247712
_cell_angle_alpha   90.00618694
_cell_angle_beta   90.01496769
_cell_angle_gamma   90.01088572
_symmetry_Int_Tables_number   1
_chemical_formula_structural   DyTm19(GaBi2)4
_chemical_formula_sum   'Dy1 Tm19 Ga4 Bi8'
_cell_volume   879.78093756
_cell_formula_units_Z   1
loop_
 _symmetry_equiv_pos_site_id
 _symmetry_equiv_pos_as_xyz
  1  'x, y, z'
loop_
 _atom_site_type_symbol
 _atom_site_label
 _atom_site_symmetry_multiplicity
 _atom_site_fract_x
 _atom_site_fract_y
 _atom_site_fract_z
 _atom_site_occupancy
  Dy  Dy0  1  0.181798  0.553855  0.937038  1
  Tm  Tm1  1  0.831805  0.750319  0.784912  1
  Tm  Tm2  1  0.168000  0.250029  0.214890  1
  Tm  Tm3  1  0.332108  0.249877  0.714831  1
  Tm  Tm4  1  0.668035  0.750060  0.284970  1
  Tm  Tm5  1  0.358986  0.750251  0.706841  1
  Tm  Tm6  1  0.641352  0.250074  0.292807  1
  Tm  Tm7  1  0.858767  0.249993  0.792808  1
  Tm  Tm8  1  0.140830  0.750272  0.207560  1
  Tm  Tm9  1  0.959835  0.750201  0.497112  1
  Tm  Tm10  1  0.039986  0.249940  0.502817  1
  Tm  Tm11  1  0.460600  0.249764  0.002991  1
  Tm  Tm12  1  0.540388  0.750058  0.997169  1
  Tm  Tm13  1  0.680993  0.054581  0.562878  1
  Tm  Tm14  1  0.318877  0.945470  0.437073  1
  Tm  Tm15  1  0.181154  0.945896  0.936846  1
  Tm  Tm16  1  0.318897  0.554475  0.437085  1
  Tm  Tm17  1  0.818738  0.054490  0.062988  1
  Tm  Tm18  1  0.681100  0.445449  0.562929  1
  Tm  Tm19  1  0.818827  0.445295  0.063058  1
  Ga  Ga20  1  0.591993  0.749938  0.525538  1
  Ga  Ga21  1  0.408148  0.250046  0.474481  1
  Ga  Ga22  1  0.091497  0.248546  0.974870  1
  Ga  Ga23  1  0.907399  0.750689  0.025916  1
  Bi  Bi24  1  0.567028  0.490197  0.825545  1
  Bi  Bi25  1  0.433318  0.509712  0.174398  1
  Bi  Bi26  1  0.066235  0.509782  0.673765  1
  Bi  Bi27  1  0.433465  0.990345  0.174277  1
  Bi  Bi28  1  0.933379  0.490174  0.325869  1
  Bi  Bi29  1  0.566524  0.009966  0.825798  1
  Bi  Bi30  1  0.933415  0.009867  0.325830  1
  Bi  Bi31  1  0.066523  0.990389  0.674109  1
