# generated using pymatgen
data_Ho2MgB2IrRh4
_symmetry_space_group_name_H-M   'P 1'
_cell_length_a   9.65422800
_cell_length_b   9.65422800
_cell_length_c   3.18079500
_cell_angle_alpha   90.00000000
_cell_angle_beta   90.00000000
_cell_angle_gamma   90.00000000
_symmetry_Int_Tables_number   1
_chemical_formula_structural   Ho2MgB2IrRh4
_chemical_formula_sum   'Ho4 Mg2 B4 Ir2 Rh8'
_cell_volume   296.46319339
_cell_formula_units_Z   2
loop_
 _symmetry_equiv_pos_site_id
 _symmetry_equiv_pos_as_xyz
  1  'x, y, z'
loop_
 _atom_site_type_symbol
 _atom_site_label
 _atom_site_symmetry_multiplicity
 _atom_site_fract_x
 _atom_site_fract_y
 _atom_site_fract_z
 _atom_site_occupancy
  Ho  Ho0  1  0.677653  0.177653  0.000000  1
  Ho  Ho1  1  0.322347  0.822347  0.000000  1
  Ho  Ho2  1  0.177653  0.322347  0.000000  1
  Ho  Ho3  1  0.822347  0.677653  0.000000  1
  Mg  Mg4  1  0.000000  0.000000  0.000000  1
  Mg  Mg5  1  0.500000  0.500000  0.000000  1
  B  B6  1  0.121475  0.621475  0.000000  1
  B  B7  1  0.878525  0.378525  0.000000  1
  B  B8  1  0.621475  0.878525  0.000000  1
  B  B9  1  0.378525  0.121475  0.000000  1
  Ir  Ir10  1  0.500000  0.000000  0.500000  1
  Ir  Ir11  1  0.000000  0.500000  0.500000  1
  Rh  Rh12  1  0.224146  0.070085  0.500000  1
  Rh  Rh13  1  0.775854  0.929915  0.500000  1
  Rh  Rh14  1  0.070085  0.775854  0.500000  1
  Rh  Rh15  1  0.724146  0.429915  0.500000  1
  Rh  Rh16  1  0.929915  0.224146  0.500000  1
  Rh  Rh17  1  0.275854  0.570085  0.500000  1
  Rh  Rh18  1  0.570085  0.724146  0.500000  1
  Rh  Rh19  1  0.429915  0.275854  0.500000  1
