# generated using pymatgen
data_Gd2Dy2Ga4Cu3Ni
_symmetry_space_group_name_H-M   'P 1'
_cell_length_a   4.35644400
_cell_length_b   7.01635157
_cell_length_c   7.36740300
_cell_angle_alpha   90.32311543
_cell_angle_beta   90.00000000
_cell_angle_gamma   90.00000000
_symmetry_Int_Tables_number   1
_chemical_formula_structural   Gd2Dy2Ga4Cu3Ni
_chemical_formula_sum   'Gd2 Dy2 Ga4 Cu3 Ni1'
_cell_volume   225.19098398
_cell_formula_units_Z   1
loop_
 _symmetry_equiv_pos_site_id
 _symmetry_equiv_pos_as_xyz
  1  'x, y, z'
loop_
 _atom_site_type_symbol
 _atom_site_label
 _atom_site_symmetry_multiplicity
 _atom_site_fract_x
 _atom_site_fract_y
 _atom_site_fract_z
 _atom_site_occupancy
  Gd  Gd0  1  0.250000  0.003553  0.794675  1
  Gd  Gd1  1  0.750000  0.987193  0.201752  1
  Dy  Dy2  1  0.250000  0.509869  0.708964  1
  Dy  Dy3  1  0.750000  0.493769  0.291579  1
  Ga  Ga4  1  0.250000  0.190003  0.412844  1
  Ga  Ga5  1  0.250000  0.689841  0.082849  1
  Ga  Ga6  1  0.750000  0.804213  0.589716  1
  Ga  Ga7  1  0.750000  0.313101  0.915439  1
  Cu  Cu8  1  0.250000  0.802553  0.415356  1
  Cu  Cu9  1  0.250000  0.296579  0.085187  1
  Cu  Cu10  1  0.750000  0.202386  0.584776  1
  Ni  Ni11  1  0.750000  0.706940  0.916862  1
