# generated using pymatgen
data_Sm2Al3(Fe7C)2
_symmetry_space_group_name_H-M   'P 1'
_cell_length_a   6.50890681
_cell_length_b   6.50890628
_cell_length_c   6.49520122
_cell_angle_alpha   83.77041338
_cell_angle_beta   83.77040923
_cell_angle_gamma   84.36485798
_symmetry_Int_Tables_number   1
_chemical_formula_structural   Sm2Al3(Fe7C)2
_chemical_formula_sum   'Sm2 Al3 Fe14 C2'
_cell_volume   270.89286845
_cell_formula_units_Z   1
loop_
 _symmetry_equiv_pos_site_id
 _symmetry_equiv_pos_as_xyz
  1  'x, y, z'
loop_
 _atom_site_type_symbol
 _atom_site_label
 _atom_site_symmetry_multiplicity
 _atom_site_fract_x
 _atom_site_fract_y
 _atom_site_fract_z
 _atom_site_occupancy
  Sm  Sm0  1  0.343340  0.343340  0.339386  1
  Sm  Sm1  1  0.656660  0.656660  0.660614  1
  Al  Al2  1  0.657701  0.657701  0.148548  1
  Al  Al3  1  0.342299  0.342299  0.851452  1
  Al  Al4  1  0.000000  0.000000  0.500000  1
  Fe  Fe5  1  0.656097  0.143549  0.662978  1
  Fe  Fe6  1  0.143549  0.656097  0.662978  1
  Fe  Fe7  1  0.343903  0.856451  0.337022  1
  Fe  Fe8  1  0.856451  0.343903  0.337022  1
  Fe  Fe9  1  0.095125  0.095125  0.092377  1
  Fe  Fe10  1  0.904875  0.904875  0.907623  1
  Fe  Fe11  1  0.000000  0.500000  0.000000  1
  Fe  Fe12  1  0.500000  0.000000  0.000000  1
  Fe  Fe13  1  0.718427  0.281573  0.000000  1
  Fe  Fe14  1  0.288918  0.995299  0.716485  1
  Fe  Fe15  1  0.004701  0.711082  0.283515  1
  Fe  Fe16  1  0.711082  0.004701  0.283515  1
  Fe  Fe17  1  0.995299  0.288918  0.716485  1
  Fe  Fe18  1  0.281573  0.718427  0.000000  1
  C  C19  1  0.500000  0.000000  0.500000  1
  C  C20  1  0.000000  0.500000  0.500000  1
