# generated using pymatgen
data_Nd3DyIr2(RhO7)2
_symmetry_space_group_name_H-M   'P 1'
_cell_length_a   7.34071658
_cell_length_b   7.36696473
_cell_length_c   7.36786759
_cell_angle_alpha   60.00405251
_cell_angle_beta   59.92273027
_cell_angle_gamma   59.88165725
_symmetry_Int_Tables_number   1
_chemical_formula_structural   Nd3DyIr2(RhO7)2
_chemical_formula_sum   'Nd3 Dy1 Ir2 Rh2 O14'
_cell_volume   281.33475772
_cell_formula_units_Z   1
loop_
 _symmetry_equiv_pos_site_id
 _symmetry_equiv_pos_as_xyz
  1  'x, y, z'
loop_
 _atom_site_type_symbol
 _atom_site_label
 _atom_site_symmetry_multiplicity
 _atom_site_fract_x
 _atom_site_fract_y
 _atom_site_fract_z
 _atom_site_occupancy
  Nd  Nd0  1  0.125000  0.625000  0.125000  1
  Nd  Nd1  1  0.125000  0.125000  0.625000  1
  Nd  Nd2  1  0.125000  0.125000  0.125000  1
  Dy  Dy3  1  0.625000  0.125000  0.125000  1
  Ir  Ir4  1  0.625000  0.125000  0.625000  1
  Ir  Ir5  1  0.625000  0.625000  0.625000  1
  Rh  Rh6  1  0.125000  0.625000  0.625000  1
  Rh  Rh7  1  0.625000  0.625000  0.125000  1
  O  O8  1  0.698954  0.717205  0.294619  1
  O  O9  1  0.295049  0.288764  0.705707  1
  O  O10  1  0.699050  0.294342  0.712267  1
  O  O11  1  0.289088  0.711234  0.288443  1
  O  O12  1  0.295049  0.710481  0.705707  1
  O  O13  1  0.698954  0.289221  0.294619  1
  O  O14  1  0.551046  0.532795  0.955381  1
  O  O15  1  0.954951  0.961236  0.544293  1
  O  O16  1  0.550950  0.955658  0.537733  1
  O  O17  1  0.960912  0.538766  0.961557  1
  O  O18  1  0.954951  0.539519  0.544293  1
  O  O19  1  0.551046  0.960779  0.955381  1
  O  O20  1  0.261478  0.245603  0.247316  1
  O  O21  1  0.988522  0.004397  0.002684  1
