# generated using pymatgen
data_DyEr3Al18(IrPt)3
_symmetry_space_group_name_H-M   'P 1'
_cell_length_a   7.58565498
_cell_length_b   7.58360122
_cell_length_c   9.40857917
_cell_angle_alpha   89.98861780
_cell_angle_beta   89.98934098
_cell_angle_gamma   119.59698107
_symmetry_Int_Tables_number   1
_chemical_formula_structural   DyEr3Al18(IrPt)3
_chemical_formula_sum   'Dy1 Er3 Al18 Ir3 Pt3'
_cell_volume   470.62244738
_cell_formula_units_Z   1
loop_
 _symmetry_equiv_pos_site_id
 _symmetry_equiv_pos_as_xyz
  1  'x, y, z'
loop_
 _atom_site_type_symbol
 _atom_site_label
 _atom_site_symmetry_multiplicity
 _atom_site_fract_x
 _atom_site_fract_y
 _atom_site_fract_z
 _atom_site_occupancy
  Dy  Dy0  1  0.328723  0.004681  0.249575  1
  Er  Er1  1  0.995122  0.671533  0.750464  1
  Er  Er2  1  0.004925  0.328749  0.249656  1
  Er  Er3  1  0.671363  0.995172  0.750356  1
  Al  Al4  1  0.126837  0.127829  0.750517  1
  Al  Al5  1  0.871917  0.872914  0.249488  1
  Al  Al6  1  0.999545  0.332020  0.577306  1
  Al  Al7  1  0.999609  0.668195  0.422689  1
  Al  Al8  1  0.997031  0.664214  0.075489  1
  Al  Al9  1  0.335546  0.002603  0.923462  1
  Al  Al10  1  0.996247  0.331698  0.924005  1
  Al  Al11  1  0.668794  0.003720  0.075359  1
  Al  Al12  1  0.668427  0.000286  0.423317  1
  Al  Al13  1  0.331435  0.999915  0.578409  1
  Al  Al14  1  0.332327  0.329271  0.052818  1
  Al  Al15  1  0.670983  0.667712  0.946151  1
  Al  Al16  1  0.670005  0.670130  0.556985  1
  Al  Al17  1  0.329842  0.330224  0.444094  1
  Al  Al18  1  0.340626  0.546889  0.750531  1
  Al  Al19  1  0.659174  0.451597  0.247396  1
  Al  Al20  1  0.548943  0.341403  0.752509  1
  Al  Al21  1  0.453301  0.658873  0.249476  1
  Ir  Ir22  1  0.672130  0.328112  0.999768  1
  Ir  Ir23  1  0.999635  0.000064  0.500268  1
  Ir  Ir24  1  0.000067  0.999643  0.999740  1
  Pt  Pt25  1  0.672043  0.328056  0.500150  1
  Pt  Pt26  1  0.327658  0.672298  0.500141  1
  Pt  Pt27  1  0.327744  0.672201  0.999881  1
