# generated using pymatgen
data_Pr6Zn4Pt10Rh3
_symmetry_space_group_name_H-M   'P 1'
_cell_length_a   8.38725190
_cell_length_b   8.38725273
_cell_length_c   8.38725300
_cell_angle_alpha   109.60035464
_cell_angle_beta   109.60034941
_cell_angle_gamma   109.60036231
_symmetry_Int_Tables_number   1
_chemical_formula_structural   Pr6Zn4Pt10Rh3
_chemical_formula_sum   'Pr6 Zn4 Pt10 Rh3'
_cell_volume   452.00512635
_cell_formula_units_Z   1
loop_
 _symmetry_equiv_pos_site_id
 _symmetry_equiv_pos_as_xyz
  1  'x, y, z'
loop_
 _atom_site_type_symbol
 _atom_site_label
 _atom_site_symmetry_multiplicity
 _atom_site_fract_x
 _atom_site_fract_y
 _atom_site_fract_z
 _atom_site_occupancy
  Pr  Pr0  1  0.698347  0.698347  0.000727  1
  Pr  Pr1  1  0.304592  0.002901  0.304592  1
  Pr  Pr2  1  0.002901  0.304592  0.304592  1
  Pr  Pr3  1  0.304592  0.304592  0.002901  1
  Pr  Pr4  1  0.698347  0.000727  0.698347  1
  Pr  Pr5  1  0.000727  0.698347  0.698347  1
  Zn  Zn6  1  0.997017  0.997017  0.500680  1
  Zn  Zn7  1  0.997017  0.500680  0.997017  1
  Zn  Zn8  1  0.500680  0.997017  0.997017  1
  Zn  Zn9  1  0.507216  0.507216  0.507216  1
  Pt  Pt10  1  0.332121  0.332121  0.660147  1
  Pt  Pt11  1  0.671359  0.001908  0.332866  1
  Pt  Pt12  1  0.001908  0.671359  0.332866  1
  Pt  Pt13  1  0.671359  0.332866  0.001908  1
  Pt  Pt14  1  0.332121  0.660147  0.332121  1
  Pt  Pt15  1  0.001908  0.332866  0.671359  1
  Pt  Pt16  1  0.332866  0.671359  0.001908  1
  Pt  Pt17  1  0.332866  0.001908  0.671359  1
  Pt  Pt18  1  0.660147  0.332121  0.332121  1
  Pt  Pt19  1  0.000575  0.000575  0.000575  1
  Rh  Rh20  1  0.662904  0.662904  0.325525  1
  Rh  Rh21  1  0.662904  0.325525  0.662904  1
  Rh  Rh22  1  0.325525  0.662904  0.662904  1
