# generated using pymatgen
data_Ce12Mn3Al5SiRu3
_symmetry_space_group_name_H-M   'P 1'
_cell_length_a   7.75359100
_cell_length_b   7.75359008
_cell_length_c   9.70246000
_cell_angle_alpha   90.00000000
_cell_angle_beta   90.00000000
_cell_angle_gamma   119.99999967
_symmetry_Int_Tables_number   1
_chemical_formula_structural   Ce12Mn3Al5SiRu3
_chemical_formula_sum   'Ce12 Mn3 Al5 Si1 Ru3'
_cell_volume   505.14751297
_cell_formula_units_Z   1
loop_
 _symmetry_equiv_pos_site_id
 _symmetry_equiv_pos_as_xyz
  1  'x, y, z'
loop_
 _atom_site_type_symbol
 _atom_site_label
 _atom_site_symmetry_multiplicity
 _atom_site_fract_x
 _atom_site_fract_y
 _atom_site_fract_z
 _atom_site_occupancy
  Ce  Ce0  1  0.996692  0.558864  0.491064  1
  Ce  Ce1  1  0.562173  0.003308  0.491064  1
  Ce  Ce2  1  0.441136  0.437827  0.491064  1
  Ce  Ce3  1  0.996726  0.415612  0.007758  1
  Ce  Ce4  1  0.418886  0.003274  0.007758  1
  Ce  Ce5  1  0.584388  0.581114  0.007758  1
  Ce  Ce6  1  0.995307  0.741623  0.182516  1
  Ce  Ce7  1  0.746316  0.004693  0.182516  1
  Ce  Ce8  1  0.258377  0.253684  0.182516  1
  Ce  Ce9  1  0.000148  0.259625  0.675062  1
  Ce  Ce10  1  0.259477  0.999852  0.675062  1
  Ce  Ce11  1  0.740375  0.740523  0.675062  1
  Mn  Mn12  1  0.989830  0.350686  0.339837  1
  Mn  Mn13  1  0.360855  0.010170  0.339837  1
  Mn  Mn14  1  0.649314  0.639145  0.339837  1
  Al  Al15  1  0.333333  0.666667  0.264417  1
  Al  Al16  1  0.333333  0.666667  0.768911  1
  Al  Al17  1  0.666667  0.333333  0.767776  1
  Al  Al18  1  0.000000  0.000000  0.424880  1
  Al  Al19  1  0.000000  0.000000  0.925323  1
  Si  Si20  1  0.666667  0.333333  0.265655  1
  Ru  Ru21  1  0.000004  0.658800  0.841191  1
  Ru  Ru22  1  0.658796  0.999996  0.841191  1
  Ru  Ru23  1  0.341200  0.341204  0.841191  1
