# generated using pymatgen
data_ScFeCo(NiP)3
_symmetry_space_group_name_H-M   'P 1'
_cell_length_a   3.60873600
_cell_length_b   10.14947700
_cell_length_c   11.76880400
_cell_angle_alpha   90.00000000
_cell_angle_beta   90.00000000
_cell_angle_gamma   90.00000000
_symmetry_Int_Tables_number   1
_chemical_formula_structural   ScFeCo(NiP)3
_chemical_formula_sum   'Sc4 Fe4 Co4 Ni12 P12'
_cell_volume   431.05343064
_cell_formula_units_Z   4
loop_
 _symmetry_equiv_pos_site_id
 _symmetry_equiv_pos_as_xyz
  1  'x, y, z'
loop_
 _atom_site_type_symbol
 _atom_site_label
 _atom_site_symmetry_multiplicity
 _atom_site_fract_x
 _atom_site_fract_y
 _atom_site_fract_z
 _atom_site_occupancy
  Sc  Sc0  1  0.250000  0.579382  0.705189  1
  Sc  Sc1  1  0.250000  0.920618  0.205189  1
  Sc  Sc2  1  0.750000  0.420618  0.294811  1
  Sc  Sc3  1  0.750000  0.079382  0.794811  1
  Fe  Fe4  1  0.250000  0.876277  0.699575  1
  Fe  Fe5  1  0.250000  0.623723  0.199575  1
  Fe  Fe6  1  0.750000  0.123723  0.300425  1
  Fe  Fe7  1  0.750000  0.376277  0.800425  1
  Co  Co8  1  0.250000  0.463910  0.932841  1
  Co  Co9  1  0.250000  0.036090  0.432841  1
  Co  Co10  1  0.750000  0.536090  0.067159  1
  Co  Co11  1  0.750000  0.963910  0.567159  1
  Ni  Ni12  1  0.250000  0.715095  0.988874  1
  Ni  Ni13  1  0.250000  0.784905  0.488874  1
  Ni  Ni14  1  0.750000  0.284905  0.011126  1
  Ni  Ni15  1  0.750000  0.215095  0.511126  1
  Ni  Ni16  1  0.250000  0.409164  0.483317  1
  Ni  Ni17  1  0.250000  0.090836  0.983317  1
  Ni  Ni18  1  0.750000  0.590836  0.516683  1
  Ni  Ni19  1  0.750000  0.909164  0.016683  1
  Ni  Ni20  1  0.250000  0.226109  0.174193  1
  Ni  Ni21  1  0.250000  0.273892  0.674193  1
  Ni  Ni22  1  0.750000  0.773892  0.825807  1
  Ni  Ni23  1  0.750000  0.726108  0.325807  1
  P  P24  1  0.250000  0.428390  0.116649  1
  P  P25  1  0.250000  0.071610  0.616649  1
  P  P26  1  0.750000  0.571610  0.883351  1
  P  P27  1  0.750000  0.928390  0.383351  1
  P  P28  1  0.250000  0.265692  0.864948  1
  P  P29  1  0.250000  0.234308  0.364948  1
  P  P30  1  0.750000  0.734308  0.135052  1
  P  P31  1  0.750000  0.765692  0.635052  1
  P  P32  1  0.250000  0.599750  0.386296  1
  P  P33  1  0.250000  0.900250  0.886296  1
  P  P34  1  0.750000  0.400250  0.613704  1
  P  P35  1  0.750000  0.099750  0.113704  1
