# generated using pymatgen
data_Li2Ni9P7Ir3
_symmetry_space_group_name_H-M   'P 1'
_cell_length_a   9.19440200
_cell_length_b   9.19440276
_cell_length_c   3.62208000
_cell_angle_alpha   90.00000000
_cell_angle_beta   90.00000000
_cell_angle_gamma   120.00000448
_symmetry_Int_Tables_number   1
_chemical_formula_structural   Li2Ni9P7Ir3
_chemical_formula_sum   'Li2 Ni9 P7 Ir3'
_cell_volume   265.17688358
_cell_formula_units_Z   1
loop_
 _symmetry_equiv_pos_site_id
 _symmetry_equiv_pos_as_xyz
  1  'x, y, z'
loop_
 _atom_site_type_symbol
 _atom_site_label
 _atom_site_symmetry_multiplicity
 _atom_site_fract_x
 _atom_site_fract_y
 _atom_site_fract_z
 _atom_site_occupancy
  Li  Li0  1  0.000000  0.000000  0.000000  1
  Li  Li1  1  0.333333  0.666667  0.500000  1
  Ni  Ni2  1  0.094929  0.396861  0.000000  1
  Ni  Ni3  1  0.301932  0.905071  0.000000  1
  Ni  Ni4  1  0.603139  0.698068  0.000000  1
  Ni  Ni5  1  0.822388  0.604138  0.000000  1
  Ni  Ni6  1  0.781751  0.177612  0.000000  1
  Ni  Ni7  1  0.395862  0.218249  0.000000  1
  Ni  Ni8  1  0.872004  0.411474  0.500000  1
  Ni  Ni9  1  0.539471  0.127996  0.500000  1
  Ni  Ni10  1  0.588526  0.460529  0.500000  1
  P  P11  1  0.666667  0.333333  0.000000  1
  P  P12  1  0.090822  0.630095  0.000000  1
  P  P13  1  0.539273  0.909178  0.000000  1
  P  P14  1  0.369905  0.460727  0.000000  1
  P  P15  1  0.784078  0.739293  0.500000  1
  P  P16  1  0.955216  0.215922  0.500000  1
  P  P17  1  0.260707  0.044784  0.500000  1
  Ir  Ir18  1  0.053517  0.766015  0.500000  1
  Ir  Ir19  1  0.712498  0.946483  0.500000  1
  Ir  Ir20  1  0.233985  0.287502  0.500000  1
