# generated using pymatgen
data_Ho6Zn21Pt2S
_symmetry_space_group_name_H-M   'P 1'
_cell_length_a   8.96313898
_cell_length_b   8.99771182
_cell_length_c   8.99766400
_cell_angle_alpha   59.95244395
_cell_angle_beta   60.12699126
_cell_angle_gamma   60.12687927
_symmetry_Int_Tables_number   1
_chemical_formula_structural   Ho6Zn21Pt2S
_chemical_formula_sum   'Ho6 Zn21 Pt2 S1'
_cell_volume   513.90240117
_cell_formula_units_Z   1
loop_
 _symmetry_equiv_pos_site_id
 _symmetry_equiv_pos_as_xyz
  1  'x, y, z'
loop_
 _atom_site_type_symbol
 _atom_site_label
 _atom_site_symmetry_multiplicity
 _atom_site_fract_x
 _atom_site_fract_y
 _atom_site_fract_z
 _atom_site_occupancy
  Ho  Ho0  1  0.712205  0.287793  0.287791  1
  Ho  Ho1  1  0.287789  0.712212  0.712207  1
  Ho  Ho2  1  0.286343  0.710538  0.289465  1
  Ho  Ho3  1  0.713662  0.289456  0.710542  1
  Ho  Ho4  1  0.286342  0.289466  0.710531  1
  Ho  Ho5  1  0.713661  0.710546  0.289454  1
  Zn  Zn6  1  0.121225  0.121934  0.121940  1
  Zn  Zn7  1  0.878780  0.878048  0.878059  1
  Zn  Zn8  1  0.120839  0.125100  0.633237  1
  Zn  Zn9  1  0.120841  0.633240  0.125100  1
  Zn  Zn10  1  0.879178  0.874910  0.366755  1
  Zn  Zn11  1  0.879176  0.366752  0.874911  1
  Zn  Zn12  1  0.634894  0.121942  0.121947  1
  Zn  Zn13  1  0.365104  0.878057  0.878069  1
  Zn  Zn14  1  0.499999  0.999996  0.000001  1
  Zn  Zn15  1  0.999996  0.499999  0.000000  1
  Zn  Zn16  1  0.499996  0.000000  0.499998  1
  Zn  Zn17  1  0.999998  0.000000  0.499999  1
  Zn  Zn18  1  0.499997  0.499999  0.000000  1
  Zn  Zn19  1  0.331547  0.327568  0.327566  1
  Zn  Zn20  1  0.668445  0.672426  0.672430  1
  Zn  Zn21  1  0.331301  0.329214  0.008184  1
  Zn  Zn22  1  0.331296  0.008201  0.329208  1
  Zn  Zn23  1  0.668703  0.670788  0.991803  1
  Zn  Zn24  1  0.668702  0.991807  0.670788  1
  Zn  Zn25  1  0.013304  0.327577  0.327578  1
  Zn  Zn26  1  0.986684  0.672438  0.672442  1
  Pt  Pt27  1  0.000005  0.499987  0.499986  1
  Pt  Pt28  1  0.000012  0.999996  0.000025  1
  S  S29  1  0.499979  0.500007  0.499985  1
