# generated using pymatgen
data_LaZn9Ag2
_symmetry_space_group_name_H-M   'P 1'
_cell_length_a   8.42673390
_cell_length_b   8.42673444
_cell_length_c   8.43366212
_cell_angle_alpha   99.93497446
_cell_angle_beta   99.44859649
_cell_angle_gamma   131.53158302
_symmetry_Int_Tables_number   1
_chemical_formula_structural   LaZn9Ag2
_chemical_formula_sum   'La2 Zn18 Ag4'
_cell_volume   408.86550379
_cell_formula_units_Z   2
loop_
 _symmetry_equiv_pos_site_id
 _symmetry_equiv_pos_as_xyz
  1  'x, y, z'
loop_
 _atom_site_type_symbol
 _atom_site_label
 _atom_site_symmetry_multiplicity
 _atom_site_fract_x
 _atom_site_fract_y
 _atom_site_fract_z
 _atom_site_occupancy
  La  La0  1  0.248264  0.748265  0.500000  1
  La  La1  1  0.001651  0.001651  0.999999  1
  Zn  Zn2  1  0.625333  0.378280  0.748416  1
  Zn  Zn3  1  0.125159  0.373981  0.745685  1
  Zn  Zn4  1  0.628296  0.379474  0.254314  1
  Zn  Zn5  1  0.629863  0.876917  0.251585  1
  Zn  Zn6  1  0.182837  0.100463  0.668557  1
  Zn  Zn7  1  0.762339  0.933516  0.584841  1
  Zn  Zn8  1  0.348674  0.177498  0.415159  1
  Zn  Zn9  1  0.431906  0.514280  0.331443  1
  Zn  Zn10  1  0.903430  0.818133  0.329249  1
  Zn  Zn11  1  0.488884  0.574182  0.670751  1
  Zn  Zn12  1  0.067599  0.239695  0.412474  1
  Zn  Zn13  1  0.827221  0.655125  0.587526  1
  Zn  Zn14  1  0.062164  0.643675  0.829074  1
  Zn  Zn15  1  0.486933  0.813449  0.917056  1
  Zn  Zn16  1  0.896393  0.569877  0.082944  1
  Zn  Zn17  1  0.814602  0.233091  0.170927  1
  Zn  Zn18  1  0.350061  0.936205  0.175408  1
  Zn  Zn19  1  0.760796  0.174653  0.824591  1
  Ag  Ag20  1  0.421614  0.092622  0.912622  1
  Ag  Ag21  1  0.179999  0.508991  0.087378  1
  Ag  Ag22  1  0.506559  0.506559  0.000000  1
  Ag  Ag23  1  0.749419  0.249420  0.500000  1
