# generated using pymatgen
data_Ho2Mn3Co3Ni6P7
_symmetry_space_group_name_H-M   'P 1'
_cell_length_a   9.07662200
_cell_length_b   9.07662143
_cell_length_c   3.64879200
_cell_angle_alpha   90.00000000
_cell_angle_beta   90.00000000
_cell_angle_gamma   120.00000304
_symmetry_Int_Tables_number   1
_chemical_formula_structural   Ho2Mn3Co3Ni6P7
_chemical_formula_sum   'Ho2 Mn3 Co3 Ni6 P7'
_cell_volume   260.33238500
_cell_formula_units_Z   1
loop_
 _symmetry_equiv_pos_site_id
 _symmetry_equiv_pos_as_xyz
  1  'x, y, z'
loop_
 _atom_site_type_symbol
 _atom_site_label
 _atom_site_symmetry_multiplicity
 _atom_site_fract_x
 _atom_site_fract_y
 _atom_site_fract_z
 _atom_site_occupancy
  Ho  Ho0  1  0.666667  0.333333  0.000000  1
  Ho  Ho1  1  0.333333  0.666667  0.500000  1
  Mn  Mn2  1  0.096664  0.217967  0.500000  1
  Mn  Mn3  1  0.782033  0.878697  0.500000  1
  Mn  Mn4  1  0.121303  0.903336  0.500000  1
  Co  Co5  1  0.276847  0.155113  0.000000  1
  Co  Co6  1  0.844887  0.121734  0.000000  1
  Co  Co7  1  0.878266  0.723153  0.000000  1
  Ni  Ni8  1  0.062708  0.435508  0.000000  1
  Ni  Ni9  1  0.564492  0.627200  0.000000  1
  Ni  Ni10  1  0.372800  0.937292  0.000000  1
  Ni  Ni11  1  0.437814  0.385875  0.500000  1
  Ni  Ni12  1  0.614125  0.051939  0.500000  1
  Ni  Ni13  1  0.948061  0.562186  0.500000  1
  P  P14  1  0.293488  0.405485  0.000000  1
  P  P15  1  0.594515  0.888003  0.000000  1
  P  P16  1  0.111997  0.706512  0.000000  1
  P  P17  1  0.401589  0.115358  0.500000  1
  P  P18  1  0.884642  0.286231  0.500000  1
  P  P19  1  0.713769  0.598411  0.500000  1
  P  P20  1  0.000000  0.000000  0.000000  1
