# generated using pymatgen
data_YSc7(MnC2)4
_symmetry_space_group_name_H-M   'P 1'
_cell_length_a   4.74770600
_cell_length_b   6.16810049
_cell_length_c   9.14886791
_cell_angle_alpha   90.59621342
_cell_angle_beta   90.00000000
_cell_angle_gamma   90.00000000
_symmetry_Int_Tables_number   1
_chemical_formula_structural   YSc7(MnC2)4
_chemical_formula_sum   'Y1 Sc7 Mn4 C8'
_cell_volume   267.90394060
_cell_formula_units_Z   1
loop_
 _symmetry_equiv_pos_site_id
 _symmetry_equiv_pos_as_xyz
  1  'x, y, z'
loop_
 _atom_site_type_symbol
 _atom_site_label
 _atom_site_symmetry_multiplicity
 _atom_site_fract_x
 _atom_site_fract_y
 _atom_site_fract_z
 _atom_site_occupancy
  Y  Y0  1  0.750000  0.027750  0.708555  1
  Sc  Sc1  1  0.750000  0.528868  0.786820  1
  Sc  Sc2  1  0.250000  0.967267  0.286600  1
  Sc  Sc3  1  0.750000  0.671228  0.438087  1
  Sc  Sc4  1  0.250000  0.827546  0.942006  1
  Sc  Sc5  1  0.750000  0.169182  0.060908  1
  Sc  Sc6  1  0.250000  0.333687  0.558401  1
  Sc  Sc7  1  0.250000  0.468158  0.215843  1
  Mn  Mn8  1  0.250000  0.277835  0.865502  1
  Mn  Mn9  1  0.250000  0.775197  0.636158  1
  Mn  Mn10  1  0.750000  0.225654  0.363020  1
  Mn  Mn11  1  0.750000  0.721774  0.137302  1
  C  C12  1  0.250000  0.678692  0.449826  1
  C  C13  1  0.250000  0.546275  0.764063  1
  C  C14  1  0.750000  0.453296  0.235673  1
  C  C15  1  0.750000  0.815081  0.953919  1
  C  C16  1  0.250000  0.046273  0.738769  1
  C  C17  1  0.250000  0.178845  0.049400  1
  C  C18  1  0.750000  0.333338  0.545120  1
  C  C19  1  0.750000  0.954056  0.264026  1
