# generated using pymatgen
data_NaVFe(Sb6Pt)2
_symmetry_space_group_name_H-M   'P 1'
_cell_length_a   8.22072325
_cell_length_b   8.24939263
_cell_length_c   8.20041716
_cell_angle_alpha   109.83976134
_cell_angle_beta   109.57175923
_cell_angle_gamma   109.80080354
_symmetry_Int_Tables_number   1
_chemical_formula_structural   NaVFe(Sb6Pt)2
_chemical_formula_sum   'Na1 V1 Fe1 Sb12 Pt2'
_cell_volume   423.82669514
_cell_formula_units_Z   1
loop_
 _symmetry_equiv_pos_site_id
 _symmetry_equiv_pos_as_xyz
  1  'x, y, z'
loop_
 _atom_site_type_symbol
 _atom_site_label
 _atom_site_symmetry_multiplicity
 _atom_site_fract_x
 _atom_site_fract_y
 _atom_site_fract_z
 _atom_site_occupancy
  Na  Na0  1  0.000000  0.000000  0.000000  1
  V  V1  1  0.500000  0.500000  0.500000  1
  Fe  Fe2  1  0.000000  0.500000  0.000000  1
  Sb  Sb3  1  0.650379  0.802699  0.149653  1
  Sb  Sb4  1  0.854767  0.349807  0.181289  1
  Sb  Sb5  1  0.503447  0.844473  0.655482  1
  Sb  Sb6  1  0.844915  0.655597  0.503042  1
  Sb  Sb7  1  0.496553  0.155527  0.344518  1
  Sb  Sb8  1  0.145233  0.650193  0.818711  1
  Sb  Sb9  1  0.818241  0.165927  0.670921  1
  Sb  Sb10  1  0.181759  0.834073  0.329079  1
  Sb  Sb11  1  0.155085  0.344403  0.496958  1
  Sb  Sb12  1  0.677569  0.508010  0.849053  1
  Sb  Sb13  1  0.322431  0.491990  0.150947  1
  Sb  Sb14  1  0.349621  0.197301  0.850347  1
  Pt  Pt15  1  0.000000  0.000000  0.500000  1
  Pt  Pt16  1  0.500000  0.000000  0.000000  1
