# generated using pymatgen
data_Pr6Mg4Pt13
_symmetry_space_group_name_H-M   'P 1'
_cell_length_a   8.50314640
_cell_length_b   8.50314688
_cell_length_c   8.50314700
_cell_angle_alpha   109.47122568
_cell_angle_beta   109.47122683
_cell_angle_gamma   109.47121665
_symmetry_Int_Tables_number   1
_chemical_formula_structural   Pr6Mg4Pt13
_chemical_formula_sum   'Pr6 Mg4 Pt13'
_cell_volume   473.27884768
_cell_formula_units_Z   1
loop_
 _symmetry_equiv_pos_site_id
 _symmetry_equiv_pos_as_xyz
  1  'x, y, z'
loop_
 _atom_site_type_symbol
 _atom_site_label
 _atom_site_symmetry_multiplicity
 _atom_site_fract_x
 _atom_site_fract_y
 _atom_site_fract_z
 _atom_site_occupancy
  Pr  Pr0  1  0.696629  0.696629  0.000000  1
  Pr  Pr1  1  0.303371  0.000000  0.303371  1
  Pr  Pr2  1  0.000000  0.303371  0.303371  1
  Pr  Pr3  1  0.303371  0.303371  0.000000  1
  Pr  Pr4  1  0.696629  0.000000  0.696629  1
  Pr  Pr5  1  0.000000  0.696629  0.696629  1
  Mg  Mg6  1  0.000000  0.000000  0.500000  1
  Mg  Mg7  1  0.000000  0.500000  0.000000  1
  Mg  Mg8  1  0.500000  0.000000  0.000000  1
  Mg  Mg9  1  0.500000  0.500000  0.500000  1
  Pt  Pt10  1  0.331251  0.331251  0.662503  1
  Pt  Pt11  1  0.668749  0.000000  0.331251  1
  Pt  Pt12  1  0.000000  0.668749  0.331251  1
  Pt  Pt13  1  0.668749  0.331251  0.000000  1
  Pt  Pt14  1  0.331251  0.662503  0.331251  1
  Pt  Pt15  1  0.000000  0.331251  0.668749  1
  Pt  Pt16  1  0.331251  0.668749  0.000000  1
  Pt  Pt17  1  0.331251  0.000000  0.668749  1
  Pt  Pt18  1  0.662503  0.331251  0.331251  1
  Pt  Pt19  1  0.668749  0.668749  0.337497  1
  Pt  Pt20  1  0.668749  0.337497  0.668749  1
  Pt  Pt21  1  0.337497  0.668749  0.668749  1
  Pt  Pt22  1  0.000000  0.000000  0.000000  1
