# generated using pymatgen
data_Ho3Er7(SnSb)3
_symmetry_space_group_name_H-M   'P 1'
_cell_length_a   8.90130418
_cell_length_b   8.88476725
_cell_length_c   6.39139300
_cell_angle_alpha   90.00000000
_cell_angle_beta   90.00000000
_cell_angle_gamma   119.81149547
_symmetry_Int_Tables_number   1
_chemical_formula_structural   Ho3Er7(SnSb)3
_chemical_formula_sum   'Ho3 Er7 Sn3 Sb3'
_cell_volume   438.57882825
_cell_formula_units_Z   1
loop_
 _symmetry_equiv_pos_site_id
 _symmetry_equiv_pos_as_xyz
  1  'x, y, z'
loop_
 _atom_site_type_symbol
 _atom_site_label
 _atom_site_symmetry_multiplicity
 _atom_site_fract_x
 _atom_site_fract_y
 _atom_site_fract_z
 _atom_site_occupancy
  Ho  Ho0  1  0.001598  0.760431  0.750000  1
  Ho  Ho1  1  0.001305  0.242284  0.250000  1
  Ho  Ho2  1  0.757151  0.000133  0.750000  1
  Er  Er3  1  0.757697  0.756324  0.250000  1
  Er  Er4  1  0.242742  0.241764  0.750000  1
  Er  Er5  1  0.239644  0.999843  0.250000  1
  Er  Er6  1  0.332304  0.666453  0.500395  1
  Er  Er7  1  0.666714  0.333390  0.999721  1
  Er  Er8  1  0.666714  0.333390  0.500279  1
  Er  Er9  1  0.332304  0.666453  0.999605  1
  Sn  Sn10  1  0.392639  0.999481  0.750000  1
  Sn  Sn11  1  0.392091  0.391828  0.250000  1
  Sn  Sn12  1  0.000082  0.607721  0.250000  1
  Sb  Sb13  1  0.999428  0.391324  0.750000  1
  Sb  Sb14  1  0.609156  0.609180  0.750000  1
  Sb  Sb15  1  0.608432  0.000001  0.250000  1
