# generated using pymatgen
data_LiPrMnWO6
_symmetry_space_group_name_H-M   'P 1'
_cell_length_a   5.49673861
_cell_length_b   5.75959800
_cell_length_c   7.99245945
_cell_angle_alpha   90.00000000
_cell_angle_beta   89.59966608
_cell_angle_gamma   90.00000000
_symmetry_Int_Tables_number   1
_chemical_formula_structural   LiPrMnWO6
_chemical_formula_sum   'Li2 Pr2 Mn2 W2 O12'
_cell_volume   253.02713488
_cell_formula_units_Z   2
loop_
 _symmetry_equiv_pos_site_id
 _symmetry_equiv_pos_as_xyz
  1  'x, y, z'
loop_
 _atom_site_type_symbol
 _atom_site_label
 _atom_site_symmetry_multiplicity
 _atom_site_fract_x
 _atom_site_fract_y
 _atom_site_fract_z
 _atom_site_occupancy
  Li  Li0  1  0.281092  0.351484  0.994463  1
  Li  Li1  1  0.718907  0.851485  0.005536  1
  Pr  Pr2  1  0.731850  0.785036  0.500732  1
  Pr  Pr3  1  0.268150  0.285037  0.499268  1
  Mn  Mn4  1  0.759985  0.250353  0.233194  1
  Mn  Mn5  1  0.240014  0.750354  0.766806  1
  W  W6  1  0.245777  0.730341  0.235194  1
  W  W7  1  0.754222  0.230340  0.764806  1
  O  O8  1  0.369950  0.729338  0.015835  1
  O  O9  1  0.092910  0.427979  0.206712  1
  O  O10  1  0.951273  0.895703  0.206122  1
  O  O11  1  0.529288  0.527545  0.315206  1
  O  O12  1  0.445429  0.994046  0.306489  1
  O  O13  1  0.153497  0.700776  0.488315  1
  O  O14  1  0.846502  0.200775  0.511686  1
  O  O15  1  0.554570  0.494046  0.693512  1
  O  O16  1  0.470711  0.027546  0.684794  1
  O  O17  1  0.048727  0.395702  0.793878  1
  O  O18  1  0.907089  0.927980  0.793289  1
  O  O19  1  0.630049  0.229337  0.984165  1
