# generated using pymatgen
data_Lu16MgAg3Rh4
_symmetry_space_group_name_H-M   'P 1'
_cell_length_a   9.36711668
_cell_length_b   9.37498265
_cell_length_c   9.37498300
_cell_angle_alpha   59.99999524
_cell_angle_beta   59.97221288
_cell_angle_gamma   59.97221565
_symmetry_Int_Tables_number   1
_chemical_formula_structural   Lu16MgAg3Rh4
_chemical_formula_sum   'Lu16 Mg1 Ag3 Rh4'
_cell_volume   581.90133679
_cell_formula_units_Z   1
loop_
 _symmetry_equiv_pos_site_id
 _symmetry_equiv_pos_as_xyz
  1  'x, y, z'
loop_
 _atom_site_type_symbol
 _atom_site_label
 _atom_site_symmetry_multiplicity
 _atom_site_fract_x
 _atom_site_fract_y
 _atom_site_fract_z
 _atom_site_occupancy
  Lu  Lu0  1  0.351582  0.349485  0.349485  1
  Lu  Lu1  1  0.351582  0.349485  0.949450  1
  Lu  Lu2  1  0.351582  0.949450  0.349485  1
  Lu  Lu3  1  0.935353  0.354883  0.354883  1
  Lu  Lu4  1  0.810212  0.189326  0.189326  1
  Lu  Lu5  1  0.186460  0.812833  0.812833  1
  Lu  Lu6  1  0.186460  0.812833  0.187875  1
  Lu  Lu7  1  0.810212  0.189326  0.811135  1
  Lu  Lu8  1  0.186460  0.187875  0.812833  1
  Lu  Lu9  1  0.810212  0.811135  0.189326  1
  Lu  Lu10  1  0.932582  0.565063  0.565063  1
  Lu  Lu11  1  0.564558  0.934962  0.934962  1
  Lu  Lu12  1  0.564558  0.934962  0.565518  1
  Lu  Lu13  1  0.932582  0.565063  0.937291  1
  Lu  Lu14  1  0.564558  0.565518  0.934962  1
  Lu  Lu15  1  0.932582  0.937291  0.565063  1
  Mg  Mg16  1  0.285088  0.571637  0.571637  1
  Ag  Ag17  1  0.583218  0.584642  0.584642  1
  Ag  Ag18  1  0.583218  0.584642  0.247497  1
  Ag  Ag19  1  0.583218  0.247497  0.584642  1
  Rh  Rh20  1  0.140563  0.144694  0.144694  1
  Rh  Rh21  1  0.140563  0.144694  0.570047  1
  Rh  Rh22  1  0.140563  0.570047  0.144694  1
  Rh  Rh23  1  0.572034  0.142655  0.142655  1
