# generated using pymatgen
data_Y3Lu5Pt4
_symmetry_space_group_name_H-M   'P 1'
_cell_length_a   4.74290900
_cell_length_b   7.09185483
_cell_length_c   8.63121562
_cell_angle_alpha   90.20219331
_cell_angle_beta   90.00000000
_cell_angle_gamma   90.00000000
_symmetry_Int_Tables_number   1
_chemical_formula_structural   Y3Lu5Pt4
_chemical_formula_sum   'Y3 Lu5 Pt4'
_cell_volume   290.31795178
_cell_formula_units_Z   1
loop_
 _symmetry_equiv_pos_site_id
 _symmetry_equiv_pos_as_xyz
  1  'x, y, z'
loop_
 _atom_site_type_symbol
 _atom_site_label
 _atom_site_symmetry_multiplicity
 _atom_site_fract_x
 _atom_site_fract_y
 _atom_site_fract_z
 _atom_site_occupancy
  Y  Y0  1  0.250000  0.487828  0.171242  1
  Y  Y1  1  0.750000  0.012792  0.670823  1
  Y  Y2  1  0.750000  0.511801  0.829349  1
  Lu  Lu3  1  0.250000  0.856949  0.923572  1
  Lu  Lu4  1  0.250000  0.357469  0.576496  1
  Lu  Lu5  1  0.750000  0.141971  0.079479  1
  Lu  Lu6  1  0.750000  0.643961  0.422263  1
  Lu  Lu7  1  0.250000  0.987377  0.331435  1
  Pt  Pt8  1  0.250000  0.251667  0.904027  1
  Pt  Pt9  1  0.250000  0.754530  0.591279  1
  Pt  Pt10  1  0.750000  0.748517  0.096221  1
  Pt  Pt11  1  0.750000  0.245137  0.403816  1
