# generated using pymatgen
data_Tm3Al9Si3Os3Ru
_symmetry_space_group_name_H-M   'P 1'
_cell_length_a   8.64766327
_cell_length_b   8.64766200
_cell_length_c   9.47981600
_cell_angle_alpha   90.00000000
_cell_angle_beta   90.00000000
_cell_angle_gamma   119.87350986
_symmetry_Int_Tables_number   1
_chemical_formula_structural   Tm3Al9Si3Os3Ru
_chemical_formula_sum   'Tm6 Al18 Si6 Os6 Ru2'
_cell_volume   614.72398364
_cell_formula_units_Z   2
loop_
 _symmetry_equiv_pos_site_id
 _symmetry_equiv_pos_as_xyz
  1  'x, y, z'
loop_
 _atom_site_type_symbol
 _atom_site_label
 _atom_site_symmetry_multiplicity
 _atom_site_fract_x
 _atom_site_fract_y
 _atom_site_fract_z
 _atom_site_occupancy
  Tm  Tm0  1  0.805278  0.194722  0.750000  1
  Tm  Tm1  1  0.194722  0.805278  0.250000  1
  Tm  Tm2  1  0.391960  0.198278  0.750000  1
  Tm  Tm3  1  0.608040  0.801722  0.250000  1
  Tm  Tm4  1  0.801722  0.608040  0.750000  1
  Tm  Tm5  1  0.198278  0.391960  0.250000  1
  Al  Al6  1  0.835937  0.164063  0.419160  1
  Al  Al7  1  0.164063  0.835937  0.580840  1
  Al  Al8  1  0.327885  0.163289  0.421038  1
  Al  Al9  1  0.164063  0.835937  0.919160  1
  Al  Al10  1  0.672115  0.836711  0.578962  1
  Al  Al11  1  0.835937  0.164063  0.080840  1
  Al  Al12  1  0.836711  0.672115  0.421038  1
  Al  Al13  1  0.672115  0.836711  0.921038  1
  Al  Al14  1  0.163289  0.327885  0.578962  1
  Al  Al15  1  0.327885  0.163289  0.078962  1
  Al  Al16  1  0.163289  0.327885  0.921038  1
  Al  Al17  1  0.836711  0.672115  0.078962  1
  Al  Al18  1  0.127319  0.560975  0.750000  1
  Al  Al19  1  0.872681  0.439025  0.250000  1
  Al  Al20  1  0.439025  0.872681  0.750000  1
  Al  Al21  1  0.560975  0.127319  0.250000  1
  Al  Al22  1  0.000396  0.999604  0.750000  1
  Al  Al23  1  0.999604  0.000396  0.250000  1
  Si  Si24  1  0.667892  0.332108  0.959848  1
  Si  Si25  1  0.332108  0.667892  0.040152  1
  Si  Si26  1  0.332108  0.667892  0.459848  1
  Si  Si27  1  0.667892  0.332108  0.540152  1
  Si  Si28  1  0.436608  0.563392  0.750000  1
  Si  Si29  1  0.563392  0.436608  0.250000  1
  Os  Os30  1  0.500000  0.500000  0.000000  1
  Os  Os31  1  0.000000  0.500000  0.000000  1
  Os  Os32  1  0.500000  0.500000  0.500000  1
  Os  Os33  1  0.500000  0.000000  0.000000  1
  Os  Os34  1  0.000000  0.500000  0.500000  1
  Os  Os35  1  0.500000  0.000000  0.500000  1
  Ru  Ru36  1  0.000000  0.000000  0.000000  1
  Ru  Ru37  1  0.000000  0.000000  0.500000  1
