# generated using pymatgen
data_Nd4Al18(PtRh)3
_symmetry_space_group_name_H-M   'P 1'
_cell_length_a   7.65811904
_cell_length_b   7.65811935
_cell_length_c   9.59209302
_cell_angle_alpha   89.99613718
_cell_angle_beta   89.99613794
_cell_angle_gamma   119.56536193
_symmetry_Int_Tables_number   1
_chemical_formula_structural   Nd4Al18(PtRh)3
_chemical_formula_sum   'Nd4 Al18 Pt3 Rh3'
_cell_volume   489.29831519
_cell_formula_units_Z   1
loop_
 _symmetry_equiv_pos_site_id
 _symmetry_equiv_pos_as_xyz
  1  'x, y, z'
loop_
 _atom_site_type_symbol
 _atom_site_label
 _atom_site_symmetry_multiplicity
 _atom_site_fract_x
 _atom_site_fract_y
 _atom_site_fract_z
 _atom_site_occupancy
  Nd  Nd0  1  0.996222  0.668763  0.750273  1
  Nd  Nd1  1  0.005566  0.332400  0.249909  1
  Nd  Nd2  1  0.667600  0.994434  0.750091  1
  Nd  Nd3  1  0.331237  0.003778  0.249727  1
  Al  Al4  1  0.127114  0.127911  0.750528  1
  Al  Al5  1  0.872089  0.872886  0.249472  1
  Al  Al6  1  0.001480  0.330695  0.574071  1
  Al  Al7  1  0.997791  0.669561  0.425778  1
  Al  Al8  1  0.995015  0.665622  0.072784  1
  Al  Al9  1  0.334378  0.004985  0.927216  1
  Al  Al10  1  0.998035  0.330615  0.927218  1
  Al  Al11  1  0.669385  0.001965  0.072782  1
  Al  Al12  1  0.669305  0.998520  0.425929  1
  Al  Al13  1  0.330439  0.002209  0.574222  1
  Al  Al14  1  0.333819  0.330549  0.049561  1
  Al  Al15  1  0.669451  0.666181  0.950439  1
  Al  Al16  1  0.668960  0.668902  0.551742  1
  Al  Al17  1  0.331098  0.331040  0.448258  1
  Al  Al18  1  0.339621  0.542560  0.750414  1
  Al  Al19  1  0.659726  0.454419  0.246426  1
  Al  Al20  1  0.545581  0.340274  0.753574  1
  Al  Al21  1  0.457440  0.660379  0.249586  1
  Pt  Pt22  1  0.671339  0.328661  0.500000  1
  Pt  Pt23  1  0.328086  0.671914  0.500000  1
  Pt  Pt24  1  0.328147  0.671853  0.000000  1
  Rh  Rh25  1  0.671073  0.328927  0.000000  1
  Rh  Rh26  1  0.999818  0.000182  0.500000  1
  Rh  Rh27  1  0.000186  0.999814  0.000000  1
