# generated using pymatgen
data_Ta6Be3Se
_symmetry_space_group_name_H-M   'P 1'
_cell_length_a   6.55891747
_cell_length_b   6.55891778
_cell_length_c   3.43163200
_cell_angle_alpha   90.00000000
_cell_angle_beta   90.00000000
_cell_angle_gamma   89.71075511
_symmetry_Int_Tables_number   1
_chemical_formula_structural   Ta6Be3Se
_chemical_formula_sum   'Ta6 Be3 Se1'
_cell_volume   147.62486982
_cell_formula_units_Z   1
loop_
 _symmetry_equiv_pos_site_id
 _symmetry_equiv_pos_as_xyz
  1  'x, y, z'
loop_
 _atom_site_type_symbol
 _atom_site_label
 _atom_site_symmetry_multiplicity
 _atom_site_fract_x
 _atom_site_fract_y
 _atom_site_fract_z
 _atom_site_occupancy
  Ta  Ta0  1  0.007361  0.998081  0.000000  1
  Ta  Ta1  1  0.498080  0.507360  0.000000  1
  Ta  Ta2  1  0.176876  0.676877  0.500000  1
  Ta  Ta3  1  0.837913  0.337912  0.500000  1
  Ta  Ta4  1  0.678383  0.806537  0.500000  1
  Ta  Ta5  1  0.306536  0.178382  0.500000  1
  Be  Be6  1  0.371962  0.871961  0.000000  1
  Be  Be7  1  0.117507  0.387176  0.000000  1
  Be  Be8  1  0.887175  0.617505  0.000000  1
  Se  Se9  1  0.618206  0.118208  0.000000  1
