# generated using pymatgen
data_Ho2ScCo(BIr2)2
_symmetry_space_group_name_H-M   'P 1'
_cell_length_a   3.13937600
_cell_length_b   9.65942000
_cell_length_c   9.65942000
_cell_angle_alpha   90.00000000
_cell_angle_beta   90.00000000
_cell_angle_gamma   90.00000000
_symmetry_Int_Tables_number   1
_chemical_formula_structural   Ho2ScCo(BIr2)2
_chemical_formula_sum   'Ho4 Sc2 Co2 B4 Ir8'
_cell_volume   292.91757753
_cell_formula_units_Z   2
loop_
 _symmetry_equiv_pos_site_id
 _symmetry_equiv_pos_as_xyz
  1  'x, y, z'
loop_
 _atom_site_type_symbol
 _atom_site_label
 _atom_site_symmetry_multiplicity
 _atom_site_fract_x
 _atom_site_fract_y
 _atom_site_fract_z
 _atom_site_occupancy
  Ho  Ho0  1  0.000000  0.175941  0.675941  1
  Ho  Ho1  1  0.000000  0.824059  0.324059  1
  Ho  Ho2  1  0.000000  0.324059  0.175941  1
  Ho  Ho3  1  0.000000  0.675941  0.824059  1
  Sc  Sc4  1  0.000000  0.000000  0.000000  1
  Sc  Sc5  1  0.000000  0.500000  0.500000  1
  Co  Co6  1  0.500000  0.000000  0.500000  1
  Co  Co7  1  0.500000  0.500000  0.000000  1
  B  B8  1  0.000000  0.610719  0.110719  1
  B  B9  1  0.000000  0.389281  0.889281  1
  B  B10  1  0.000000  0.889281  0.610719  1
  B  B11  1  0.000000  0.110719  0.389281  1
  Ir  Ir12  1  0.500000  0.065109  0.230438  1
  Ir  Ir13  1  0.500000  0.934891  0.769562  1
  Ir  Ir14  1  0.500000  0.769562  0.065109  1
  Ir  Ir15  1  0.500000  0.434891  0.730438  1
  Ir  Ir16  1  0.500000  0.230438  0.934891  1
  Ir  Ir17  1  0.500000  0.565109  0.269562  1
  Ir  Ir18  1  0.500000  0.730438  0.565109  1
  Ir  Ir19  1  0.500000  0.269562  0.434891  1
