# generated using pymatgen
data_CaS23
_symmetry_space_group_name_H-M   'P 1'
_cell_length_a   5.57730933
_cell_length_b   9.65445035
_cell_length_c   15.29508000
_cell_angle_alpha   89.05711967
_cell_angle_beta   86.41939397
_cell_angle_gamma   90.71539292
_symmetry_Int_Tables_number   1
_chemical_formula_structural   CaS23
_chemical_formula_sum   'Ca1 S23'
_cell_volume   821.78233717
_cell_formula_units_Z   1
loop_
 _symmetry_equiv_pos_site_id
 _symmetry_equiv_pos_as_xyz
  1  'x, y, z'
loop_
 _atom_site_type_symbol
 _atom_site_label
 _atom_site_symmetry_multiplicity
 _atom_site_fract_x
 _atom_site_fract_y
 _atom_site_fract_z
 _atom_site_occupancy
  Ca  Ca0  1  0.356925  0.316228  0.437994  1
  S  S1  1  0.464668  0.780043  0.390374  1
  S  S2  1  0.028901  0.294938  0.118343  1
  S  S3  1  0.832829  0.238031  0.461284  1
  S  S4  1  0.250946  0.763232  0.503902  1
  S  S5  1  0.195076  0.249347  0.998233  1
  S  S6  1  0.800603  0.745980  0.016909  1
  S  S7  1  0.127987  0.435727  0.310801  1
  S  S8  1  0.623492  0.584692  0.381147  1
  S  S9  1  0.823699  0.125448  0.163660  1
  S  S10  1  0.220924  0.869146  0.142441  1
  S  S11  1  0.706779  0.639995  0.615316  1
  S  S12  1  0.420614  0.324023  0.625331  1
  S  S13  1  0.188214  0.876505  0.860824  1
  S  S14  1  0.777357  0.125434  0.872867  1
  S  S15  1  0.010920  0.697443  0.119259  1
  S  S16  1  0.471112  0.801904  0.605953  1
  S  S17  1  0.662329  0.175552  0.580431  1
  S  S18  1  0.988155  0.702478  0.899955  1
  S  S19  1  0.976169  0.300211  0.898809  1
  S  S20  1  0.484280  0.472632  0.279177  1
  S  S21  1  0.036817  0.993326  0.231827  1
  S  S22  1  0.570948  0.483933  0.697857  1
  S  S23  1  0.980257  0.003748  0.787311  1
