# generated using pymatgen
data_CsZn2H5
_symmetry_space_group_name_H-M   'P 1'
_cell_length_a   7.52362400
_cell_length_b   5.06712667
_cell_length_c   4.90167590
_cell_angle_alpha   120.03088313
_cell_angle_beta   88.46057556
_cell_angle_gamma   110.55029800
_symmetry_Int_Tables_number   1
_chemical_formula_structural   CsZn2H5
_chemical_formula_sum   'Cs1 Zn2 H5'
_cell_volume   148.91214926
_cell_formula_units_Z   1
loop_
 _symmetry_equiv_pos_site_id
 _symmetry_equiv_pos_as_xyz
  1  'x, y, z'
loop_
 _atom_site_type_symbol
 _atom_site_label
 _atom_site_symmetry_multiplicity
 _atom_site_fract_x
 _atom_site_fract_y
 _atom_site_fract_z
 _atom_site_occupancy
  Cs  Cs0  1  0.985868  0.019657  0.289614  1
  Zn  Zn1  1  0.400108  0.622500  0.037273  1
  Zn  Zn2  1  0.581033  0.387577  0.423461  1
  H  H3  1  0.806164  0.543229  0.573906  1
  H  H4  1  0.514622  0.002882  0.088293  1
  H  H5  1  0.553300  0.614517  0.274599  1
  H  H6  1  0.174858  0.508490  0.055698  1
  H  H7  1  0.410963  0.357296  0.647790  1
