# generated using pymatgen
data_Pr2Nd8Si5Ir
_symmetry_space_group_name_H-M   'P 1'
_cell_length_a   7.67908404
_cell_length_b   7.67091277
_cell_length_c   9.09056254
_cell_angle_alpha   114.96601622
_cell_angle_beta   114.99440925
_cell_angle_gamma   89.97772290
_symmetry_Int_Tables_number   1
_chemical_formula_structural   Pr2Nd8Si5Ir
_chemical_formula_sum   'Pr2 Nd8 Si5 Ir1'
_cell_volume   429.54267758
_cell_formula_units_Z   1
loop_
 _symmetry_equiv_pos_site_id
 _symmetry_equiv_pos_as_xyz
  1  'x, y, z'
loop_
 _atom_site_type_symbol
 _atom_site_label
 _atom_site_symmetry_multiplicity
 _atom_site_fract_x
 _atom_site_fract_y
 _atom_site_fract_z
 _atom_site_occupancy
  Pr  Pr0  1  0.163223  0.692001  0.712424  1
  Pr  Pr1  1  0.549201  0.020423  0.712424  1
  Nd  Nd2  1  0.469319  0.469319  0.938637  1
  Nd  Nd3  1  0.030994  0.030994  0.061988  1
  Nd  Nd4  1  0.949731  0.806862  0.286101  1
  Nd  Nd5  1  0.336370  0.479240  0.286101  1
  Nd  Nd6  1  0.806716  0.336485  0.286488  1
  Nd  Nd7  1  0.479772  0.950003  0.286488  1
  Nd  Nd8  1  0.020424  0.164044  0.713731  1
  Nd  Nd9  1  0.693307  0.549687  0.713731  1
  Si  Si10  1  0.249716  0.249716  0.499431  1
  Si  Si11  1  0.616178  0.884793  0.001122  1
  Si  Si12  1  0.384944  0.116329  0.001122  1
  Si  Si13  1  0.885198  0.385215  0.000569  1
  Si  Si14  1  0.115371  0.615354  0.000569  1
  Ir  Ir15  1  0.749537  0.749537  0.499073  1
