# generated using pymatgen
data_CsGd(NbSe2)6
_symmetry_space_group_name_H-M   'P 1'
_cell_length_a   6.15954100
_cell_length_b   6.15954213
_cell_length_c   17.35861500
_cell_angle_alpha   90.00000000
_cell_angle_beta   90.00000000
_cell_angle_gamma   119.99999929
_symmetry_Int_Tables_number   1
_chemical_formula_structural   CsGd(NbSe2)6
_chemical_formula_sum   'Cs1 Gd1 Nb6 Se12'
_cell_volume   570.35136640
_cell_formula_units_Z   1
loop_
 _symmetry_equiv_pos_site_id
 _symmetry_equiv_pos_as_xyz
  1  'x, y, z'
loop_
 _atom_site_type_symbol
 _atom_site_label
 _atom_site_symmetry_multiplicity
 _atom_site_fract_x
 _atom_site_fract_y
 _atom_site_fract_z
 _atom_site_occupancy
  Cs  Cs0  1  0.000000  0.000000  0.500000  1
  Gd  Gd1  1  0.000000  0.000000  0.000000  1
  Nb  Nb2  1  0.000000  0.000000  0.212905  1
  Nb  Nb3  1  0.000000  0.000000  0.787095  1
  Nb  Nb4  1  0.333333  0.666667  0.213354  1
  Nb  Nb5  1  0.666667  0.333333  0.786646  1
  Nb  Nb6  1  0.666667  0.333333  0.213354  1
  Nb  Nb7  1  0.333333  0.666667  0.786646  1
  Se  Se8  1  0.336269  0.000000  0.117274  1
  Se  Se9  1  0.000000  0.336269  0.117274  1
  Se  Se10  1  0.663731  0.663731  0.117274  1
  Se  Se11  1  0.334568  0.334568  0.691659  1
  Se  Se12  1  0.665432  0.665432  0.308341  1
  Se  Se13  1  0.665432  0.000000  0.691659  1
  Se  Se14  1  0.000000  0.665432  0.691659  1
  Se  Se15  1  0.000000  0.663731  0.882726  1
  Se  Se16  1  0.336269  0.336269  0.882726  1
  Se  Se17  1  0.000000  0.334568  0.308341  1
  Se  Se18  1  0.334568  0.000000  0.308341  1
  Se  Se19  1  0.663731  0.000000  0.882726  1
