# generated using pymatgen
data_Nd4Al(Ga3Pt2)3
_symmetry_space_group_name_H-M   'P 1'
_cell_length_a   8.59975348
_cell_length_b   8.62765873
_cell_length_c   8.62765900
_cell_angle_alpha   138.60818174
_cell_angle_beta   106.25471535
_cell_angle_gamma   88.32082350
_symmetry_Int_Tables_number   1
_chemical_formula_structural   Nd4Al(Ga3Pt2)3
_chemical_formula_sum   'Nd4 Al1 Ga9 Pt6'
_cell_volume   389.53239498
_cell_formula_units_Z   1
loop_
 _symmetry_equiv_pos_site_id
 _symmetry_equiv_pos_as_xyz
  1  'x, y, z'
loop_
 _atom_site_type_symbol
 _atom_site_label
 _atom_site_symmetry_multiplicity
 _atom_site_fract_x
 _atom_site_fract_y
 _atom_site_fract_z
 _atom_site_occupancy
  Nd  Nd0  1  0.864874  0.633026  0.231848  1
  Nd  Nd1  1  0.136595  0.365435  0.771160  1
  Nd  Nd2  1  0.401168  0.132044  0.269125  1
  Nd  Nd3  1  0.597014  0.867561  0.729451  1
  Al  Al4  1  0.254538  0.601567  0.652971  1
  Ga  Ga5  1  0.500189  0.750355  0.248822  1
  Ga  Ga6  1  0.500189  0.251369  0.749835  1
  Ga  Ga7  1  0.222568  0.972823  0.751010  1
  Ga  Ga8  1  0.776342  0.527964  0.749249  1
  Ga  Ga9  1  0.776342  0.027093  0.248379  1
  Ga  Ga10  1  0.222568  0.471557  0.249743  1
  Ga  Ga11  1  0.051601  0.897103  0.154499  1
  Ga  Ga12  1  0.948053  0.101495  0.846557  1
  Ga  Ga13  1  0.743876  0.397925  0.345951  1
  Pt  Pt14  1  0.003913  0.748912  0.751146  1
  Pt  Pt15  1  0.003913  0.252767  0.255002  1
  Pt  Pt16  1  0.249716  0.859865  0.389852  1
  Pt  Pt17  1  0.751467  0.140719  0.610747  1
  Pt  Pt18  1  0.471242  0.361065  0.110177  1
  Pt  Pt19  1  0.523832  0.639351  0.884479  1
