# generated using pymatgen
data_Pr3Dy4ThSe12
_symmetry_space_group_name_H-M   'P 1'
_cell_length_a   11.35207761
_cell_length_b   4.14342000
_cell_length_c   11.00264757
_cell_angle_alpha   90.00000000
_cell_angle_beta   90.06108274
_cell_angle_gamma   90.00000000
_symmetry_Int_Tables_number   1
_chemical_formula_structural   Pr3Dy4ThSe12
_chemical_formula_sum   'Pr3 Dy4 Th1 Se12'
_cell_volume   517.52491745
_cell_formula_units_Z   1
loop_
 _symmetry_equiv_pos_site_id
 _symmetry_equiv_pos_as_xyz
  1  'x, y, z'
loop_
 _atom_site_type_symbol
 _atom_site_label
 _atom_site_symmetry_multiplicity
 _atom_site_fract_x
 _atom_site_fract_y
 _atom_site_fract_z
 _atom_site_occupancy
  Pr  Pr0  1  0.695853  0.750000  0.497198  1
  Pr  Pr1  1  0.197986  0.750000  0.999042  1
  Pr  Pr2  1  0.303724  0.250000  0.499550  1
  Dy  Dy3  1  0.485202  0.250000  0.189633  1
  Dy  Dy4  1  0.987806  0.250000  0.313656  1
  Dy  Dy5  1  0.510494  0.750000  0.810282  1
  Dy  Dy6  1  0.014333  0.750000  0.686251  1
  Th  Th7  1  0.804786  0.250000  0.003309  1
  Se  Se8  1  0.545610  0.250000  0.631816  1
  Se  Se9  1  0.040489  0.250000  0.870273  1
  Se  Se10  1  0.456254  0.750000  0.368120  1
  Se  Se11  1  0.953249  0.750000  0.128906  1
  Se  Se12  1  0.615422  0.750000  0.053203  1
  Se  Se13  1  0.113522  0.750000  0.444853  1
  Se  Se14  1  0.388309  0.250000  0.946771  1
  Se  Se15  1  0.885307  0.250000  0.555182  1
  Se  Se16  1  0.730528  0.250000  0.290941  1
  Se  Se17  1  0.226639  0.250000  0.202746  1
  Se  Se18  1  0.269828  0.750000  0.705044  1
  Se  Se19  1  0.774661  0.750000  0.803223  1
