# generated using pymatgen
data_Ho5Er11CdIn3Ir4
_symmetry_space_group_name_H-M   'P 1'
_cell_length_a   9.58256609
_cell_length_b   9.58808171
_cell_length_c   9.58808137
_cell_angle_alpha   59.94837122
_cell_angle_beta   59.99479639
_cell_angle_gamma   59.99480118
_symmetry_Int_Tables_number   1
_chemical_formula_structural   Ho5Er11CdIn3Ir4
_chemical_formula_sum   'Ho5 Er11 Cd1 In3 Ir4'
_cell_volume   622.62477927
_cell_formula_units_Z   1
loop_
 _symmetry_equiv_pos_site_id
 _symmetry_equiv_pos_as_xyz
  1  'x, y, z'
loop_
 _atom_site_type_symbol
 _atom_site_label
 _atom_site_symmetry_multiplicity
 _atom_site_fract_x
 _atom_site_fract_y
 _atom_site_fract_z
 _atom_site_occupancy
  Ho  Ho0  1  0.810715  0.189643  0.189643  1
  Ho  Ho1  1  0.813299  0.187860  0.811156  1
  Ho  Ho2  1  0.191320  0.810479  0.188026  1
  Ho  Ho3  1  0.813299  0.811156  0.187860  1
  Ho  Ho4  1  0.191320  0.188026  0.810479  1
  Er  Er5  1  0.598545  0.597345  0.597345  1
  Er  Er6  1  0.600096  0.600739  0.202300  1
  Er  Er7  1  0.600096  0.202300  0.600739  1
  Er  Er8  1  0.201803  0.600235  0.600235  1
  Er  Er9  1  0.058301  0.440503  0.440503  1
  Er  Er10  1  0.437427  0.060514  0.060514  1
  Er  Er11  1  0.439601  0.059484  0.439731  1
  Er  Er12  1  0.058705  0.439378  0.059017  1
  Er  Er13  1  0.439601  0.439731  0.059484  1
  Er  Er14  1  0.058705  0.059017  0.439378  1
  Er  Er15  1  0.190107  0.812059  0.812059  1
  Cd  Cd16  1  0.503453  0.831990  0.831990  1
  In  In17  1  0.831721  0.833009  0.833009  1
  In  In18  1  0.831319  0.832781  0.502639  1
  In  In19  1  0.831319  0.502639  0.832781  1
  Ir  Ir20  1  0.391656  0.391793  0.391793  1
  Ir  Ir21  1  0.390835  0.391699  0.826262  1
  Ir  Ir22  1  0.390835  0.826262  0.391699  1
  Ir  Ir23  1  0.825925  0.391357  0.391357  1
