# generated using pymatgen
data_Gd12InNi6
_symmetry_space_group_name_H-M   'P 1'
_cell_length_a   8.51181814
_cell_length_b   8.51181764
_cell_length_c   8.51181800
_cell_angle_alpha   109.47122387
_cell_angle_beta   109.47122268
_cell_angle_gamma   109.47121640
_symmetry_Int_Tables_number   1
_chemical_formula_structural   Gd12InNi6
_chemical_formula_sum   'Gd12 In1 Ni6'
_cell_volume   474.72825319
_cell_formula_units_Z   1
loop_
 _symmetry_equiv_pos_site_id
 _symmetry_equiv_pos_as_xyz
  1  'x, y, z'
loop_
 _atom_site_type_symbol
 _atom_site_label
 _atom_site_symmetry_multiplicity
 _atom_site_fract_x
 _atom_site_fract_y
 _atom_site_fract_z
 _atom_site_occupancy
  Gd  Gd0  1  0.814023  0.695761  0.509785  1
  Gd  Gd1  1  0.185977  0.304239  0.490215  1
  Gd  Gd2  1  0.185977  0.695761  0.881738  1
  Gd  Gd3  1  0.814023  0.304239  0.118262  1
  Gd  Gd4  1  0.695761  0.509785  0.814023  1
  Gd  Gd5  1  0.304239  0.490215  0.185977  1
  Gd  Gd6  1  0.695761  0.881738  0.185977  1
  Gd  Gd7  1  0.304239  0.118262  0.814023  1
  Gd  Gd8  1  0.509785  0.814023  0.695761  1
  Gd  Gd9  1  0.490215  0.185977  0.304239  1
  Gd  Gd10  1  0.118262  0.814023  0.304239  1
  Gd  Gd11  1  0.881738  0.185977  0.695761  1
  In  In12  1  0.000000  0.000000  0.000000  1
  Ni  Ni13  1  0.876123  0.376123  0.500000  1
  Ni  Ni14  1  0.123877  0.623877  0.500000  1
  Ni  Ni15  1  0.376123  0.500000  0.876123  1
  Ni  Ni16  1  0.623877  0.500000  0.123877  1
  Ni  Ni17  1  0.500000  0.876123  0.376123  1
  Ni  Ni18  1  0.500000  0.123877  0.623877  1
