# generated using pymatgen
data_Na2Dy3Si9P3Ir19
_symmetry_space_group_name_H-M   'P 1'
_cell_length_a   12.78520100
_cell_length_b   12.78497397
_cell_length_c   3.96021100
_cell_angle_alpha   90.00000000
_cell_angle_beta   90.00000000
_cell_angle_gamma   120.00058482
_symmetry_Int_Tables_number   1
_chemical_formula_structural   Na2Dy3Si9P3Ir19
_chemical_formula_sum   'Na2 Dy3 Si9 P3 Ir19'
_cell_volume   560.60092046
_cell_formula_units_Z   1
loop_
 _symmetry_equiv_pos_site_id
 _symmetry_equiv_pos_as_xyz
  1  'x, y, z'
loop_
 _atom_site_type_symbol
 _atom_site_label
 _atom_site_symmetry_multiplicity
 _atom_site_fract_x
 _atom_site_fract_y
 _atom_site_fract_z
 _atom_site_occupancy
  Na  Na0  1  0.000457  0.816407  0.000000  1
  Na  Na1  1  0.184050  0.183593  0.000000  1
  Dy  Dy2  1  0.334311  0.667674  0.500000  1
  Dy  Dy3  1  0.666639  0.332326  0.500000  1
  Dy  Dy4  1  0.820152  0.000000  0.000000  1
  Si  Si5  1  0.999546  0.634335  0.500000  1
  Si  Si6  1  0.365212  0.365665  0.500000  1
  Si  Si7  1  0.633519  0.000000  0.500000  1
  Si  Si8  1  0.520488  0.686079  0.000000  1
  Si  Si9  1  0.312274  0.834152  0.000000  1
  Si  Si10  1  0.166851  0.479420  0.000000  1
  Si  Si11  1  0.478122  0.165848  0.000000  1
  Si  Si12  1  0.687430  0.520580  0.000000  1
  Si  Si13  1  0.834409  0.313921  0.000000  1
  P  P14  1  0.003163  0.180710  0.500000  1
  P  P15  1  0.822453  0.819290  0.500000  1
  P  P16  1  0.179053  0.000000  0.500000  1
  Ir  Ir17  1  0.512206  0.872119  0.000000  1
  Ir  Ir18  1  0.126487  0.638462  0.000000  1
  Ir  Ir19  1  0.359974  0.487337  0.000000  1
  Ir  Ir20  1  0.488025  0.361538  0.000000  1
  Ir  Ir21  1  0.872636  0.512663  0.000000  1
  Ir  Ir22  1  0.640087  0.127881  0.000000  1
  Ir  Ir23  1  0.995561  0.445935  0.500000  1
  Ir  Ir24  1  0.549627  0.554065  0.500000  1
  Ir  Ir25  1  0.448357  0.000000  0.500000  1
  Ir  Ir26  1  0.999122  0.278069  0.000000  1
  Ir  Ir27  1  0.721053  0.721931  0.000000  1
  Ir  Ir28  1  0.276941  0.000000  0.000000  1
  Ir  Ir29  1  0.628253  0.808196  0.500000  1
  Ir  Ir30  1  0.194263  0.817895  0.500000  1
  Ir  Ir31  1  0.181237  0.376721  0.500000  1
  Ir  Ir32  1  0.376369  0.182105  0.500000  1
  Ir  Ir33  1  0.804516  0.623279  0.500000  1
  Ir  Ir34  1  0.820057  0.191804  0.500000  1
  Ir  Ir35  1  0.997100  0.000000  0.500000  1
