# generated using pymatgen
data_Y4TmHf3(Ni4P3)4
_symmetry_space_group_name_H-M   'P 1'
_cell_length_a   12.33239924
_cell_length_b   12.33239923
_cell_length_c   3.79666600
_cell_angle_alpha   90.00000000
_cell_angle_beta   90.00000000
_cell_angle_gamma   120.02268445
_symmetry_Int_Tables_number   1
_chemical_formula_structural   Y4TmHf3(Ni4P3)4
_chemical_formula_sum   'Y4 Tm1 Hf3 Ni16 P12'
_cell_volume   499.95263086
_cell_formula_units_Z   1
loop_
 _symmetry_equiv_pos_site_id
 _symmetry_equiv_pos_as_xyz
  1  'x, y, z'
loop_
 _atom_site_type_symbol
 _atom_site_label
 _atom_site_symmetry_multiplicity
 _atom_site_fract_x
 _atom_site_fract_y
 _atom_site_fract_z
 _atom_site_occupancy
  Y  Y0  1  0.815342  0.000151  0.500000  1
  Y  Y1  1  0.000151  0.815342  0.500000  1
  Y  Y2  1  0.333292  0.666646  0.000000  1
  Y  Y3  1  0.666646  0.333292  0.000000  1
  Tm  Tm4  1  0.185026  0.185026  0.500000  1
  Hf  Hf5  1  0.561590  0.561590  0.000000  1
  Hf  Hf6  1  0.437854  0.000298  0.000000  1
  Hf  Hf7  1  0.000298  0.437854  0.000000  1
  Ni  Ni8  1  0.725273  0.725273  0.500000  1
  Ni  Ni9  1  0.274349  0.001022  0.500000  1
  Ni  Ni10  1  0.001022  0.274349  0.500000  1
  Ni  Ni11  1  0.184572  0.375684  0.000000  1
  Ni  Ni12  1  0.622965  0.807708  0.000000  1
  Ni  Ni13  1  0.192331  0.815491  0.000000  1
  Ni  Ni14  1  0.807708  0.622965  0.000000  1
  Ni  Ni15  1  0.815491  0.192331  0.000000  1
  Ni  Ni16  1  0.375684  0.184572  0.000000  1
  Ni  Ni17  1  0.361136  0.484598  0.500000  1
  Ni  Ni18  1  0.514710  0.876372  0.500000  1
  Ni  Ni19  1  0.123644  0.638432  0.500000  1
  Ni  Ni20  1  0.876372  0.514710  0.500000  1
  Ni  Ni21  1  0.638432  0.123644  0.500000  1
  Ni  Ni22  1  0.484598  0.361136  0.500000  1
  Ni  Ni23  1  0.001017  0.001017  0.000000  1
  P  P24  1  0.822542  0.822542  0.000000  1
  P  P25  1  0.178076  0.001340  0.000000  1
  P  P26  1  0.001340  0.178076  0.000000  1
  P  P27  1  0.170209  0.476092  0.500000  1
  P  P28  1  0.523913  0.693959  0.500000  1
  P  P29  1  0.305738  0.830239  0.500000  1
  P  P30  1  0.693959  0.523913  0.500000  1
  P  P31  1  0.830239  0.305738  0.500000  1
  P  P32  1  0.476092  0.170209  0.500000  1
  P  P33  1  0.355873  0.355873  0.000000  1
  P  P34  1  0.642545  0.999973  0.000000  1
  P  P35  1  0.999973  0.642545  0.000000  1
