# generated using pymatgen
data_YBiMo2F14
_symmetry_space_group_name_H-M   'P 1'
_cell_length_a   5.74109200
_cell_length_b   9.34009302
_cell_length_c   12.39686000
_cell_angle_alpha   62.15343397
_cell_angle_beta   89.58170687
_cell_angle_gamma   89.78642014
_symmetry_Int_Tables_number   1
_chemical_formula_structural   YBiMo2F14
_chemical_formula_sum   'Y2 Bi2 Mo4 F28'
_cell_volume   587.75606166
_cell_formula_units_Z   2
loop_
 _symmetry_equiv_pos_site_id
 _symmetry_equiv_pos_as_xyz
  1  'x, y, z'
loop_
 _atom_site_type_symbol
 _atom_site_label
 _atom_site_symmetry_multiplicity
 _atom_site_fract_x
 _atom_site_fract_y
 _atom_site_fract_z
 _atom_site_occupancy
  Y  Y0  1  0.765944  0.189986  0.234961  1
  Y  Y1  1  0.234056  0.810014  0.765039  1
  Bi  Bi2  1  0.270089  0.821742  0.263561  1
  Bi  Bi3  1  0.729911  0.178258  0.736439  1
  Mo  Mo4  1  0.754479  0.721411  0.042165  1
  Mo  Mo5  1  0.245521  0.278589  0.957835  1
  Mo  Mo6  1  0.258746  0.270012  0.454206  1
  Mo  Mo7  1  0.741254  0.729988  0.545794  1
  F  F8  1  0.947080  0.712664  0.424496  1
  F  F9  1  0.052920  0.287336  0.575504  1
  F  F10  1  0.458619  0.288734  0.080006  1
  F  F11  1  0.541381  0.711266  0.919994  1
  F  F12  1  0.479580  0.733955  0.143233  1
  F  F13  1  0.520420  0.266045  0.856767  1
  F  F14  1  0.985653  0.265244  0.348758  1
  F  F15  1  0.014347  0.734756  0.651242  1
  F  F16  1  0.961252  0.744947  0.159561  1
  F  F17  1  0.038748  0.255053  0.840439  1
  F  F18  1  0.468281  0.246486  0.332904  1
  F  F19  1  0.531719  0.753514  0.667096  1
  F  F20  1  0.753682  0.482225  0.140592  1
  F  F21  1  0.246318  0.517775  0.859408  1
  F  F22  1  0.265873  0.506709  0.358654  1
  F  F23  1  0.734127  0.493291  0.641346  1
  F  F24  1  0.959775  0.288081  0.056367  1
  F  F25  1  0.040225  0.711919  0.943633  1
  F  F26  1  0.452703  0.721463  0.450122  1
  F  F27  1  0.547297  0.278537  0.549878  1
  F  F28  1  0.745040  0.969408  0.445551  1
  F  F29  1  0.254960  0.030592  0.554449  1
  F  F30  1  0.245872  0.038097  0.054343  1
  F  F31  1  0.754128  0.961903  0.945657  1
  F  F32  1  0.579908  0.981532  0.232553  1
  F  F33  1  0.420092  0.018468  0.767447  1
  F  F34  1  0.075878  0.028547  0.267021  1
  F  F35  1  0.924122  0.971453  0.732979  1
