# generated using pymatgen
data_PrTh2(Al2Ag)3
_symmetry_space_group_name_H-M   'P 1'
_cell_length_a   9.47647832
_cell_length_b   9.47647807
_cell_length_c   9.47647831
_cell_angle_alpha   35.15989434
_cell_angle_beta   35.15989988
_cell_angle_gamma   35.15989228
_symmetry_Int_Tables_number   1
_chemical_formula_structural   PrTh2(Al2Ag)3
_chemical_formula_sum   'Pr1 Th2 Al6 Ag3'
_cell_volume   252.05038726
_cell_formula_units_Z   1
loop_
 _symmetry_equiv_pos_site_id
 _symmetry_equiv_pos_as_xyz
  1  'x, y, z'
loop_
 _atom_site_type_symbol
 _atom_site_label
 _atom_site_symmetry_multiplicity
 _atom_site_fract_x
 _atom_site_fract_y
 _atom_site_fract_z
 _atom_site_occupancy
  Pr  Pr0  1  0.000000  0.000000  0.000000  1
  Th  Th1  1  0.858030  0.858030  0.858030  1
  Th  Th2  1  0.141970  0.141970  0.141970  1
  Al  Al3  1  0.412571  0.925302  0.412571  1
  Al  Al4  1  0.412571  0.412571  0.925302  1
  Al  Al5  1  0.925302  0.412571  0.412571  1
  Al  Al6  1  0.587429  0.074698  0.587429  1
  Al  Al7  1  0.587429  0.587429  0.074698  1
  Al  Al8  1  0.074698  0.587429  0.587429  1
  Ag  Ag9  1  0.664366  0.664366  0.664366  1
  Ag  Ag10  1  0.335634  0.335634  0.335634  1
  Ag  Ag11  1  0.500000  0.500000  0.500000  1
