# generated using pymatgen
data_Tm2Al2CoPd
_symmetry_space_group_name_H-M   'P 1'
_cell_length_a   4.21090800
_cell_length_b   6.69774400
_cell_length_c   7.79553200
_cell_angle_alpha   90.00000000
_cell_angle_beta   90.00000000
_cell_angle_gamma   90.00000000
_symmetry_Int_Tables_number   1
_chemical_formula_structural   Tm2Al2CoPd
_chemical_formula_sum   'Tm4 Al4 Co2 Pd2'
_cell_volume   219.86193996
_cell_formula_units_Z   2
loop_
 _symmetry_equiv_pos_site_id
 _symmetry_equiv_pos_as_xyz
  1  'x, y, z'
loop_
 _atom_site_type_symbol
 _atom_site_label
 _atom_site_symmetry_multiplicity
 _atom_site_fract_x
 _atom_site_fract_y
 _atom_site_fract_z
 _atom_site_occupancy
  Tm  Tm0  1  0.250000  0.040288  0.329706  1
  Tm  Tm1  1  0.250000  0.540288  0.170294  1
  Tm  Tm2  1  0.750000  0.974260  0.683563  1
  Tm  Tm3  1  0.750000  0.474260  0.816437  1
  Al  Al4  1  0.250000  0.132580  0.931847  1
  Al  Al5  1  0.250000  0.632580  0.568153  1
  Al  Al6  1  0.750000  0.854672  0.050618  1
  Al  Al7  1  0.750000  0.354672  0.449382  1
  Co  Co8  1  0.250000  0.265936  0.623713  1
  Co  Co9  1  0.250000  0.765936  0.876287  1
  Pd  Pd10  1  0.750000  0.732264  0.376328  1
  Pd  Pd11  1  0.750000  0.232264  0.123672  1
