# generated using pymatgen
data_La2Al9OsPt2
_symmetry_space_group_name_H-M   'P 1'
_cell_length_a   7.71207556
_cell_length_b   7.71207726
_cell_length_c   9.68799893
_cell_angle_alpha   89.88036844
_cell_angle_beta   89.88036840
_cell_angle_gamma   119.62783605
_symmetry_Int_Tables_number   1
_chemical_formula_structural   La2Al9OsPt2
_chemical_formula_sum   'La4 Al18 Os2 Pt4'
_cell_volume   500.86433741
_cell_formula_units_Z   2
loop_
 _symmetry_equiv_pos_site_id
 _symmetry_equiv_pos_as_xyz
  1  'x, y, z'
loop_
 _atom_site_type_symbol
 _atom_site_label
 _atom_site_symmetry_multiplicity
 _atom_site_fract_x
 _atom_site_fract_y
 _atom_site_fract_z
 _atom_site_occupancy
  La  La0  1  0.996144  0.668715  0.250880  1
  La  La1  1  0.003856  0.331285  0.749120  1
  La  La2  1  0.668715  0.996144  0.250880  1
  La  La3  1  0.331285  0.003856  0.749120  1
  Al  Al4  1  0.134740  0.134740  0.251123  1
  Al  Al5  1  0.865260  0.865260  0.748877  1
  Al  Al6  1  0.005513  0.334399  0.075797  1
  Al  Al7  1  0.994487  0.665601  0.924203  1
  Al  Al8  1  0.996852  0.659675  0.570726  1
  Al  Al9  1  0.340325  0.003148  0.429274  1
  Al  Al10  1  0.003148  0.340325  0.429274  1
  Al  Al11  1  0.659675  0.996852  0.570726  1
  Al  Al12  1  0.665601  0.994487  0.924203  1
  Al  Al13  1  0.334399  0.005513  0.075797  1
  Al  Al14  1  0.338669  0.338669  0.543620  1
  Al  Al15  1  0.661331  0.661331  0.456380  1
  Al  Al16  1  0.662227  0.662227  0.056852  1
  Al  Al17  1  0.337773  0.337773  0.943148  1
  Al  Al18  1  0.339998  0.544432  0.255185  1
  Al  Al19  1  0.660002  0.455568  0.744815  1
  Al  Al20  1  0.544432  0.339998  0.255185  1
  Al  Al21  1  0.455568  0.660002  0.744815  1
  Os  Os22  1  0.328913  0.671087  0.500000  1
  Os  Os23  1  0.671087  0.328913  0.500000  1
  Pt  Pt24  1  0.671063  0.328937  0.000000  1
  Pt  Pt25  1  0.328937  0.671063  0.000000  1
  Pt  Pt26  1  0.000000  0.000000  0.000000  1
  Pt  Pt27  1  0.000000  0.000000  0.500000  1
