# generated using pymatgen
data_KZrCrSe4
_symmetry_space_group_name_H-M   'P 1'
_cell_length_a   3.83191500
_cell_length_b   8.31917865
_cell_length_c   6.41145272
_cell_angle_alpha   75.37946388
_cell_angle_beta   90.00000000
_cell_angle_gamma   90.00000689
_symmetry_Int_Tables_number   1
_chemical_formula_structural   KZrCrSe4
_chemical_formula_sum   'K1 Zr1 Cr1 Se4'
_cell_volume   197.76846449
_cell_formula_units_Z   1
loop_
 _symmetry_equiv_pos_site_id
 _symmetry_equiv_pos_as_xyz
  1  'x, y, z'
loop_
 _atom_site_type_symbol
 _atom_site_label
 _atom_site_symmetry_multiplicity
 _atom_site_fract_x
 _atom_site_fract_y
 _atom_site_fract_z
 _atom_site_occupancy
  K  K0  1  0.500000  0.494195  0.654699  1
  Zr  Zr1  1  0.000000  0.000030  0.000255  1
  Cr  Cr2  1  0.500000  0.001707  0.503799  1
  Se  Se3  1  0.000000  0.820342  0.413424  1
  Se  Se4  1  0.500000  0.807492  0.887830  1
  Se  Se5  1  0.000000  0.184474  0.589739  1
  Se  Se6  1  0.500000  0.190881  0.117213  1
