# generated using pymatgen
data_Er6TcRu
_symmetry_space_group_name_H-M   'P 1'
_cell_length_a   6.23931500
_cell_length_b   7.32681200
_cell_length_c   9.05592100
_cell_angle_alpha   90.00000000
_cell_angle_beta   90.00000000
_cell_angle_gamma   90.00000000
_symmetry_Int_Tables_number   1
_chemical_formula_structural   Er6TcRu
_chemical_formula_sum   'Er12 Tc2 Ru2'
_cell_volume   413.98498082
_cell_formula_units_Z   2
loop_
 _symmetry_equiv_pos_site_id
 _symmetry_equiv_pos_as_xyz
  1  'x, y, z'
loop_
 _atom_site_type_symbol
 _atom_site_label
 _atom_site_symmetry_multiplicity
 _atom_site_fract_x
 _atom_site_fract_y
 _atom_site_fract_z
 _atom_site_occupancy
  Er  Er0  1  0.333759  0.676267  0.063224  1
  Er  Er1  1  0.166241  0.176267  0.436776  1
  Er  Er2  1  0.664598  0.324065  0.562404  1
  Er  Er3  1  0.835402  0.824065  0.937596  1
  Er  Er4  1  0.664598  0.324065  0.937596  1
  Er  Er5  1  0.835402  0.824065  0.562404  1
  Er  Er6  1  0.333759  0.676267  0.436776  1
  Er  Er7  1  0.166241  0.176267  0.063224  1
  Er  Er8  1  0.873848  0.539282  0.250000  1
  Er  Er9  1  0.626152  0.039282  0.250000  1
  Er  Er10  1  0.131703  0.457497  0.750000  1
  Er  Er11  1  0.368297  0.957497  0.750000  1
  Tc  Tc12  1  0.038707  0.885899  0.250000  1
  Tc  Tc13  1  0.461293  0.385899  0.250000  1
  Ru  Ru14  1  0.960708  0.116659  0.750000  1
  Ru  Ru15  1  0.539292  0.616659  0.750000  1
