# generated using pymatgen
data_Er20Mg3Pd3Ru2
_symmetry_space_group_name_H-M   'P 1'
_cell_length_a   9.44199900
_cell_length_b   9.44199875
_cell_length_c   9.45198600
_cell_angle_alpha   90.00000000
_cell_angle_beta   90.00000000
_cell_angle_gamma   119.99999736
_symmetry_Int_Tables_number   1
_chemical_formula_structural   Er20Mg3Pd3Ru2
_chemical_formula_sum   'Er20 Mg3 Pd3 Ru2'
_cell_volume   729.76259928
_cell_formula_units_Z   1
loop_
 _symmetry_equiv_pos_site_id
 _symmetry_equiv_pos_as_xyz
  1  'x, y, z'
loop_
 _atom_site_type_symbol
 _atom_site_label
 _atom_site_symmetry_multiplicity
 _atom_site_fract_x
 _atom_site_fract_y
 _atom_site_fract_z
 _atom_site_occupancy
  Er  Er0  1  0.000000  0.000000  0.438888  1
  Er  Er1  1  0.000000  0.000000  0.061112  1
  Er  Er2  1  0.209167  0.790833  0.440016  1
  Er  Er3  1  0.209167  0.418336  0.440016  1
  Er  Er4  1  0.581664  0.790833  0.440016  1
  Er  Er5  1  0.790888  0.209112  0.552528  1
  Er  Er6  1  0.790888  0.581774  0.552528  1
  Er  Er7  1  0.418226  0.209112  0.552528  1
  Er  Er8  1  0.790888  0.209112  0.947472  1
  Er  Er9  1  0.790888  0.581774  0.947472  1
  Er  Er10  1  0.418226  0.209112  0.947472  1
  Er  Er11  1  0.209167  0.790833  0.059984  1
  Er  Er12  1  0.209167  0.418336  0.059984  1
  Er  Er13  1  0.581664  0.790833  0.059984  1
  Er  Er14  1  0.540593  0.459407  0.250000  1
  Er  Er15  1  0.540593  0.081188  0.250000  1
  Er  Er16  1  0.918812  0.459407  0.250000  1
  Er  Er17  1  0.459180  0.540820  0.750000  1
  Er  Er18  1  0.459180  0.918360  0.750000  1
  Er  Er19  1  0.081640  0.540820  0.750000  1
  Mg  Mg20  1  0.105903  0.894097  0.750000  1
  Mg  Mg21  1  0.105903  0.211805  0.750000  1
  Mg  Mg22  1  0.788195  0.894097  0.750000  1
  Pd  Pd23  1  0.865984  0.134016  0.250000  1
  Pd  Pd24  1  0.865984  0.731970  0.250000  1
  Pd  Pd25  1  0.268030  0.134016  0.250000  1
  Ru  Ru26  1  0.333333  0.666667  0.250000  1
  Ru  Ru27  1  0.666667  0.333333  0.750000  1
