# generated using pymatgen
data_YbPa(FeB4)2
_symmetry_space_group_name_H-M   'P 1'
_cell_length_a   3.39078100
_cell_length_b   5.90204558
_cell_length_c   11.43494606
_cell_angle_alpha   90.11519720
_cell_angle_beta   90.00000000
_cell_angle_gamma   90.00000000
_symmetry_Int_Tables_number   1
_chemical_formula_structural   YbPa(FeB4)2
_chemical_formula_sum   'Yb2 Pa2 Fe4 B16'
_cell_volume   228.84189874
_cell_formula_units_Z   2
loop_
 _symmetry_equiv_pos_site_id
 _symmetry_equiv_pos_as_xyz
  1  'x, y, z'
loop_
 _atom_site_type_symbol
 _atom_site_label
 _atom_site_symmetry_multiplicity
 _atom_site_fract_x
 _atom_site_fract_y
 _atom_site_fract_z
 _atom_site_occupancy
  Yb  Yb0  1  0.000000  0.625416  0.852194  1
  Yb  Yb1  1  0.000000  0.374584  0.147806  1
  Pa  Pa2  1  0.000000  0.126855  0.653117  1
  Pa  Pa3  1  0.000000  0.873145  0.346883  1
  Fe  Fe4  1  0.000000  0.130092  0.911162  1
  Fe  Fe5  1  0.000000  0.869908  0.088838  1
  Fe  Fe6  1  0.000000  0.635116  0.589213  1
  Fe  Fe7  1  0.000000  0.364884  0.410787  1
  B  B8  1  0.500000  0.360836  0.968171  1
  B  B9  1  0.500000  0.639164  0.031829  1
  B  B10  1  0.500000  0.861592  0.534217  1
  B  B11  1  0.500000  0.138408  0.465783  1
  B  B12  1  0.500000  0.477310  0.690229  1
  B  B13  1  0.500000  0.522690  0.309771  1
  B  B14  1  0.500000  0.974715  0.812513  1
  B  B15  1  0.500000  0.025285  0.187487  1
  B  B16  1  0.500000  0.280917  0.818463  1
  B  B17  1  0.500000  0.719083  0.181537  1
  B  B18  1  0.500000  0.780583  0.685202  1
  B  B19  1  0.500000  0.219417  0.314798  1
  B  B20  1  0.500000  0.389155  0.546221  1
  B  B21  1  0.500000  0.610845  0.453779  1
  B  B22  1  0.500000  0.886931  0.955575  1
  B  B23  1  0.500000  0.113069  0.044425  1
