# generated using pymatgen
data_Tb4Lu6Si7Sn
_symmetry_space_group_name_H-M   'P 1'
_cell_length_a   7.36720200
_cell_length_b   7.69344024
_cell_length_c   14.50429732
_cell_angle_alpha   89.77855588
_cell_angle_beta   90.00000000
_cell_angle_gamma   90.00000000
_symmetry_Int_Tables_number   1
_chemical_formula_structural   Tb4Lu6Si7Sn
_chemical_formula_sum   'Tb8 Lu12 Si14 Sn2'
_cell_volume   822.08478897
_cell_formula_units_Z   2
loop_
 _symmetry_equiv_pos_site_id
 _symmetry_equiv_pos_as_xyz
  1  'x, y, z'
loop_
 _atom_site_type_symbol
 _atom_site_label
 _atom_site_symmetry_multiplicity
 _atom_site_fract_x
 _atom_site_fract_y
 _atom_site_fract_z
 _atom_site_occupancy
  Tb  Tb0  1  0.517290  0.672925  0.602250  1
  Tb  Tb1  1  0.017290  0.827075  0.897750  1
  Tb  Tb2  1  0.491251  0.314204  0.100057  1
  Tb  Tb3  1  0.991251  0.185796  0.399943  1
  Tb  Tb4  1  0.478111  0.325051  0.400358  1
  Tb  Tb5  1  0.978111  0.174949  0.099642  1
  Tb  Tb6  1  0.520402  0.680497  0.900128  1
  Tb  Tb7  1  0.020402  0.819503  0.599872  1
  Lu  Lu8  1  0.673460  0.185932  0.628649  1
  Lu  Lu9  1  0.173460  0.314068  0.871351  1
  Lu  Lu10  1  0.329138  0.837408  0.128977  1
  Lu  Lu11  1  0.829138  0.662592  0.371023  1
  Lu  Lu12  1  0.314354  0.824660  0.375391  1
  Lu  Lu13  1  0.814354  0.675340  0.124609  1
  Lu  Lu14  1  0.675557  0.175208  0.874398  1
  Lu  Lu15  1  0.175557  0.324792  0.625602  1
  Lu  Lu16  1  0.845233  0.509561  0.750915  1
  Lu  Lu17  1  0.345233  0.990439  0.749085  1
  Lu  Lu18  1  0.156046  0.491951  0.252578  1
  Lu  Lu19  1  0.656046  0.008049  0.247422  1
  Si  Si20  1  0.347437  0.030489  0.959426  1
  Si  Si21  1  0.847437  0.469511  0.540574  1
  Si  Si22  1  0.334988  0.034620  0.542037  1
  Si  Si23  1  0.834988  0.465380  0.957963  1
  Si  Si24  1  0.652435  0.967356  0.038443  1
  Si  Si25  1  0.152435  0.532644  0.461557  1
  Si  Si26  1  0.473353  0.391762  0.751672  1
  Si  Si27  1  0.973353  0.108238  0.748328  1
  Si  Si28  1  0.522509  0.613134  0.250797  1
  Si  Si29  1  0.022509  0.886866  0.249203  1
  Si  Si30  1  0.721950  0.871352  0.749059  1
  Si  Si31  1  0.221950  0.628648  0.750941  1
  Si  Si32  1  0.279533  0.133995  0.250624  1
  Si  Si33  1  0.779533  0.366005  0.249376  1
  Sn  Sn34  1  0.666952  0.962177  0.462899  1
  Sn  Sn35  1  0.166952  0.537823  0.037101  1
