# generated using pymatgen
data_Er12TlFe2Ni3
_symmetry_space_group_name_H-M   'P 1'
_cell_length_a   8.25837763
_cell_length_b   8.25837797
_cell_length_c   8.25837800
_cell_angle_alpha   109.59336570
_cell_angle_beta   110.57849837
_cell_angle_gamma   108.25020371
_symmetry_Int_Tables_number   1
_chemical_formula_structural   Er12TlFe2Ni3
_chemical_formula_sum   'Er12 Tl1 Fe2 Ni3'
_cell_volume   433.39305761
_cell_formula_units_Z   1
loop_
 _symmetry_equiv_pos_site_id
 _symmetry_equiv_pos_as_xyz
  1  'x, y, z'
loop_
 _atom_site_type_symbol
 _atom_site_label
 _atom_site_symmetry_multiplicity
 _atom_site_fract_x
 _atom_site_fract_y
 _atom_site_fract_z
 _atom_site_occupancy
  Er  Er0  1  0.290066  0.182719  0.472785  1
  Er  Er1  1  0.709934  0.817281  0.527215  1
  Er  Er2  1  0.290066  0.817281  0.107346  1
  Er  Er3  1  0.709934  0.182719  0.892654  1
  Er  Er4  1  0.620938  0.316805  0.304133  1
  Er  Er5  1  0.379062  0.683195  0.695867  1
  Er  Er6  1  0.012673  0.316805  0.695867  1
  Er  Er7  1  0.987327  0.683195  0.304133  1
  Er  Er8  1  0.214970  0.408779  0.193809  1
  Er  Er9  1  0.785030  0.591221  0.806191  1
  Er  Er10  1  0.214970  0.021161  0.806191  1
  Er  Er11  1  0.785030  0.978839  0.193809  1
  Tl  Tl12  1  0.500000  0.500000  0.000000  1
  Fe  Fe13  1  0.389716  0.889716  0.500000  1
  Fe  Fe14  1  0.610284  0.110284  0.500000  1
  Ni  Ni15  1  0.000000  0.369205  0.369205  1
  Ni  Ni16  1  0.000000  0.630795  0.630795  1
  Ni  Ni17  1  0.000000  0.000000  0.000000  1
