# generated using pymatgen
data_Ta6Re5Si6Ru
_symmetry_space_group_name_H-M   'P 1'
_cell_length_a   7.53945793
_cell_length_b   7.53008851
_cell_length_c   7.55456626
_cell_angle_alpha   127.43203824
_cell_angle_beta   123.95726629
_cell_angle_gamma   80.49880834
_symmetry_Int_Tables_number   1
_chemical_formula_structural   Ta6Re5Si6Ru
_chemical_formula_sum   'Ta6 Re5 Si6 Ru1'
_cell_volume   272.40240754
_cell_formula_units_Z   1
loop_
 _symmetry_equiv_pos_site_id
 _symmetry_equiv_pos_as_xyz
  1  'x, y, z'
loop_
 _atom_site_type_symbol
 _atom_site_label
 _atom_site_symmetry_multiplicity
 _atom_site_fract_x
 _atom_site_fract_y
 _atom_site_fract_z
 _atom_site_occupancy
  Ta  Ta0  1  0.943499  0.907922  0.465939  1
  Ta  Ta1  1  0.053245  0.507062  0.956623  1
  Ta  Ta2  1  0.534710  0.503894  0.463227  1
  Ta  Ta3  1  0.466889  0.935324  0.969036  1
  Ta  Ta4  1  0.750313  0.082426  0.839831  1
  Ta  Ta5  1  0.250771  0.094777  0.339817  1
  Re  Re6  1  0.475449  0.753122  0.229125  1
  Re  Re7  1  0.018768  0.752246  0.774090  1
  Re  Re8  1  0.901736  0.250335  0.408441  1
  Re  Re9  1  0.093969  0.502559  0.343475  1
  Re  Re10  1  0.340287  0.251579  0.844897  1
  Si  Si11  1  0.726532  0.482595  0.253729  1
  Si  Si12  1  0.283052  0.511207  0.732350  1
  Si  Si13  1  0.668174  0.175291  0.510984  1
  Si  Si14  1  0.327069  0.838256  0.499028  1
  Si  Si15  1  0.165589  0.172151  0.003015  1
  Si  Si16  1  0.835745  0.833823  0.008944  1
  Ru  Ru17  1  0.664201  0.503231  0.915247  1
