# generated using pymatgen
data_Lu3Al12RuRh3
_symmetry_space_group_name_H-M   'P 1'
_cell_length_a   8.78550700
_cell_length_b   8.78550517
_cell_length_c   9.47030900
_cell_angle_alpha   90.00000000
_cell_angle_beta   90.00000000
_cell_angle_gamma   119.99999559
_symmetry_Int_Tables_number   1
_chemical_formula_structural   Lu3Al12RuRh3
_chemical_formula_sum   'Lu6 Al24 Ru2 Rh6'
_cell_volume   633.03594131
_cell_formula_units_Z   2
loop_
 _symmetry_equiv_pos_site_id
 _symmetry_equiv_pos_as_xyz
  1  'x, y, z'
loop_
 _atom_site_type_symbol
 _atom_site_label
 _atom_site_symmetry_multiplicity
 _atom_site_fract_x
 _atom_site_fract_y
 _atom_site_fract_z
 _atom_site_occupancy
  Lu  Lu0  1  0.194061  0.388122  0.250000  1
  Lu  Lu1  1  0.805939  0.611878  0.750000  1
  Lu  Lu2  1  0.611878  0.805939  0.250000  1
  Lu  Lu3  1  0.388122  0.194061  0.750000  1
  Lu  Lu4  1  0.194061  0.805939  0.250000  1
  Lu  Lu5  1  0.805939  0.194061  0.750000  1
  Al  Al6  1  0.333333  0.666667  0.026438  1
  Al  Al7  1  0.666667  0.333333  0.973562  1
  Al  Al8  1  0.666667  0.333333  0.526438  1
  Al  Al9  1  0.333333  0.666667  0.473562  1
  Al  Al10  1  0.163012  0.326022  0.578668  1
  Al  Al11  1  0.836988  0.673978  0.421332  1
  Al  Al12  1  0.673978  0.836988  0.578668  1
  Al  Al13  1  0.836988  0.673978  0.078668  1
  Al  Al14  1  0.326022  0.163012  0.421332  1
  Al  Al15  1  0.163012  0.326022  0.921332  1
  Al  Al16  1  0.163012  0.836988  0.578668  1
  Al  Al17  1  0.326022  0.163012  0.078668  1
  Al  Al18  1  0.836988  0.163012  0.421332  1
  Al  Al19  1  0.673978  0.836988  0.921332  1
  Al  Al20  1  0.836988  0.163012  0.078668  1
  Al  Al21  1  0.163012  0.836988  0.921332  1
  Al  Al22  1  0.561461  0.122923  0.250000  1
  Al  Al23  1  0.438539  0.877077  0.750000  1
  Al  Al24  1  0.877077  0.438539  0.250000  1
  Al  Al25  1  0.122923  0.561461  0.750000  1
  Al  Al26  1  0.561461  0.438539  0.250000  1
  Al  Al27  1  0.438539  0.561461  0.750000  1
  Al  Al28  1  0.000000  0.000000  0.250000  1
  Al  Al29  1  0.000000  0.000000  0.750000  1
  Ru  Ru30  1  0.000000  0.000000  0.000000  1
  Ru  Ru31  1  0.000000  0.000000  0.500000  1
  Rh  Rh32  1  0.500000  0.000000  0.000000  1
  Rh  Rh33  1  0.000000  0.500000  0.000000  1
  Rh  Rh34  1  0.500000  0.000000  0.500000  1
  Rh  Rh35  1  0.500000  0.500000  0.000000  1
  Rh  Rh36  1  0.000000  0.500000  0.500000  1
  Rh  Rh37  1  0.500000  0.500000  0.500000  1
