# generated using pymatgen
data_LaPr7CdHgPd2
_symmetry_space_group_name_H-M   'P 1'
_cell_length_a   10.09887607
_cell_length_b   10.09887647
_cell_length_c   10.12313200
_cell_angle_alpha   59.92051709
_cell_angle_beta   59.92051577
_cell_angle_gamma   59.92432256
_symmetry_Int_Tables_number   1
_chemical_formula_structural   LaPr7CdHgPd2
_chemical_formula_sum   'La2 Pr14 Cd2 Hg2 Pd4'
_cell_volume   728.74366959
_cell_formula_units_Z   2
loop_
 _symmetry_equiv_pos_site_id
 _symmetry_equiv_pos_as_xyz
  1  'x, y, z'
loop_
 _atom_site_type_symbol
 _atom_site_label
 _atom_site_symmetry_multiplicity
 _atom_site_fract_x
 _atom_site_fract_y
 _atom_site_fract_z
 _atom_site_occupancy
  La  La0  1  0.350412  0.350412  0.351650  1
  La  La1  1  0.350412  0.350412  0.947528  1
  Pr  Pr2  1  0.354301  0.938221  0.353740  1
  Pr  Pr3  1  0.938221  0.354301  0.353740  1
  Pr  Pr4  1  0.808694  0.192123  0.192513  1
  Pr  Pr5  1  0.192123  0.808694  0.806671  1
  Pr  Pr6  1  0.192123  0.808694  0.192513  1
  Pr  Pr7  1  0.808694  0.192123  0.806671  1
  Pr  Pr8  1  0.191238  0.191238  0.808762  1
  Pr  Pr9  1  0.805896  0.805896  0.194104  1
  Pr  Pr10  1  0.936834  0.563756  0.565313  1
  Pr  Pr11  1  0.563756  0.936834  0.934097  1
  Pr  Pr12  1  0.563756  0.936834  0.565313  1
  Pr  Pr13  1  0.936834  0.563756  0.934097  1
  Pr  Pr14  1  0.563788  0.563788  0.936212  1
  Pr  Pr15  1  0.934613  0.934613  0.565387  1
  Cd  Cd16  1  0.578769  0.261483  0.579873  1
  Cd  Cd17  1  0.261483  0.578769  0.579873  1
  Hg  Hg18  1  0.583440  0.583440  0.585908  1
  Hg  Hg19  1  0.583440  0.583440  0.247212  1
  Pd  Pd20  1  0.144178  0.144178  0.144757  1
  Pd  Pd21  1  0.144178  0.144178  0.566887  1
  Pd  Pd22  1  0.143951  0.568867  0.143591  1
  Pd  Pd23  1  0.568867  0.143951  0.143591  1
