# generated using pymatgen
data_Dy2Er3InSb2
_symmetry_space_group_name_H-M   'P 1'
_cell_length_a   8.92868042
_cell_length_b   8.90373871
_cell_length_c   6.42399400
_cell_angle_alpha   90.00000000
_cell_angle_beta   90.00000000
_cell_angle_gamma   119.90763364
_symmetry_Int_Tables_number   1
_chemical_formula_structural   Dy2Er3InSb2
_chemical_formula_sum   'Dy4 Er6 In2 Sb4'
_cell_volume   442.68918177
_cell_formula_units_Z   2
loop_
 _symmetry_equiv_pos_site_id
 _symmetry_equiv_pos_as_xyz
  1  'x, y, z'
loop_
 _atom_site_type_symbol
 _atom_site_label
 _atom_site_symmetry_multiplicity
 _atom_site_fract_x
 _atom_site_fract_y
 _atom_site_fract_z
 _atom_site_occupancy
  Dy  Dy0  1  0.002505  0.760646  0.750000  1
  Dy  Dy1  1  0.002505  0.241861  0.250000  1
  Dy  Dy2  1  0.757928  0.759479  0.250000  1
  Dy  Dy3  1  0.757928  0.998449  0.750000  1
  Er  Er4  1  0.241284  0.237287  0.750000  1
  Er  Er5  1  0.241284  0.003997  0.250000  1
  Er  Er6  1  0.333917  0.666959  0.500000  1
  Er  Er7  1  0.663024  0.331512  0.000000  1
  Er  Er8  1  0.663024  0.331512  0.500000  1
  Er  Er9  1  0.333917  0.666959  0.000000  1
  In  In10  1  0.395203  0.998797  0.750000  1
  In  In11  1  0.395203  0.396406  0.250000  1
  Sb  Sb12  1  0.999533  0.607969  0.250000  1
  Sb  Sb13  1  0.999533  0.391563  0.750000  1
  Sb  Sb14  1  0.606606  0.606209  0.750000  1
  Sb  Sb15  1  0.606606  0.000396  0.250000  1
