# generated using pymatgen
data_La2Yb3Pt4
_symmetry_space_group_name_H-M   'P 1'
_cell_length_a   7.57125800
_cell_length_b   7.77984700
_cell_length_c   14.68115900
_cell_angle_alpha   90.00000000
_cell_angle_beta   90.00000000
_cell_angle_gamma   90.00000000
_symmetry_Int_Tables_number   1
_chemical_formula_structural   La2Yb3Pt4
_chemical_formula_sum   'La8 Yb12 Pt16'
_cell_volume   864.76766818
_cell_formula_units_Z   4
loop_
 _symmetry_equiv_pos_site_id
 _symmetry_equiv_pos_as_xyz
  1  'x, y, z'
loop_
 _atom_site_type_symbol
 _atom_site_label
 _atom_site_symmetry_multiplicity
 _atom_site_fract_x
 _atom_site_fract_y
 _atom_site_fract_z
 _atom_site_occupancy
  La  La0  1  0.498406  0.677148  0.597888  1
  La  La1  1  0.998406  0.822852  0.902112  1
  La  La2  1  0.501594  0.322852  0.097888  1
  La  La3  1  0.001594  0.177148  0.402112  1
  La  La4  1  0.501594  0.322852  0.402112  1
  La  La5  1  0.001594  0.177148  0.097888  1
  La  La6  1  0.498406  0.677148  0.902112  1
  La  La7  1  0.998406  0.822852  0.597888  1
  Yb  Yb8  1  0.657408  0.169388  0.624540  1
  Yb  Yb9  1  0.157408  0.330612  0.875460  1
  Yb  Yb10  1  0.342592  0.830612  0.124540  1
  Yb  Yb11  1  0.842592  0.669388  0.375460  1
  Yb  Yb12  1  0.342592  0.830612  0.375460  1
  Yb  Yb13  1  0.842592  0.669388  0.124540  1
  Yb  Yb14  1  0.657408  0.169388  0.875460  1
  Yb  Yb15  1  0.157408  0.330612  0.624540  1
  Yb  Yb16  1  0.822010  0.495737  0.750000  1
  Yb  Yb17  1  0.322010  0.004263  0.750000  1
  Yb  Yb18  1  0.177990  0.504263  0.250000  1
  Yb  Yb19  1  0.677990  0.995737  0.250000  1
  Pt  Pt20  1  0.680027  0.968738  0.460512  1
  Pt  Pt21  1  0.180027  0.531262  0.039488  1
  Pt  Pt22  1  0.319973  0.031262  0.960512  1
  Pt  Pt23  1  0.819973  0.468738  0.539488  1
  Pt  Pt24  1  0.319973  0.031262  0.539488  1
  Pt  Pt25  1  0.819973  0.468738  0.960512  1
  Pt  Pt26  1  0.680027  0.968738  0.039488  1
  Pt  Pt27  1  0.180027  0.531262  0.460512  1
  Pt  Pt28  1  0.452732  0.385009  0.750000  1
  Pt  Pt29  1  0.952732  0.114991  0.750000  1
  Pt  Pt30  1  0.547268  0.614991  0.250000  1
  Pt  Pt31  1  0.047268  0.885009  0.250000  1
  Pt  Pt32  1  0.692473  0.856913  0.750000  1
  Pt  Pt33  1  0.192473  0.643087  0.750000  1
  Pt  Pt34  1  0.307527  0.143087  0.250000  1
  Pt  Pt35  1  0.807527  0.356913  0.250000  1
