# generated using pymatgen
data_YTm7Re3B24Rh
_symmetry_space_group_name_H-M   'P 1'
_cell_length_a   3.64553700
_cell_length_b   9.10347665
_cell_length_c   11.47827012
_cell_angle_alpha   90.14025587
_cell_angle_beta   90.00000000
_cell_angle_gamma   90.00000000
_symmetry_Int_Tables_number   1
_chemical_formula_structural   YTm7Re3B24Rh
_chemical_formula_sum   'Y1 Tm7 Re3 B24 Rh1'
_cell_volume   380.92890873
_cell_formula_units_Z   1
loop_
 _symmetry_equiv_pos_site_id
 _symmetry_equiv_pos_as_xyz
  1  'x, y, z'
loop_
 _atom_site_type_symbol
 _atom_site_label
 _atom_site_symmetry_multiplicity
 _atom_site_fract_x
 _atom_site_fract_y
 _atom_site_fract_z
 _atom_site_occupancy
  Y  Y0  1  0.000000  0.317886  0.415527  1
  Tm  Tm1  1  0.000000  0.678733  0.591702  1
  Tm  Tm2  1  0.000000  0.826910  0.080746  1
  Tm  Tm3  1  0.000000  0.177871  0.912609  1
  Tm  Tm4  1  0.000000  0.942871  0.370119  1
  Tm  Tm5  1  0.000000  0.055774  0.629087  1
  Tm  Tm6  1  0.000000  0.441363  0.128442  1
  Tm  Tm7  1  0.000000  0.557062  0.872054  1
  Re  Re8  1  0.000000  0.362526  0.678689  1
  Re  Re9  1  0.000000  0.137612  0.179288  1
  Re  Re10  1  0.000000  0.862041  0.820855  1
  B  B11  1  0.500000  0.554408  0.434209  1
  B  B12  1  0.500000  0.447349  0.567085  1
  B  B13  1  0.500000  0.053125  0.065738  1
  B  B14  1  0.500000  0.947638  0.932803  1
  B  B15  1  0.500000  0.749459  0.420679  1
  B  B16  1  0.500000  0.249864  0.581645  1
  B  B17  1  0.500000  0.249801  0.080380  1
  B  B18  1  0.500000  0.751544  0.919349  1
  B  B19  1  0.500000  0.791342  0.264443  1
  B  B20  1  0.500000  0.208012  0.734955  1
  B  B21  1  0.500000  0.291767  0.234712  1
  B  B22  1  0.500000  0.707984  0.765713  1
  B  B23  1  0.500000  0.631710  0.183315  1
  B  B24  1  0.500000  0.369974  0.815143  1
  B  B25  1  0.500000  0.129417  0.314779  1
  B  B26  1  0.500000  0.868891  0.684899  1
  B  B27  1  0.500000  0.981203  0.211522  1
  B  B28  1  0.500000  0.018458  0.786994  1
  B  B29  1  0.500000  0.482930  0.287369  1
  B  B30  1  0.500000  0.519381  0.712951  1
  B  B31  1  0.500000  0.603773  0.029257  1
  B  B32  1  0.500000  0.398146  0.972207  1
  B  B33  1  0.500000  0.099421  0.471606  1
  B  B34  1  0.500000  0.895682  0.528014  1
  Rh  Rh35  1  0.000000  0.638073  0.321118  1
