# generated using pymatgen
data_TbY3Zn4Ir3Pd
_symmetry_space_group_name_H-M   'P 1'
_cell_length_a   4.10419100
_cell_length_b   7.02004654
_cell_length_c   8.14525392
_cell_angle_alpha   90.09719759
_cell_angle_beta   90.00000000
_cell_angle_gamma   90.00000000
_symmetry_Int_Tables_number   1
_chemical_formula_structural   TbY3Zn4Ir3Pd
_chemical_formula_sum   'Tb1 Y3 Zn4 Ir3 Pd1'
_cell_volume   234.67755651
_cell_formula_units_Z   1
loop_
 _symmetry_equiv_pos_site_id
 _symmetry_equiv_pos_as_xyz
  1  'x, y, z'
loop_
 _atom_site_type_symbol
 _atom_site_label
 _atom_site_symmetry_multiplicity
 _atom_site_fract_x
 _atom_site_fract_y
 _atom_site_fract_z
 _atom_site_occupancy
  Tb  Tb0  1  0.750000  0.964051  0.684304  1
  Y  Y1  1  0.250000  0.029063  0.321352  1
  Y  Y2  1  0.250000  0.544765  0.185267  1
  Y  Y3  1  0.750000  0.470015  0.809610  1
  Zn  Zn4  1  0.250000  0.640467  0.565638  1
  Zn  Zn5  1  0.250000  0.139052  0.932583  1
  Zn  Zn6  1  0.750000  0.359666  0.435724  1
  Zn  Zn7  1  0.750000  0.856911  0.066411  1
  Ir  Ir8  1  0.250000  0.256366  0.619913  1
  Ir  Ir9  1  0.250000  0.759093  0.881668  1
  Ir  Ir10  1  0.750000  0.740486  0.379455  1
  Pd  Pd11  1  0.750000  0.240065  0.118077  1
