# generated using pymatgen
data_Hf18MnRe6AsW2
_symmetry_space_group_name_H-M   'P 1'
_cell_length_a   8.61443400
_cell_length_b   8.61443427
_cell_length_c   8.58693500
_cell_angle_alpha   90.00000000
_cell_angle_beta   90.00000000
_cell_angle_gamma   119.99999895
_symmetry_Int_Tables_number   1
_chemical_formula_structural   Hf18MnRe6AsW2
_chemical_formula_sum   'Hf18 Mn1 Re6 As1 W2'
_cell_volume   551.85161969
_cell_formula_units_Z   1
loop_
 _symmetry_equiv_pos_site_id
 _symmetry_equiv_pos_as_xyz
  1  'x, y, z'
loop_
 _atom_site_type_symbol
 _atom_site_label
 _atom_site_symmetry_multiplicity
 _atom_site_fract_x
 _atom_site_fract_y
 _atom_site_fract_z
 _atom_site_occupancy
  Hf  Hf0  1  0.193558  0.806442  0.454359  1
  Hf  Hf1  1  0.193558  0.387113  0.454359  1
  Hf  Hf2  1  0.612887  0.806442  0.454359  1
  Hf  Hf3  1  0.797789  0.202211  0.556531  1
  Hf  Hf4  1  0.797789  0.595578  0.556531  1
  Hf  Hf5  1  0.404422  0.202211  0.556531  1
  Hf  Hf6  1  0.797789  0.202211  0.943469  1
  Hf  Hf7  1  0.797789  0.595578  0.943469  1
  Hf  Hf8  1  0.404422  0.202211  0.943469  1
  Hf  Hf9  1  0.193558  0.806442  0.045641  1
  Hf  Hf10  1  0.193558  0.387113  0.045641  1
  Hf  Hf11  1  0.612887  0.806442  0.045641  1
  Hf  Hf12  1  0.540790  0.459210  0.250000  1
  Hf  Hf13  1  0.540790  0.081578  0.250000  1
  Hf  Hf14  1  0.918422  0.459210  0.250000  1
  Hf  Hf15  1  0.461660  0.538340  0.750000  1
  Hf  Hf16  1  0.461660  0.923320  0.750000  1
  Hf  Hf17  1  0.076680  0.538340  0.750000  1
  Mn  Mn18  1  0.666667  0.333333  0.750000  1
  Re  Re19  1  0.888722  0.111278  0.250000  1
  Re  Re20  1  0.888722  0.777444  0.250000  1
  Re  Re21  1  0.222556  0.111278  0.250000  1
  Re  Re22  1  0.111179  0.888821  0.750000  1
  Re  Re23  1  0.111179  0.222358  0.750000  1
  Re  Re24  1  0.777642  0.888821  0.750000  1
  As  As25  1  0.333333  0.666667  0.250000  1
  W  W26  1  0.000000  0.000000  0.499722  1
  W  W27  1  0.000000  0.000000  0.000278  1
