# generated using pymatgen
data_Nd3Co4P6Ru5
_symmetry_space_group_name_H-M   'P 1'
_cell_length_a   3.91076600
_cell_length_b   10.79811300
_cell_length_c   12.67201500
_cell_angle_alpha   90.00000000
_cell_angle_beta   90.00000000
_cell_angle_gamma   90.00000000
_symmetry_Int_Tables_number   1
_chemical_formula_structural   Nd3Co4P6Ru5
_chemical_formula_sum   'Nd6 Co8 P12 Ru10'
_cell_volume   535.12516787
_cell_formula_units_Z   2
loop_
 _symmetry_equiv_pos_site_id
 _symmetry_equiv_pos_as_xyz
  1  'x, y, z'
loop_
 _atom_site_type_symbol
 _atom_site_label
 _atom_site_symmetry_multiplicity
 _atom_site_fract_x
 _atom_site_fract_y
 _atom_site_fract_z
 _atom_site_occupancy
  Nd  Nd0  1  0.000000  0.500000  0.526497  1
  Nd  Nd1  1  0.500000  0.000000  0.473503  1
  Nd  Nd2  1  0.500000  0.819909  0.200289  1
  Nd  Nd3  1  0.500000  0.180091  0.200289  1
  Nd  Nd4  1  0.000000  0.680091  0.799711  1
  Nd  Nd5  1  0.000000  0.319909  0.799711  1
  Co  Co6  1  0.000000  0.500000  0.985723  1
  Co  Co7  1  0.500000  0.000000  0.014277  1
  Co  Co8  1  0.500000  0.332186  0.990920  1
  Co  Co9  1  0.500000  0.667814  0.990920  1
  Co  Co10  1  0.000000  0.167814  0.009080  1
  Co  Co11  1  0.000000  0.832186  0.009080  1
  Co  Co12  1  0.500000  0.500000  0.701372  1
  Co  Co13  1  0.000000  0.000000  0.298628  1
  P  P14  1  0.500000  0.309846  0.616999  1
  P  P15  1  0.500000  0.690154  0.616999  1
  P  P16  1  0.000000  0.190154  0.383001  1
  P  P17  1  0.000000  0.809846  0.383001  1
  P  P18  1  0.500000  0.500000  0.884868  1
  P  P19  1  0.000000  0.000000  0.115132  1
  P  P20  1  0.500000  0.847312  0.902339  1
  P  P21  1  0.500000  0.152688  0.902339  1
  P  P22  1  0.000000  0.652688  0.097661  1
  P  P23  1  0.000000  0.347312  0.097661  1
  P  P24  1  0.500000  0.500000  0.334146  1
  P  P25  1  0.000000  0.000000  0.665854  1
  Ru  Ru26  1  0.500000  0.298106  0.427088  1
  Ru  Ru27  1  0.500000  0.701894  0.427088  1
  Ru  Ru28  1  0.000000  0.201894  0.572912  1
  Ru  Ru29  1  0.000000  0.798106  0.572912  1
  Ru  Ru30  1  0.500000  0.877269  0.719148  1
  Ru  Ru31  1  0.500000  0.122731  0.719148  1
  Ru  Ru32  1  0.000000  0.622731  0.280852  1
  Ru  Ru33  1  0.000000  0.377269  0.280852  1
  Ru  Ru34  1  0.500000  0.500000  0.146305  1
  Ru  Ru35  1  0.000000  0.000000  0.853695  1
