# generated using pymatgen
data_La15Nd(CdIr)4
_symmetry_space_group_name_H-M   'P 1'
_cell_length_a   10.12364851
_cell_length_b   10.12364856
_cell_length_c   10.12453200
_cell_angle_alpha   59.99711326
_cell_angle_beta   59.99711309
_cell_angle_gamma   59.93927483
_symmetry_Int_Tables_number   1
_chemical_formula_structural   La15Nd(CdIr)4
_chemical_formula_sum   'La15 Nd1 Cd4 Ir4'
_cell_volume   733.35699124
_cell_formula_units_Z   1
loop_
 _symmetry_equiv_pos_site_id
 _symmetry_equiv_pos_as_xyz
  1  'x, y, z'
loop_
 _atom_site_type_symbol
 _atom_site_label
 _atom_site_symmetry_multiplicity
 _atom_site_fract_x
 _atom_site_fract_y
 _atom_site_fract_z
 _atom_site_occupancy
  La  La0  1  0.347322  0.347322  0.347499  1
  La  La1  1  0.347322  0.347322  0.957857  1
  La  La2  1  0.347157  0.957022  0.347911  1
  La  La3  1  0.957022  0.347157  0.347911  1
  La  La4  1  0.810047  0.189678  0.190675  1
  La  La5  1  0.189678  0.810047  0.809599  1
  La  La6  1  0.189678  0.810047  0.190675  1
  La  La7  1  0.810047  0.189678  0.809599  1
  La  La8  1  0.189906  0.189906  0.810094  1
  La  La9  1  0.809875  0.809875  0.190125  1
  La  La10  1  0.938749  0.561741  0.561604  1
  La  La11  1  0.561741  0.938749  0.937906  1
  La  La12  1  0.561741  0.938749  0.561604  1
  La  La13  1  0.938749  0.561741  0.937906  1
  La  La14  1  0.561542  0.561542  0.938458  1
  Nd  Nd15  1  0.938644  0.938644  0.561356  1
  Cd  Cd16  1  0.579461  0.579461  0.579441  1
  Cd  Cd17  1  0.579461  0.579461  0.261635  1
  Cd  Cd18  1  0.580103  0.261001  0.579447  1
  Cd  Cd19  1  0.261001  0.580103  0.579447  1
  Ir  Ir20  1  0.141355  0.141355  0.140921  1
  Ir  Ir21  1  0.141355  0.141355  0.576369  1
  Ir  Ir22  1  0.141394  0.576648  0.140978  1
  Ir  Ir23  1  0.576648  0.141394  0.140978  1
