# generated using pymatgen
data_Sm2DyNp7O20
_symmetry_space_group_name_H-M   'P 1'
_cell_length_a   6.60539379
_cell_length_b   7.62947760
_cell_length_c   8.52763072
_cell_angle_alpha   102.81857077
_cell_angle_beta   97.29360238
_cell_angle_gamma   106.87356055
_symmetry_Int_Tables_number   1
_chemical_formula_structural   Sm2DyNp7O20
_chemical_formula_sum   'Sm2 Dy1 Np7 O20'
_cell_volume   392.48186018
_cell_formula_units_Z   1
loop_
 _symmetry_equiv_pos_site_id
 _symmetry_equiv_pos_as_xyz
  1  'x, y, z'
loop_
 _atom_site_type_symbol
 _atom_site_label
 _atom_site_symmetry_multiplicity
 _atom_site_fract_x
 _atom_site_fract_y
 _atom_site_fract_z
 _atom_site_occupancy
  Sm  Sm0  1  0.800371  0.600679  0.600997  1
  Sm  Sm1  1  0.599837  0.199530  0.199280  1
  Dy  Dy2  1  0.000190  0.999962  0.000373  1
  Np  Np3  1  0.000779  0.500619  0.000744  1
  Np  Np4  1  0.800413  0.100084  0.600997  1
  Np  Np5  1  0.600103  0.700045  0.198890  1
  Np  Np6  1  0.199361  0.398719  0.398007  1
  Np  Np7  1  0.398599  0.297927  0.800005  1
  Np  Np8  1  0.200001  0.901381  0.399252  1
  Np  Np9  1  0.400120  0.801120  0.801390  1
  O  O10  1  0.862434  0.318410  0.455372  1
  O  O11  1  0.643759  0.911295  0.048490  1
  O  O12  1  0.950824  0.768478  0.153743  1
  O  O13  1  0.856651  0.835062  0.446120  1
  O  O14  1  0.437440  0.519771  0.655201  1
  O  O15  1  0.650492  0.434048  0.045042  1
  O  O16  1  0.744173  0.364931  0.754427  1
  O  O17  1  0.242161  0.123021  0.258662  1
  O  O18  1  0.446506  0.027045  0.646571  1
  O  O19  1  0.961500  0.286793  0.149060  1
  O  O20  1  0.546716  0.966195  0.356086  1
  O  O21  1  0.059835  0.720394  0.855132  1
  O  O22  1  0.249743  0.628726  0.246052  1
  O  O23  1  0.740947  0.883266  0.748058  1
  O  O24  1  0.348891  0.571284  0.952775  1
  O  O25  1  0.052442  0.231245  0.845302  1
  O  O26  1  0.539647  0.482985  0.346801  1
  O  O27  1  0.153491  0.172634  0.553819  1
  O  O28  1  0.350516  0.074365  0.939002  1
  O  O29  1  0.162058  0.679987  0.544351  1
