# generated using pymatgen
data_Na2RhF6
_symmetry_space_group_name_H-M   'P 1'
_cell_length_a   9.34288200
_cell_length_b   9.34288273
_cell_length_c   5.33880200
_cell_angle_alpha   90.00000000
_cell_angle_beta   90.00000000
_cell_angle_gamma   119.99999741
_symmetry_Int_Tables_number   1
_chemical_formula_structural   Na2RhF6
_chemical_formula_sum   'Na6 Rh3 F18'
_cell_volume   403.58611748
_cell_formula_units_Z   3
loop_
 _symmetry_equiv_pos_site_id
 _symmetry_equiv_pos_as_xyz
  1  'x, y, z'
loop_
 _atom_site_type_symbol
 _atom_site_label
 _atom_site_symmetry_multiplicity
 _atom_site_fract_x
 _atom_site_fract_y
 _atom_site_fract_z
 _atom_site_occupancy
  Na  Na0  1  0.291694  0.000000  0.500000  1
  Na  Na1  1  0.000000  0.291694  0.500000  1
  Na  Na2  1  0.708306  0.708306  0.500000  1
  Na  Na3  1  0.625870  0.000000  0.000000  1
  Na  Na4  1  0.000000  0.625870  0.000000  1
  Na  Na5  1  0.374130  0.374130  0.000000  1
  Rh  Rh6  1  0.333333  0.666667  0.494002  1
  Rh  Rh7  1  0.666667  0.333333  0.505998  1
  Rh  Rh8  1  0.000000  0.000000  0.000000  1
  F  F9  1  0.468981  0.251149  0.297482  1
  F  F10  1  0.748851  0.217832  0.297482  1
  F  F11  1  0.251149  0.468981  0.702518  1
  F  F12  1  0.782168  0.531019  0.297482  1
  F  F13  1  0.217832  0.748851  0.702518  1
  F  F14  1  0.531019  0.782168  0.702518  1
  F  F15  1  0.107430  0.200188  0.204618  1
  F  F16  1  0.799812  0.907241  0.204618  1
  F  F17  1  0.200188  0.107430  0.795382  1
  F  F18  1  0.092759  0.892570  0.204618  1
  F  F19  1  0.907241  0.799812  0.795382  1
  F  F20  1  0.892570  0.092759  0.795382  1
  F  F21  1  0.137050  0.545929  0.284949  1
  F  F22  1  0.454071  0.591122  0.284949  1
  F  F23  1  0.545929  0.137050  0.715051  1
  F  F24  1  0.408878  0.862950  0.284949  1
  F  F25  1  0.591122  0.454071  0.715051  1
  F  F26  1  0.862950  0.408878  0.715051  1
