# generated using pymatgen
data_CaBiRu2O7
_symmetry_space_group_name_H-M   'P 1'
_cell_length_a   7.29780294
_cell_length_b   7.29780203
_cell_length_c   7.29780320
_cell_angle_alpha   119.85714184
_cell_angle_beta   120.17363670
_cell_angle_gamma   89.97355761
_symmetry_Int_Tables_number   1
_chemical_formula_structural   CaBiRu2O7
_chemical_formula_sum   'Ca2 Bi2 Ru4 O14'
_cell_volume   274.76168073
_cell_formula_units_Z   2
loop_
 _symmetry_equiv_pos_site_id
 _symmetry_equiv_pos_as_xyz
  1  'x, y, z'
loop_
 _atom_site_type_symbol
 _atom_site_label
 _atom_site_symmetry_multiplicity
 _atom_site_fract_x
 _atom_site_fract_y
 _atom_site_fract_z
 _atom_site_occupancy
  Ca  Ca0  1  0.500000  0.500000  0.000000  1
  Ca  Ca1  1  0.000000  0.500000  0.500000  1
  Bi  Bi2  1  0.500000  0.500000  0.500000  1
  Bi  Bi3  1  0.500000  0.000000  0.000000  1
  Ru  Ru4  1  0.000000  0.000000  0.500000  1
  Ru  Ru5  1  0.000000  0.500000  0.000000  1
  Ru  Ru6  1  0.000000  0.000000  0.000000  1
  Ru  Ru7  1  0.500000  0.000000  0.500000  1
  O  O8  1  0.326610  0.066756  0.650269  1
  O  O9  1  0.916487  0.066756  0.240146  1
  O  O10  1  0.927202  0.677202  0.250000  1
  O  O11  1  0.916487  0.676341  0.849731  1
  O  O12  1  0.326610  0.676341  0.259854  1
  O  O13  1  0.327980  0.077980  0.250000  1
  O  O14  1  0.673390  0.933244  0.349731  1
  O  O15  1  0.083513  0.933244  0.759854  1
  O  O16  1  0.072798  0.322798  0.750000  1
  O  O17  1  0.083513  0.323659  0.150269  1
  O  O18  1  0.673390  0.323659  0.740146  1
  O  O19  1  0.672020  0.922020  0.750000  1
  O  O20  1  0.626067  0.376067  0.250000  1
  O  O21  1  0.373933  0.623933  0.750000  1
