# generated using pymatgen
data_CaSi2Ni9
_symmetry_space_group_name_H-M   'P 1'
_cell_length_a   7.57270100
_cell_length_b   7.57266105
_cell_length_c   7.57267540
_cell_angle_alpha   99.58419209
_cell_angle_beta   99.58159851
_cell_angle_gamma   131.83987222
_symmetry_Int_Tables_number   1
_chemical_formula_structural   CaSi2Ni9
_chemical_formula_sum   'Ca2 Si4 Ni18'
_cell_volume   295.37342375
_cell_formula_units_Z   2
loop_
 _symmetry_equiv_pos_site_id
 _symmetry_equiv_pos_as_xyz
  1  'x, y, z'
loop_
 _atom_site_type_symbol
 _atom_site_label
 _atom_site_symmetry_multiplicity
 _atom_site_fract_x
 _atom_site_fract_y
 _atom_site_fract_z
 _atom_site_occupancy
  Ca  Ca0  1  0.499997  0.499997  0.999998  1
  Ca  Ca1  1  0.750003  0.250003  0.500002  1
  Si  Si2  1  0.625000  0.875000  0.750000  1
  Si  Si3  1  0.125000  0.375000  0.250000  1
  Si  Si4  1  0.125000  0.875000  0.750000  1
  Si  Si5  1  0.125000  0.875000  0.250000  1
  Ni  Ni6  1  0.250000  0.750000  0.500001  1
  Ni  Ni7  1  0.000000  0.000000  0.999999  1
  Ni  Ni8  1  0.686434  0.013481  0.078689  1
  Ni  Ni9  1  0.686434  0.607745  0.672954  1
  Ni  Ni10  1  0.263480  0.436434  0.578691  1
  Ni  Ni11  1  0.263480  0.684789  0.827046  1
  Ni  Ni12  1  0.934793  0.013483  0.327049  1
  Ni  Ni13  1  0.934791  0.607745  0.921309  1
  Ni  Ni14  1  0.857745  0.436434  0.172954  1
  Ni  Ni15  1  0.857745  0.684790  0.421310  1
  Ni  Ni16  1  0.563566  0.736519  0.421311  1
  Ni  Ni17  1  0.563566  0.142255  0.827046  1
  Ni  Ni18  1  0.986520  0.313566  0.921309  1
  Ni  Ni19  1  0.986520  0.065211  0.672954  1
  Ni  Ni20  1  0.315207  0.736517  0.172951  1
  Ni  Ni21  1  0.315209  0.142255  0.578691  1
  Ni  Ni22  1  0.392255  0.313566  0.327046  1
  Ni  Ni23  1  0.392255  0.065210  0.078690  1
