# generated using pymatgen
data_Nd3Gd(CuSe2)4
_symmetry_space_group_name_H-M   'P 1'
_cell_length_a   7.47406991
_cell_length_b   6.71809633
_cell_length_c   7.20286832
_cell_angle_alpha   83.54263607
_cell_angle_beta   89.96652274
_cell_angle_gamma   90.07056453
_symmetry_Int_Tables_number   1
_chemical_formula_structural   Nd3Gd(CuSe2)4
_chemical_formula_sum   'Nd3 Gd1 Cu4 Se8'
_cell_volume   359.37213006
_cell_formula_units_Z   1
loop_
 _symmetry_equiv_pos_site_id
 _symmetry_equiv_pos_as_xyz
  1  'x, y, z'
loop_
 _atom_site_type_symbol
 _atom_site_label
 _atom_site_symmetry_multiplicity
 _atom_site_fract_x
 _atom_site_fract_y
 _atom_site_fract_z
 _atom_site_occupancy
  Nd  Nd0  1  0.046010  0.694518  0.200528  1
  Nd  Nd1  1  0.455527  0.691928  0.700814  1
  Nd  Nd2  1  0.955267  0.307753  0.798850  1
  Gd  Gd3  1  0.545117  0.305716  0.299395  1
  Cu  Cu4  1  0.837865  0.930913  0.543965  1
  Cu  Cu5  1  0.160899  0.068454  0.454156  1
  Cu  Cu6  1  0.659898  0.931019  0.046270  1
  Cu  Cu7  1  0.340135  0.068628  0.954077  1
  Se  Se8  1  0.721000  0.578603  0.005187  1
  Se  Se9  1  0.775376  0.578222  0.500013  1
  Se  Se10  1  0.227528  0.418057  0.495474  1
  Se  Se11  1  0.278334  0.418038  0.001012  1
  Se  Se12  1  0.611103  0.098969  0.719684  1
  Se  Se13  1  0.110699  0.901292  0.778788  1
  Se  Se14  1  0.390298  0.906157  0.279886  1
  Se  Se15  1  0.884945  0.101734  0.221902  1
