# generated using pymatgen
data_La4Al18(IrPd)3
_symmetry_space_group_name_H-M   'P 1'
_cell_length_a   7.69954243
_cell_length_b   7.69954327
_cell_length_c   9.63033100
_cell_angle_alpha   89.98088291
_cell_angle_beta   89.98088291
_cell_angle_gamma   119.53386687
_symmetry_Int_Tables_number   1
_chemical_formula_structural   La4Al18(IrPd)3
_chemical_formula_sum   'La4 Al18 Ir3 Pd3'
_cell_volume   496.73234213
_cell_formula_units_Z   1
loop_
 _symmetry_equiv_pos_site_id
 _symmetry_equiv_pos_as_xyz
  1  'x, y, z'
loop_
 _atom_site_type_symbol
 _atom_site_label
 _atom_site_symmetry_multiplicity
 _atom_site_fract_x
 _atom_site_fract_y
 _atom_site_fract_z
 _atom_site_occupancy
  La  La0  1  0.995258  0.670517  0.250311  1
  La  La1  1  0.003264  0.328539  0.749799  1
  La  La2  1  0.671461  0.996736  0.250201  1
  La  La3  1  0.329483  0.004742  0.749689  1
  Al  Al4  1  0.136445  0.135415  0.250644  1
  Al  Al5  1  0.864585  0.863555  0.749356  1
  Al  Al6  1  0.008795  0.339373  0.075530  1
  Al  Al7  1  0.999057  0.664802  0.925174  1
  Al  Al8  1  0.997108  0.660603  0.572913  1
  Al  Al9  1  0.339397  0.002892  0.427087  1
  Al  Al10  1  0.003429  0.339334  0.426620  1
  Al  Al11  1  0.660666  0.996571  0.573380  1
  Al  Al12  1  0.660627  0.991205  0.924470  1
  Al  Al13  1  0.335198  0.000943  0.074826  1
  Al  Al14  1  0.337831  0.337952  0.547580  1
  Al  Al15  1  0.662048  0.662169  0.452420  1
  Al  Al16  1  0.660614  0.663722  0.052644  1
  Al  Al17  1  0.336278  0.339386  0.947356  1
  Al  Al18  1  0.341281  0.547540  0.250617  1
  Al  Al19  1  0.659475  0.455318  0.746544  1
  Al  Al20  1  0.544682  0.340525  0.253456  1
  Al  Al21  1  0.452460  0.658719  0.749383  1
  Ir  Ir22  1  0.329112  0.670888  0.000000  1
  Ir  Ir23  1  0.329231  0.670769  0.500000  1
  Ir  Ir24  1  0.671045  0.328955  0.500000  1
  Pd  Pd25  1  0.671364  0.328636  0.000000  1
  Pd  Pd26  1  0.999989  0.000011  0.000000  1
  Pd  Pd27  1  0.999820  0.000180  0.500000  1
