# generated using pymatgen
data_Mn8Fe4Si19Ge
_symmetry_space_group_name_H-M   'P 1'
_cell_length_a   5.46551252
_cell_length_b   5.46565433
_cell_length_c   12.88639669
_cell_angle_alpha   90.02177909
_cell_angle_beta   90.17542459
_cell_angle_gamma   90.07737974
_symmetry_Int_Tables_number   1
_chemical_formula_structural   Mn8Fe4Si19Ge
_chemical_formula_sum   'Mn8 Fe4 Si19 Ge1'
_cell_volume   384.94801787
_cell_formula_units_Z   1
loop_
 _symmetry_equiv_pos_site_id
 _symmetry_equiv_pos_as_xyz
  1  'x, y, z'
loop_
 _atom_site_type_symbol
 _atom_site_label
 _atom_site_symmetry_multiplicity
 _atom_site_fract_x
 _atom_site_fract_y
 _atom_site_fract_z
 _atom_site_occupancy
  Mn  Mn0  1  0.498561  0.999549  0.757883  1
  Mn  Mn1  1  0.001806  0.500673  0.255816  1
  Mn  Mn2  1  0.000078  0.000291  0.002487  1
  Mn  Mn3  1  0.501786  0.503651  0.501352  1
  Mn  Mn4  1  0.003240  0.000636  0.326561  1
  Mn  Mn5  1  0.995464  0.000193  0.679428  1
  Mn  Mn6  1  0.499106  0.499742  0.827596  1
  Mn  Mn7  1  0.501338  0.500363  0.176561  1
  Fe  Fe8  1  0.500837  0.000243  0.087828  1
  Fe  Fe9  1  0.999578  0.500390  0.914794  1
  Fe  Fe10  1  0.996478  0.505149  0.588118  1
  Fe  Fe11  1  0.505758  0.999656  0.411313  1
  Si  Si12  1  0.675932  0.167875  0.248560  1
  Si  Si13  1  0.824688  0.668253  0.750364  1
  Si  Si14  1  0.329625  0.833295  0.248787  1
  Si  Si15  1  0.170458  0.332771  0.751020  1
  Si  Si16  1  0.156341  0.192023  0.155087  1
  Si  Si17  1  0.817593  0.160781  0.846158  1
  Si  Si18  1  0.846009  0.808431  0.155054  1
  Si  Si19  1  0.179742  0.839784  0.845926  1
  Si  Si20  1  0.345506  0.689358  0.656582  1
  Si  Si21  1  0.682953  0.660921  0.344223  1
  Si  Si22  1  0.655550  0.308118  0.656322  1
  Si  Si23  1  0.323720  0.339612  0.342900  1
  Si  Si24  1  0.352131  0.206918  0.940117  1
  Si  Si25  1  0.773384  0.351729  0.054487  1
  Si  Si26  1  0.647083  0.793382  0.939990  1
  Si  Si27  1  0.227124  0.648805  0.054722  1
  Si  Si28  1  0.146982  0.698953  0.436577  1
  Si  Si29  1  0.729474  0.850656  0.554029  1
  Si  Si30  1  0.848358  0.294035  0.438604  1
  Ge  Ge31  1  0.263316  0.143765  0.550756  1
