# generated using pymatgen
data_Ce4Dy5HoRu4
_symmetry_space_group_name_H-M   'P 1'
_cell_length_a   6.37578258
_cell_length_b   7.03676105
_cell_length_c   8.82339202
_cell_angle_alpha   95.40938784
_cell_angle_beta   111.18005482
_cell_angle_gamma   89.99999763
_symmetry_Int_Tables_number   1
_chemical_formula_structural   Ce4Dy5HoRu4
_chemical_formula_sum   'Ce4 Dy5 Ho1 Ru4'
_cell_volume   367.22842848
_cell_formula_units_Z   1
loop_
 _symmetry_equiv_pos_site_id
 _symmetry_equiv_pos_as_xyz
  1  'x, y, z'
loop_
 _atom_site_type_symbol
 _atom_site_label
 _atom_site_symmetry_multiplicity
 _atom_site_fract_x
 _atom_site_fract_y
 _atom_site_fract_z
 _atom_site_occupancy
  Ce  Ce0  1  0.981820  0.904490  0.189361  1
  Ce  Ce1  1  0.792458  0.595510  0.810639  1
  Ce  Ce2  1  0.018158  0.095526  0.810698  1
  Ce  Ce3  1  0.207460  0.404474  0.189302  1
  Dy  Dy4  1  0.641116  0.815457  0.433348  1
  Dy  Dy5  1  0.207768  0.684543  0.566652  1
  Dy  Dy6  1  0.358989  0.184585  0.566786  1
  Dy  Dy7  1  0.792203  0.315415  0.433214  1
  Dy  Dy8  1  0.419350  0.750000  0.000000  1
  Ho  Ho9  1  0.580616  0.250000  0.000000  1
  Ru  Ru10  1  0.847445  0.592678  0.220825  1
  Ru  Ru11  1  0.626621  0.907322  0.779175  1
  Ru  Ru12  1  0.152587  0.407112  0.779180  1
  Ru  Ru13  1  0.373408  0.092888  0.220820  1
