# generated using pymatgen
data_Nb10Ge6BH
_symmetry_space_group_name_H-M   'P 1'
_cell_length_a   7.73556900
_cell_length_b   7.73556989
_cell_length_c   5.37326400
_cell_angle_alpha   90.00000000
_cell_angle_beta   90.00000000
_cell_angle_gamma   120.00000049
_symmetry_Int_Tables_number   1
_chemical_formula_structural   Nb10Ge6BH
_chemical_formula_sum   'Nb10 Ge6 B1 H1'
_cell_volume   278.45395246
_cell_formula_units_Z   1
loop_
 _symmetry_equiv_pos_site_id
 _symmetry_equiv_pos_as_xyz
  1  'x, y, z'
loop_
 _atom_site_type_symbol
 _atom_site_label
 _atom_site_symmetry_multiplicity
 _atom_site_fract_x
 _atom_site_fract_y
 _atom_site_fract_z
 _atom_site_occupancy
  Nb  Nb0  1  0.666667  0.333333  0.500000  1
  Nb  Nb1  1  0.333333  0.666667  0.500000  1
  Nb  Nb2  1  0.333333  0.666667  0.000000  1
  Nb  Nb3  1  0.666667  0.333333  0.000000  1
  Nb  Nb4  1  0.758479  0.758479  0.251567  1
  Nb  Nb5  1  0.241521  0.000000  0.251567  1
  Nb  Nb6  1  0.000000  0.241521  0.251567  1
  Nb  Nb7  1  0.241521  0.241521  0.748433  1
  Nb  Nb8  1  0.758479  0.000000  0.748433  1
  Nb  Nb9  1  0.000000  0.758479  0.748433  1
  Ge  Ge10  1  0.398142  0.398142  0.252683  1
  Ge  Ge11  1  0.601858  0.000000  0.252683  1
  Ge  Ge12  1  0.000000  0.601858  0.252683  1
  Ge  Ge13  1  0.601858  0.601858  0.747317  1
  Ge  Ge14  1  0.398142  0.000000  0.747317  1
  Ge  Ge15  1  0.000000  0.398142  0.747317  1
  B  B16  1  0.000000  0.000000  0.000000  1
  H  H17  1  0.000000  0.000000  0.500000  1
