# generated using pymatgen
data_Sc3Al3Ga2Os
_symmetry_space_group_name_H-M   'P 1'
_cell_length_a   6.69230000
_cell_length_b   6.69230016
_cell_length_c   4.16043800
_cell_angle_alpha   90.00000000
_cell_angle_beta   90.00000000
_cell_angle_gamma   119.99999919
_symmetry_Int_Tables_number   1
_chemical_formula_structural   Sc3Al3Ga2Os
_chemical_formula_sum   'Sc3 Al3 Ga2 Os1'
_cell_volume   161.36914674
_cell_formula_units_Z   1
loop_
 _symmetry_equiv_pos_site_id
 _symmetry_equiv_pos_as_xyz
  1  'x, y, z'
loop_
 _atom_site_type_symbol
 _atom_site_label
 _atom_site_symmetry_multiplicity
 _atom_site_fract_x
 _atom_site_fract_y
 _atom_site_fract_z
 _atom_site_occupancy
  Sc  Sc0  1  0.419151  0.000000  0.000000  1
  Sc  Sc1  1  0.000000  0.419150  0.000000  1
  Sc  Sc2  1  0.580849  0.580850  0.000000  1
  Al  Al3  1  0.765251  0.000000  0.500001  1
  Al  Al4  1  0.234749  0.234749  0.500001  1
  Al  Al5  1  0.000000  0.765251  0.500001  1
  Ga  Ga6  1  0.666666  0.333333  0.500001  1
  Ga  Ga7  1  0.333333  0.666667  0.500001  1
  Os  Os8  1  0.000000  0.000000  0.000000  1
