# generated using pymatgen
data_CaLa3PrIr3
_symmetry_space_group_name_H-M   'P 1'
_cell_length_a   11.42333200
_cell_length_b   11.40567900
_cell_length_c   6.52946800
_cell_angle_alpha   90.00000000
_cell_angle_beta   90.00000000
_cell_angle_gamma   90.00000000
_symmetry_Int_Tables_number   1
_chemical_formula_structural   CaLa3PrIr3
_chemical_formula_sum   'Ca4 La12 Pr4 Ir12'
_cell_volume   850.72998737
_cell_formula_units_Z   4
loop_
 _symmetry_equiv_pos_site_id
 _symmetry_equiv_pos_as_xyz
  1  'x, y, z'
loop_
 _atom_site_type_symbol
 _atom_site_label
 _atom_site_symmetry_multiplicity
 _atom_site_fract_x
 _atom_site_fract_y
 _atom_site_fract_z
 _atom_site_occupancy
  Ca  Ca0  1  0.000000  0.000000  0.500351  1
  Ca  Ca1  1  0.000000  0.000000  0.000351  1
  Ca  Ca2  1  0.500000  0.500000  0.999687  1
  Ca  Ca3  1  0.500000  0.500000  0.499687  1
  La  La4  1  0.590367  0.790240  0.889965  1
  La  La5  1  0.590367  0.209760  0.389965  1
  La  La6  1  0.409633  0.790240  0.389965  1
  La  La7  1  0.409633  0.209760  0.889965  1
  La  La8  1  0.211093  0.409041  0.610048  1
  La  La9  1  0.211093  0.590959  0.110048  1
  La  La10  1  0.788907  0.409041  0.110048  1
  La  La11  1  0.788907  0.590959  0.610048  1
  La  La12  1  0.909531  0.711581  0.110452  1
  La  La13  1  0.909531  0.288419  0.610452  1
  La  La14  1  0.090469  0.711581  0.610452  1
  La  La15  1  0.090469  0.288419  0.110452  1
  Pr  Pr16  1  0.289057  0.088969  0.387619  1
  Pr  Pr17  1  0.289057  0.911031  0.887619  1
  Pr  Pr18  1  0.710943  0.088969  0.887619  1
  Pr  Pr19  1  0.710943  0.911031  0.387619  1
  Ir  Ir20  1  0.842356  0.158881  0.252400  1
  Ir  Ir21  1  0.842356  0.841119  0.752400  1
  Ir  Ir22  1  0.157644  0.158881  0.752400  1
  Ir  Ir23  1  0.157644  0.841119  0.252400  1
  Ir  Ir24  1  0.658415  0.341989  0.749699  1
  Ir  Ir25  1  0.658415  0.658011  0.249699  1
  Ir  Ir26  1  0.341585  0.341989  0.249699  1
  Ir  Ir27  1  0.341585  0.658011  0.749699  1
  Ir  Ir28  1  0.500000  0.000000  0.113841  1
  Ir  Ir29  1  0.500000  0.000000  0.613841  1
  Ir  Ir30  1  0.000000  0.500000  0.885753  1
  Ir  Ir31  1  0.000000  0.500000  0.385753  1
