# generated using pymatgen
data_Dy3Nb(Ni4As3)2
_symmetry_space_group_name_H-M   'P 1'
_cell_length_a   3.90563200
_cell_length_b   11.11837900
_cell_length_c   12.75296200
_cell_angle_alpha   90.00000000
_cell_angle_beta   90.00000000
_cell_angle_gamma   90.00000000
_symmetry_Int_Tables_number   1
_chemical_formula_structural   Dy3Nb(Ni4As3)2
_chemical_formula_sum   'Dy6 Nb2 Ni16 As12'
_cell_volume   553.78840710
_cell_formula_units_Z   2
loop_
 _symmetry_equiv_pos_site_id
 _symmetry_equiv_pos_as_xyz
  1  'x, y, z'
loop_
 _atom_site_type_symbol
 _atom_site_label
 _atom_site_symmetry_multiplicity
 _atom_site_fract_x
 _atom_site_fract_y
 _atom_site_fract_z
 _atom_site_occupancy
  Dy  Dy0  1  0.000000  0.500000  0.526649  1
  Dy  Dy1  1  0.500000  0.000000  0.473351  1
  Dy  Dy2  1  0.500000  0.820763  0.206531  1
  Dy  Dy3  1  0.500000  0.179237  0.206531  1
  Dy  Dy4  1  0.000000  0.679237  0.793469  1
  Dy  Dy5  1  0.000000  0.320763  0.793469  1
  Nb  Nb6  1  0.500000  0.500000  0.150413  1
  Nb  Nb7  1  0.000000  0.000000  0.849587  1
  Ni  Ni8  1  0.500000  0.500000  0.698660  1
  Ni  Ni9  1  0.000000  0.000000  0.301340  1
  Ni  Ni10  1  0.000000  0.500000  0.984139  1
  Ni  Ni11  1  0.500000  0.000000  0.015861  1
  Ni  Ni12  1  0.500000  0.335409  0.991195  1
  Ni  Ni13  1  0.500000  0.664591  0.991195  1
  Ni  Ni14  1  0.000000  0.164591  0.008805  1
  Ni  Ni15  1  0.000000  0.835409  0.008805  1
  Ni  Ni16  1  0.500000  0.302534  0.427182  1
  Ni  Ni17  1  0.500000  0.697466  0.427182  1
  Ni  Ni18  1  0.000000  0.197466  0.572818  1
  Ni  Ni19  1  0.000000  0.802534  0.572818  1
  Ni  Ni20  1  0.500000  0.879593  0.707125  1
  Ni  Ni21  1  0.500000  0.120407  0.707125  1
  Ni  Ni22  1  0.000000  0.620407  0.292875  1
  Ni  Ni23  1  0.000000  0.379593  0.292875  1
  As  As24  1  0.500000  0.500000  0.877787  1
  As  As25  1  0.000000  0.000000  0.122213  1
  As  As26  1  0.500000  0.500000  0.352886  1
  As  As27  1  0.000000  0.000000  0.647114  1
  As  As28  1  0.500000  0.313809  0.614270  1
  As  As29  1  0.500000  0.686191  0.614270  1
  As  As30  1  0.000000  0.186191  0.385730  1
  As  As31  1  0.000000  0.813809  0.385730  1
  As  As32  1  0.500000  0.839840  0.890957  1
  As  As33  1  0.500000  0.160160  0.890957  1
  As  As34  1  0.000000  0.660160  0.109043  1
  As  As35  1  0.000000  0.339840  0.109043  1
