# generated using pymatgen
data_Pr3Th(ReB2)6
_symmetry_space_group_name_H-M   'P 1'
_cell_length_a   6.35178556
_cell_length_b   6.35400516
_cell_length_c   7.65294377
_cell_angle_alpha   90.50040929
_cell_angle_beta   90.77995164
_cell_angle_gamma   114.89472275
_symmetry_Int_Tables_number   1
_chemical_formula_structural   Pr3Th(ReB2)6
_chemical_formula_sum   'Pr3 Th1 Re6 B12'
_cell_volume   280.10661916
_cell_formula_units_Z   1
loop_
 _symmetry_equiv_pos_site_id
 _symmetry_equiv_pos_as_xyz
  1  'x, y, z'
loop_
 _atom_site_type_symbol
 _atom_site_label
 _atom_site_symmetry_multiplicity
 _atom_site_fract_x
 _atom_site_fract_y
 _atom_site_fract_z
 _atom_site_occupancy
  Pr  Pr0  1  0.559355  0.905755  0.172841  1
  Pr  Pr1  1  0.905350  0.559970  0.676534  1
  Pr  Pr2  1  0.440007  0.092921  0.825346  1
  Th  Th3  1  0.091154  0.438760  0.327004  1
  Re  Re4  1  0.586347  0.415788  0.250949  1
  Re  Re5  1  0.415055  0.584643  0.748841  1
  Re  Re6  1  0.990084  0.804270  0.087845  1
  Re  Re7  1  0.194603  0.010431  0.411491  1
  Re  Re8  1  0.010408  0.195894  0.913705  1
  Re  Re9  1  0.805966  0.990827  0.587139  1
  B  B10  1  0.244120  0.151432  0.131486  1
  B  B11  1  0.847690  0.754691  0.369158  1
  B  B12  1  0.756489  0.848356  0.867552  1
  B  B13  1  0.152574  0.243957  0.633634  1
  B  B14  1  0.585049  0.158951  0.478638  1
  B  B15  1  0.840939  0.415765  0.018980  1
  B  B16  1  0.416872  0.840478  0.519076  1
  B  B17  1  0.159736  0.585090  0.980240  1
  B  B18  1  0.440444  0.349739  0.533339  1
  B  B19  1  0.649885  0.559323  0.966893  1
  B  B20  1  0.557973  0.650787  0.466231  1
  B  B21  1  0.349899  0.442172  0.033079  1
