# generated using pymatgen
data_Pr4ThIr2
_symmetry_space_group_name_H-M   'P 1'
_cell_length_a   6.67302000
_cell_length_b   7.33342240
_cell_length_c   9.22194844
_cell_angle_alpha   97.03937761
_cell_angle_beta   111.21084910
_cell_angle_gamma   89.99999461
_symmetry_Int_Tables_number   1
_chemical_formula_structural   Pr4ThIr2
_chemical_formula_sum   'Pr8 Th2 Ir4'
_cell_volume   417.06272446
_cell_formula_units_Z   2
loop_
 _symmetry_equiv_pos_site_id
 _symmetry_equiv_pos_as_xyz
  1  'x, y, z'
loop_
 _atom_site_type_symbol
 _atom_site_label
 _atom_site_symmetry_multiplicity
 _atom_site_fract_x
 _atom_site_fract_y
 _atom_site_fract_z
 _atom_site_occupancy
  Pr  Pr0  1  0.798100  0.078693  0.814123  1
  Pr  Pr1  1  0.983977  0.421307  0.185877  1
  Pr  Pr2  1  0.201900  0.921307  0.185877  1
  Pr  Pr3  1  0.016023  0.578693  0.814123  1
  Pr  Pr4  1  0.218038  0.180934  0.566571  1
  Pr  Pr5  1  0.651467  0.319066  0.433429  1
  Pr  Pr6  1  0.781962  0.819066  0.433429  1
  Pr  Pr7  1  0.348533  0.680934  0.566571  1
  Th  Th8  1  0.425647  0.250000  0.000000  1
  Th  Th9  1  0.574353  0.750000  0.000000  1
  Ir  Ir10  1  0.584304  0.429602  0.797651  1
  Ir  Ir11  1  0.786652  0.070398  0.202349  1
  Ir  Ir12  1  0.415696  0.570398  0.202349  1
  Ir  Ir13  1  0.213348  0.929602  0.797651  1
