# generated using pymatgen
data_Na(Sr4Au3)2
_symmetry_space_group_name_H-M   'P 1'
_cell_length_a   8.35238267
_cell_length_b   8.35238300
_cell_length_c   8.35238300
_cell_angle_alpha   70.55574559
_cell_angle_beta   70.55574406
_cell_angle_gamma   70.55574990
_symmetry_Int_Tables_number   1
_chemical_formula_structural   Na(Sr4Au3)2
_chemical_formula_sum   'Na1 Sr8 Au6'
_cell_volume   501.69252962
_cell_formula_units_Z   1
loop_
 _symmetry_equiv_pos_site_id
 _symmetry_equiv_pos_as_xyz
  1  'x, y, z'
loop_
 _atom_site_type_symbol
 _atom_site_label
 _atom_site_symmetry_multiplicity
 _atom_site_fract_x
 _atom_site_fract_y
 _atom_site_fract_z
 _atom_site_occupancy
  Na  Na0  1  0.500000  0.500000  0.500000  1
  Sr  Sr1  1  0.887630  0.173828  0.652464  1
  Sr  Sr2  1  0.652464  0.887630  0.173828  1
  Sr  Sr3  1  0.173828  0.652464  0.887630  1
  Sr  Sr4  1  0.112370  0.826172  0.347536  1
  Sr  Sr5  1  0.347536  0.112370  0.826172  1
  Sr  Sr6  1  0.826172  0.347536  0.112370  1
  Sr  Sr7  1  0.308511  0.308511  0.308511  1
  Sr  Sr8  1  0.691489  0.691489  0.691489  1
  Au  Au9  1  0.919930  0.544829  0.336709  1
  Au  Au10  1  0.336709  0.919930  0.544829  1
  Au  Au11  1  0.544829  0.336709  0.919930  1
  Au  Au12  1  0.080070  0.455171  0.663291  1
  Au  Au13  1  0.663291  0.080070  0.455171  1
  Au  Au14  1  0.455171  0.663291  0.080070  1
