# generated using pymatgen
data_Nd3In3SnPdPt
_symmetry_space_group_name_H-M   'P 1'
_cell_length_a   7.79883900
_cell_length_b   7.79883815
_cell_length_c   4.23838900
_cell_angle_alpha   90.00000000
_cell_angle_beta   90.00000000
_cell_angle_gamma   119.99999937
_symmetry_Int_Tables_number   1
_chemical_formula_structural   Nd3In3SnPdPt
_chemical_formula_sum   'Nd3 In3 Sn1 Pd1 Pt1'
_cell_volume   223.24991927
_cell_formula_units_Z   1
loop_
 _symmetry_equiv_pos_site_id
 _symmetry_equiv_pos_as_xyz
  1  'x, y, z'
loop_
 _atom_site_type_symbol
 _atom_site_label
 _atom_site_symmetry_multiplicity
 _atom_site_fract_x
 _atom_site_fract_y
 _atom_site_fract_z
 _atom_site_occupancy
  Nd  Nd0  1  0.017894  0.600056  0.500000  1
  Nd  Nd1  1  0.582162  0.982106  0.500000  1
  Nd  Nd2  1  0.399944  0.417838  0.500000  1
  In  In3  1  0.012292  0.251896  0.000000  1
  In  In4  1  0.239604  0.987708  0.000000  1
  In  In5  1  0.748104  0.760396  0.000000  1
  Sn  Sn6  1  0.666667  0.333333  0.000000  1
  Pd  Pd7  1  0.000000  0.000000  0.500000  1
  Pt  Pt8  1  0.333333  0.666667  0.000000  1
