# generated using pymatgen
data_PuPa(VB4)2
_symmetry_space_group_name_H-M   'P 1'
_cell_length_a   3.56215300
_cell_length_b   5.95670632
_cell_length_c   11.54182262
_cell_angle_alpha   89.81957752
_cell_angle_beta   90.00000000
_cell_angle_gamma   90.00000000
_symmetry_Int_Tables_number   1
_chemical_formula_structural   PuPa(VB4)2
_chemical_formula_sum   'Pu2 Pa2 V4 B16'
_cell_volume   244.90124946
_cell_formula_units_Z   2
loop_
 _symmetry_equiv_pos_site_id
 _symmetry_equiv_pos_as_xyz
  1  'x, y, z'
loop_
 _atom_site_type_symbol
 _atom_site_label
 _atom_site_symmetry_multiplicity
 _atom_site_fract_x
 _atom_site_fract_y
 _atom_site_fract_z
 _atom_site_occupancy
  Pu  Pu0  1  0.500000  0.626124  0.651366  1
  Pu  Pu1  1  0.500000  0.373876  0.348634  1
  Pa  Pa2  1  0.500000  0.125613  0.847760  1
  Pa  Pa3  1  0.500000  0.874387  0.152240  1
  V  V4  1  0.500000  0.126836  0.582713  1
  V  V5  1  0.500000  0.873164  0.417287  1
  V  V6  1  0.500000  0.627095  0.916274  1
  V  V7  1  0.500000  0.372905  0.083726  1
  B  B8  1  0.000000  0.284564  0.684822  1
  B  B9  1  0.000000  0.715436  0.315178  1
  B  B10  1  0.000000  0.783343  0.813566  1
  B  B11  1  0.000000  0.216657  0.186434  1
  B  B12  1  0.000000  0.365503  0.532478  1
  B  B13  1  0.000000  0.634497  0.467522  1
  B  B14  1  0.000000  0.863804  0.967205  1
  B  B15  1  0.000000  0.136196  0.032795  1
  B  B16  1  0.000000  0.025951  0.308528  1
  B  B17  1  0.000000  0.974049  0.691472  1
  B  B18  1  0.000000  0.526804  0.192147  1
  B  B19  1  0.000000  0.473196  0.807853  1
  B  B20  1  0.000000  0.115238  0.453846  1
  B  B21  1  0.000000  0.884762  0.546154  1
  B  B22  1  0.000000  0.613089  0.046514  1
  B  B23  1  0.000000  0.386911  0.953486  1
