# generated using pymatgen
data_YTh4Sc5(In2Rh)4
_symmetry_space_group_name_H-M   'P 1'
_cell_length_a   3.74694400
_cell_length_b   7.85143912
_cell_length_c   17.58046370
_cell_angle_alpha   89.91595279
_cell_angle_beta   90.00000000
_cell_angle_gamma   90.00000000
_symmetry_Int_Tables_number   1
_chemical_formula_structural   YTh4Sc5(In2Rh)4
_chemical_formula_sum   'Y1 Th4 Sc5 In8 Rh4'
_cell_volume   517.19739490
_cell_formula_units_Z   1
loop_
 _symmetry_equiv_pos_site_id
 _symmetry_equiv_pos_as_xyz
  1  'x, y, z'
loop_
 _atom_site_type_symbol
 _atom_site_label
 _atom_site_symmetry_multiplicity
 _atom_site_fract_x
 _atom_site_fract_y
 _atom_site_fract_z
 _atom_site_occupancy
  Y  Y0  1  0.000000  0.000000  0.000000  1
  Th  Th1  1  0.000000  0.764481  0.782335  1
  Th  Th2  1  0.000000  0.235519  0.217665  1
  Th  Th3  1  0.000000  0.265957  0.714804  1
  Th  Th4  1  0.000000  0.734043  0.285196  1
  Sc  Sc5  1  0.000000  0.500000  0.500000  1
  Sc  Sc6  1  0.000000  0.895038  0.585216  1
  Sc  Sc7  1  0.000000  0.104962  0.414784  1
  Sc  Sc8  1  0.000000  0.393616  0.913069  1
  Sc  Sc9  1  0.000000  0.606384  0.086931  1
  In  In10  1  0.500000  0.798253  0.446525  1
  In  In11  1  0.500000  0.201747  0.553475  1
  In  In12  1  0.500000  0.308975  0.055351  1
  In  In13  1  0.500000  0.691025  0.944649  1
  In  In14  1  0.500000  0.901481  0.144369  1
  In  In15  1  0.500000  0.098519  0.855631  1
  In  In16  1  0.500000  0.404520  0.360719  1
  In  In17  1  0.500000  0.595480  0.639281  1
  Rh  Rh18  1  0.500000  0.980584  0.694862  1
  Rh  Rh19  1  0.500000  0.019416  0.305138  1
  Rh  Rh20  1  0.500000  0.481507  0.802914  1
  Rh  Rh21  1  0.500000  0.518493  0.197086  1
