# generated using pymatgen
data_Dy3ErMg2Rh3
_symmetry_space_group_name_H-M   'P 1'
_cell_length_a   7.43353145
_cell_length_b   7.49943904
_cell_length_c   4.08024300
_cell_angle_alpha   90.00000000
_cell_angle_beta   90.00000000
_cell_angle_gamma   120.29373459
_symmetry_Int_Tables_number   1
_chemical_formula_structural   Dy3ErMg2Rh3
_chemical_formula_sum   'Dy3 Er1 Mg2 Rh3'
_cell_volume   196.40274116
_cell_formula_units_Z   1
loop_
 _symmetry_equiv_pos_site_id
 _symmetry_equiv_pos_as_xyz
  1  'x, y, z'
loop_
 _atom_site_type_symbol
 _atom_site_label
 _atom_site_symmetry_multiplicity
 _atom_site_fract_x
 _atom_site_fract_y
 _atom_site_fract_z
 _atom_site_occupancy
  Dy  Dy0  1  0.000000  0.609351  0.500000  1
  Dy  Dy1  1  0.433927  0.412655  0.500000  1
  Dy  Dy2  1  0.566073  0.978728  0.500000  1
  Er  Er3  1  0.000000  0.248820  0.000000  1
  Mg  Mg4  1  0.249399  0.002541  0.000000  1
  Mg  Mg5  1  0.750601  0.753142  0.000000  1
  Rh  Rh6  1  0.327207  0.660508  0.000000  1
  Rh  Rh7  1  0.000000  0.000953  0.500000  1
  Rh  Rh8  1  0.672793  0.333299  0.000000  1
