# generated using pymatgen
data_Y4Er3Tm3Ir4
_symmetry_space_group_name_H-M   'P 1'
_cell_length_a   6.43735724
_cell_length_b   7.20314851
_cell_length_c   8.47317171
_cell_angle_alpha   96.81409627
_cell_angle_beta   112.33027488
_cell_angle_gamma   90.00845104
_symmetry_Int_Tables_number   1
_chemical_formula_structural   Y4Er3Tm3Ir4
_chemical_formula_sum   'Y4 Er3 Tm3 Ir4'
_cell_volume   360.42609590
_cell_formula_units_Z   1
loop_
 _symmetry_equiv_pos_site_id
 _symmetry_equiv_pos_as_xyz
  1  'x, y, z'
loop_
 _atom_site_type_symbol
 _atom_site_label
 _atom_site_symmetry_multiplicity
 _atom_site_fract_x
 _atom_site_fract_y
 _atom_site_fract_z
 _atom_site_occupancy
  Y  Y0  1  0.971243  0.920197  0.185991  1
  Y  Y1  1  0.785487  0.579833  0.813915  1
  Y  Y2  1  0.028615  0.079900  0.813930  1
  Y  Y3  1  0.214670  0.419999  0.186083  1
  Er  Er4  1  0.650501  0.817066  0.440491  1
  Er  Er5  1  0.209905  0.682730  0.559320  1
  Er  Er6  1  0.349495  0.182993  0.559436  1
  Tm  Tm7  1  0.789913  0.317269  0.440478  1
  Tm  Tm8  1  0.427992  0.750104  0.000053  1
  Tm  Tm9  1  0.572147  0.249971  0.000140  1
  Ir  Ir10  1  0.819901  0.572999  0.220981  1
  Ir  Ir11  1  0.598873  0.926747  0.779288  1
  Ir  Ir12  1  0.179833  0.426736  0.778958  1
  Ir  Ir13  1  0.401427  0.073455  0.220936  1
