# generated using pymatgen
data_Ca(Pr3Rh2)3
_symmetry_space_group_name_H-M   'P 1'
_cell_length_a   11.34847800
_cell_length_b   11.34847800
_cell_length_c   6.59889200
_cell_angle_alpha   90.00000000
_cell_angle_beta   90.00000000
_cell_angle_gamma   90.00000000
_symmetry_Int_Tables_number   1
_chemical_formula_structural   Ca(Pr3Rh2)3
_chemical_formula_sum   'Ca2 Pr18 Rh12'
_cell_volume   849.85779220
_cell_formula_units_Z   2
loop_
 _symmetry_equiv_pos_site_id
 _symmetry_equiv_pos_as_xyz
  1  'x, y, z'
loop_
 _atom_site_type_symbol
 _atom_site_label
 _atom_site_symmetry_multiplicity
 _atom_site_fract_x
 _atom_site_fract_y
 _atom_site_fract_z
 _atom_site_occupancy
  Ca  Ca0  1  0.000000  0.000000  0.500000  1
  Ca  Ca1  1  0.000000  0.000000  0.000000  1
  Pr  Pr2  1  0.288800  0.089090  0.386797  1
  Pr  Pr3  1  0.288800  0.910910  0.886797  1
  Pr  Pr4  1  0.711200  0.089090  0.886797  1
  Pr  Pr5  1  0.711200  0.910910  0.386797  1
  Pr  Pr6  1  0.589850  0.791473  0.885003  1
  Pr  Pr7  1  0.589850  0.208527  0.385003  1
  Pr  Pr8  1  0.410150  0.791473  0.385003  1
  Pr  Pr9  1  0.410150  0.208527  0.885003  1
  Pr  Pr10  1  0.208527  0.410150  0.614997  1
  Pr  Pr11  1  0.208527  0.589850  0.114997  1
  Pr  Pr12  1  0.791473  0.410150  0.114997  1
  Pr  Pr13  1  0.791473  0.589850  0.614997  1
  Pr  Pr14  1  0.910910  0.711200  0.113203  1
  Pr  Pr15  1  0.910910  0.288800  0.613203  1
  Pr  Pr16  1  0.089090  0.711200  0.613203  1
  Pr  Pr17  1  0.089090  0.288800  0.113203  1
  Pr  Pr18  1  0.500000  0.500000  0.000000  1
  Pr  Pr19  1  0.500000  0.500000  0.500000  1
  Rh  Rh20  1  0.841127  0.158873  0.250000  1
  Rh  Rh21  1  0.841127  0.841127  0.750000  1
  Rh  Rh22  1  0.158873  0.158873  0.750000  1
  Rh  Rh23  1  0.158873  0.841127  0.250000  1
  Rh  Rh24  1  0.654769  0.345231  0.750000  1
  Rh  Rh25  1  0.654769  0.654769  0.250000  1
  Rh  Rh26  1  0.345231  0.345231  0.250000  1
  Rh  Rh27  1  0.345231  0.654769  0.750000  1
  Rh  Rh28  1  0.500000  0.000000  0.118277  1
  Rh  Rh29  1  0.500000  0.000000  0.618277  1
  Rh  Rh30  1  0.000000  0.500000  0.881723  1
  Rh  Rh31  1  0.000000  0.500000  0.381723  1
