# generated using pymatgen
data_Hf6NiP5Ru6
_symmetry_space_group_name_H-M   'P 1'
_cell_length_a   7.47419365
_cell_length_b   7.50100971
_cell_length_c   7.47419337
_cell_angle_alpha   128.68018717
_cell_angle_beta   119.50487055
_cell_angle_gamma   83.14918608
_symmetry_Int_Tables_number   1
_chemical_formula_structural   Hf6NiP5Ru6
_chemical_formula_sum   'Hf6 Ni1 P5 Ru6'
_cell_volume   273.51583011
_cell_formula_units_Z   1
loop_
 _symmetry_equiv_pos_site_id
 _symmetry_equiv_pos_as_xyz
  1  'x, y, z'
loop_
 _atom_site_type_symbol
 _atom_site_label
 _atom_site_symmetry_multiplicity
 _atom_site_fract_x
 _atom_site_fract_y
 _atom_site_fract_z
 _atom_site_occupancy
  Hf  Hf0  1  0.445536  0.651175  0.705639  1
  Hf  Hf1  1  0.528530  0.250654  0.222124  1
  Hf  Hf2  1  0.747810  0.834251  0.586442  1
  Hf  Hf3  1  0.248955  0.844982  0.096027  1
  Hf  Hf4  1  0.062601  0.256041  0.693440  1
  Hf  Hf5  1  0.963402  0.679077  0.215675  1
  Ni  Ni6  1  0.262546  0.243852  0.481308  1
  P  P7  1  0.741866  0.264401  0.022534  1
  P  P8  1  0.332254  0.586208  0.252415  1
  P  P9  1  0.669025  0.920384  0.256291  1
  P  P10  1  0.164093  0.920384  0.751358  1
  P  P11  1  0.833794  0.586208  0.753955  1
  Ru  Ru12  1  0.503570  0.499900  0.004672  1
  Ru  Ru13  1  0.995228  0.499900  0.496330  1
  Ru  Ru14  1  0.088053  0.253930  0.093954  1
  Ru  Ru15  1  0.863421  0.007162  0.117819  1
  Ru  Ru16  1  0.389342  0.007162  0.643741  1
  Ru  Ru17  1  0.659975  0.253930  0.665877  1
