# generated using pymatgen
data_Er16In4RuRh3
_symmetry_space_group_name_H-M   'P 1'
_cell_length_a   9.56822395
_cell_length_b   9.57150553
_cell_length_c   9.56822300
_cell_angle_alpha   60.01134053
_cell_angle_beta   59.99999984
_cell_angle_gamma   60.01134258
_symmetry_Int_Tables_number   1
_chemical_formula_structural   Er16In4RuRh3
_chemical_formula_sum   'Er16 In4 Ru1 Rh3'
_cell_volume   619.72969386
_cell_formula_units_Z   1
loop_
 _symmetry_equiv_pos_site_id
 _symmetry_equiv_pos_as_xyz
  1  'x, y, z'
loop_
 _atom_site_type_symbol
 _atom_site_label
 _atom_site_symmetry_multiplicity
 _atom_site_fract_x
 _atom_site_fract_y
 _atom_site_fract_z
 _atom_site_occupancy
  Er  Er0  1  0.186506  0.191152  0.811171  1
  Er  Er1  1  0.437781  0.062041  0.062398  1
  Er  Er2  1  0.437781  0.062041  0.437781  1
  Er  Er3  1  0.060913  0.437375  0.060913  1
  Er  Er4  1  0.649794  0.050617  0.649794  1
  Er  Er5  1  0.189009  0.810893  0.811090  1
  Er  Er6  1  0.062398  0.062041  0.437781  1
  Er  Er7  1  0.811171  0.191152  0.186506  1
  Er  Er8  1  0.811090  0.810893  0.189009  1
  Er  Er9  1  0.650503  0.648958  0.050036  1
  Er  Er10  1  0.650503  0.648958  0.650503  1
  Er  Er11  1  0.060913  0.437375  0.440799  1
  Er  Er12  1  0.050036  0.648958  0.650503  1
  Er  Er13  1  0.811171  0.191152  0.811171  1
  Er  Er14  1  0.440799  0.437375  0.060913  1
  Er  Er15  1  0.189009  0.810893  0.189009  1
  In  In16  1  0.417100  0.748701  0.417100  1
  In  In17  1  0.416930  0.416280  0.749861  1
  In  In18  1  0.749861  0.416280  0.416930  1
  In  In19  1  0.416930  0.416280  0.416930  1
  Ru  Ru20  1  0.857199  0.428402  0.857199  1
  Rh  Rh21  1  0.857455  0.857393  0.427697  1
  Rh  Rh22  1  0.427697  0.857393  0.857455  1
  Rh  Rh23  1  0.857455  0.857393  0.857455  1
