# generated using pymatgen
data_PrNd3OsBr4
_symmetry_space_group_name_H-M   'P 1'
_cell_length_a   9.40974379
_cell_length_b   9.36195043
_cell_length_c   6.70557840
_cell_angle_alpha   89.67025951
_cell_angle_beta   89.18554695
_cell_angle_gamma   89.51800583
_symmetry_Int_Tables_number   1
_chemical_formula_structural   PrNd3OsBr4
_chemical_formula_sum   'Pr2 Nd6 Os2 Br8'
_cell_volume   590.62827778
_cell_formula_units_Z   2
loop_
 _symmetry_equiv_pos_site_id
 _symmetry_equiv_pos_as_xyz
  1  'x, y, z'
loop_
 _atom_site_type_symbol
 _atom_site_label
 _atom_site_symmetry_multiplicity
 _atom_site_fract_x
 _atom_site_fract_y
 _atom_site_fract_z
 _atom_site_occupancy
  Pr  Pr0  1  0.251648  0.901357  0.004346  1
  Pr  Pr1  1  0.748352  0.098643  0.995654  1
  Nd  Nd2  1  0.098142  0.749605  0.491630  1
  Nd  Nd3  1  0.901858  0.250395  0.508370  1
  Nd  Nd4  1  0.752371  0.903477  0.507074  1
  Nd  Nd5  1  0.247629  0.096523  0.492926  1
  Nd  Nd6  1  0.095465  0.249470  0.994463  1
  Nd  Nd7  1  0.904535  0.750530  0.005537  1
  Os  Os8  1  0.998157  0.002161  0.250507  1
  Os  Os9  1  0.001843  0.997839  0.749493  1
  Br  Br10  1  0.411241  0.817049  0.437039  1
  Br  Br11  1  0.588759  0.182951  0.562961  1
  Br  Br12  1  0.182192  0.586667  0.066197  1
  Br  Br13  1  0.817808  0.413333  0.933803  1
  Br  Br14  1  0.406129  0.186426  0.067253  1
  Br  Br15  1  0.593871  0.813574  0.932747  1
  Br  Br16  1  0.817512  0.591642  0.431305  1
  Br  Br17  1  0.182488  0.408358  0.568695  1
