# generated using pymatgen
data_K2Li2TiS4
_symmetry_space_group_name_H-M   'P 1'
_cell_length_a   5.86945100
_cell_length_b   5.86945100
_cell_length_c   12.90164500
_cell_angle_alpha   90.00000000
_cell_angle_beta   90.00000000
_cell_angle_gamma   90.00000000
_symmetry_Int_Tables_number   1
_chemical_formula_structural   K2Li2TiS4
_chemical_formula_sum   'K4 Li4 Ti2 S8'
_cell_volume   444.46754103
_cell_formula_units_Z   2
loop_
 _symmetry_equiv_pos_site_id
 _symmetry_equiv_pos_as_xyz
  1  'x, y, z'
loop_
 _atom_site_type_symbol
 _atom_site_label
 _atom_site_symmetry_multiplicity
 _atom_site_fract_x
 _atom_site_fract_y
 _atom_site_fract_z
 _atom_site_occupancy
  K  K0  1  0.759516  0.759516  0.000000  1
  K  K1  1  0.240484  0.759516  0.500000  1
  K  K2  1  0.759516  0.240484  0.500000  1
  K  K3  1  0.240484  0.240484  0.000000  1
  Li  Li4  1  0.000000  0.500000  0.750000  1
  Li  Li5  1  0.500000  0.000000  0.750000  1
  Li  Li6  1  0.000000  0.500000  0.250000  1
  Li  Li7  1  0.500000  0.000000  0.250000  1
  Ti  Ti8  1  0.500000  0.500000  0.750000  1
  Ti  Ti9  1  0.500000  0.500000  0.250000  1
  S  S10  1  0.724454  0.724454  0.649717  1
  S  S11  1  0.275546  0.275546  0.649717  1
  S  S12  1  0.724454  0.724454  0.350283  1
  S  S13  1  0.724454  0.275546  0.149717  1
  S  S14  1  0.275546  0.724454  0.850283  1
  S  S15  1  0.275546  0.275546  0.350283  1
  S  S16  1  0.275546  0.724454  0.149717  1
  S  S17  1  0.724454  0.275546  0.850283  1
