# generated using pymatgen
data_Ho13Tm5(LuPb8)2
_symmetry_space_group_name_H-M   'P 1'
_cell_length_a   8.15822014
_cell_length_b   15.54030303
_cell_length_c   8.22482716
_cell_angle_alpha   90.00740780
_cell_angle_beta   90.02124238
_cell_angle_gamma   89.99870429
_symmetry_Int_Tables_number   1
_chemical_formula_structural   Ho13Tm5(LuPb8)2
_chemical_formula_sum   'Ho13 Tm5 Lu2 Pb16'
_cell_volume   1042.75348487
_cell_formula_units_Z   1
loop_
 _symmetry_equiv_pos_site_id
 _symmetry_equiv_pos_as_xyz
  1  'x, y, z'
loop_
 _atom_site_type_symbol
 _atom_site_label
 _atom_site_symmetry_multiplicity
 _atom_site_fract_x
 _atom_site_fract_y
 _atom_site_fract_z
 _atom_site_occupancy
  Ho  Ho0  1  0.877152  0.379191  0.658327  1
  Ho  Ho1  1  0.377216  0.379070  0.841553  1
  Ho  Ho2  1  0.877247  0.120860  0.658395  1
  Ho  Ho3  1  0.622726  0.878426  0.158009  1
  Ho  Ho4  1  0.122692  0.621545  0.342032  1
  Ho  Ho5  1  0.463385  0.599907  0.675849  1
  Ho  Ho6  1  0.963343  0.900078  0.824093  1
  Ho  Ho7  1  0.536450  0.099602  0.324036  1
  Ho  Ho8  1  0.036464  0.400369  0.175867  1
  Ho  Ho9  1  0.536444  0.400497  0.324114  1
  Ho  Ho10  1  0.036537  0.099508  0.175808  1
  Ho  Ho11  1  0.463277  0.900168  0.675788  1
  Ho  Ho12  1  0.963335  0.599958  0.824286  1
  Tm  Tm13  1  0.622845  0.621600  0.157892  1
  Tm  Tm14  1  0.122860  0.878443  0.342089  1
  Tm  Tm15  1  0.377143  0.120865  0.841732  1
  Tm  Tm16  1  0.208982  0.249896  0.504439  1
  Tm  Tm17  1  0.708739  0.249941  0.995673  1
  Lu  Lu18  1  0.791218  0.750003  0.495160  1
  Lu  Lu19  1  0.291228  0.750032  0.004786  1
  Pb  Pb20  1  0.718731  0.457549  0.967137  1
  Pb  Pb21  1  0.218951  0.042516  0.533321  1
  Pb  Pb22  1  0.281008  0.956529  0.033338  1
  Pb  Pb23  1  0.780903  0.543724  0.466414  1
  Pb  Pb24  1  0.281559  0.543734  0.033276  1
  Pb  Pb25  1  0.781562  0.956276  0.466730  1
  Pb  Pb26  1  0.718459  0.042778  0.966738  1
  Pb  Pb27  1  0.218859  0.457286  0.533158  1
  Pb  Pb28  1  0.428834  0.749959  0.373850  1
  Pb  Pb29  1  0.928899  0.750050  0.126164  1
  Pb  Pb30  1  0.571575  0.249843  0.626201  1
  Pb  Pb31  1  0.072007  0.249900  0.874003  1
  Pb  Pb32  1  0.651120  0.749918  0.844236  1
  Pb  Pb33  1  0.151127  0.750073  0.655786  1
  Pb  Pb34  1  0.348551  0.249914  0.154319  1
  Pb  Pb35  1  0.848571  0.249994  0.345402  1
