# generated using pymatgen
data_Sc10NiHg3
_symmetry_space_group_name_H-M   'P 1'
_cell_length_a   9.03941900
_cell_length_b   9.03941919
_cell_length_c   8.85690000
_cell_angle_alpha   90.00000000
_cell_angle_beta   90.00000000
_cell_angle_gamma   119.99999564
_symmetry_Int_Tables_number   1
_chemical_formula_structural   Sc10NiHg3
_chemical_formula_sum   'Sc20 Ni2 Hg6'
_cell_volume   626.74869202
_cell_formula_units_Z   2
loop_
 _symmetry_equiv_pos_site_id
 _symmetry_equiv_pos_as_xyz
  1  'x, y, z'
loop_
 _atom_site_type_symbol
 _atom_site_label
 _atom_site_symmetry_multiplicity
 _atom_site_fract_x
 _atom_site_fract_y
 _atom_site_fract_z
 _atom_site_occupancy
  Sc  Sc0  1  0.000000  0.000000  0.500000  1
  Sc  Sc1  1  0.000000  0.000000  0.000000  1
  Sc  Sc2  1  0.542887  0.457113  0.250000  1
  Sc  Sc3  1  0.542887  0.085774  0.250000  1
  Sc  Sc4  1  0.914226  0.457113  0.250000  1
  Sc  Sc5  1  0.457113  0.542887  0.750000  1
  Sc  Sc6  1  0.457113  0.914226  0.750000  1
  Sc  Sc7  1  0.085774  0.542887  0.750000  1
  Sc  Sc8  1  0.209517  0.790483  0.435932  1
  Sc  Sc9  1  0.209517  0.419036  0.435932  1
  Sc  Sc10  1  0.580964  0.790483  0.435932  1
  Sc  Sc11  1  0.790483  0.209517  0.564068  1
  Sc  Sc12  1  0.790483  0.580964  0.564068  1
  Sc  Sc13  1  0.419036  0.209517  0.564068  1
  Sc  Sc14  1  0.790483  0.209517  0.935932  1
  Sc  Sc15  1  0.790483  0.580964  0.935932  1
  Sc  Sc16  1  0.419036  0.209517  0.935932  1
  Sc  Sc17  1  0.209517  0.790483  0.064068  1
  Sc  Sc18  1  0.209517  0.419036  0.064068  1
  Sc  Sc19  1  0.580964  0.790483  0.064068  1
  Ni  Ni20  1  0.333333  0.666667  0.250000  1
  Ni  Ni21  1  0.666667  0.333333  0.750000  1
  Hg  Hg22  1  0.878998  0.121002  0.250000  1
  Hg  Hg23  1  0.878998  0.757995  0.250000  1
  Hg  Hg24  1  0.242005  0.121002  0.250000  1
  Hg  Hg25  1  0.121002  0.878998  0.750000  1
  Hg  Hg26  1  0.121002  0.242005  0.750000  1
  Hg  Hg27  1  0.757995  0.878998  0.750000  1
