# generated using pymatgen
data_NdY5Fe4(Co7P6)2
_symmetry_space_group_name_H-M   'P 1'
_cell_length_a   3.72152300
_cell_length_b   10.58919300
_cell_length_c   12.14295500
_cell_angle_alpha   90.00000000
_cell_angle_beta   90.00000000
_cell_angle_gamma   90.00000000
_symmetry_Int_Tables_number   1
_chemical_formula_structural   NdY5Fe4(Co7P6)2
_chemical_formula_sum   'Nd1 Y5 Fe4 Co14 P12'
_cell_volume   478.52866357
_cell_formula_units_Z   1
loop_
 _symmetry_equiv_pos_site_id
 _symmetry_equiv_pos_as_xyz
  1  'x, y, z'
loop_
 _atom_site_type_symbol
 _atom_site_label
 _atom_site_symmetry_multiplicity
 _atom_site_fract_x
 _atom_site_fract_y
 _atom_site_fract_z
 _atom_site_occupancy
  Nd  Nd0  1  0.000000  0.500000  0.522989  1
  Y  Y1  1  0.500000  0.000000  0.477868  1
  Y  Y2  1  0.500000  0.819150  0.204619  1
  Y  Y3  1  0.500000  0.180850  0.204619  1
  Y  Y4  1  0.000000  0.681543  0.795979  1
  Y  Y5  1  0.000000  0.318457  0.795979  1
  Fe  Fe6  1  0.500000  0.500000  0.153706  1
  Fe  Fe7  1  0.000000  0.000000  0.844614  1
  Fe  Fe8  1  0.000000  0.500000  0.988742  1
  Fe  Fe9  1  0.500000  0.000000  0.011813  1
  Co  Co10  1  0.500000  0.500000  0.703744  1
  Co  Co11  1  0.000000  0.000000  0.298109  1
  Co  Co12  1  0.500000  0.331497  0.994632  1
  Co  Co13  1  0.500000  0.668503  0.994632  1
  Co  Co14  1  0.000000  0.167989  0.005211  1
  Co  Co15  1  0.000000  0.832011  0.005211  1
  Co  Co16  1  0.500000  0.293863  0.429935  1
  Co  Co17  1  0.500000  0.706137  0.429935  1
  Co  Co18  1  0.000000  0.201115  0.570064  1
  Co  Co19  1  0.000000  0.798885  0.570064  1
  Co  Co20  1  0.500000  0.880026  0.710305  1
  Co  Co21  1  0.500000  0.119974  0.710305  1
  Co  Co22  1  0.000000  0.621193  0.289181  1
  Co  Co23  1  0.000000  0.378807  0.289181  1
  P  P24  1  0.500000  0.500000  0.885597  1
  P  P25  1  0.000000  0.000000  0.115088  1
  P  P26  1  0.500000  0.500000  0.337629  1
  P  P27  1  0.000000  0.000000  0.658916  1
  P  P28  1  0.500000  0.306429  0.617414  1
  P  P29  1  0.500000  0.693571  0.617414  1
  P  P30  1  0.000000  0.189794  0.383498  1
  P  P31  1  0.000000  0.810206  0.383498  1
  P  P32  1  0.500000  0.848106  0.894062  1
  P  P33  1  0.500000  0.151894  0.894062  1
  P  P34  1  0.000000  0.652833  0.105693  1
  P  P35  1  0.000000  0.347167  0.105693  1
