# generated using pymatgen
data_Dy8Ho12Si15As
_symmetry_space_group_name_H-M   'P 1'
_cell_length_a   7.47589922
_cell_length_b   7.63188868
_cell_length_c   14.57608578
_cell_angle_alpha   89.88977506
_cell_angle_beta   86.27716901
_cell_angle_gamma   90.00184368
_symmetry_Int_Tables_number   1
_chemical_formula_structural   Dy8Ho12Si15As
_chemical_formula_sum   'Dy8 Ho12 Si15 As1'
_cell_volume   829.88547935
_cell_formula_units_Z   1
loop_
 _symmetry_equiv_pos_site_id
 _symmetry_equiv_pos_as_xyz
  1  'x, y, z'
loop_
 _atom_site_type_symbol
 _atom_site_label
 _atom_site_symmetry_multiplicity
 _atom_site_fract_x
 _atom_site_fract_y
 _atom_site_fract_z
 _atom_site_occupancy
  Dy  Dy0  1  0.027071  0.185332  0.100950  1
  Dy  Dy1  1  0.972884  0.815715  0.898980  1
  Dy  Dy2  1  0.473886  0.684295  0.899630  1
  Dy  Dy3  1  0.000483  0.820551  0.598895  1
  Dy  Dy4  1  0.526341  0.316386  0.101054  1
  Dy  Dy5  1  0.996459  0.177292  0.400011  1
  Dy  Dy6  1  0.500279  0.316370  0.399998  1
  Dy  Dy7  1  0.505529  0.682093  0.599254  1
  Ho  Ho8  1  0.167803  0.506449  0.748343  1
  Ho  Ho9  1  0.832148  0.493902  0.254737  1
  Ho  Ho10  1  0.331287  0.006922  0.254187  1
  Ho  Ho11  1  0.669305  0.993182  0.746184  1
  Ho  Ho12  1  0.355442  0.163357  0.620568  1
  Ho  Ho13  1  0.645429  0.834556  0.379067  1
  Ho  Ho14  1  0.144520  0.665810  0.380522  1
  Ho  Ho15  1  0.674941  0.822713  0.122324  1
  Ho  Ho16  1  0.853351  0.333948  0.618946  1
  Ho  Ho17  1  0.325101  0.177634  0.877676  1
  Ho  Ho18  1  0.824800  0.322265  0.877750  1
  Ho  Ho19  1  0.174637  0.678105  0.122225  1
  Si  Si20  1  0.042455  0.108829  0.751510  1
  Si  Si21  1  0.958062  0.891670  0.247734  1
  Si  Si22  1  0.457090  0.608835  0.248344  1
  Si  Si23  1  0.542299  0.391386  0.750902  1
  Si  Si24  1  0.284548  0.870486  0.752130  1
  Si  Si25  1  0.716437  0.128851  0.247458  1
  Si  Si26  1  0.216026  0.372394  0.248243  1
  Si  Si27  1  0.784683  0.627822  0.751484  1
  Si  Si28  1  0.792057  0.535236  0.456945  1
  Si  Si29  1  0.297049  0.964099  0.457979  1
  Si  Si30  1  0.854735  0.528739  0.041816  1
  Si  Si31  1  0.701882  0.035565  0.542247  1
  Si  Si32  1  0.144252  0.472581  0.957933  1
  Si  Si33  1  0.643828  0.028151  0.957832  1
  Si  Si34  1  0.355495  0.972811  0.042569  1
  As  As35  1  0.207403  0.465671  0.543575  1
