# generated using pymatgen
data_Y2Tm3Co2
_symmetry_space_group_name_H-M   'P 1'
_cell_length_a   6.28946292
_cell_length_b   6.91658558
_cell_length_c   8.50993000
_cell_angle_alpha   96.59338048
_cell_angle_beta   111.68705197
_cell_angle_gamma   89.99999653
_symmetry_Int_Tables_number   1
_chemical_formula_structural   Y2Tm3Co2
_chemical_formula_sum   'Y4 Tm6 Co4'
_cell_volume   341.35539268
_cell_formula_units_Z   2
loop_
 _symmetry_equiv_pos_site_id
 _symmetry_equiv_pos_as_xyz
  1  'x, y, z'
loop_
 _atom_site_type_symbol
 _atom_site_label
 _atom_site_symmetry_multiplicity
 _atom_site_fract_x
 _atom_site_fract_y
 _atom_site_fract_z
 _atom_site_occupancy
  Y  Y0  1  0.982435  0.913488  0.191239  1
  Y  Y1  1  0.791194  0.586512  0.808761  1
  Y  Y2  1  0.017565  0.086512  0.808761  1
  Y  Y3  1  0.208806  0.413488  0.191239  1
  Tm  Tm4  1  0.645275  0.816059  0.432343  1
  Tm  Tm5  1  0.212932  0.683941  0.567657  1
  Tm  Tm6  1  0.354725  0.183941  0.567657  1
  Tm  Tm7  1  0.787068  0.316059  0.432343  1
  Tm  Tm8  1  0.428245  0.750000  0.000000  1
  Tm  Tm9  1  0.571755  0.250000  0.000000  1
  Co  Co10  1  0.818939  0.570685  0.223851  1
  Co  Co11  1  0.595088  0.929315  0.776149  1
  Co  Co12  1  0.181062  0.429315  0.776149  1
  Co  Co13  1  0.404912  0.070685  0.223851  1
