# generated using pymatgen
data_Sc12Pt(RhI8)2
_symmetry_space_group_name_H-M   'P 1'
_cell_length_a   9.07888185
_cell_length_b   12.24452432
_cell_length_c   12.90377505
_cell_angle_alpha   117.00650204
_cell_angle_beta   100.88488774
_cell_angle_gamma   100.31689831
_symmetry_Int_Tables_number   1
_chemical_formula_structural   Sc12Pt(RhI8)2
_chemical_formula_sum   'Sc12 Pt1 Rh2 I16'
_cell_volume   1196.17272820
_cell_formula_units_Z   1
loop_
 _symmetry_equiv_pos_site_id
 _symmetry_equiv_pos_as_xyz
  1  'x, y, z'
loop_
 _atom_site_type_symbol
 _atom_site_label
 _atom_site_symmetry_multiplicity
 _atom_site_fract_x
 _atom_site_fract_y
 _atom_site_fract_z
 _atom_site_occupancy
  Sc  Sc0  1  0.093506  0.277833  0.363921  1
  Sc  Sc1  1  0.906494  0.722167  0.636079  1
  Sc  Sc2  1  0.780601  0.535012  0.334742  1
  Sc  Sc3  1  0.219399  0.464988  0.665258  1
  Sc  Sc4  1  0.274210  0.722648  0.635892  1
  Sc  Sc5  1  0.725790  0.277352  0.364108  1
  Sc  Sc6  1  0.148002  0.535366  0.334465  1
  Sc  Sc7  1  0.851998  0.464634  0.665535  1
  Sc  Sc8  1  0.410384  0.366966  0.285418  1
  Sc  Sc9  1  0.589616  0.633034  0.714582  1
  Sc  Sc10  1  0.461147  0.317189  0.521101  1
  Sc  Sc11  1  0.538853  0.682811  0.478899  1
  Pt  Pt12  1  0.000000  0.500000  0.500000  1
  Rh  Rh13  1  0.339185  0.500169  0.499901  1
  Rh  Rh14  1  0.660816  0.499831  0.500099  1
  I  I15  1  0.389286  0.732466  0.874350  1
  I  I16  1  0.610714  0.267534  0.125650  1
  I  I17  1  0.182890  0.951773  0.775914  1
  I  I18  1  0.817110  0.048227  0.224086  1
  I  I19  1  0.341234  0.107492  0.260719  1
  I  I20  1  0.658766  0.892508  0.739281  1
  I  I21  1  0.562447  0.436770  0.791581  1
  I  I22  1  0.437553  0.563230  0.208419  1
  I  I23  1  0.300277  0.819924  0.462931  1
  I  I24  1  0.699723  0.180076  0.537069  1
  I  I25  1  0.164891  0.180673  0.536701  1
  I  I26  1  0.835109  0.819327  0.463299  1
  I  I27  1  0.926985  0.572275  0.164988  1
  I  I28  1  0.073015  0.427725  0.835012  1
  I  I29  1  0.923403  0.731987  0.874473  1
  I  I30  1  0.076597  0.268013  0.125527  1
