# generated using pymatgen
data_K5Au(BrO)2
_symmetry_space_group_name_H-M   'P 1'
_cell_length_a   5.42982500
_cell_length_b   7.23304100
_cell_length_c   14.00496000
_cell_angle_alpha   90.00000000
_cell_angle_beta   90.00000000
_cell_angle_gamma   90.00000000
_symmetry_Int_Tables_number   1
_chemical_formula_structural   K5Au(BrO)2
_chemical_formula_sum   'K10 Au2 Br4 O4'
_cell_volume   550.03285564
_cell_formula_units_Z   2
loop_
 _symmetry_equiv_pos_site_id
 _symmetry_equiv_pos_as_xyz
  1  'x, y, z'
loop_
 _atom_site_type_symbol
 _atom_site_label
 _atom_site_symmetry_multiplicity
 _atom_site_fract_x
 _atom_site_fract_y
 _atom_site_fract_z
 _atom_site_occupancy
  K  K0  1  0.500000  0.319681  0.605396  1
  K  K1  1  0.500000  0.180319  0.105396  1
  K  K2  1  0.000000  0.606782  0.734391  1
  K  K3  1  0.000000  0.500000  0.000000  1
  K  K4  1  0.500000  0.680319  0.394604  1
  K  K5  1  0.500000  0.819681  0.894604  1
  K  K6  1  0.000000  0.893218  0.234391  1
  K  K7  1  0.000000  0.393218  0.265609  1
  K  K8  1  0.000000  0.106782  0.765609  1
  K  K9  1  0.000000  0.000000  0.500000  1
  Au  Au10  1  0.000000  0.500000  0.500000  1
  Au  Au11  1  0.000000  0.000000  0.000000  1
  Br  Br12  1  0.500000  0.639693  0.149383  1
  Br  Br13  1  0.500000  0.360307  0.850617  1
  Br  Br14  1  0.500000  0.139693  0.350617  1
  Br  Br15  1  0.500000  0.860307  0.649383  1
  O  O16  1  0.000000  0.683338  0.388716  1
  O  O17  1  0.000000  0.816662  0.888716  1
  O  O18  1  0.000000  0.183338  0.111284  1
  O  O19  1  0.000000  0.316662  0.611284  1
