# generated using pymatgen
data_Rb(VTe2)3
_symmetry_space_group_name_H-M   'P 1'
_cell_length_a   6.29753300
_cell_length_b   6.29753400
_cell_length_c   19.09873100
_cell_angle_alpha   90.00000000
_cell_angle_beta   90.00000000
_cell_angle_gamma   119.99998951
_symmetry_Int_Tables_number   1
_chemical_formula_structural   Rb(VTe2)3
_chemical_formula_sum   'Rb2 V6 Te12'
_cell_volume   655.95819503
_cell_formula_units_Z   2
loop_
 _symmetry_equiv_pos_site_id
 _symmetry_equiv_pos_as_xyz
  1  'x, y, z'
loop_
 _atom_site_type_symbol
 _atom_site_label
 _atom_site_symmetry_multiplicity
 _atom_site_fract_x
 _atom_site_fract_y
 _atom_site_fract_z
 _atom_site_occupancy
  Rb  Rb0  1  0.000000  0.000000  0.500000  1
  Rb  Rb1  1  0.000000  0.000000  0.000000  1
  V  V2  1  0.000000  0.000000  0.250000  1
  V  V3  1  0.000000  0.000000  0.750000  1
  V  V4  1  0.333333  0.666667  0.250000  1
  V  V5  1  0.666667  0.333333  0.750000  1
  V  V6  1  0.666667  0.333333  0.250000  1
  V  V7  1  0.333333  0.666667  0.750000  1
  Te  Te8  1  0.335603  0.000000  0.159903  1
  Te  Te9  1  0.000000  0.335603  0.159903  1
  Te  Te10  1  0.664397  0.664397  0.159903  1
  Te  Te11  1  0.335603  0.335603  0.659903  1
  Te  Te12  1  0.664397  0.664397  0.340097  1
  Te  Te13  1  0.664397  0.000000  0.659903  1
  Te  Te14  1  0.000000  0.664397  0.659903  1
  Te  Te15  1  0.000000  0.664397  0.840097  1
  Te  Te16  1  0.335603  0.335603  0.840097  1
  Te  Te17  1  0.000000  0.335603  0.340097  1
  Te  Te18  1  0.335603  0.000000  0.340097  1
  Te  Te19  1  0.664397  0.000000  0.840097  1
