# generated using pymatgen
data_Sr3LaMg2(PtO6)2
_symmetry_space_group_name_H-M   'P 1'
_cell_length_a   5.65462720
_cell_length_b   5.67482445
_cell_length_c   7.98631423
_cell_angle_alpha   90.10347494
_cell_angle_beta   89.82305976
_cell_angle_gamma   90.02219191
_symmetry_Int_Tables_number   1
_chemical_formula_structural   Sr3LaMg2(PtO6)2
_chemical_formula_sum   'Sr3 La1 Mg2 Pt2 O12'
_cell_volume   256.27131242
_cell_formula_units_Z   1
loop_
 _symmetry_equiv_pos_site_id
 _symmetry_equiv_pos_as_xyz
  1  'x, y, z'
loop_
 _atom_site_type_symbol
 _atom_site_label
 _atom_site_symmetry_multiplicity
 _atom_site_fract_x
 _atom_site_fract_y
 _atom_site_fract_z
 _atom_site_occupancy
  Sr  Sr0  1  0.505622  0.530338  0.250360  1
  Sr  Sr1  1  0.991475  0.032842  0.250590  1
  Sr  Sr2  1  0.004998  0.967935  0.749404  1
  La  La3  1  0.495423  0.460363  0.750766  1
  Mg  Mg4  1  0.498756  0.996932  0.002056  1
  Mg  Mg5  1  0.000912  0.500784  0.498286  1
  Pt  Pt6  1  0.998630  0.500440  0.999366  1
  Pt  Pt7  1  0.501413  0.999186  0.500347  1
  O  O8  1  0.718029  0.290040  0.027356  1
  O  O9  1  0.788689  0.777932  0.031739  1
  O  O10  1  0.061697  0.490782  0.243786  1
  O  O11  1  0.435876  0.987863  0.255916  1
  O  O12  1  0.708746  0.281220  0.471083  1
  O  O13  1  0.778228  0.787105  0.469978  1
  O  O14  1  0.229378  0.218831  0.538645  1
  O  O15  1  0.296227  0.715543  0.540691  1
  O  O16  1  0.562010  0.019845  0.746623  1
  O  O17  1  0.924787  0.507425  0.753663  1
  O  O18  1  0.216940  0.228284  0.960276  1
  O  O19  1  0.282168  0.706307  0.959070  1
