# generated using pymatgen
data_LaZn10Ni
_symmetry_space_group_name_H-M   'P 1'
_cell_length_a   8.26774368
_cell_length_b   8.26302631
_cell_length_c   8.26967038
_cell_angle_alpha   99.74484690
_cell_angle_beta   99.66996992
_cell_angle_gamma   131.51746883
_symmetry_Int_Tables_number   1
_chemical_formula_structural   LaZn10Ni
_chemical_formula_sum   'La2 Zn20 Ni2'
_cell_volume   385.69417935
_cell_formula_units_Z   2
loop_
 _symmetry_equiv_pos_site_id
 _symmetry_equiv_pos_as_xyz
  1  'x, y, z'
loop_
 _atom_site_type_symbol
 _atom_site_label
 _atom_site_symmetry_multiplicity
 _atom_site_fract_x
 _atom_site_fract_y
 _atom_site_fract_z
 _atom_site_occupancy
  La  La0  1  0.247459  0.747561  0.500026  1
  La  La1  1  0.002536  0.002445  0.999970  1
  Zn  Zn2  1  0.892480  0.566997  0.075887  1
  Zn  Zn3  1  0.430448  0.519357  0.327968  1
  Zn  Zn4  1  0.491107  0.567120  0.674461  1
  Zn  Zn5  1  0.430571  0.102745  0.911263  1
  Zn  Zn6  1  0.758887  0.182876  0.825537  1
  Zn  Zn7  1  0.491031  0.816519  0.923962  1
  Zn  Zn8  1  0.516663  0.516620  0.000048  1
  Zn  Zn9  1  0.758964  0.933475  0.576043  1
  Zn  Zn10  1  0.733349  0.233377  0.499967  1
  Zn  Zn11  1  0.058645  0.647702  0.827943  1
  Zn  Zn12  1  0.124999  0.375002  0.749997  1
  Zn  Zn13  1  0.357514  0.183004  0.424109  1
  Zn  Zn14  1  0.819414  0.647255  0.588736  1
  Zn  Zn15  1  0.892858  0.816609  0.325548  1
  Zn  Zn16  1  0.191360  0.102303  0.672048  1
  Zn  Zn17  1  0.058527  0.230687  0.411057  1
  Zn  Zn18  1  0.357153  0.933395  0.174457  1
  Zn  Zn19  1  0.819557  0.230650  0.172044  1
  Zn  Zn20  1  0.191476  0.519312  0.088948  1
  Zn  Zn21  1  0.624996  0.375000  0.249999  1
  Ni  Ni22  1  0.625006  0.874995  0.249992  1
  Ni  Ni23  1  0.625002  0.374992  0.749992  1
