# generated using pymatgen
data_YPu3(P4O13)2
_symmetry_space_group_name_H-M   'P 1'
_cell_length_a   9.73911608
_cell_length_b   9.77919869
_cell_length_c   8.86923000
_cell_angle_alpha   90.41641641
_cell_angle_beta   89.64867926
_cell_angle_gamma   135.87992479
_symmetry_Int_Tables_number   1
_chemical_formula_structural   YPu3(P4O13)2
_chemical_formula_sum   'Y1 Pu3 P8 O26'
_cell_volume   588.04244823
_cell_formula_units_Z   1
loop_
 _symmetry_equiv_pos_site_id
 _symmetry_equiv_pos_as_xyz
  1  'x, y, z'
loop_
 _atom_site_type_symbol
 _atom_site_label
 _atom_site_symmetry_multiplicity
 _atom_site_fract_x
 _atom_site_fract_y
 _atom_site_fract_z
 _atom_site_occupancy
  Y  Y0  1  0.395889  0.106601  0.643727  1
  Pu  Pu1  1  0.895265  0.603796  0.856620  1
  Pu  Pu2  1  0.605517  0.897089  0.143398  1
  Pu  Pu3  1  0.105498  0.396164  0.358903  1
  P  P4  1  0.417100  0.097443  0.995665  1
  P  P5  1  0.099670  0.416868  0.000391  1
  P  P6  1  0.579121  0.906603  0.501543  1
  P  P7  1  0.901957  0.583769  0.501273  1
  P  P8  1  0.273317  0.143412  0.271599  1
  P  P9  1  0.150311  0.270619  0.731964  1
  P  P10  1  0.726707  0.853429  0.765909  1
  P  P11  1  0.852806  0.727316  0.233203  1
  O  O12  1  0.483606  0.026439  0.091661  1
  O  O13  1  0.028398  0.480964  0.900853  1
  O  O14  1  0.512928  0.977418  0.601097  1
  O  O15  1  0.972763  0.518327  0.400929  1
  O  O16  1  0.232256  0.936322  0.897885  1
  O  O17  1  0.936685  0.232786  0.097095  1
  O  O18  1  0.764990  0.069432  0.405792  1
  O  O19  1  0.066368  0.769264  0.597569  1
  O  O20  1  0.570566  0.260795  0.880939  1
  O  O21  1  0.264540  0.573821  0.113018  1
  O  O22  1  0.422424  0.741612  0.389037  1
  O  O23  1  0.734096  0.425417  0.611762  1
  O  O24  1  0.085507  0.912991  0.247961  1
  O  O25  1  0.918348  0.083755  0.748588  1
  O  O26  1  0.800124  0.627167  0.394737  1
  O  O27  1  0.622801  0.804427  0.606373  1
  O  O28  1  0.202416  0.372462  0.893894  1
  O  O29  1  0.377845  0.198885  0.109572  1
  O  O30  1  0.747018  0.785320  0.217134  1
  O  O31  1  0.777598  0.741429  0.780384  1
  O  O32  1  0.257213  0.213524  0.713455  1
  O  O33  1  0.218152  0.251672  0.289276  1
  O  O34  1  0.825768  0.603786  0.108712  1
  O  O35  1  0.607910  0.832521  0.891590  1
  O  O36  1  0.176335  0.393139  0.608983  1
  O  O37  1  0.390185  0.163212  0.397506  1
