# generated using pymatgen
data_LiSc4Co18P12Ru
_symmetry_space_group_name_H-M   'P 1'
_cell_length_a   3.60228500
_cell_length_b   10.15745718
_cell_length_c   11.66563203
_cell_angle_alpha   90.07674813
_cell_angle_beta   90.00000000
_cell_angle_gamma   90.00000000
_symmetry_Int_Tables_number   1
_chemical_formula_structural   LiSc4Co18P12Ru
_chemical_formula_sum   'Li1 Sc4 Co18 P12 Ru1'
_cell_volume   426.84574210
_cell_formula_units_Z   1
loop_
 _symmetry_equiv_pos_site_id
 _symmetry_equiv_pos_as_xyz
  1  'x, y, z'
loop_
 _atom_site_type_symbol
 _atom_site_label
 _atom_site_symmetry_multiplicity
 _atom_site_fract_x
 _atom_site_fract_y
 _atom_site_fract_z
 _atom_site_occupancy
  Li  Li0  1  0.750000  0.294050  0.009163  1
  Sc  Sc1  1  0.250000  0.582119  0.702979  1
  Sc  Sc2  1  0.250000  0.922017  0.201529  1
  Sc  Sc3  1  0.750000  0.418489  0.297504  1
  Sc  Sc4  1  0.750000  0.082994  0.793845  1
  Co  Co5  1  0.250000  0.780807  0.494665  1
  Co  Co6  1  0.750000  0.218204  0.506430  1
  Co  Co7  1  0.250000  0.407629  0.484525  1
  Co  Co8  1  0.250000  0.092490  0.984101  1
  Co  Co9  1  0.750000  0.591816  0.514229  1
  Co  Co10  1  0.750000  0.908422  0.013601  1
  Co  Co11  1  0.250000  0.219121  0.179783  1
  Co  Co12  1  0.250000  0.279408  0.672557  1
  Co  Co13  1  0.750000  0.777352  0.822670  1
  Co  Co14  1  0.750000  0.722185  0.324394  1
  Co  Co15  1  0.250000  0.883423  0.700578  1
  Co  Co16  1  0.250000  0.615922  0.203168  1
  Co  Co17  1  0.750000  0.114852  0.301576  1
  Co  Co18  1  0.750000  0.381019  0.797797  1
  Co  Co19  1  0.250000  0.461624  0.932234  1
  Co  Co20  1  0.250000  0.032511  0.431875  1
  Co  Co21  1  0.750000  0.535121  0.070480  1
  Co  Co22  1  0.750000  0.965835  0.569750  1
  P  P23  1  0.250000  0.418988  0.118812  1
  P  P24  1  0.250000  0.080855  0.613994  1
  P  P25  1  0.750000  0.576171  0.884064  1
  P  P26  1  0.750000  0.919157  0.386092  1
  P  P27  1  0.250000  0.263510  0.862164  1
  P  P28  1  0.250000  0.233006  0.368743  1
  P  P29  1  0.750000  0.736025  0.135556  1
  P  P30  1  0.750000  0.765422  0.631425  1
  P  P31  1  0.250000  0.598544  0.391383  1
  P  P32  1  0.250000  0.906554  0.888139  1
  P  P33  1  0.750000  0.401715  0.608507  1
  P  P34  1  0.750000  0.100001  0.110663  1
  Ru  Ru35  1  0.250000  0.712639  0.991025  1
