# generated using pymatgen
data_SrLaNd5OsI12
_symmetry_space_group_name_H-M   'P 1'
_cell_length_a   10.07018393
_cell_length_b   10.05079160
_cell_length_c   10.18538569
_cell_angle_alpha   106.30786038
_cell_angle_beta   106.49541259
_cell_angle_gamma   106.50972838
_symmetry_Int_Tables_number   1
_chemical_formula_structural   SrLaNd5OsI12
_chemical_formula_sum   'Sr1 La1 Nd5 Os1 I12'
_cell_volume   871.37252229
_cell_formula_units_Z   1
loop_
 _symmetry_equiv_pos_site_id
 _symmetry_equiv_pos_as_xyz
  1  'x, y, z'
loop_
 _atom_site_type_symbol
 _atom_site_label
 _atom_site_symmetry_multiplicity
 _atom_site_fract_x
 _atom_site_fract_y
 _atom_site_fract_z
 _atom_site_occupancy
  Sr  Sr0  1  0.499586  0.500413  0.498953  1
  La  La1  1  0.904441  0.702511  0.978566  1
  Nd  Nd2  1  0.095141  0.293018  0.021699  1
  Nd  Nd3  1  0.297857  0.021943  0.096318  1
  Nd  Nd4  1  0.021846  0.100645  0.307272  1
  Nd  Nd5  1  0.978577  0.901169  0.693897  1
  Nd  Nd6  1  0.702124  0.976808  0.903950  1
  Os  Os7  1  0.998991  0.996348  0.000572  1
  I  I8  1  0.231026  0.681952  0.075521  1
  I  I9  1  0.452648  0.372456  0.145224  1
  I  I10  1  0.679500  0.073704  0.223305  1
  I  I11  1  0.927364  0.777735  0.323684  1
  I  I12  1  0.143615  0.453587  0.368920  1
  I  I13  1  0.370722  0.143727  0.450753  1
  I  I14  1  0.629540  0.858113  0.549883  1
  I  I15  1  0.855163  0.546392  0.624430  1
  I  I16  1  0.074482  0.226938  0.683310  1
  I  I17  1  0.321063  0.928195  0.777098  1
  I  I18  1  0.541223  0.626656  0.850647  1
  I  I19  1  0.775088  0.317692  0.926000  1
