# generated using pymatgen
data_Pr3UBe8(B5O11)4
_symmetry_space_group_name_H-M   'P 1'
_cell_length_a   4.39588542
_cell_length_b   6.81856383
_cell_length_c   26.20965600
_cell_angle_alpha   90.04230866
_cell_angle_beta   90.21317085
_cell_angle_gamma   89.78047720
_symmetry_Int_Tables_number   1
_chemical_formula_structural   Pr3UBe8(B5O11)4
_chemical_formula_sum   'Pr3 U1 Be8 B20 O44'
_cell_volume   785.58700090
_cell_formula_units_Z   1
loop_
 _symmetry_equiv_pos_site_id
 _symmetry_equiv_pos_as_xyz
  1  'x, y, z'
loop_
 _atom_site_type_symbol
 _atom_site_label
 _atom_site_symmetry_multiplicity
 _atom_site_fract_x
 _atom_site_fract_y
 _atom_site_fract_z
 _atom_site_occupancy
  Pr  Pr0  1  0.853006  0.370096  0.919397  1
  Pr  Pr1  1  0.146450  0.869548  0.080777  1
  Pr  Pr2  1  0.358484  0.868155  0.580516  1
  U  U3  1  0.638367  0.371619  0.418962  1
  Be  Be4  1  0.162603  0.454558  0.789146  1
  Be  Be5  1  0.835523  0.955811  0.211058  1
  Be  Be6  1  0.661799  0.954455  0.710741  1
  Be  Be7  1  0.336310  0.456080  0.288895  1
  Be  Be8  1  0.657678  0.231956  0.790743  1
  Be  Be9  1  0.339829  0.733565  0.209190  1
  Be  Be10  1  0.157810  0.731625  0.709067  1
  Be  Be11  1  0.841018  0.234182  0.291064  1
  B  B12  1  0.374588  0.038346  0.866289  1
  B  B13  1  0.624419  0.538941  0.133910  1
  B  B14  1  0.879660  0.536057  0.633386  1
  B  B15  1  0.121519  0.039486  0.366807  1
  B  B16  1  0.153824  0.711401  0.867671  1
  B  B17  1  0.845651  0.211477  0.132570  1
  B  B18  1  0.656640  0.210337  0.632091  1
  B  B19  1  0.340195  0.712643  0.367599  1
  B  B20  1  0.043764  0.936395  0.940348  1
  B  B21  1  0.956259  0.436044  0.060005  1
  B  B22  1  0.546884  0.434302  0.559318  1
  B  B23  1  0.458336  0.934788  0.440516  1
  B  B24  1  0.553435  0.952469  0.994013  1
  B  B25  1  0.446681  0.451927  0.006351  1
  B  B26  1  0.055007  0.450761  0.505934  1
  B  B27  1  0.951215  0.949903  0.493810  1
  B  B28  1  0.171257  0.091478  0.751256  1
  B  B29  1  0.826533  0.593059  0.248596  1
  B  B30  1  0.671760  0.591685  0.748482  1
  B  B31  1  0.326526  0.093123  0.251594  1
  O  O32  1  0.352013  0.847860  0.846491  1
  O  O33  1  0.647418  0.348756  0.153788  1
  O  O34  1  0.857138  0.345941  0.653221  1
  O  O35  1  0.139705  0.849571  0.346765  1
  O  O36  1  0.645892  0.920679  0.042687  1
  O  O37  1  0.353765  0.420441  0.957687  1
  O  O38  1  0.147140  0.419258  0.457291  1
  O  O39  1  0.858743  0.918483  0.542381  1
  O  O40  1  0.009915  0.746689  0.914215  1
  O  O41  1  0.990140  0.246155  0.086090  1
  O  O42  1  0.512454  0.245023  0.585405  1
  O  O43  1  0.484472  0.745376  0.414291  1
  O  O44  1  0.240427  0.922360  0.986366  1
  O  O45  1  0.760358  0.422725  0.013869  1
  O  O46  1  0.742965  0.419015  0.513470  1
  O  O47  1  0.265922  0.923987  0.486767  1
  O  O48  1  0.169586  0.083925  0.905243  1
  O  O49  1  0.829689  0.584003  0.095096  1
  O  O50  1  0.674537  0.581734  0.594327  1
  O  O51  1  0.331307  0.083130  0.405392  1
  O  O52  1  0.096350  0.531899  0.847126  1
  O  O53  1  0.902603  0.031780  0.153073  1
  O  O54  1  0.596242  0.031862  0.652784  1
  O  O55  1  0.401364  0.534643  0.346550  1
  O  O56  1  0.572262  0.176844  0.850059  1
  O  O57  1  0.425229  0.677878  0.149972  1
  O  O58  1  0.076430  0.675067  0.649704  1
  O  O59  1  0.925584  0.180213  0.350589  1
  O  O60  1  0.740579  0.013264  0.954456  1
  O  O61  1  0.259433  0.511888  0.046073  1
  O  O62  1  0.243987  0.512647  0.545252  1
  O  O63  1  0.764400  0.007270  0.453711  1
  O  O64  1  0.021654  0.229127  0.781138  1
  O  O65  1  0.975958  0.730461  0.218895  1
  O  O66  1  0.521740  0.729463  0.718656  1
  O  O67  1  0.476933  0.230820  0.281291  1
  O  O68  1  0.483998  0.091446  0.750997  1
  O  O69  1  0.513909  0.592891  0.248773  1
  O  O70  1  0.984469  0.591306  0.748702  1
  O  O71  1  0.013752  0.092552  0.251545  1
  O  O72  1  0.021098  0.953977  0.722363  1
  O  O73  1  0.977331  0.455342  0.277411  1
  O  O74  1  0.521732  0.454626  0.777377  1
  O  O75  1  0.476344  0.955787  0.222557  1
