# generated using pymatgen
data_CaPr16Ag3Ir4
_symmetry_space_group_name_H-M   'P 1'
_cell_length_a   10.05799042
_cell_length_b   10.05798968
_cell_length_c   10.05799048
_cell_angle_alpha   60.31344437
_cell_angle_beta   60.31345059
_cell_angle_gamma   60.31344930
_symmetry_Int_Tables_number   1
_chemical_formula_structural   CaPr16Ag3Ir4
_chemical_formula_sum   'Ca1 Pr16 Ag3 Ir4'
_cell_volume   724.58272448
_cell_formula_units_Z   1
loop_
 _symmetry_equiv_pos_site_id
 _symmetry_equiv_pos_as_xyz
  1  'x, y, z'
loop_
 _atom_site_type_symbol
 _atom_site_label
 _atom_site_symmetry_multiplicity
 _atom_site_fract_x
 _atom_site_fract_y
 _atom_site_fract_z
 _atom_site_occupancy
  Ca  Ca0  1  0.556475  0.556475  0.556475  1
  Pr  Pr1  1  0.350432  0.350432  0.350432  1
  Pr  Pr2  1  0.345813  0.345813  0.965356  1
  Pr  Pr3  1  0.345813  0.965356  0.345813  1
  Pr  Pr4  1  0.965356  0.345813  0.345813  1
  Pr  Pr5  1  0.808304  0.195515  0.195515  1
  Pr  Pr6  1  0.184745  0.816122  0.816122  1
  Pr  Pr7  1  0.195515  0.808304  0.195515  1
  Pr  Pr8  1  0.816122  0.184745  0.816122  1
  Pr  Pr9  1  0.195515  0.195515  0.808304  1
  Pr  Pr10  1  0.816122  0.816122  0.184745  1
  Pr  Pr11  1  0.939102  0.561810  0.561810  1
  Pr  Pr12  1  0.561832  0.939468  0.939468  1
  Pr  Pr13  1  0.561810  0.939102  0.561810  1
  Pr  Pr14  1  0.939468  0.561832  0.939468  1
  Pr  Pr15  1  0.561810  0.561810  0.939102  1
  Pr  Pr16  1  0.939468  0.939468  0.561832  1
  Ag  Ag17  1  0.593059  0.593059  0.222107  1
  Ag  Ag18  1  0.593059  0.222107  0.593059  1
  Ag  Ag19  1  0.222107  0.593059  0.593059  1
  Ir  Ir20  1  0.142663  0.142663  0.142663  1
  Ir  Ir21  1  0.143950  0.143950  0.577508  1
  Ir  Ir22  1  0.143950  0.577508  0.143950  1
  Ir  Ir23  1  0.577508  0.143950  0.143950  1
