# generated using pymatgen
data_Y3Sc3Ni4(Sn3Pt)2
_symmetry_space_group_name_H-M   'P 1'
_cell_length_a   7.43008600
_cell_length_b   7.43008680
_cell_length_c   7.37335900
_cell_angle_alpha   90.00000000
_cell_angle_beta   90.00000000
_cell_angle_gamma   120.00000653
_symmetry_Int_Tables_number   1
_chemical_formula_structural   Y3Sc3Ni4(Sn3Pt)2
_chemical_formula_sum   'Y3 Sc3 Ni4 Sn6 Pt2'
_cell_volume   352.51995892
_cell_formula_units_Z   1
loop_
 _symmetry_equiv_pos_site_id
 _symmetry_equiv_pos_as_xyz
  1  'x, y, z'
loop_
 _atom_site_type_symbol
 _atom_site_label
 _atom_site_symmetry_multiplicity
 _atom_site_fract_x
 _atom_site_fract_y
 _atom_site_fract_z
 _atom_site_occupancy
  Y  Y0  1  0.402791  0.000185  0.250000  1
  Y  Y1  1  0.597394  0.597209  0.250000  1
  Y  Y2  1  0.999815  0.402606  0.250000  1
  Sc  Sc3  1  0.393882  0.999857  0.750008  1
  Sc  Sc4  1  0.605975  0.606118  0.750008  1
  Sc  Sc5  1  0.000143  0.394025  0.750008  1
  Ni  Ni6  1  0.000000  0.000000  0.749770  1
  Ni  Ni7  1  0.000000  0.000000  0.250378  1
  Ni  Ni8  1  0.666667  0.333333  0.957619  1
  Ni  Ni9  1  0.333333  0.666667  0.540864  1
  Sn  Sn10  1  0.266261  0.256875  0.988813  1
  Sn  Sn11  1  0.990614  0.733739  0.988813  1
  Sn  Sn12  1  0.009501  0.742583  0.511374  1
  Sn  Sn13  1  0.733082  0.990499  0.511374  1
  Sn  Sn14  1  0.257417  0.266918  0.511374  1
  Sn  Sn15  1  0.743125  0.009386  0.988813  1
  Pt  Pt16  1  0.333333  0.666667  0.969195  1
  Pt  Pt17  1  0.666667  0.333333  0.531591  1
