# generated using pymatgen
data_Y2Si7Pt12
_symmetry_space_group_name_H-M   'P 1'
_cell_length_a   9.94722200
_cell_length_b   9.94722104
_cell_length_c   3.95526900
_cell_angle_alpha   90.00000000
_cell_angle_beta   90.00000000
_cell_angle_gamma   119.99998988
_symmetry_Int_Tables_number   1
_chemical_formula_structural   Y2Si7Pt12
_chemical_formula_sum   'Y2 Si7 Pt12'
_cell_volume   338.93021007
_cell_formula_units_Z   1
loop_
 _symmetry_equiv_pos_site_id
 _symmetry_equiv_pos_as_xyz
  1  'x, y, z'
loop_
 _atom_site_type_symbol
 _atom_site_label
 _atom_site_symmetry_multiplicity
 _atom_site_fract_x
 _atom_site_fract_y
 _atom_site_fract_z
 _atom_site_occupancy
  Y  Y0  1  0.333333  0.666667  0.749931  1
  Y  Y1  1  0.666667  0.333333  0.250069  1
  Si  Si2  1  0.000000  0.000000  0.500000  1
  Si  Si3  1  0.404954  0.288652  0.748787  1
  Si  Si4  1  0.711348  0.116301  0.748787  1
  Si  Si5  1  0.883699  0.595046  0.748787  1
  Si  Si6  1  0.595046  0.711348  0.251213  1
  Si  Si7  1  0.288652  0.883699  0.251213  1
  Si  Si8  1  0.116301  0.404954  0.251213  1
  Pt  Pt9  1  0.453506  0.073976  0.749788  1
  Pt  Pt10  1  0.926024  0.379530  0.749788  1
  Pt  Pt11  1  0.620470  0.546494  0.749788  1
  Pt  Pt12  1  0.546494  0.926024  0.250212  1
  Pt  Pt13  1  0.073976  0.620470  0.250212  1
  Pt  Pt14  1  0.379530  0.453506  0.250212  1
  Pt  Pt15  1  0.146529  0.260412  0.755983  1
  Pt  Pt16  1  0.739588  0.886116  0.755983  1
  Pt  Pt17  1  0.113884  0.853471  0.755983  1
  Pt  Pt18  1  0.853471  0.739588  0.244017  1
  Pt  Pt19  1  0.260412  0.113884  0.244017  1
  Pt  Pt20  1  0.886116  0.146529  0.244017  1
