# generated using pymatgen
data_Tb4CoPd3F28
_symmetry_space_group_name_H-M   'P 1'
_cell_length_a   5.57233877
_cell_length_b   8.93472492
_cell_length_c   12.03312800
_cell_angle_alpha   62.36994868
_cell_angle_beta   89.95437797
_cell_angle_gamma   89.92775866
_symmetry_Int_Tables_number   1
_chemical_formula_structural   Tb4CoPd3F28
_chemical_formula_sum   'Tb4 Co1 Pd3 F28'
_cell_volume   530.77592586
_cell_formula_units_Z   1
loop_
 _symmetry_equiv_pos_site_id
 _symmetry_equiv_pos_as_xyz
  1  'x, y, z'
loop_
 _atom_site_type_symbol
 _atom_site_label
 _atom_site_symmetry_multiplicity
 _atom_site_fract_x
 _atom_site_fract_y
 _atom_site_fract_z
 _atom_site_occupancy
  Tb  Tb0  1  0.263053  0.810558  0.267294  1
  Tb  Tb1  1  0.737778  0.187172  0.735888  1
  Tb  Tb2  1  0.761352  0.184965  0.237345  1
  Tb  Tb3  1  0.240341  0.811340  0.763216  1
  Co  Co4  1  0.742950  0.725915  0.543385  1
  Pd  Pd5  1  0.759377  0.726605  0.043594  1
  Pd  Pd6  1  0.240506  0.272531  0.957049  1
  Pd  Pd7  1  0.258717  0.271938  0.457908  1
  F  F8  1  0.945007  0.710734  0.425793  1
  F  F9  1  0.064249  0.297340  0.582643  1
  F  F10  1  0.434731  0.295741  0.082544  1
  F  F11  1  0.566979  0.703587  0.917154  1
  F  F12  1  0.470032  0.727400  0.135051  1
  F  F13  1  0.528896  0.273598  0.864295  1
  F  F14  1  0.969804  0.270681  0.367243  1
  F  F15  1  0.007170  0.733527  0.637061  1
  F  F16  1  0.947798  0.743783  0.175036  1
  F  F17  1  0.049267  0.256560  0.826353  1
  F  F18  1  0.448620  0.253140  0.328106  1
  F  F19  1  0.543135  0.747583  0.662927  1
  F  F20  1  0.770872  0.480046  0.141841  1
  F  F21  1  0.228850  0.518788  0.857877  1
  F  F22  1  0.272098  0.517746  0.360892  1
  F  F23  1  0.728591  0.489957  0.635239  1
  F  F24  1  0.945794  0.279625  0.042687  1
  F  F25  1  0.054480  0.718630  0.958276  1
  F  F26  1  0.464250  0.721344  0.454645  1
  F  F27  1  0.554533  0.280342  0.542310  1
  F  F28  1  0.741899  0.961467  0.448061  1
  F  F29  1  0.255161  0.026864  0.548894  1
  F  F30  1  0.242586  0.027582  0.049883  1
  F  F31  1  0.756102  0.972045  0.950984  1
  F  F32  1  0.583864  0.971896  0.230278  1
  F  F33  1  0.417581  0.028387  0.766685  1
  F  F34  1  0.084707  0.028038  0.268968  1
  F  F35  1  0.918865  0.972547  0.732590  1
