# generated using pymatgen
data_DyTm15Cd4Ni3Ru
_symmetry_space_group_name_H-M   'P 1'
_cell_length_a   9.46928214
_cell_length_b   9.46928302
_cell_length_c   9.46811321
_cell_angle_alpha   59.54785590
_cell_angle_beta   59.54785073
_cell_angle_gamma   59.47915019
_symmetry_Int_Tables_number   1
_chemical_formula_structural   DyTm15Cd4Ni3Ru
_chemical_formula_sum   'Dy1 Tm15 Cd4 Ni3 Ru1'
_cell_volume   593.83433994
_cell_formula_units_Z   1
loop_
 _symmetry_equiv_pos_site_id
 _symmetry_equiv_pos_as_xyz
  1  'x, y, z'
loop_
 _atom_site_type_symbol
 _atom_site_label
 _atom_site_symmetry_multiplicity
 _atom_site_fract_x
 _atom_site_fract_y
 _atom_site_fract_z
 _atom_site_occupancy
  Dy  Dy0  1  0.187675  0.187675  0.810428  1
  Tm  Tm1  1  0.596968  0.596968  0.596820  1
  Tm  Tm2  1  0.601076  0.601076  0.204335  1
  Tm  Tm3  1  0.601263  0.204322  0.600589  1
  Tm  Tm4  1  0.204322  0.601263  0.600589  1
  Tm  Tm5  1  0.059450  0.438620  0.437518  1
  Tm  Tm6  1  0.437169  0.061683  0.062201  1
  Tm  Tm7  1  0.438620  0.059450  0.437518  1
  Tm  Tm8  1  0.061683  0.437169  0.062201  1
  Tm  Tm9  1  0.438088  0.438088  0.059659  1
  Tm  Tm10  1  0.061992  0.061992  0.436713  1
  Tm  Tm11  1  0.185643  0.815046  0.815739  1
  Tm  Tm12  1  0.809580  0.187824  0.188315  1
  Tm  Tm13  1  0.815046  0.185643  0.815739  1
  Tm  Tm14  1  0.187824  0.809580  0.188315  1
  Tm  Tm15  1  0.815924  0.815924  0.185630  1
  Cd  Cd16  1  0.830411  0.830411  0.830543  1
  Cd  Cd17  1  0.830186  0.830186  0.505474  1
  Cd  Cd18  1  0.829405  0.505927  0.830436  1
  Cd  Cd19  1  0.505927  0.829405  0.830436  1
  Ni  Ni20  1  0.391794  0.391794  0.824920  1
  Ni  Ni21  1  0.391565  0.824778  0.391469  1
  Ni  Ni22  1  0.824778  0.391565  0.391469  1
  Ru  Ru23  1  0.393611  0.393611  0.392946  1
