# generated using pymatgen
data_Nd7Ho5(Si2Ni)4
_symmetry_space_group_name_H-M   'P 1'
_cell_length_a   4.18967700
_cell_length_b   11.65893638
_cell_length_c   11.37125704
_cell_angle_alpha   89.95164463
_cell_angle_beta   90.00000000
_cell_angle_gamma   90.00000000
_symmetry_Int_Tables_number   1
_chemical_formula_structural   Nd7Ho5(Si2Ni)4
_chemical_formula_sum   'Nd7 Ho5 Si8 Ni4'
_cell_volume   555.45361431
_cell_formula_units_Z   1
loop_
 _symmetry_equiv_pos_site_id
 _symmetry_equiv_pos_as_xyz
  1  'x, y, z'
loop_
 _atom_site_type_symbol
 _atom_site_label
 _atom_site_symmetry_multiplicity
 _atom_site_fract_x
 _atom_site_fract_y
 _atom_site_fract_z
 _atom_site_occupancy
  Nd  Nd0  1  0.250000  0.058441  0.885122  1
  Nd  Nd1  1  0.250000  0.440123  0.382689  1
  Nd  Nd2  1  0.750000  0.938160  0.115151  1
  Nd  Nd3  1  0.750000  0.561563  0.616808  1
  Nd  Nd4  1  0.250000  0.123030  0.562982  1
  Nd  Nd5  1  0.250000  0.379698  0.059260  1
  Nd  Nd6  1  0.750000  0.877445  0.439034  1
  Ho  Ho7  1  0.750000  0.624119  0.937679  1
  Ho  Ho8  1  0.250000  0.802764  0.712097  1
  Ho  Ho9  1  0.250000  0.692087  0.208890  1
  Ho  Ho10  1  0.750000  0.192516  0.289261  1
  Ho  Ho11  1  0.750000  0.311616  0.790524  1
  Si  Si12  1  0.250000  0.805207  0.969801  1
  Si  Si13  1  0.250000  0.688248  0.467978  1
  Si  Si14  1  0.750000  0.189583  0.030587  1
  Si  Si15  1  0.750000  0.311967  0.531641  1
  Si  Si16  1  0.250000  0.491457  0.805279  1
  Si  Si17  1  0.250000  0.016567  0.302551  1
  Si  Si18  1  0.750000  0.517738  0.193925  1
  Si  Si19  1  0.750000  0.980509  0.698458  1
  Ni  Ni20  1  0.250000  0.364509  0.635403  1
  Ni  Ni21  1  0.250000  0.138202  0.132777  1
  Ni  Ni22  1  0.750000  0.638793  0.365311  1
  Ni  Ni23  1  0.750000  0.855661  0.866790  1
