# generated using pymatgen
data_Nb16GaNi7C4
_symmetry_space_group_name_H-M   'P 1'
_cell_length_a   8.31709594
_cell_length_b   8.31709618
_cell_length_c   8.31709585
_cell_angle_alpha   59.89890495
_cell_angle_beta   59.89890372
_cell_angle_gamma   59.89890343
_symmetry_Int_Tables_number   1
_chemical_formula_structural   Nb16GaNi7C4
_chemical_formula_sum   'Nb16 Ga1 Ni7 C4'
_cell_volume   405.88492662
_cell_formula_units_Z   1
loop_
 _symmetry_equiv_pos_site_id
 _symmetry_equiv_pos_as_xyz
  1  'x, y, z'
loop_
 _atom_site_type_symbol
 _atom_site_label
 _atom_site_symmetry_multiplicity
 _atom_site_fract_x
 _atom_site_fract_y
 _atom_site_fract_z
 _atom_site_occupancy
  Nb  Nb0  1  0.435779  0.064949  0.064949  1
  Nb  Nb1  1  0.067411  0.431761  0.431761  1
  Nb  Nb2  1  0.064949  0.435779  0.064949  1
  Nb  Nb3  1  0.064949  0.064949  0.435779  1
  Nb  Nb4  1  0.431761  0.067411  0.431761  1
  Nb  Nb5  1  0.431761  0.431761  0.067411  1
  Nb  Nb6  1  0.181823  0.817564  0.181823  1
  Nb  Nb7  1  0.814176  0.189993  0.814176  1
  Nb  Nb8  1  0.817564  0.181823  0.181823  1
  Nb  Nb9  1  0.181823  0.181823  0.817564  1
  Nb  Nb10  1  0.189993  0.814176  0.814176  1
  Nb  Nb11  1  0.814176  0.814176  0.189993  1
  Nb  Nb12  1  0.625778  0.625778  0.625778  1
  Nb  Nb13  1  0.618403  0.618403  0.130895  1
  Nb  Nb14  1  0.130895  0.618403  0.618403  1
  Nb  Nb15  1  0.618403  0.130895  0.618403  1
  Ga  Ga16  1  0.836656  0.836656  0.836656  1
  Ni  Ni17  1  0.830842  0.830842  0.511495  1
  Ni  Ni18  1  0.511495  0.830842  0.830842  1
  Ni  Ni19  1  0.830842  0.511495  0.830842  1
  Ni  Ni20  1  0.419701  0.419701  0.419701  1
  Ni  Ni21  1  0.420566  0.420566  0.739100  1
  Ni  Ni22  1  0.420566  0.739100  0.420566  1
  Ni  Ni23  1  0.739100  0.420566  0.420566  1
  C  C24  1  0.124489  0.626248  0.124489  1
  C  C25  1  0.626248  0.124489  0.124489  1
  C  C26  1  0.124489  0.124489  0.626248  1
  C  C27  1  0.125362  0.125362  0.125362  1
