# generated using pymatgen
data_Rb6ErLuF12
_symmetry_space_group_name_H-M   'P 1'
_cell_length_a   6.83093226
_cell_length_b   6.59327599
_cell_length_c   11.46110661
_cell_angle_alpha   55.23207844
_cell_angle_beta   89.94818121
_cell_angle_gamma   89.95704435
_symmetry_Int_Tables_number   1
_chemical_formula_structural   Rb6ErLuF12
_chemical_formula_sum   'Rb6 Er1 Lu1 F12'
_cell_volume   424.03193238
_cell_formula_units_Z   1
loop_
 _symmetry_equiv_pos_site_id
 _symmetry_equiv_pos_as_xyz
  1  'x, y, z'
loop_
 _atom_site_type_symbol
 _atom_site_label
 _atom_site_symmetry_multiplicity
 _atom_site_fract_x
 _atom_site_fract_y
 _atom_site_fract_z
 _atom_site_occupancy
  Rb  Rb0  1  0.500000  0.500000  0.000000  1
  Rb  Rb1  1  0.000000  0.500000  0.500000  1
  Rb  Rb2  1  0.049186  0.733351  0.753244  1
  Rb  Rb3  1  0.950814  0.266649  0.246756  1
  Rb  Rb4  1  0.549985  0.265564  0.747755  1
  Rb  Rb5  1  0.450015  0.734436  0.252245  1
  Er  Er6  1  0.500000  0.000000  0.500000  1
  Lu  Lu7  1  0.000000  0.000000  0.000000  1
  F  F8  1  0.762216  0.773950  0.562709  1
  F  F9  1  0.237784  0.226050  0.437291  1
  F  F10  1  0.258778  0.222686  0.937090  1
  F  F11  1  0.741222  0.777314  0.062910  1
  F  F12  1  0.451729  0.884953  0.716874  1
  F  F13  1  0.548271  0.115047  0.283126  1
  F  F14  1  0.952197  0.112368  0.786788  1
  F  F15  1  0.047803  0.887632  0.213212  1
  F  F16  1  0.328566  0.686444  0.545166  1
  F  F17  1  0.671434  0.313556  0.454834  1
  F  F18  1  0.831447  0.309689  0.954960  1
  F  F19  1  0.168553  0.690311  0.045040  1
