# generated using pymatgen
data_Ac(NiAs)2
_symmetry_space_group_name_H-M   'P 1'
_cell_length_a   4.34691400
_cell_length_b   4.34691400
_cell_length_c   9.74725400
_cell_angle_alpha   90.00000000
_cell_angle_beta   90.00000000
_cell_angle_gamma   90.00000000
_symmetry_Int_Tables_number   1
_chemical_formula_structural   Ac(NiAs)2
_chemical_formula_sum   'Ac2 Ni4 As4'
_cell_volume   184.18081042
_cell_formula_units_Z   2
loop_
 _symmetry_equiv_pos_site_id
 _symmetry_equiv_pos_as_xyz
  1  'x, y, z'
loop_
 _atom_site_type_symbol
 _atom_site_label
 _atom_site_symmetry_multiplicity
 _atom_site_fract_x
 _atom_site_fract_y
 _atom_site_fract_z
 _atom_site_occupancy
  Ac  Ac0  1  0.000000  0.500000  0.247264  1
  Ac  Ac1  1  0.500000  0.000000  0.752736  1
  Ni  Ni2  1  0.000000  0.000000  0.000000  1
  Ni  Ni3  1  0.500000  0.500000  0.000000  1
  Ni  Ni4  1  0.000000  0.500000  0.615216  1
  Ni  Ni5  1  0.500000  0.000000  0.384784  1
  As  As6  1  0.000000  0.000000  0.500000  1
  As  As7  1  0.500000  0.500000  0.500000  1
  As  As8  1  0.000000  0.500000  0.874180  1
  As  As9  1  0.500000  0.000000  0.125820  1
