# generated using pymatgen
data_Pr15NdCd4CoPt3
_symmetry_space_group_name_H-M   'P 1'
_cell_length_a   10.04950914
_cell_length_b   10.05031439
_cell_length_c   10.04883100
_cell_angle_alpha   60.04582745
_cell_angle_beta   59.98782488
_cell_angle_gamma   60.09348306
_symmetry_Int_Tables_number   1
_chemical_formula_structural   Pr15NdCd4CoPt3
_chemical_formula_sum   'Pr15 Nd1 Cd4 Co1 Pt3'
_cell_volume   718.35855999
_cell_formula_units_Z   1
loop_
 _symmetry_equiv_pos_site_id
 _symmetry_equiv_pos_as_xyz
  1  'x, y, z'
loop_
 _atom_site_type_symbol
 _atom_site_label
 _atom_site_symmetry_multiplicity
 _atom_site_fract_x
 _atom_site_fract_y
 _atom_site_fract_z
 _atom_site_occupancy
  Pr  Pr0  1  0.345727  0.345863  0.952286  1
  Pr  Pr1  1  0.346060  0.951899  0.345958  1
  Pr  Pr2  1  0.952124  0.346006  0.345762  1
  Pr  Pr3  1  0.819858  0.189720  0.189420  1
  Pr  Pr4  1  0.190157  0.809022  0.808718  1
  Pr  Pr5  1  0.189696  0.819756  0.189576  1
  Pr  Pr6  1  0.808954  0.190248  0.808839  1
  Pr  Pr7  1  0.189420  0.189581  0.819970  1
  Pr  Pr8  1  0.808750  0.808950  0.190078  1
  Pr  Pr9  1  0.939916  0.561284  0.561531  1
  Pr  Pr10  1  0.561564  0.935986  0.935920  1
  Pr  Pr11  1  0.561359  0.939964  0.561478  1
  Pr  Pr12  1  0.935998  0.561467  0.935966  1
  Pr  Pr13  1  0.561494  0.561354  0.939829  1
  Pr  Pr14  1  0.935904  0.935953  0.561653  1
  Nd  Nd15  1  0.350574  0.350398  0.350707  1
  Cd  Cd16  1  0.579839  0.579821  0.579851  1
  Cd  Cd17  1  0.580716  0.580742  0.258522  1
  Cd  Cd18  1  0.580759  0.258486  0.580731  1
  Cd  Cd19  1  0.258510  0.580760  0.580706  1
  Co  Co20  1  0.143043  0.143247  0.142863  1
  Pt  Pt21  1  0.144443  0.144428  0.570745  1
  Pt  Pt22  1  0.144437  0.570635  0.144442  1
  Pt  Pt23  1  0.570696  0.144429  0.144447  1
