# generated using pymatgen
data_Yb20As13Au3
_symmetry_space_group_name_H-M   'P 1'
_cell_length_a   7.61701550
_cell_length_b   7.91932719
_cell_length_c   14.86965600
_cell_angle_alpha   90.00000000
_cell_angle_beta   90.00000000
_cell_angle_gamma   88.31063048
_symmetry_Int_Tables_number   1
_chemical_formula_structural   Yb20As13Au3
_chemical_formula_sum   'Yb20 As13 Au3'
_cell_volume   896.57213769
_cell_formula_units_Z   1
loop_
 _symmetry_equiv_pos_site_id
 _symmetry_equiv_pos_as_xyz
  1  'x, y, z'
loop_
 _atom_site_type_symbol
 _atom_site_label
 _atom_site_symmetry_multiplicity
 _atom_site_fract_x
 _atom_site_fract_y
 _atom_site_fract_z
 _atom_site_occupancy
  Yb  Yb0  1  0.029622  0.195333  0.406461  1
  Yb  Yb1  1  0.869151  0.639463  0.383425  1
  Yb  Yb2  1  0.535983  0.311105  0.098934  1
  Yb  Yb3  1  0.130439  0.353765  0.613297  1
  Yb  Yb4  1  0.372738  0.859717  0.385886  1
  Yb  Yb5  1  0.130439  0.353765  0.886703  1
  Yb  Yb6  1  0.372738  0.859717  0.114114  1
  Yb  Yb7  1  0.208545  0.499778  0.250000  1
  Yb  Yb8  1  0.535983  0.311105  0.401066  1
  Yb  Yb9  1  0.788443  0.502634  0.750000  1
  Yb  Yb10  1  0.971423  0.802262  0.913322  1
  Yb  Yb11  1  0.971423  0.802262  0.586678  1
  Yb  Yb12  1  0.470451  0.678400  0.597722  1
  Yb  Yb13  1  0.622053  0.147054  0.611120  1
  Yb  Yb14  1  0.288718  0.004870  0.750000  1
  Yb  Yb15  1  0.622053  0.147054  0.888880  1
  Yb  Yb16  1  0.707061  0.002088  0.250000  1
  Yb  Yb17  1  0.869151  0.639463  0.116575  1
  Yb  Yb18  1  0.470451  0.678400  0.902278  1
  Yb  Yb19  1  0.029622  0.195333  0.093539  1
  As  As20  1  0.830112  0.356454  0.250000  1
  As  As21  1  0.414193  0.398105  0.750000  1
  As  As22  1  0.677977  0.865595  0.750000  1
  As  As23  1  0.779033  0.457357  0.546608  1
  As  As24  1  0.730569  0.964631  0.052492  1
  As  As25  1  0.779033  0.457357  0.953392  1
  As  As26  1  0.232021  0.541019  0.449173  1
  As  As27  1  0.232021  0.541019  0.050827  1
  As  As28  1  0.173976  0.633435  0.750000  1
  As  As29  1  0.328707  0.142469  0.250000  1
  As  As30  1  0.267010  0.029661  0.947168  1
  As  As31  1  0.730569  0.964631  0.447508  1
  As  As32  1  0.267010  0.029661  0.552832  1
  Au  Au33  1  0.568534  0.628605  0.250000  1
  Au  Au34  1  0.071435  0.871112  0.250000  1
  Au  Au35  1  0.921312  0.135321  0.750000  1
