# generated using pymatgen
data_Pa6Al3Ga3(PtRh2)2
_symmetry_space_group_name_H-M   'P 1'
_cell_length_a   7.03869800
_cell_length_b   7.03869826
_cell_length_c   8.17701000
_cell_angle_alpha   90.00000000
_cell_angle_beta   90.00000000
_cell_angle_gamma   120.00000818
_symmetry_Int_Tables_number   1
_chemical_formula_structural   Pa6Al3Ga3(PtRh2)2
_chemical_formula_sum   'Pa6 Al3 Ga3 Pt2 Rh4'
_cell_volume   350.84056732
_cell_formula_units_Z   1
loop_
 _symmetry_equiv_pos_site_id
 _symmetry_equiv_pos_as_xyz
  1  'x, y, z'
loop_
 _atom_site_type_symbol
 _atom_site_label
 _atom_site_symmetry_multiplicity
 _atom_site_fract_x
 _atom_site_fract_y
 _atom_site_fract_z
 _atom_site_occupancy
  Pa  Pa0  1  0.000107  0.583558  0.743402  1
  Pa  Pa1  1  0.999893  0.583452  0.256598  1
  Pa  Pa2  1  0.583558  0.000107  0.256598  1
  Pa  Pa3  1  0.583452  0.999893  0.743402  1
  Pa  Pa4  1  0.416548  0.416442  0.256598  1
  Pa  Pa5  1  0.416442  0.416548  0.743402  1
  Al  Al6  1  0.763036  0.763036  0.000000  1
  Al  Al7  1  0.000000  0.236964  0.000000  1
  Al  Al8  1  0.236964  0.000000  0.000000  1
  Ga  Ga9  1  0.000000  0.241903  0.500000  1
  Ga  Ga10  1  0.241903  0.000000  0.500000  1
  Ga  Ga11  1  0.758097  0.758097  0.500000  1
  Pt  Pt12  1  0.666667  0.333333  0.999783  1
  Pt  Pt13  1  0.333333  0.666667  0.000217  1
  Rh  Rh14  1  0.333333  0.666667  0.499806  1
  Rh  Rh15  1  0.666667  0.333333  0.500194  1
  Rh  Rh16  1  0.000000  0.000000  0.247554  1
  Rh  Rh17  1  0.000000  0.000000  0.752446  1
