# generated using pymatgen
data_Ba3ZnPt2O9
_symmetry_space_group_name_H-M   'P 1'
_cell_length_a   5.84490900
_cell_length_b   5.84490990
_cell_length_c   14.69764000
_cell_angle_alpha   90.00000000
_cell_angle_beta   90.00000000
_cell_angle_gamma   119.99998927
_symmetry_Int_Tables_number   1
_chemical_formula_structural   Ba3ZnPt2O9
_chemical_formula_sum   'Ba6 Zn2 Pt4 O18'
_cell_volume   434.84437730
_cell_formula_units_Z   2
loop_
 _symmetry_equiv_pos_site_id
 _symmetry_equiv_pos_as_xyz
  1  'x, y, z'
loop_
 _atom_site_type_symbol
 _atom_site_label
 _atom_site_symmetry_multiplicity
 _atom_site_fract_x
 _atom_site_fract_y
 _atom_site_fract_z
 _atom_site_occupancy
  Ba  Ba0  1  0.333333  0.666667  0.582325  1
  Ba  Ba1  1  0.666667  0.333333  0.082325  1
  Ba  Ba2  1  0.666667  0.333333  0.417675  1
  Ba  Ba3  1  0.333333  0.666667  0.917675  1
  Ba  Ba4  1  0.000000  0.000000  0.750000  1
  Ba  Ba5  1  0.000000  0.000000  0.250000  1
  Zn  Zn6  1  0.000000  0.000000  0.000000  1
  Zn  Zn7  1  0.000000  0.000000  0.500000  1
  Pt  Pt8  1  0.666667  0.333333  0.654946  1
  Pt  Pt9  1  0.333333  0.666667  0.154946  1
  Pt  Pt10  1  0.666667  0.333333  0.845054  1
  Pt  Pt11  1  0.333333  0.666667  0.345054  1
  O  O12  1  0.168522  0.831478  0.081340  1
  O  O13  1  0.168522  0.337044  0.081340  1
  O  O14  1  0.662956  0.831478  0.081340  1
  O  O15  1  0.337044  0.168522  0.581340  1
  O  O16  1  0.831478  0.662956  0.918660  1
  O  O17  1  0.831478  0.168522  0.581340  1
  O  O18  1  0.831478  0.662956  0.581340  1
  O  O19  1  0.168522  0.831478  0.418660  1
  O  O20  1  0.662956  0.831478  0.418660  1
  O  O21  1  0.337044  0.168522  0.918660  1
  O  O22  1  0.831478  0.168522  0.918660  1
  O  O23  1  0.168522  0.337044  0.418660  1
  O  O24  1  0.482972  0.965943  0.250000  1
  O  O25  1  0.517028  0.482972  0.750000  1
  O  O26  1  0.965943  0.482972  0.750000  1
  O  O27  1  0.034057  0.517028  0.250000  1
  O  O28  1  0.482972  0.517028  0.250000  1
  O  O29  1  0.517028  0.034057  0.750000  1
