# generated using pymatgen
data_CuBi3(Ru2O7)2
_symmetry_space_group_name_H-M   'P 1'
_cell_length_a   7.33014717
_cell_length_b   7.33014755
_cell_length_c   7.19471247
_cell_angle_alpha   59.37532605
_cell_angle_beta   59.37532548
_cell_angle_gamma   60.00000783
_symmetry_Int_Tables_number   1
_chemical_formula_structural   CuBi3(Ru2O7)2
_chemical_formula_sum   'Cu1 Bi3 Ru4 O14'
_cell_volume   270.74354109
_cell_formula_units_Z   1
loop_
 _symmetry_equiv_pos_site_id
 _symmetry_equiv_pos_as_xyz
  1  'x, y, z'
loop_
 _atom_site_type_symbol
 _atom_site_label
 _atom_site_symmetry_multiplicity
 _atom_site_fract_x
 _atom_site_fract_y
 _atom_site_fract_z
 _atom_site_occupancy
  Cu  Cu0  1  0.125000  0.125000  0.625000  1
  Bi  Bi1  1  0.125000  0.625000  0.125000  1
  Bi  Bi2  1  0.625000  0.125000  0.125000  1
  Bi  Bi3  1  0.125000  0.125000  0.125000  1
  Ru  Ru4  1  0.625000  0.625000  0.125000  1
  Ru  Ru5  1  0.625000  0.125000  0.625000  1
  Ru  Ru6  1  0.125000  0.625000  0.625000  1
  Ru  Ru7  1  0.625000  0.625000  0.625000  1
  O  O8  1  0.234050  0.234050  0.297850  1
  O  O9  1  0.015950  0.015950  0.952150  1
  O  O10  1  0.562757  0.946139  0.544965  1
  O  O11  1  0.294125  0.708445  0.288985  1
  O  O12  1  0.541555  0.541555  0.961015  1
  O  O13  1  0.946139  0.562757  0.544965  1
  O  O14  1  0.541555  0.955875  0.961015  1
  O  O15  1  0.946139  0.946139  0.544965  1
  O  O16  1  0.955875  0.541555  0.961015  1
  O  O17  1  0.708445  0.294125  0.288985  1
  O  O18  1  0.303861  0.687243  0.705035  1
  O  O19  1  0.687243  0.303861  0.705035  1
  O  O20  1  0.303861  0.303861  0.705035  1
  O  O21  1  0.708445  0.708445  0.288985  1
