# generated using pymatgen
data_Hf8TaNb(GaSn3)2
_symmetry_space_group_name_H-M   'P 1'
_cell_length_a   8.60707600
_cell_length_b   8.60707559
_cell_length_c   5.76027900
_cell_angle_alpha   90.00000000
_cell_angle_beta   90.00000000
_cell_angle_gamma   120.00000156
_symmetry_Int_Tables_number   1
_chemical_formula_structural   Hf8TaNb(GaSn3)2
_chemical_formula_sum   'Hf8 Ta1 Nb1 Ga2 Sn6'
_cell_volume   369.56037491
_cell_formula_units_Z   1
loop_
 _symmetry_equiv_pos_site_id
 _symmetry_equiv_pos_as_xyz
  1  'x, y, z'
loop_
 _atom_site_type_symbol
 _atom_site_label
 _atom_site_symmetry_multiplicity
 _atom_site_fract_x
 _atom_site_fract_y
 _atom_site_fract_z
 _atom_site_occupancy
  Hf  Hf0  1  0.731357  0.731499  0.749522  1
  Hf  Hf1  1  0.268501  0.999858  0.749522  1
  Hf  Hf2  1  0.000142  0.268643  0.749522  1
  Hf  Hf3  1  0.268501  0.268643  0.250478  1
  Hf  Hf4  1  0.731357  0.999858  0.250478  1
  Hf  Hf5  1  0.000142  0.731499  0.250478  1
  Hf  Hf6  1  0.333333  0.666667  0.500000  1
  Hf  Hf7  1  0.666667  0.333333  0.500000  1
  Ta  Ta8  1  0.333333  0.666667  0.000000  1
  Nb  Nb9  1  0.666667  0.333333  0.000000  1
  Ga  Ga10  1  0.000000  0.000000  0.000000  1
  Ga  Ga11  1  0.000000  0.000000  0.500000  1
  Sn  Sn12  1  0.389976  0.389967  0.754369  1
  Sn  Sn13  1  0.610033  0.000010  0.754369  1
  Sn  Sn14  1  0.999990  0.610024  0.754369  1
  Sn  Sn15  1  0.610033  0.610024  0.245631  1
  Sn  Sn16  1  0.389976  0.000010  0.245631  1
  Sn  Sn17  1  0.999990  0.389967  0.245631  1
