# generated using pymatgen
data_TmLuU(AlRu)3
_symmetry_space_group_name_H-M   'P 1'
_cell_length_a   6.79553903
_cell_length_b   6.80292293
_cell_length_c   4.02139500
_cell_angle_alpha   90.00000000
_cell_angle_beta   90.00000000
_cell_angle_gamma   116.30693289
_symmetry_Int_Tables_number   1
_chemical_formula_structural   TmLuU(AlRu)3
_chemical_formula_sum   'Tm1 Lu1 U1 Al3 Ru3'
_cell_volume   166.65330848
_cell_formula_units_Z   1
loop_
 _symmetry_equiv_pos_site_id
 _symmetry_equiv_pos_as_xyz
  1  'x, y, z'
loop_
 _atom_site_type_symbol
 _atom_site_label
 _atom_site_symmetry_multiplicity
 _atom_site_fract_x
 _atom_site_fract_y
 _atom_site_fract_z
 _atom_site_occupancy
  Tm  Tm0  1  0.006252  0.416900  0.500000  1
  Lu  Lu1  1  0.416305  0.006339  0.500000  1
  U  U2  1  0.605157  0.605389  0.500000  1
  Al  Al3  1  0.751614  0.024779  0.000000  1
  Al  Al4  1  0.025275  0.752577  0.000000  1
  Al  Al5  1  0.211566  0.210973  0.000000  1
  Ru  Ru6  1  0.376750  0.640953  0.000000  1
  Ru  Ru7  1  0.640546  0.376198  0.000000  1
  Ru  Ru8  1  0.966535  0.965893  0.500000  1
