# generated using pymatgen
data_Tb8Mg3Sc9Si15Ge
_symmetry_space_group_name_H-M   'P 1'
_cell_length_a   7.02787350
_cell_length_b   7.44952999
_cell_length_c   14.00705299
_cell_angle_alpha   90.00786633
_cell_angle_beta   89.94022700
_cell_angle_gamma   89.89440921
_symmetry_Int_Tables_number   1
_chemical_formula_structural   Tb8Mg3Sc9Si15Ge
_chemical_formula_sum   'Tb8 Mg3 Sc9 Si15 Ge1'
_cell_volume   733.32856551
_cell_formula_units_Z   1
loop_
 _symmetry_equiv_pos_site_id
 _symmetry_equiv_pos_as_xyz
  1  'x, y, z'
loop_
 _atom_site_type_symbol
 _atom_site_label
 _atom_site_symmetry_multiplicity
 _atom_site_fract_x
 _atom_site_fract_y
 _atom_site_fract_z
 _atom_site_occupancy
  Tb  Tb0  1  0.013317  0.178099  0.098044  1
  Tb  Tb1  1  0.991131  0.820812  0.903539  1
  Tb  Tb2  1  0.486711  0.674437  0.903766  1
  Tb  Tb3  1  0.990605  0.821733  0.596876  1
  Tb  Tb4  1  0.512881  0.321832  0.097476  1
  Tb  Tb5  1  0.012311  0.177276  0.401053  1
  Tb  Tb6  1  0.513568  0.320344  0.401301  1
  Tb  Tb7  1  0.488893  0.676378  0.596953  1
  Mg  Mg8  1  0.159335  0.504821  0.751288  1
  Mg  Mg9  1  0.841327  0.496586  0.249828  1
  Mg  Mg10  1  0.341346  0.004032  0.249704  1
  Sc  Sc11  1  0.659534  0.998328  0.750370  1
  Sc  Sc12  1  0.328981  0.179180  0.626360  1
  Sc  Sc13  1  0.668356  0.821181  0.374370  1
  Sc  Sc14  1  0.168657  0.681576  0.374368  1
  Sc  Sc15  1  0.668829  0.820207  0.124764  1
  Sc  Sc16  1  0.832065  0.323094  0.625681  1
  Sc  Sc17  1  0.326736  0.181860  0.874909  1
  Sc  Sc18  1  0.833534  0.322770  0.874587  1
  Sc  Sc19  1  0.169566  0.681055  0.124822  1
  Si  Si20  1  0.029333  0.103320  0.750310  1
  Si  Si21  1  0.963743  0.892242  0.249408  1
  Si  Si22  1  0.463414  0.609403  0.249694  1
  Si  Si23  1  0.537507  0.382512  0.750393  1
  Si  Si24  1  0.290084  0.884231  0.750497  1
  Si  Si25  1  0.717751  0.117560  0.249349  1
  Si  Si26  1  0.217642  0.382297  0.249812  1
  Si  Si27  1  0.778727  0.626682  0.750322  1
  Si  Si28  1  0.835013  0.538872  0.465116  1
  Si  Si29  1  0.340466  0.964093  0.465601  1
  Si  Si30  1  0.839473  0.537691  0.033956  1
  Si  Si31  1  0.658013  0.034825  0.537891  1
  Si  Si32  1  0.158767  0.461659  0.966988  1
  Si  Si33  1  0.657547  0.034252  0.961837  1
  Si  Si34  1  0.341226  0.964439  0.034448  1
  Ge  Ge35  1  0.163607  0.460319  0.534319  1
