# generated using pymatgen
data_Dy5Y(Er7Pb8)2
_symmetry_space_group_name_H-M   'P 1'
_cell_length_a   8.17908800
_cell_length_b   8.24221635
_cell_length_c   15.56755310
_cell_angle_alpha   90.03662372
_cell_angle_beta   90.00090119
_cell_angle_gamma   90.00281885
_symmetry_Int_Tables_number   1
_chemical_formula_structural   Dy5Y(Er7Pb8)2
_chemical_formula_sum   'Dy5 Y1 Er14 Pb16'
_cell_volume   1049.46789608
_cell_formula_units_Z   1
loop_
 _symmetry_equiv_pos_site_id
 _symmetry_equiv_pos_as_xyz
  1  'x, y, z'
loop_
 _atom_site_type_symbol
 _atom_site_label
 _atom_site_symmetry_multiplicity
 _atom_site_fract_x
 _atom_site_fract_y
 _atom_site_fract_z
 _atom_site_occupancy
  Dy  Dy0  1  0.963281  0.823786  0.099758  1
  Dy  Dy1  1  0.462997  0.675837  0.099469  1
  Dy  Dy2  1  0.963009  0.824155  0.400532  1
  Dy  Dy3  1  0.536420  0.323778  0.599509  1
  Dy  Dy4  1  0.036428  0.176225  0.900487  1
  Y  Y5  1  0.463265  0.676203  0.400247  1
  Er  Er6  1  0.376826  0.842130  0.878362  1
  Er  Er7  1  0.876827  0.657875  0.621644  1
  Er  Er8  1  0.622779  0.158004  0.378728  1
  Er  Er9  1  0.122772  0.342006  0.121267  1
  Er  Er10  1  0.622685  0.158164  0.121057  1
  Er  Er11  1  0.122660  0.341816  0.378940  1
  Er  Er12  1  0.377061  0.842309  0.621752  1
  Er  Er13  1  0.877087  0.657713  0.878288  1
  Er  Er14  1  0.538029  0.324263  0.899650  1
  Er  Er15  1  0.038015  0.175738  0.600343  1
  Er  Er16  1  0.209183  0.504736  0.750047  1
  Er  Er17  1  0.709195  0.995255  0.749972  1
  Er  Er18  1  0.790990  0.495163  0.249857  1
  Er  Er19  1  0.290935  0.004859  0.250119  1
  Pb  Pb20  1  0.281570  0.034053  0.042846  1
  Pb  Pb21  1  0.781622  0.465930  0.457155  1
  Pb  Pb22  1  0.718739  0.966572  0.543044  1
  Pb  Pb23  1  0.218737  0.533427  0.956954  1
  Pb  Pb24  1  0.717207  0.965532  0.957135  1
  Pb  Pb25  1  0.217203  0.534462  0.542885  1
  Pb  Pb26  1  0.281596  0.034939  0.457914  1
  Pb  Pb27  1  0.781607  0.465067  0.042086  1
  Pb  Pb28  1  0.571980  0.625984  0.749838  1
  Pb  Pb29  1  0.071982  0.874025  0.750164  1
  Pb  Pb30  1  0.428086  0.373164  0.249983  1
  Pb  Pb31  1  0.928098  0.126808  0.250000  1
  Pb  Pb32  1  0.348973  0.154770  0.750170  1
  Pb  Pb33  1  0.848974  0.345228  0.749831  1
  Pb  Pb34  1  0.651611  0.845850  0.249607  1
  Pb  Pb35  1  0.151573  0.654173  0.250361  1
