# generated using pymatgen
data_Y10In8PdAu3
_symmetry_space_group_name_H-M   'P 1'
_cell_length_a   3.67063500
_cell_length_b   8.21956000
_cell_length_c   18.44743000
_cell_angle_alpha   89.99991111
_cell_angle_beta   90.00000000
_cell_angle_gamma   90.00000000
_symmetry_Int_Tables_number   1
_chemical_formula_structural   Y10In8PdAu3
_chemical_formula_sum   'Y10 In8 Pd1 Au3'
_cell_volume   556.57749577
_cell_formula_units_Z   1
loop_
 _symmetry_equiv_pos_site_id
 _symmetry_equiv_pos_as_xyz
  1  'x, y, z'
loop_
 _atom_site_type_symbol
 _atom_site_label
 _atom_site_symmetry_multiplicity
 _atom_site_fract_x
 _atom_site_fract_y
 _atom_site_fract_z
 _atom_site_occupancy
  Y  Y0  1  0.500000  0.245992  0.783183  1
  Y  Y1  1  0.500000  0.762703  0.217292  1
  Y  Y2  1  0.500000  0.262086  0.282466  1
  Y  Y3  1  0.500000  0.732928  0.719378  1
  Y  Y4  1  0.500000  0.121026  0.579781  1
  Y  Y5  1  0.500000  0.878893  0.420613  1
  Y  Y6  1  0.500000  0.378749  0.079142  1
  Y  Y7  1  0.500000  0.617475  0.917362  1
  Y  Y8  1  0.500000  0.000647  0.999852  1
  Y  Y9  1  0.500000  0.500054  0.500256  1
  In  In10  1  0.000000  0.079353  0.147589  1
  In  In11  1  0.000000  0.918225  0.851405  1
  In  In12  1  0.000000  0.422347  0.649751  1
  In  In13  1  0.000000  0.579554  0.352416  1
  In  In14  1  0.000000  0.210173  0.432919  1
  In  In15  1  0.000000  0.789497  0.567514  1
  In  In16  1  0.000000  0.292276  0.931712  1
  In  In17  1  0.000000  0.709960  0.066361  1
  Pd  Pd18  1  0.000000  0.526502  0.804236  1
  Au  Au19  1  0.000000  0.027808  0.696772  1
  Au  Au20  1  0.000000  0.971889  0.303690  1
  Au  Au21  1  0.000000  0.471863  0.196312  1
