# generated using pymatgen
data_LiFe4Pt11
_symmetry_space_group_name_H-M   'P 1'
_cell_length_a   3.90719900
_cell_length_b   5.48046736
_cell_length_c   11.00288080
_cell_angle_alpha   89.63161991
_cell_angle_beta   90.00000000
_cell_angle_gamma   90.00000000
_symmetry_Int_Tables_number   1
_chemical_formula_structural   LiFe4Pt11
_chemical_formula_sum   'Li1 Fe4 Pt11'
_cell_volume   235.60286014
_cell_formula_units_Z   1
loop_
 _symmetry_equiv_pos_site_id
 _symmetry_equiv_pos_as_xyz
  1  'x, y, z'
loop_
 _atom_site_type_symbol
 _atom_site_label
 _atom_site_symmetry_multiplicity
 _atom_site_fract_x
 _atom_site_fract_y
 _atom_site_fract_z
 _atom_site_occupancy
  Li  Li0  1  0.500000  0.751999  0.373003  1
  Fe  Fe1  1  0.500000  0.747473  0.877041  1
  Fe  Fe2  1  0.500000  0.254222  0.127661  1
  Fe  Fe3  1  0.500000  0.249467  0.622327  1
  Fe  Fe4  1  0.000000  0.996896  0.998721  1
  Pt  Pt5  1  0.000000  0.007462  0.242074  1
  Pt  Pt6  1  0.000000  0.993344  0.757366  1
  Pt  Pt7  1  0.000000  0.498490  0.000268  1
  Pt  Pt8  1  0.000000  0.499640  0.500626  1
  Pt  Pt9  1  0.000000  0.503771  0.248561  1
  Pt  Pt10  1  0.000000  0.494431  0.750847  1
  Pt  Pt11  1  0.500000  0.248097  0.373977  1
  Pt  Pt12  1  0.500000  0.236463  0.882936  1
  Pt  Pt13  1  0.500000  0.763092  0.116253  1
  Pt  Pt14  1  0.500000  0.752170  0.626948  1
  Pt  Pt15  1  0.000000  0.002987  0.501392  1
