# generated using pymatgen
data_Pr3In3SnPb
_symmetry_space_group_name_H-M   'P 1'
_cell_length_a   6.72165816
_cell_length_b   6.72165794
_cell_length_c   10.52256500
_cell_angle_alpha   90.00000000
_cell_angle_beta   90.00000000
_cell_angle_gamma   102.88751468
_symmetry_Int_Tables_number   1
_chemical_formula_structural   Pr3In3SnPb
_chemical_formula_sum   'Pr6 In6 Sn2 Pb2'
_cell_volume   463.44088184
_cell_formula_units_Z   2
loop_
 _symmetry_equiv_pos_site_id
 _symmetry_equiv_pos_as_xyz
  1  'x, y, z'
loop_
 _atom_site_type_symbol
 _atom_site_label
 _atom_site_symmetry_multiplicity
 _atom_site_fract_x
 _atom_site_fract_y
 _atom_site_fract_z
 _atom_site_occupancy
  Pr  Pr0  1  0.634401  0.630243  0.250000  1
  Pr  Pr1  1  0.369757  0.365599  0.750000  1
  Pr  Pr2  1  0.204744  0.795256  0.500000  1
  Pr  Pr3  1  0.204744  0.795256  0.000000  1
  Pr  Pr4  1  0.795140  0.204860  0.500000  1
  Pr  Pr5  1  0.795140  0.204860  0.000000  1
  In  In6  1  0.018909  0.020237  0.250000  1
  In  In7  1  0.979763  0.981091  0.750000  1
  In  In8  1  0.305366  0.309557  0.046735  1
  In  In9  1  0.690443  0.694634  0.953265  1
  In  In10  1  0.305366  0.309557  0.453265  1
  In  In11  1  0.690443  0.694634  0.546735  1
  Sn  Sn12  1  0.504069  0.925312  0.750000  1
  Sn  Sn13  1  0.074688  0.495931  0.250000  1
  Pb  Pb14  1  0.499659  0.072632  0.250000  1
  Pb  Pb15  1  0.927368  0.500341  0.750000  1
