# generated using pymatgen
data_Tb3In2HgPd3
_symmetry_space_group_name_H-M   'P 1'
_cell_length_a   7.80198802
_cell_length_b   7.80198945
_cell_length_c   3.78941000
_cell_angle_alpha   90.00000000
_cell_angle_beta   90.00000000
_cell_angle_gamma   119.79069292
_symmetry_Int_Tables_number   1
_chemical_formula_structural   Tb3In2HgPd3
_chemical_formula_sum   'Tb3 In2 Hg1 Pd3'
_cell_volume   200.18198236
_cell_formula_units_Z   1
loop_
 _symmetry_equiv_pos_site_id
 _symmetry_equiv_pos_as_xyz
  1  'x, y, z'
loop_
 _atom_site_type_symbol
 _atom_site_label
 _atom_site_symmetry_multiplicity
 _atom_site_fract_x
 _atom_site_fract_y
 _atom_site_fract_z
 _atom_site_occupancy
  Tb  Tb0  1  0.597087  0.996804  0.500000  1
  Tb  Tb1  1  0.409853  0.409853  0.500000  1
  Tb  Tb2  1  0.996804  0.597087  0.500000  1
  In  In3  1  0.263841  0.002126  0.000000  1
  In  In4  1  0.002126  0.263841  0.000000  1
  Hg  Hg5  1  0.732672  0.732672  0.000000  1
  Pd  Pd6  1  0.008459  0.008459  0.500000  1
  Pd  Pd7  1  0.665195  0.323962  0.000000  1
  Pd  Pd8  1  0.323962  0.665195  0.000000  1
