# generated using pymatgen
data_Tm12Co6Sb
_symmetry_space_group_name_H-M   'P 1'
_cell_length_a   8.26790750
_cell_length_b   8.26790858
_cell_length_c   8.26790700
_cell_angle_alpha   109.47121677
_cell_angle_beta   109.47121942
_cell_angle_gamma   109.47122613
_symmetry_Int_Tables_number   1
_chemical_formula_structural   Tm12Co6Sb
_chemical_formula_sum   'Tm12 Co6 Sb1'
_cell_volume   435.07583727
_cell_formula_units_Z   1
loop_
 _symmetry_equiv_pos_site_id
 _symmetry_equiv_pos_as_xyz
  1  'x, y, z'
loop_
 _atom_site_type_symbol
 _atom_site_label
 _atom_site_symmetry_multiplicity
 _atom_site_fract_x
 _atom_site_fract_y
 _atom_site_fract_z
 _atom_site_occupancy
  Tm  Tm0  1  0.303934  0.499544  0.195609  1
  Tm  Tm1  1  0.804391  0.696066  0.500456  1
  Tm  Tm2  1  0.108323  0.804391  0.303934  1
  Tm  Tm3  1  0.804391  0.303934  0.108323  1
  Tm  Tm4  1  0.891677  0.195609  0.696066  1
  Tm  Tm5  1  0.195609  0.303934  0.499544  1
  Tm  Tm6  1  0.499544  0.195609  0.303934  1
  Tm  Tm7  1  0.500456  0.804391  0.696066  1
  Tm  Tm8  1  0.195609  0.696066  0.891677  1
  Tm  Tm9  1  0.303934  0.108323  0.804391  1
  Tm  Tm10  1  0.696066  0.891677  0.195609  1
  Tm  Tm11  1  0.696066  0.500456  0.804391  1
  Co  Co12  1  0.613918  0.500000  0.113918  1
  Co  Co13  1  0.113918  0.613918  0.500000  1
  Co  Co14  1  0.500000  0.886082  0.386082  1
  Co  Co15  1  0.886082  0.386082  0.500000  1
  Co  Co16  1  0.500000  0.113918  0.613918  1
  Co  Co17  1  0.386082  0.500000  0.886082  1
  Sb  Sb18  1  0.000000  0.000000  0.000000  1
