# generated using pymatgen
data_Ho6Al16Os6Ru
_symmetry_space_group_name_H-M   'P 1'
_cell_length_a   8.93147950
_cell_length_b   8.93148004
_cell_length_c   8.93147900
_cell_angle_alpha   60.00000015
_cell_angle_beta   59.99999816
_cell_angle_gamma   60.00000076
_symmetry_Int_Tables_number   1
_chemical_formula_structural   Ho6Al16Os6Ru
_chemical_formula_sum   'Ho6 Al16 Os6 Ru1'
_cell_volume   503.79658411
_cell_formula_units_Z   1
loop_
 _symmetry_equiv_pos_site_id
 _symmetry_equiv_pos_as_xyz
  1  'x, y, z'
loop_
 _atom_site_type_symbol
 _atom_site_label
 _atom_site_symmetry_multiplicity
 _atom_site_fract_x
 _atom_site_fract_y
 _atom_site_fract_z
 _atom_site_occupancy
  Ho  Ho0  1  0.211734  0.788266  0.788266  1
  Ho  Ho1  1  0.788266  0.211734  0.211734  1
  Ho  Ho2  1  0.788266  0.211734  0.788266  1
  Ho  Ho3  1  0.788266  0.788266  0.211734  1
  Ho  Ho4  1  0.211734  0.788266  0.211734  1
  Ho  Ho5  1  0.211734  0.211734  0.788266  1
  Al  Al6  1  0.832358  0.832358  0.832358  1
  Al  Al7  1  0.832358  0.832358  0.502925  1
  Al  Al8  1  0.502925  0.832358  0.832358  1
  Al  Al9  1  0.832358  0.502925  0.832358  1
  Al  Al10  1  0.167642  0.167642  0.167642  1
  Al  Al11  1  0.167642  0.167642  0.497075  1
  Al  Al12  1  0.167642  0.497075  0.167642  1
  Al  Al13  1  0.497075  0.167642  0.167642  1
  Al  Al14  1  0.620847  0.620847  0.620847  1
  Al  Al15  1  0.620847  0.620847  0.137460  1
  Al  Al16  1  0.137460  0.620847  0.620847  1
  Al  Al17  1  0.620847  0.137460  0.620847  1
  Al  Al18  1  0.379153  0.379153  0.379153  1
  Al  Al19  1  0.379153  0.379153  0.862540  1
  Al  Al20  1  0.379153  0.862540  0.379153  1
  Al  Al21  1  0.862540  0.379153  0.379153  1
  Os  Os22  1  0.000000  0.500000  0.500000  1
  Os  Os23  1  0.500000  0.000000  0.000000  1
  Os  Os24  1  0.500000  0.000000  0.500000  1
  Os  Os25  1  0.500000  0.500000  0.000000  1
  Os  Os26  1  0.000000  0.500000  0.000000  1
  Os  Os27  1  0.000000  0.000000  0.500000  1
  Ru  Ru28  1  0.500000  0.500000  0.500000  1
