# generated using pymatgen
data_TbHo3(MoN3)4
_symmetry_space_group_name_H-M   'P 1'
_cell_length_a   7.32739218
_cell_length_b   7.32739239
_cell_length_c   6.27483040
_cell_angle_alpha   73.45122992
_cell_angle_beta   73.45121885
_cell_angle_gamma   81.27925911
_symmetry_Int_Tables_number   1
_chemical_formula_structural   TbHo3(MoN3)4
_chemical_formula_sum   'Tb1 Ho3 Mo4 N12'
_cell_volume   308.65531748
_cell_formula_units_Z   1
loop_
 _symmetry_equiv_pos_site_id
 _symmetry_equiv_pos_as_xyz
  1  'x, y, z'
loop_
 _atom_site_type_symbol
 _atom_site_label
 _atom_site_symmetry_multiplicity
 _atom_site_fract_x
 _atom_site_fract_y
 _atom_site_fract_z
 _atom_site_occupancy
  Tb  Tb0  1  0.293420  0.706580  0.750000  1
  Ho  Ho1  1  0.912003  0.087997  0.750000  1
  Ho  Ho2  1  0.707517  0.292483  0.250000  1
  Ho  Ho3  1  0.087125  0.912875  0.250000  1
  Mo  Mo4  1  0.800473  0.619124  0.772841  1
  Mo  Mo5  1  0.199272  0.380160  0.228223  1
  Mo  Mo6  1  0.619840  0.800728  0.271777  1
  Mo  Mo7  1  0.380876  0.199527  0.727159  1
  N  N8  1  0.218115  0.000869  0.847375  1
  N  N9  1  0.367096  0.346407  0.431023  1
  N  N10  1  0.634853  0.653619  0.567353  1
  N  N11  1  0.625231  0.110970  0.660558  1
  N  N12  1  0.999131  0.781885  0.652625  1
  N  N13  1  0.780794  0.001175  0.153078  1
  N  N14  1  0.110990  0.624564  0.162624  1
  N  N15  1  0.889030  0.374769  0.839442  1
  N  N16  1  0.998825  0.219206  0.346922  1
  N  N17  1  0.346381  0.365147  0.932647  1
  N  N18  1  0.653593  0.632904  0.068977  1
  N  N19  1  0.375436  0.889010  0.337376  1
