# generated using pymatgen
data_Y2HoWO7
_symmetry_space_group_name_H-M   'P 1'
_cell_length_a   6.47803411
_cell_length_b   6.50160544
_cell_length_c   7.47999514
_cell_angle_alpha   90.01521647
_cell_angle_beta   90.01155973
_cell_angle_gamma   108.87861644
_symmetry_Int_Tables_number   1
_chemical_formula_structural   Y2HoWO7
_chemical_formula_sum   'Y4 Ho2 W2 O14'
_cell_volume   298.09239929
_cell_formula_units_Z   2
loop_
 _symmetry_equiv_pos_site_id
 _symmetry_equiv_pos_as_xyz
  1  'x, y, z'
loop_
 _atom_site_type_symbol
 _atom_site_label
 _atom_site_symmetry_multiplicity
 _atom_site_fract_x
 _atom_site_fract_y
 _atom_site_fract_z
 _atom_site_occupancy
  Y  Y0  1  0.522859  0.524267  0.499584  1
  Y  Y1  1  0.477518  0.475730  0.999509  1
  Y  Y2  1  0.001043  0.533035  0.244648  1
  Y  Y3  1  0.998963  0.467055  0.745613  1
  Ho  Ho4  1  0.533654  0.001572  0.754517  1
  Ho  Ho5  1  0.466240  0.998445  0.255596  1
  W  W6  1  0.000061  0.999816  0.500109  1
  W  W7  1  0.999979  0.000065  0.000011  1
  O  O8  1  0.923230  0.073840  0.749994  1
  O  O9  1  0.076924  0.926015  0.250002  1
  O  O10  1  0.363978  0.639091  0.249389  1
  O  O11  1  0.636105  0.360863  0.749320  1
  O  O12  1  0.370232  0.633338  0.750407  1
  O  O13  1  0.629790  0.366664  0.250433  1
  O  O14  1  0.325708  0.079577  0.972662  1
  O  O15  1  0.672992  0.919145  0.473443  1
  O  O16  1  0.315278  0.059352  0.536065  1
  O  O17  1  0.686287  0.942411  0.036801  1
  O  O18  1  0.064777  0.314900  0.465178  1
  O  O19  1  0.933171  0.683529  0.965875  1
  O  O20  1  0.916764  0.674146  0.525765  1
  O  O21  1  0.084449  0.327145  0.025080  1
