# generated using pymatgen
data_Sr3Al2Pd7
_symmetry_space_group_name_H-M   'P 1'
_cell_length_a   9.06905009
_cell_length_b   9.06905091
_cell_length_c   9.06904966
_cell_angle_alpha   36.85499036
_cell_angle_beta   36.85498339
_cell_angle_gamma   36.85498575
_symmetry_Int_Tables_number   1
_chemical_formula_structural   Sr3Al2Pd7
_chemical_formula_sum   'Sr3 Al2 Pd7'
_cell_volume   240.37484627
_cell_formula_units_Z   1
loop_
 _symmetry_equiv_pos_site_id
 _symmetry_equiv_pos_as_xyz
  1  'x, y, z'
loop_
 _atom_site_type_symbol
 _atom_site_label
 _atom_site_symmetry_multiplicity
 _atom_site_fract_x
 _atom_site_fract_y
 _atom_site_fract_z
 _atom_site_occupancy
  Sr  Sr0  1  0.358916  0.358916  0.358916  1
  Sr  Sr1  1  0.500000  0.500000  0.500000  1
  Sr  Sr2  1  0.641084  0.641084  0.641084  1
  Al  Al3  1  0.167397  0.167397  0.167397  1
  Al  Al4  1  0.832603  0.832603  0.832603  1
  Pd  Pd5  1  0.000000  0.000000  0.000000  1
  Pd  Pd6  1  0.576849  0.074406  0.074406  1
  Pd  Pd7  1  0.074406  0.576849  0.074406  1
  Pd  Pd8  1  0.925594  0.925594  0.423151  1
  Pd  Pd9  1  0.074406  0.074406  0.576849  1
  Pd  Pd10  1  0.925594  0.423151  0.925594  1
  Pd  Pd11  1  0.423151  0.925594  0.925594  1
