# generated using pymatgen
data_Sr3La(Ga2Ir5)2
_symmetry_space_group_name_H-M   'P 1'
_cell_length_a   12.55396630
_cell_length_b   12.55396633
_cell_length_c   12.55396530
_cell_angle_alpha   25.98367166
_cell_angle_beta   25.98367225
_cell_angle_gamma   25.98366815
_symmetry_Int_Tables_number   1
_chemical_formula_structural   Sr3La(Ga2Ir5)2
_chemical_formula_sum   'Sr3 La1 Ga4 Ir10'
_cell_volume   334.52137921
_cell_formula_units_Z   1
loop_
 _symmetry_equiv_pos_site_id
 _symmetry_equiv_pos_as_xyz
  1  'x, y, z'
loop_
 _atom_site_type_symbol
 _atom_site_label
 _atom_site_symmetry_multiplicity
 _atom_site_fract_x
 _atom_site_fract_y
 _atom_site_fract_z
 _atom_site_occupancy
  Sr  Sr0  1  0.949693  0.949693  0.949693  1
  Sr  Sr1  1  0.049409  0.049409  0.049409  1
  Sr  Sr2  1  0.852974  0.852974  0.852974  1
  La  La3  1  0.147338  0.147338  0.147338  1
  Ga  Ga4  1  0.720464  0.720464  0.720464  1
  Ga  Ga5  1  0.279618  0.279618  0.279618  1
  Ga  Ga6  1  0.611376  0.611376  0.611376  1
  Ga  Ga7  1  0.388627  0.388627  0.388627  1
  Ir  Ir8  1  0.500227  0.500227  0.500227  1
  Ir  Ir9  1  0.500310  0.500310  0.999528  1
  Ir  Ir10  1  0.999528  0.500310  0.500310  1
  Ir  Ir11  1  0.500310  0.999528  0.500310  1
  Ir  Ir12  1  0.388035  0.896026  0.388035  1
  Ir  Ir13  1  0.388035  0.388035  0.896026  1
  Ir  Ir14  1  0.896026  0.388035  0.388035  1
  Ir  Ir15  1  0.611991  0.104047  0.611991  1
  Ir  Ir16  1  0.611991  0.611991  0.104047  1
  Ir  Ir17  1  0.104047  0.611991  0.611991  1
