# generated using pymatgen
data_Zr2Zn4Fe3
_symmetry_space_group_name_H-M   'P 1'
_cell_length_a   4.91943339
_cell_length_b   4.91943285
_cell_length_c   6.63893086
_cell_angle_alpha   82.46788831
_cell_angle_beta   82.46787389
_cell_angle_gamma   119.61111910
_symmetry_Int_Tables_number   1
_chemical_formula_structural   Zr2Zn4Fe3
_chemical_formula_sum   'Zr2 Zn4 Fe3'
_cell_volume   134.85645734
_cell_formula_units_Z   1
loop_
 _symmetry_equiv_pos_site_id
 _symmetry_equiv_pos_as_xyz
  1  'x, y, z'
loop_
 _atom_site_type_symbol
 _atom_site_label
 _atom_site_symmetry_multiplicity
 _atom_site_fract_x
 _atom_site_fract_y
 _atom_site_fract_z
 _atom_site_occupancy
  Zr  Zr0  1  0.581783  0.581783  0.266265  1
  Zr  Zr1  1  0.418217  0.418217  0.733735  1
  Zn  Zn2  1  0.283027  0.956855  0.160485  1
  Zn  Zn3  1  0.043145  0.716973  0.839515  1
  Zn  Zn4  1  0.716973  0.043145  0.839515  1
  Zn  Zn5  1  0.956855  0.283027  0.160485  1
  Fe  Fe6  1  0.000000  0.000000  0.500000  1
  Fe  Fe7  1  0.500000  0.000000  0.500000  1
  Fe  Fe8  1  0.000000  0.500000  0.500000  1
