# generated using pymatgen
data_Ac3Mg3SiHg2
_symmetry_space_group_name_H-M   'P 1'
_cell_length_a   7.99109100
_cell_length_b   7.99109141
_cell_length_c   4.69248200
_cell_angle_alpha   90.00000000
_cell_angle_beta   90.00000000
_cell_angle_gamma   120.00000242
_symmetry_Int_Tables_number   1
_chemical_formula_structural   Ac3Mg3SiHg2
_chemical_formula_sum   'Ac3 Mg3 Si1 Hg2'
_cell_volume   259.50480974
_cell_formula_units_Z   1
loop_
 _symmetry_equiv_pos_site_id
 _symmetry_equiv_pos_as_xyz
  1  'x, y, z'
loop_
 _atom_site_type_symbol
 _atom_site_label
 _atom_site_symmetry_multiplicity
 _atom_site_fract_x
 _atom_site_fract_y
 _atom_site_fract_z
 _atom_site_occupancy
  Ac  Ac0  1  0.581539  0.008024  0.000000  1
  Ac  Ac1  1  0.991976  0.573512  0.000000  1
  Ac  Ac2  1  0.426488  0.418461  0.000000  1
  Mg  Mg3  1  0.244377  0.000457  0.500000  1
  Mg  Mg4  1  0.999543  0.243920  0.500000  1
  Mg  Mg5  1  0.756080  0.755623  0.500000  1
  Si  Si6  1  0.666667  0.333333  0.500000  1
  Hg  Hg7  1  0.333333  0.666667  0.500000  1
  Hg  Hg8  1  0.000000  0.000000  0.000000  1
