# generated using pymatgen
data_Hf18VRe7As2
_symmetry_space_group_name_H-M   'P 1'
_cell_length_a   8.63520508
_cell_length_b   8.63520577
_cell_length_c   8.63735600
_cell_angle_alpha   90.00794890
_cell_angle_beta   89.99205110
_cell_angle_gamma   120.01920366
_symmetry_Int_Tables_number   1
_chemical_formula_structural   Hf18VRe7As2
_chemical_formula_sum   'Hf18 V1 Re7 As2'
_cell_volume   557.66414312
_cell_formula_units_Z   1
loop_
 _symmetry_equiv_pos_site_id
 _symmetry_equiv_pos_as_xyz
  1  'x, y, z'
loop_
 _atom_site_type_symbol
 _atom_site_label
 _atom_site_symmetry_multiplicity
 _atom_site_fract_x
 _atom_site_fract_y
 _atom_site_fract_z
 _atom_site_occupancy
  Hf  Hf0  1  0.807197  0.614460  0.547491  1
  Hf  Hf1  1  0.807169  0.192831  0.547380  1
  Hf  Hf2  1  0.385540  0.192803  0.547491  1
  Hf  Hf3  1  0.192803  0.385540  0.452509  1
  Hf  Hf4  1  0.192831  0.807169  0.452620  1
  Hf  Hf5  1  0.614460  0.807197  0.452509  1
  Hf  Hf6  1  0.192653  0.385271  0.047122  1
  Hf  Hf7  1  0.192776  0.807224  0.046981  1
  Hf  Hf8  1  0.614729  0.807347  0.047122  1
  Hf  Hf9  1  0.807347  0.614729  0.952878  1
  Hf  Hf10  1  0.807224  0.192776  0.953019  1
  Hf  Hf11  1  0.385271  0.192653  0.952878  1
  Hf  Hf12  1  0.458760  0.917480  0.750421  1
  Hf  Hf13  1  0.458685  0.541315  0.750429  1
  Hf  Hf14  1  0.082520  0.541240  0.750421  1
  Hf  Hf15  1  0.541240  0.082520  0.249579  1
  Hf  Hf16  1  0.541315  0.458685  0.249571  1
  Hf  Hf17  1  0.917480  0.458760  0.249579  1
  V  V18  1  0.000000  0.000000  0.500000  1
  Re  Re19  1  0.108944  0.217850  0.746119  1
  Re  Re20  1  0.108877  0.891123  0.746044  1
  Re  Re21  1  0.782150  0.891056  0.746119  1
  Re  Re22  1  0.891056  0.782150  0.253881  1
  Re  Re23  1  0.891123  0.108877  0.253956  1
  Re  Re24  1  0.217850  0.108944  0.253881  1
  Re  Re25  1  0.000000  0.000000  0.000000  1
  As  As26  1  0.666667  0.333333  0.750390  1
  As  As27  1  0.333333  0.666667  0.249610  1
