# generated using pymatgen
data_Li3Ca20Ag9
_symmetry_space_group_name_H-M   'P 1'
_cell_length_a   8.14340100
_cell_length_b   8.14340100
_cell_length_c   15.06541800
_cell_angle_alpha   90.00000000
_cell_angle_beta   90.00000000
_cell_angle_gamma   90.00000000
_symmetry_Int_Tables_number   1
_chemical_formula_structural   Li3Ca20Ag9
_chemical_formula_sum   'Li3 Ca20 Ag9'
_cell_volume   999.06289105
_cell_formula_units_Z   1
loop_
 _symmetry_equiv_pos_site_id
 _symmetry_equiv_pos_as_xyz
  1  'x, y, z'
loop_
 _atom_site_type_symbol
 _atom_site_label
 _atom_site_symmetry_multiplicity
 _atom_site_fract_x
 _atom_site_fract_y
 _atom_site_fract_z
 _atom_site_occupancy
  Li  Li0  1  0.500000  0.500000  0.500000  1
  Li  Li1  1  0.500000  0.500000  0.000000  1
  Li  Li2  1  0.000000  0.000000  0.500000  1
  Ca  Ca3  1  0.672418  0.159281  0.106693  1
  Ca  Ca4  1  0.165383  0.664582  0.610415  1
  Ca  Ca5  1  0.327582  0.840719  0.106693  1
  Ca  Ca6  1  0.834617  0.335418  0.610415  1
  Ca  Ca7  1  0.840719  0.672418  0.106693  1
  Ca  Ca8  1  0.335418  0.165383  0.610415  1
  Ca  Ca9  1  0.159281  0.327582  0.106693  1
  Ca  Ca10  1  0.664582  0.834617  0.610415  1
  Ca  Ca11  1  0.840719  0.327582  0.893307  1
  Ca  Ca12  1  0.335418  0.834617  0.389585  1
  Ca  Ca13  1  0.159281  0.672418  0.893307  1
  Ca  Ca14  1  0.664582  0.165383  0.389585  1
  Ca  Ca15  1  0.672418  0.840719  0.893307  1
  Ca  Ca16  1  0.165383  0.335418  0.389585  1
  Ca  Ca17  1  0.327582  0.159281  0.893307  1
  Ca  Ca18  1  0.834617  0.664582  0.389585  1
  Ca  Ca19  1  0.500000  0.500000  0.753921  1
  Ca  Ca20  1  0.000000  0.000000  0.248740  1
  Ca  Ca21  1  0.000000  0.000000  0.751260  1
  Ca  Ca22  1  0.500000  0.500000  0.246079  1
  Ag  Ag23  1  0.626672  0.127875  0.751104  1
  Ag  Ag24  1  0.127875  0.626672  0.248896  1
  Ag  Ag25  1  0.872125  0.373328  0.248896  1
  Ag  Ag26  1  0.373328  0.872125  0.751104  1
  Ag  Ag27  1  0.872125  0.626672  0.751104  1
  Ag  Ag28  1  0.373328  0.127875  0.248896  1
  Ag  Ag29  1  0.127875  0.373328  0.751104  1
  Ag  Ag30  1  0.626672  0.872125  0.248896  1
  Ag  Ag31  1  0.000000  0.000000  0.000000  1
