# generated using pymatgen
data_Y5CS4
_symmetry_space_group_name_H-M   'P 1'
_cell_length_a   6.68409038
_cell_length_b   6.68409128
_cell_length_c   6.68411900
_cell_angle_alpha   99.62100008
_cell_angle_beta   99.62128831
_cell_angle_gamma   131.73850742
_symmetry_Int_Tables_number   1
_chemical_formula_structural   Y5CS4
_chemical_formula_sum   'Y5 C1 S4'
_cell_volume   203.36074112
_cell_formula_units_Z   1
loop_
 _symmetry_equiv_pos_site_id
 _symmetry_equiv_pos_as_xyz
  1  'x, y, z'
loop_
 _atom_site_type_symbol
 _atom_site_label
 _atom_site_symmetry_multiplicity
 _atom_site_fract_x
 _atom_site_fract_y
 _atom_site_fract_z
 _atom_site_occupancy
  Y  Y0  1  0.407701  0.773164  0.180868  1
  Y  Y1  1  0.000000  0.000000  0.000000  1
  Y  Y2  1  0.592299  0.226836  0.819132  1
  Y  Y3  1  0.226830  0.407709  0.634538  1
  Y  Y4  1  0.773170  0.592291  0.365462  1
  C  C5  1  0.500000  0.500000  0.000000  1
  S  S6  1  0.093750  0.696745  0.790495  1
  S  S7  1  0.696755  0.906258  0.603012  1
  S  S8  1  0.303245  0.093742  0.396988  1
  S  S9  1  0.906250  0.303255  0.209505  1
