# generated using pymatgen
data_Sr5Sn3H
_symmetry_space_group_name_H-M   'P 1'
_cell_length_a   8.64799295
_cell_length_b   8.64799779
_cell_length_c   10.06505783
_cell_angle_alpha   115.21873275
_cell_angle_beta   115.21843260
_cell_angle_gamma   90.07109176
_symmetry_Int_Tables_number   1
_chemical_formula_structural   Sr5Sn3H
_chemical_formula_sum   'Sr10 Sn6 H2'
_cell_volume   600.53293258
_cell_formula_units_Z   2
loop_
 _symmetry_equiv_pos_site_id
 _symmetry_equiv_pos_as_xyz
  1  'x, y, z'
loop_
 _atom_site_type_symbol
 _atom_site_label
 _atom_site_symmetry_multiplicity
 _atom_site_fract_x
 _atom_site_fract_y
 _atom_site_fract_z
 _atom_site_occupancy
  Sr  Sr0  1  0.000000  0.000000  0.000000  1
  Sr  Sr1  1  0.500000  0.500000  0.000000  1
  Sr  Sr2  1  0.488270  0.313786  0.302173  1
  Sr  Sr3  1  0.987065  0.487063  0.303433  1
  Sr  Sr4  1  0.314701  0.814707  0.301687  1
  Sr  Sr5  1  0.813797  0.988274  0.302177  1
  Sr  Sr6  1  0.186203  0.011726  0.697823  1
  Sr  Sr7  1  0.685298  0.185293  0.698313  1
  Sr  Sr8  1  0.012935  0.512936  0.696567  1
  Sr  Sr9  1  0.511729  0.686213  0.697827  1
  Sn  Sn10  1  0.621498  0.121500  0.999644  1
  Sn  Sn11  1  0.121093  0.378908  0.000001  1
  Sn  Sn12  1  0.878908  0.621091  0.999999  1
  Sn  Sn13  1  0.378501  0.878501  0.000356  1
  Sn  Sn14  1  0.249932  0.250071  0.500003  1
  Sn  Sn15  1  0.750068  0.749929  0.499997  1
  H  H16  1  0.750196  0.250195  0.500097  1
  H  H17  1  0.249804  0.749805  0.499903  1
