# generated using pymatgen
data_Gd4SI6
_symmetry_space_group_name_H-M   'P 1'
_cell_length_a   4.23009200
_cell_length_b   14.09113000
_cell_length_c   14.80151200
_cell_angle_alpha   90.00000000
_cell_angle_beta   90.00000000
_cell_angle_gamma   90.00000000
_symmetry_Int_Tables_number   1
_chemical_formula_structural   Gd4SI6
_chemical_formula_sum   'Gd8 S2 I12'
_cell_volume   882.27041445
_cell_formula_units_Z   2
loop_
 _symmetry_equiv_pos_site_id
 _symmetry_equiv_pos_as_xyz
  1  'x, y, z'
loop_
 _atom_site_type_symbol
 _atom_site_label
 _atom_site_symmetry_multiplicity
 _atom_site_fract_x
 _atom_site_fract_y
 _atom_site_fract_z
 _atom_site_occupancy
  Gd  Gd0  1  0.000000  0.100666  0.077388  1
  Gd  Gd1  1  0.000000  0.899334  0.922612  1
  Gd  Gd2  1  0.000000  0.600666  0.422612  1
  Gd  Gd3  1  0.000000  0.399334  0.577388  1
  Gd  Gd4  1  0.500000  0.120946  0.856156  1
  Gd  Gd5  1  0.500000  0.879054  0.143844  1
  Gd  Gd6  1  0.500000  0.620946  0.643844  1
  Gd  Gd7  1  0.500000  0.379054  0.356156  1
  S  S8  1  0.500000  0.000000  0.000000  1
  S  S9  1  0.500000  0.500000  0.500000  1
  I  I10  1  0.500000  0.264763  0.677229  1
  I  I11  1  0.500000  0.735237  0.322771  1
  I  I12  1  0.500000  0.764763  0.822771  1
  I  I13  1  0.500000  0.235237  0.177229  1
  I  I14  1  0.000000  0.262198  0.931798  1
  I  I15  1  0.000000  0.737802  0.068202  1
  I  I16  1  0.000000  0.487240  0.240245  1
  I  I17  1  0.000000  0.512760  0.759755  1
  I  I18  1  0.000000  0.987240  0.259755  1
  I  I19  1  0.000000  0.012760  0.740245  1
  I  I20  1  0.000000  0.237802  0.431798  1
  I  I21  1  0.000000  0.762198  0.568202  1
