# generated using pymatgen
data_CuPb2F6
_symmetry_space_group_name_H-M   'P 1'
_cell_length_a   8.93588238
_cell_length_b   5.90899530
_cell_length_c   5.90022600
_cell_angle_alpha   89.99994938
_cell_angle_beta   90.00001620
_cell_angle_gamma   109.30719481
_symmetry_Int_Tables_number   1
_chemical_formula_structural   CuPb2F6
_chemical_formula_sum   'Cu2 Pb4 F12'
_cell_volume   294.02282361
_cell_formula_units_Z   2
loop_
 _symmetry_equiv_pos_site_id
 _symmetry_equiv_pos_as_xyz
  1  'x, y, z'
loop_
 _atom_site_type_symbol
 _atom_site_label
 _atom_site_symmetry_multiplicity
 _atom_site_fract_x
 _atom_site_fract_y
 _atom_site_fract_z
 _atom_site_occupancy
  Cu  Cu0  1  0.000000  0.500000  0.000000  1
  Cu  Cu1  1  0.000000  0.000000  0.500000  1
  Pb  Pb2  1  0.320734  0.160367  0.000000  1
  Pb  Pb3  1  0.679265  0.839632  0.000000  1
  Pb  Pb4  1  0.679264  0.339632  0.500000  1
  Pb  Pb5  1  0.320735  0.660367  0.500000  1
  F  F6  1  0.840676  0.584176  0.164381  1
  F  F7  1  0.159324  0.743498  0.164381  1
  F  F8  1  0.500000  0.006751  0.250000  1
  F  F9  1  0.500000  0.506751  0.250000  1
  F  F10  1  0.840676  0.084177  0.335617  1
  F  F11  1  0.159324  0.243500  0.335617  1
  F  F12  1  0.840676  0.756500  0.664382  1
  F  F13  1  0.159324  0.915825  0.664382  1
  F  F14  1  0.500000  0.993248  0.750000  1
  F  F15  1  0.500000  0.493248  0.750000  1
  F  F16  1  0.840676  0.256502  0.835618  1
  F  F17  1  0.159324  0.415824  0.835618  1
