# generated using pymatgen
data_BaNd7(Si3Pt)4
_symmetry_space_group_name_H-M   'P 1'
_cell_length_a   8.25030490
_cell_length_b   8.25030473
_cell_length_c   8.72032400
_cell_angle_alpha   90.00000000
_cell_angle_beta   90.00000000
_cell_angle_gamma   119.84146180
_symmetry_Int_Tables_number   1
_chemical_formula_structural   BaNd7(Si3Pt)4
_chemical_formula_sum   'Ba1 Nd7 Si12 Pt4'
_cell_volume   514.86672878
_cell_formula_units_Z   1
loop_
 _symmetry_equiv_pos_site_id
 _symmetry_equiv_pos_as_xyz
  1  'x, y, z'
loop_
 _atom_site_type_symbol
 _atom_site_label
 _atom_site_symmetry_multiplicity
 _atom_site_fract_x
 _atom_site_fract_y
 _atom_site_fract_z
 _atom_site_occupancy
  Ba  Ba0  1  0.499781  0.500219  0.750000  1
  Nd  Nd1  1  0.500088  0.499912  0.250000  1
  Nd  Nd2  1  0.000195  0.500115  0.750000  1
  Nd  Nd3  1  0.999746  0.499829  0.250000  1
  Nd  Nd4  1  0.499885  0.999805  0.750000  1
  Nd  Nd5  1  0.500171  0.000254  0.250000  1
  Nd  Nd6  1  0.000057  0.999943  0.750000  1
  Nd  Nd7  1  0.999993  0.000007  0.250000  1
  Si  Si8  1  0.834940  0.165060  0.999580  1
  Si  Si9  1  0.165079  0.834921  0.000983  1
  Si  Si10  1  0.331056  0.163639  0.006033  1
  Si  Si11  1  0.165079  0.834921  0.499017  1
  Si  Si12  1  0.668943  0.836335  0.007309  1
  Si  Si13  1  0.834940  0.165060  0.500420  1
  Si  Si14  1  0.836361  0.668944  0.006033  1
  Si  Si15  1  0.668943  0.836335  0.492691  1
  Si  Si16  1  0.163665  0.331057  0.007309  1
  Si  Si17  1  0.331056  0.163639  0.493967  1
  Si  Si18  1  0.163665  0.331057  0.492691  1
  Si  Si19  1  0.836361  0.668944  0.493967  1
  Pt  Pt20  1  0.668597  0.331403  0.008784  1
  Pt  Pt21  1  0.331403  0.668597  0.008759  1
  Pt  Pt22  1  0.331403  0.668597  0.491241  1
  Pt  Pt23  1  0.668597  0.331403  0.491216  1
