# generated using pymatgen
data_Er12Th4MgHg3Rh4
_symmetry_space_group_name_H-M   'P 1'
_cell_length_a   9.65366507
_cell_length_b   9.66286805
_cell_length_c   9.66286900
_cell_angle_alpha   60.00000017
_cell_angle_beta   59.96845977
_cell_angle_gamma   59.96846407
_symmetry_Int_Tables_number   1
_chemical_formula_structural   Er12Th4MgHg3Rh4
_chemical_formula_sum   'Er12 Th4 Mg1 Hg3 Rh4'
_cell_volume   637.06270154
_cell_formula_units_Z   1
loop_
 _symmetry_equiv_pos_site_id
 _symmetry_equiv_pos_as_xyz
  1  'x, y, z'
loop_
 _atom_site_type_symbol
 _atom_site_label
 _atom_site_symmetry_multiplicity
 _atom_site_fract_x
 _atom_site_fract_y
 _atom_site_fract_z
 _atom_site_occupancy
  Er  Er0  1  0.812444  0.187195  0.187195  1
  Er  Er1  1  0.184877  0.814181  0.814181  1
  Er  Er2  1  0.184877  0.814181  0.186760  1
  Er  Er3  1  0.812444  0.187195  0.813166  1
  Er  Er4  1  0.184877  0.186760  0.814181  1
  Er  Er5  1  0.812444  0.813166  0.187195  1
  Er  Er6  1  0.932303  0.566595  0.566595  1
  Er  Er7  1  0.565118  0.934559  0.934559  1
  Er  Er8  1  0.565118  0.934559  0.565764  1
  Er  Er9  1  0.932303  0.566595  0.934507  1
  Er  Er10  1  0.565118  0.565764  0.934559  1
  Er  Er11  1  0.932303  0.934507  0.566595  1
  Th  Th12  1  0.351400  0.350686  0.350686  1
  Th  Th13  1  0.351400  0.350686  0.947225  1
  Th  Th14  1  0.351400  0.947225  0.350686  1
  Th  Th15  1  0.943183  0.352272  0.352272  1
  Mg  Mg16  1  0.267721  0.577426  0.577426  1
  Hg  Hg17  1  0.584510  0.588948  0.588948  1
  Hg  Hg18  1  0.584510  0.588948  0.237591  1
  Hg  Hg19  1  0.584510  0.237591  0.588948  1
  Rh  Rh20  1  0.143038  0.143828  0.143828  1
  Rh  Rh21  1  0.143038  0.143828  0.569304  1
  Rh  Rh22  1  0.143038  0.569304  0.143828  1
  Rh  Rh23  1  0.568023  0.143992  0.143992  1
