# generated using pymatgen
data_Er16In6RuPt
_symmetry_space_group_name_H-M   'P 1'
_cell_length_a   10.35225900
_cell_length_b   10.35225801
_cell_length_c   6.98835000
_cell_angle_alpha   90.00000000
_cell_angle_beta   90.00000000
_cell_angle_gamma   119.99999359
_symmetry_Int_Tables_number   1
_chemical_formula_structural   Er16In6RuPt
_chemical_formula_sum   'Er16 In6 Ru1 Pt1'
_cell_volume   648.59787844
_cell_formula_units_Z   1
loop_
 _symmetry_equiv_pos_site_id
 _symmetry_equiv_pos_as_xyz
  1  'x, y, z'
loop_
 _atom_site_type_symbol
 _atom_site_label
 _atom_site_symmetry_multiplicity
 _atom_site_fract_x
 _atom_site_fract_y
 _atom_site_fract_z
 _atom_site_occupancy
  Er  Er0  1  0.530984  0.061967  0.795653  1
  Er  Er1  1  0.938033  0.469016  0.795653  1
  Er  Er2  1  0.530984  0.469016  0.795653  1
  Er  Er3  1  0.466287  0.932574  0.293044  1
  Er  Er4  1  0.067426  0.533713  0.293044  1
  Er  Er5  1  0.466287  0.533713  0.293044  1
  Er  Er6  1  0.824594  0.649187  0.499236  1
  Er  Er7  1  0.350813  0.175406  0.499236  1
  Er  Er8  1  0.824594  0.175406  0.499236  1
  Er  Er9  1  0.177040  0.354082  0.000094  1
  Er  Er10  1  0.645918  0.822960  0.000094  1
  Er  Er11  1  0.177040  0.822960  0.000094  1
  Er  Er12  1  0.666667  0.333333  0.170316  1
  Er  Er13  1  0.333333  0.666667  0.672209  1
  Er  Er14  1  0.000000  0.000000  0.777074  1
  Er  Er15  1  0.000000  0.000000  0.280171  1
  In  In16  1  0.836934  0.673869  0.039758  1
  In  In17  1  0.326131  0.163066  0.039758  1
  In  In18  1  0.836934  0.163066  0.039758  1
  In  In19  1  0.162293  0.324585  0.539204  1
  In  In20  1  0.675415  0.837707  0.539204  1
  In  In21  1  0.162293  0.837707  0.539204  1
  Ru  Ru22  1  0.333333  0.666667  0.067434  1
  Pt  Pt23  1  0.666667  0.333333  0.567731  1
