# generated using pymatgen
data_Dy3ErGa4(NiIr)2
_symmetry_space_group_name_H-M   'P 1'
_cell_length_a   4.29057200
_cell_length_b   6.77091255
_cell_length_c   7.63942639
_cell_angle_alpha   89.76253983
_cell_angle_beta   90.00000000
_cell_angle_gamma   90.00000000
_symmetry_Int_Tables_number   1
_chemical_formula_structural   Dy3ErGa4(NiIr)2
_chemical_formula_sum   'Dy3 Er1 Ga4 Ni2 Ir2'
_cell_volume   221.93174074
_cell_formula_units_Z   1
loop_
 _symmetry_equiv_pos_site_id
 _symmetry_equiv_pos_as_xyz
  1  'x, y, z'
loop_
 _atom_site_type_symbol
 _atom_site_label
 _atom_site_symmetry_multiplicity
 _atom_site_fract_x
 _atom_site_fract_y
 _atom_site_fract_z
 _atom_site_occupancy
  Dy  Dy0  1  0.250000  0.977796  0.311676  1
  Dy  Dy1  1  0.750000  0.024636  0.686942  1
  Dy  Dy2  1  0.750000  0.523958  0.813893  1
  Er  Er3  1  0.250000  0.477658  0.187865  1
  Ga  Ga4  1  0.250000  0.345906  0.575567  1
  Ga  Ga5  1  0.250000  0.845241  0.924323  1
  Ga  Ga6  1  0.750000  0.659093  0.440683  1
  Ga  Ga7  1  0.750000  0.160451  0.059197  1
  Ni  Ni8  1  0.250000  0.221756  0.886906  1
  Ni  Ni9  1  0.250000  0.721062  0.613892  1
  Ir  Ir10  1  0.750000  0.769374  0.111844  1
  Ir  Ir11  1  0.750000  0.273068  0.387212  1
