# generated using pymatgen
data_LaNd(Ge2Rh3)2
_symmetry_space_group_name_H-M   'P 1'
_cell_length_a   6.84109383
_cell_length_b   6.84109300
_cell_length_c   6.84109224
_cell_angle_alpha   130.57091323
_cell_angle_beta   113.48978118
_cell_angle_gamma   87.19286211
_symmetry_Int_Tables_number   1
_chemical_formula_structural   LaNd(Ge2Rh3)2
_chemical_formula_sum   'La1 Nd1 Ge4 Rh6'
_cell_volume   212.64421736
_cell_formula_units_Z   1
loop_
 _symmetry_equiv_pos_site_id
 _symmetry_equiv_pos_as_xyz
  1  'x, y, z'
loop_
 _atom_site_type_symbol
 _atom_site_label
 _atom_site_symmetry_multiplicity
 _atom_site_fract_x
 _atom_site_fract_y
 _atom_site_fract_z
 _atom_site_occupancy
  La  La0  1  0.750000  0.041172  0.291172  1
  Nd  Nd1  1  0.250000  0.956719  0.706719  1
  Ge  Ge2  1  0.579912  0.376678  0.796767  1
  Ge  Ge3  1  0.418578  0.621033  0.202456  1
  Ge  Ge4  1  0.081422  0.283879  0.202456  1
  Ge  Ge5  1  0.920088  0.716855  0.796767  1
  Rh  Rh6  1  0.220233  0.501993  0.720162  1
  Rh  Rh7  1  0.718169  0.999929  0.720162  1
  Rh  Rh8  1  0.781831  0.501993  0.281760  1
  Rh  Rh9  1  0.279767  0.999929  0.281760  1
  Rh  Rh10  1  0.499393  0.499911  0.499304  1
  Rh  Rh11  1  0.000607  0.499911  0.000517  1
