# generated using pymatgen
data_Ho6Er2Re(TcB8)3
_symmetry_space_group_name_H-M   'P 1'
_cell_length_a   3.67111500
_cell_length_b   9.14561930
_cell_length_c   11.52495601
_cell_angle_alpha   90.03316361
_cell_angle_beta   90.00000000
_cell_angle_gamma   90.00000000
_symmetry_Int_Tables_number   1
_chemical_formula_structural   Ho6Er2Re(TcB8)3
_chemical_formula_sum   'Ho6 Er2 Re1 Tc3 B24'
_cell_volume   386.94595608
_cell_formula_units_Z   1
loop_
 _symmetry_equiv_pos_site_id
 _symmetry_equiv_pos_as_xyz
  1  'x, y, z'
loop_
 _atom_site_type_symbol
 _atom_site_label
 _atom_site_symmetry_multiplicity
 _atom_site_fract_x
 _atom_site_fract_y
 _atom_site_fract_z
 _atom_site_occupancy
  Ho  Ho0  1  0.000000  0.324041  0.414013  1
  Ho  Ho1  1  0.000000  0.676105  0.585949  1
  Ho  Ho2  1  0.000000  0.823835  0.086098  1
  Ho  Ho3  1  0.000000  0.176524  0.914200  1
  Ho  Ho4  1  0.000000  0.942901  0.369177  1
  Ho  Ho5  1  0.000000  0.057671  0.629915  1
  Er  Er6  1  0.000000  0.442885  0.130766  1
  Er  Er7  1  0.000000  0.556082  0.869723  1
  Re  Re8  1  0.000000  0.860982  0.820770  1
  Tc  Tc9  1  0.000000  0.638789  0.320452  1
  Tc  Tc10  1  0.000000  0.361259  0.679506  1
  Tc  Tc11  1  0.000000  0.139225  0.179385  1
  B  B12  1  0.500000  0.553495  0.433015  1
  B  B13  1  0.500000  0.446580  0.567004  1
  B  B14  1  0.500000  0.053559  0.067074  1
  B  B15  1  0.500000  0.946675  0.933267  1
  B  B16  1  0.500000  0.749247  0.418869  1
  B  B17  1  0.500000  0.250979  0.581101  1
  B  B18  1  0.500000  0.249469  0.081151  1
  B  B19  1  0.500000  0.750095  0.919038  1
  B  B20  1  0.500000  0.792120  0.265199  1
  B  B21  1  0.500000  0.207887  0.734662  1
  B  B22  1  0.500000  0.292367  0.234778  1
  B  B23  1  0.500000  0.707235  0.765352  1
  B  B24  1  0.500000  0.630853  0.185419  1
  B  B25  1  0.500000  0.368967  0.814558  1
  B  B26  1  0.500000  0.131165  0.314491  1
  B  B27  1  0.500000  0.869042  0.685338  1
  B  B28  1  0.500000  0.982381  0.211609  1
  B  B29  1  0.500000  0.017991  0.788180  1
  B  B30  1  0.500000  0.482214  0.288221  1
  B  B31  1  0.500000  0.517665  0.711880  1
  B  B32  1  0.500000  0.599731  0.027985  1
  B  B33  1  0.500000  0.399819  0.972208  1
  B  B34  1  0.500000  0.100313  0.471764  1
  B  B35  1  0.500000  0.899855  0.527882  1
