# generated using pymatgen
data_PrNd7Cd2IrPd
_symmetry_space_group_name_H-M   'P 1'
_cell_length_a   10.01386768
_cell_length_b   10.01386726
_cell_length_c   9.98903700
_cell_angle_alpha   60.08199355
_cell_angle_beta   60.08199492
_cell_angle_gamma   60.29653122
_symmetry_Int_Tables_number   1
_chemical_formula_structural   PrNd7Cd2IrPd
_chemical_formula_sum   'Pr2 Nd14 Cd4 Ir2 Pd2'
_cell_volume   710.74804926
_cell_formula_units_Z   2
loop_
 _symmetry_equiv_pos_site_id
 _symmetry_equiv_pos_as_xyz
  1  'x, y, z'
loop_
 _atom_site_type_symbol
 _atom_site_label
 _atom_site_symmetry_multiplicity
 _atom_site_fract_x
 _atom_site_fract_y
 _atom_site_fract_z
 _atom_site_occupancy
  Pr  Pr0  1  0.562985  0.562985  0.937015  1
  Pr  Pr1  1  0.937711  0.937711  0.562289  1
  Nd  Nd2  1  0.350404  0.350404  0.345350  1
  Nd  Nd3  1  0.350404  0.350404  0.953841  1
  Nd  Nd4  1  0.357260  0.944402  0.349168  1
  Nd  Nd5  1  0.944402  0.357260  0.349168  1
  Nd  Nd6  1  0.805138  0.190533  0.190123  1
  Nd  Nd7  1  0.190533  0.805138  0.814206  1
  Nd  Nd8  1  0.190533  0.805138  0.190123  1
  Nd  Nd9  1  0.805138  0.190533  0.814206  1
  Nd  Nd10  1  0.191568  0.191568  0.808432  1
  Nd  Nd11  1  0.810538  0.810538  0.189462  1
  Nd  Nd12  1  0.939503  0.564430  0.560495  1
  Nd  Nd13  1  0.564430  0.939503  0.935572  1
  Nd  Nd14  1  0.564430  0.939503  0.560495  1
  Nd  Nd15  1  0.939503  0.564430  0.935572  1
  Cd  Cd16  1  0.580457  0.580457  0.580600  1
  Cd  Cd17  1  0.580457  0.580457  0.258487  1
  Cd  Cd18  1  0.579002  0.259525  0.580737  1
  Cd  Cd19  1  0.259525  0.579002  0.580737  1
  Ir  Ir20  1  0.140721  0.571687  0.143797  1
  Ir  Ir21  1  0.571687  0.140721  0.143797  1
  Pd  Pd22  1  0.141837  0.141837  0.146265  1
  Pd  Pd23  1  0.141837  0.141837  0.570062  1
