# generated using pymatgen
data_Ho2Tm8In8CuPt3
_symmetry_space_group_name_H-M   'P 1'
_cell_length_a   3.58038800
_cell_length_b   8.08221389
_cell_length_c   18.11600018
_cell_angle_alpha   90.03245573
_cell_angle_beta   90.00000000
_cell_angle_gamma   90.00000000
_symmetry_Int_Tables_number   1
_chemical_formula_structural   Ho2Tm8In8CuPt3
_chemical_formula_sum   'Ho2 Tm8 In8 Cu1 Pt3'
_cell_volume   524.23097607
_cell_formula_units_Z   1
loop_
 _symmetry_equiv_pos_site_id
 _symmetry_equiv_pos_as_xyz
  1  'x, y, z'
loop_
 _atom_site_type_symbol
 _atom_site_label
 _atom_site_symmetry_multiplicity
 _atom_site_fract_x
 _atom_site_fract_y
 _atom_site_fract_z
 _atom_site_occupancy
  Ho  Ho0  1  0.000000  0.999053  0.000281  1
  Ho  Ho1  1  0.000000  0.498905  0.499436  1
  Tm  Tm2  1  0.000000  0.117592  0.414308  1
  Tm  Tm3  1  0.000000  0.884161  0.584423  1
  Tm  Tm4  1  0.000000  0.384188  0.915313  1
  Tm  Tm5  1  0.000000  0.617455  0.084902  1
  Tm  Tm6  1  0.000000  0.246066  0.220294  1
  Tm  Tm7  1  0.000000  0.756726  0.779498  1
  Tm  Tm8  1  0.000000  0.257006  0.720595  1
  Tm  Tm9  1  0.000000  0.736843  0.279990  1
  In  In10  1  0.500000  0.418314  0.351732  1
  In  In11  1  0.500000  0.578328  0.648235  1
  In  In12  1  0.500000  0.077699  0.851693  1
  In  In13  1  0.500000  0.924254  0.151867  1
  In  In14  1  0.500000  0.293587  0.066924  1
  In  In15  1  0.500000  0.707423  0.933518  1
  In  In16  1  0.500000  0.207500  0.566164  1
  In  In17  1  0.500000  0.795057  0.431540  1
  Cu  Cu18  1  0.500000  0.024481  0.302355  1
  Pt  Pt19  1  0.500000  0.974821  0.695843  1
  Pt  Pt20  1  0.500000  0.474848  0.803604  1
  Pt  Pt21  1  0.500000  0.525693  0.197484  1
