# generated using pymatgen
data_Hf4Al7Zn
_symmetry_space_group_name_H-M   'P 1'
_cell_length_a   5.25521000
_cell_length_b   5.23166578
_cell_length_c   8.65936000
_cell_angle_alpha   90.00000000
_cell_angle_beta   90.00000000
_cell_angle_gamma   120.14896902
_symmetry_Int_Tables_number   1
_chemical_formula_structural   Hf4Al7Zn
_chemical_formula_sum   'Hf4 Al7 Zn1'
_cell_volume   205.86978491
_cell_formula_units_Z   1
loop_
 _symmetry_equiv_pos_site_id
 _symmetry_equiv_pos_as_xyz
  1  'x, y, z'
loop_
 _atom_site_type_symbol
 _atom_site_label
 _atom_site_symmetry_multiplicity
 _atom_site_fract_x
 _atom_site_fract_y
 _atom_site_fract_z
 _atom_site_occupancy
  Hf  Hf0  1  0.334786  0.669573  0.433362  1
  Hf  Hf1  1  0.666320  0.332639  0.935598  1
  Hf  Hf2  1  0.666320  0.332639  0.564402  1
  Hf  Hf3  1  0.334786  0.669573  0.066638  1
  Al  Al4  1  0.829275  0.171331  0.250000  1
  Al  Al5  1  0.342057  0.171331  0.250000  1
  Al  Al6  1  0.652667  0.821873  0.750000  1
  Al  Al7  1  0.002720  0.005439  0.995872  1
  Al  Al8  1  0.002720  0.005439  0.504128  1
  Al  Al9  1  0.829644  0.659287  0.250000  1
  Al  Al10  1  0.169205  0.821873  0.750000  1
  Zn  Zn11  1  0.169502  0.339004  0.750000  1
