# generated using pymatgen
data_Ta2CuF12
_symmetry_space_group_name_H-M   'P 1'
_cell_length_a   5.29601295
_cell_length_b   5.49839960
_cell_length_c   9.14637986
_cell_angle_alpha   104.06478318
_cell_angle_beta   87.66446373
_cell_angle_gamma   117.59136946
_symmetry_Int_Tables_number   1
_chemical_formula_structural   Ta2CuF12
_chemical_formula_sum   'Ta2 Cu1 F12'
_cell_volume   228.17259514
_cell_formula_units_Z   1
loop_
 _symmetry_equiv_pos_site_id
 _symmetry_equiv_pos_as_xyz
  1  'x, y, z'
loop_
 _atom_site_type_symbol
 _atom_site_label
 _atom_site_symmetry_multiplicity
 _atom_site_fract_x
 _atom_site_fract_y
 _atom_site_fract_z
 _atom_site_occupancy
  Ta  Ta0  1  0.777979  0.506990  0.263550  1
  Ta  Ta1  1  0.222021  0.493010  0.736450  1
  Cu  Cu2  1  0.000000  0.000000  0.000000  1
  F  F3  1  0.823202  0.267885  0.724810  1
  F  F4  1  0.176798  0.732115  0.275190  1
  F  F5  1  0.173483  0.757053  0.923334  1
  F  F6  1  0.712473  0.733653  0.431720  1
  F  F7  1  0.287527  0.266347  0.568280  1
  F  F8  1  0.792105  0.266912  0.372619  1
  F  F9  1  0.207895  0.733088  0.627381  1
  F  F10  1  0.378298  0.282921  0.191978  1
  F  F11  1  0.621702  0.717079  0.808022  1
  F  F12  1  0.775720  0.744831  0.124275  1
  F  F13  1  0.224280  0.255169  0.875725  1
  F  F14  1  0.826517  0.242947  0.076666  1
