# generated using pymatgen
data_Ba2La4ScV3O14
_symmetry_space_group_name_H-M   'P 1'
_cell_length_a   5.74122205
_cell_length_b   5.74122205
_cell_length_c   20.68076400
_cell_angle_alpha   90.00000000
_cell_angle_beta   90.00000000
_cell_angle_gamma   89.62312523
_symmetry_Int_Tables_number   1
_chemical_formula_structural   Ba2La4ScV3O14
_chemical_formula_sum   'Ba4 La8 Sc2 V6 O28'
_cell_volume   681.65695746
_cell_formula_units_Z   2
loop_
 _symmetry_equiv_pos_site_id
 _symmetry_equiv_pos_as_xyz
  1  'x, y, z'
loop_
 _atom_site_type_symbol
 _atom_site_label
 _atom_site_symmetry_multiplicity
 _atom_site_fract_x
 _atom_site_fract_y
 _atom_site_fract_z
 _atom_site_occupancy
  Ba  Ba0  1  0.256102  0.256102  0.003300  1
  Ba  Ba1  1  0.743899  0.743899  0.003300  1
  Ba  Ba2  1  0.750564  0.249437  0.500384  1
  Ba  Ba3  1  0.249437  0.750564  0.500384  1
  La  La4  1  0.267618  0.267618  0.184593  1
  La  La5  1  0.732382  0.732382  0.184593  1
  La  La6  1  0.766558  0.233442  0.319038  1
  La  La7  1  0.233442  0.766558  0.319038  1
  La  La8  1  0.765356  0.234644  0.680839  1
  La  La9  1  0.234644  0.765356  0.680839  1
  La  La10  1  0.269632  0.269632  0.814981  1
  La  La11  1  0.730368  0.730368  0.814981  1
  Sc  Sc12  1  0.755656  0.244343  0.903890  1
  Sc  Sc13  1  0.244343  0.755656  0.903890  1
  V  V14  1  0.752645  0.247354  0.103093  1
  V  V15  1  0.247354  0.752645  0.103093  1
  V  V16  1  0.251225  0.251225  0.400376  1
  V  V17  1  0.748775  0.748775  0.400376  1
  V  V18  1  0.250392  0.250392  0.598985  1
  V  V19  1  0.749608  0.749608  0.598985  1
  O  O20  1  0.775041  0.224959  0.003512  1
  O  O21  1  0.224959  0.775041  0.003512  1
  O  O22  1  0.499999  0.499999  0.097502  1
  O  O23  1  0.499999  0.000000  0.109051  1
  O  O24  1  0.000000  0.499999  0.109051  1
  O  O25  1  0.000000  0.000000  0.122804  1
  O  O26  1  0.708101  0.291898  0.206905  1
  O  O27  1  0.291898  0.708101  0.206905  1
  O  O28  1  0.209713  0.209713  0.294478  1
  O  O29  1  0.790288  0.790288  0.294478  1
  O  O30  1  0.499999  0.499999  0.380610  1
  O  O31  1  0.499999  0.000000  0.391829  1
  O  O32  1  0.000000  0.499999  0.391829  1
  O  O33  1  0.000000  0.000000  0.402332  1
  O  O34  1  0.267787  0.267787  0.498709  1
  O  O35  1  0.732212  0.732212  0.498709  1
  O  O36  1  0.000000  0.000000  0.594814  1
  O  O37  1  0.499999  0.000000  0.605677  1
  O  O38  1  0.000000  0.499999  0.605677  1
  O  O39  1  0.499999  0.499999  0.616859  1
  O  O40  1  0.208299  0.208299  0.703412  1
  O  O41  1  0.791702  0.791702  0.703412  1
  O  O42  1  0.698822  0.301177  0.789567  1
  O  O43  1  0.301177  0.698822  0.789567  1
  O  O44  1  0.000000  0.000000  0.875856  1
  O  O45  1  0.499999  0.000000  0.890063  1
  O  O46  1  0.000000  0.499999  0.890063  1
  O  O47  1  0.499999  0.499999  0.903862  1
