# generated using pymatgen
data_Tm3LuCd2CoCu3
_symmetry_space_group_name_H-M   'P 1'
_cell_length_a   3.65047000
_cell_length_b   7.39274244
_cell_length_c   7.39801402
_cell_angle_alpha   90.10492807
_cell_angle_beta   90.00000000
_cell_angle_gamma   90.00000000
_symmetry_Int_Tables_number   1
_chemical_formula_structural   Tm3LuCd2CoCu3
_chemical_formula_sum   'Tm3 Lu1 Cd2 Co1 Cu3'
_cell_volume   199.64975485
_cell_formula_units_Z   1
loop_
 _symmetry_equiv_pos_site_id
 _symmetry_equiv_pos_as_xyz
  1  'x, y, z'
loop_
 _atom_site_type_symbol
 _atom_site_label
 _atom_site_symmetry_multiplicity
 _atom_site_fract_x
 _atom_site_fract_y
 _atom_site_fract_z
 _atom_site_occupancy
  Tm  Tm0  1  0.500000  0.170783  0.670360  1
  Tm  Tm1  1  0.500000  0.812015  0.311933  1
  Tm  Tm2  1  0.500000  0.679533  0.845025  1
  Lu  Lu3  1  0.500000  0.345439  0.179810  1
  Cd  Cd4  1  0.000000  0.005139  0.001265  1
  Cd  Cd5  1  0.000000  0.500441  0.504433  1
  Co  Co6  1  0.000000  0.616542  0.117840  1
  Cu  Cu7  1  0.000000  0.378358  0.879715  1
  Cu  Cu8  1  0.000000  0.875042  0.616319  1
  Cu  Cu9  1  0.000000  0.116707  0.373300  1
