# generated using pymatgen
data_Y8Hf11Si16Ru
_symmetry_space_group_name_H-M   'P 1'
_cell_length_a   7.25809705
_cell_length_b   7.25809700
_cell_length_c   13.26429183
_cell_angle_alpha   89.87605848
_cell_angle_beta   90.12394146
_cell_angle_gamma   90.00136318
_symmetry_Int_Tables_number   1
_chemical_formula_structural   Y8Hf11Si16Ru
_chemical_formula_sum   'Y8 Hf11 Si16 Ru1'
_cell_volume   698.75925733
_cell_formula_units_Z   1
loop_
 _symmetry_equiv_pos_site_id
 _symmetry_equiv_pos_as_xyz
  1  'x, y, z'
loop_
 _atom_site_type_symbol
 _atom_site_label
 _atom_site_symmetry_multiplicity
 _atom_site_fract_x
 _atom_site_fract_y
 _atom_site_fract_z
 _atom_site_occupancy
  Y  Y0  1  0.997647  0.345323  0.211502  1
  Y  Y1  1  0.006236  0.653075  0.717087  1
  Y  Y2  1  0.155024  0.494367  0.465085  1
  Y  Y3  1  0.501830  0.847643  0.032892  1
  Y  Y4  1  0.847643  0.501830  0.967108  1
  Y  Y5  1  0.494367  0.155024  0.534915  1
  Y  Y6  1  0.345323  0.997647  0.788498  1
  Y  Y7  1  0.653075  0.006236  0.282913  1
  Hf  Hf8  1  0.824141  0.824141  0.500000  1
  Hf  Hf9  1  0.323197  0.676428  0.248077  1
  Hf  Hf10  1  0.676428  0.323197  0.751923  1
  Hf  Hf11  1  0.146090  0.997913  0.371881  1
  Hf  Hf12  1  0.854185  0.003656  0.878433  1
  Hf  Hf13  1  0.502759  0.646498  0.625534  1
  Hf  Hf14  1  0.353869  0.496094  0.877101  1
  Hf  Hf15  1  0.496094  0.353869  0.122899  1
  Hf  Hf16  1  0.646498  0.502759  0.374466  1
  Hf  Hf17  1  0.997913  0.146090  0.628119  1
  Hf  Hf18  1  0.003656  0.854185  0.121567  1
  Si  Si19  1  0.358507  0.296148  0.314932  1
  Si  Si20  1  0.640621  0.704581  0.818404  1
  Si  Si21  1  0.205480  0.860492  0.566772  1
  Si  Si22  1  0.137045  0.791857  0.930910  1
  Si  Si23  1  0.791857  0.137045  0.069090  1
  Si  Si24  1  0.860492  0.205480  0.433228  1
  Si  Si25  1  0.296148  0.358507  0.685068  1
  Si  Si26  1  0.704581  0.640621  0.181596  1
  Si  Si27  1  0.291802  0.056396  0.180425  1
  Si  Si28  1  0.704584  0.949548  0.686149  1
  Si  Si29  1  0.448749  0.796085  0.434934  1
  Si  Si30  1  0.207391  0.551444  0.064028  1
  Si  Si31  1  0.551444  0.207391  0.935972  1
  Si  Si32  1  0.796085  0.448749  0.565066  1
  Si  Si33  1  0.056396  0.291802  0.819575  1
  Si  Si34  1  0.949548  0.704584  0.313851  1
  Ru  Ru35  1  0.173291  0.173291  0.000000  1
