# generated using pymatgen
data_Tb5Er3(BBr6)2
_symmetry_space_group_name_H-M   'P 1'
_cell_length_a   3.96160500
_cell_length_b   13.16816689
_cell_length_c   13.64309096
_cell_angle_alpha   89.93857374
_cell_angle_beta   90.00000000
_cell_angle_gamma   90.00000000
_symmetry_Int_Tables_number   1
_chemical_formula_structural   Tb5Er3(BBr6)2
_chemical_formula_sum   'Tb5 Er3 B2 Br12'
_cell_volume   711.71975124
_cell_formula_units_Z   1
loop_
 _symmetry_equiv_pos_site_id
 _symmetry_equiv_pos_as_xyz
  1  'x, y, z'
loop_
 _atom_site_type_symbol
 _atom_site_label
 _atom_site_symmetry_multiplicity
 _atom_site_fract_x
 _atom_site_fract_y
 _atom_site_fract_z
 _atom_site_occupancy
  Tb  Tb0  1  0.000000  0.101904  0.080872  1
  Tb  Tb1  1  0.500000  0.122878  0.854971  1
  Tb  Tb2  1  0.500000  0.876517  0.144542  1
  Tb  Tb3  1  0.500000  0.622964  0.644541  1
  Tb  Tb4  1  0.500000  0.377013  0.355430  1
  Er  Er5  1  0.000000  0.898597  0.919512  1
  Er  Er6  1  0.000000  0.600803  0.419962  1
  Er  Er7  1  0.000000  0.399176  0.580018  1
  B  B8  1  0.500000  0.999068  0.999267  1
  B  B9  1  0.500000  0.500047  0.500068  1
  Br  Br10  1  0.500000  0.269077  0.680787  1
  Br  Br11  1  0.500000  0.730878  0.319201  1
  Br  Br12  1  0.500000  0.768857  0.818974  1
  Br  Br13  1  0.500000  0.232803  0.182363  1
  Br  Br14  1  0.000000  0.262124  0.930985  1
  Br  Br15  1  0.000000  0.738396  0.067673  1
  Br  Br16  1  0.000000  0.482025  0.239308  1
  Br  Br17  1  0.000000  0.518087  0.760733  1
  Br  Br18  1  0.000000  0.980731  0.261695  1
  Br  Br19  1  0.000000  0.018030  0.739023  1
  Br  Br20  1  0.000000  0.238678  0.432410  1
  Br  Br21  1  0.000000  0.761348  0.567664  1
