# generated using pymatgen
data_Tb3(CuSi2)2
_symmetry_space_group_name_H-M   'P 1'
_cell_length_a   4.03787400
_cell_length_b   5.70135833
_cell_length_c   8.05113463
_cell_angle_alpha   100.42073766
_cell_angle_beta   90.00000000
_cell_angle_gamma   110.73921984
_symmetry_Int_Tables_number   1
_chemical_formula_structural   Tb3(CuSi2)2
_chemical_formula_sum   'Tb3 Cu2 Si4'
_cell_volume   170.06502681
_cell_formula_units_Z   1
loop_
 _symmetry_equiv_pos_site_id
 _symmetry_equiv_pos_as_xyz
  1  'x, y, z'
loop_
 _atom_site_type_symbol
 _atom_site_label
 _atom_site_symmetry_multiplicity
 _atom_site_fract_x
 _atom_site_fract_y
 _atom_site_fract_z
 _atom_site_occupancy
  Tb  Tb0  1  0.000000  0.000000  0.000000  1
  Tb  Tb1  1  0.338275  0.676551  0.331571  1
  Tb  Tb2  1  0.661724  0.323448  0.668427  1
  Cu  Cu3  1  0.612297  0.224595  0.281536  1
  Cu  Cu4  1  0.387702  0.775405  0.718464  1
  Si  Si5  1  0.717434  0.434869  0.059133  1
  Si  Si6  1  0.058702  0.117405  0.388550  1
  Si  Si7  1  0.941297  0.882594  0.611450  1
  Si  Si8  1  0.282567  0.565132  0.940867  1
