# generated using pymatgen
data_LiYb2PuO6
_symmetry_space_group_name_H-M   'P 1'
_cell_length_a   5.55974983
_cell_length_b   5.55974905
_cell_length_c   5.57676500
_cell_angle_alpha   119.66356198
_cell_angle_beta   119.66355740
_cell_angle_gamma   59.83097966
_symmetry_Int_Tables_number   1
_chemical_formula_structural   LiYb2PuO6
_chemical_formula_sum   'Li1 Yb2 Pu1 O6'
_cell_volume   122.35009420
_cell_formula_units_Z   1
loop_
 _symmetry_equiv_pos_site_id
 _symmetry_equiv_pos_as_xyz
  1  'x, y, z'
loop_
 _atom_site_type_symbol
 _atom_site_label
 _atom_site_symmetry_multiplicity
 _atom_site_fract_x
 _atom_site_fract_y
 _atom_site_fract_z
 _atom_site_occupancy
  Li  Li0  1  0.500000  0.500000  0.000000  1
  Yb  Yb1  1  0.250268  0.250268  0.276814  1
  Yb  Yb2  1  0.749732  0.749732  0.723186  1
  Pu  Pu3  1  0.000000  0.000000  0.500000  1
  O  O4  1  0.763850  0.763850  0.147739  1
  O  O5  1  0.818500  0.314291  0.322226  1
  O  O6  1  0.314291  0.818500  0.322226  1
  O  O7  1  0.685709  0.181500  0.677774  1
  O  O8  1  0.181500  0.685709  0.677774  1
  O  O9  1  0.236150  0.236150  0.852261  1
