# generated using pymatgen
data_Sr3Sm(NiH6)2
_symmetry_space_group_name_H-M   'P 1'
_cell_length_a   7.32204035
_cell_length_b   7.32204581
_cell_length_c   5.23866200
_cell_angle_alpha   89.99990536
_cell_angle_beta   89.99772597
_cell_angle_gamma   137.98727601
_symmetry_Int_Tables_number   1
_chemical_formula_structural   Sr3Sm(NiH6)2
_chemical_formula_sum   'Sr3 Sm1 Ni2 H12'
_cell_volume   187.97622458
_cell_formula_units_Z   1
loop_
 _symmetry_equiv_pos_site_id
 _symmetry_equiv_pos_as_xyz
  1  'x, y, z'
loop_
 _atom_site_type_symbol
 _atom_site_label
 _atom_site_symmetry_multiplicity
 _atom_site_fract_x
 _atom_site_fract_y
 _atom_site_fract_z
 _atom_site_occupancy
  Sr  Sr0  1  0.640364  0.359636  0.999996  1
  Sr  Sr1  1  0.857370  0.142631  0.499996  1
  Sr  Sr2  1  0.358816  0.641183  0.000006  1
  Sm  Sm3  1  0.139008  0.860990  0.500009  1
  Ni  Ni4  1  0.504264  0.495734  0.499997  1
  Ni  Ni5  1  0.002781  0.997228  0.999998  1
  H  H6  1  0.007185  0.522833  0.736077  1
  H  H7  1  0.477203  0.992868  0.263930  1
  H  H8  1  0.007085  0.522764  0.263972  1
  H  H9  1  0.477199  0.992862  0.736036  1
  H  H10  1  0.389060  0.610940  0.500001  1
  H  H11  1  0.886070  0.113928  0.999998  1
  H  H12  1  0.619287  0.380711  0.500011  1
  H  H13  1  0.117642  0.882359  0.999972  1
  H  H14  1  0.250461  0.242123  0.743393  1
  H  H15  1  0.757870  0.749526  0.256606  1
  H  H16  1  0.248204  0.239878  0.254125  1
  H  H17  1  0.760130  0.751808  0.745875  1
