# generated using pymatgen
data_Ba14NdSb11
_symmetry_space_group_name_H-M   'P 1'
_cell_length_a   18.40572001
_cell_length_b   18.40571999
_cell_length_c   18.40572000
_cell_angle_alpha   117.88730924
_cell_angle_beta   117.88730920
_cell_angle_gamma   93.69997815
_symmetry_Int_Tables_number   1
_chemical_formula_structural   Ba14NdSb11
_chemical_formula_sum   'Ba56 Nd4 Sb44'
_cell_volume   4539.58965907
_cell_formula_units_Z   4
loop_
 _symmetry_equiv_pos_site_id
 _symmetry_equiv_pos_as_xyz
  1  'x, y, z'
loop_
 _atom_site_type_symbol
 _atom_site_label
 _atom_site_symmetry_multiplicity
 _atom_site_fract_x
 _atom_site_fract_y
 _atom_site_fract_z
 _atom_site_occupancy
  Ba  Ba0  1  0.626514  0.287285  0.978449  1
  Ba  Ba1  1  0.898066  0.058834  0.521549  1
  Ba  Ba2  1  0.129418  0.497854  0.721467  1
  Ba  Ba3  1  0.657955  0.526388  0.778537  1
  Ba  Ba4  1  0.398066  0.876517  0.839233  1
  Ba  Ba5  1  0.808836  0.787285  0.660771  1
  Ba  Ba6  1  0.037285  0.558834  0.160768  1
  Ba  Ba7  1  0.126516  0.148065  0.339229  1
  Ba  Ba8  1  0.893435  0.738331  0.895754  1
  Ba  Ba9  1  0.157952  0.379415  0.131563  1
  Ba  Ba10  1  0.247678  0.592574  0.604244  1
  Ba  Ba11  1  0.276387  0.997854  0.368436  1
  Ba  Ba12  1  0.761674  0.606560  0.104249  1
  Ba  Ba13  1  0.308836  0.648065  0.021549  1
  Ba  Ba14  1  0.907426  0.252316  0.395753  1
  Ba  Ba15  1  0.247851  0.026388  0.868434  1
  Ba  Ba16  1  0.980218  0.875000  0.605218  1
  Ba  Ba17  1  0.537284  0.376517  0.478451  1
  Ba  Ba18  1  0.629418  0.907955  0.631565  1
  Ba  Ba19  1  0.625000  0.019783  0.894783  1
  Ba  Ba20  1  0.488329  0.092574  0.344896  1
  Ba  Ba21  1  0.393437  0.497684  0.155110  1
  Ba  Ba22  1  0.625000  0.519783  0.394783  1
  Ba  Ba23  1  0.480218  0.875000  0.105218  1
  Ba  Ba24  1  0.747689  0.143440  0.655114  1
  Ba  Ba25  1  0.002148  0.370585  0.278537  1
  Ba  Ba26  1  0.776390  0.407955  0.278537  1
  Ba  Ba27  1  0.342577  0.238331  0.844896  1
  Ba  Ba28  1  0.407423  0.011669  0.655104  1
  Ba  Ba29  1  0.973610  0.842045  0.221463  1
  Ba  Ba30  1  0.747852  0.879415  0.221463  1
  Ba  Ba31  1  0.002311  0.106560  0.844886  1
  Ba  Ba32  1  0.269782  0.375000  0.394782  1
  Ba  Ba33  1  0.125000  0.730217  0.105217  1
  Ba  Ba34  1  0.356563  0.752316  0.344890  1
  Ba  Ba35  1  0.261671  0.157426  0.155104  1
  Ba  Ba36  1  0.125000  0.230217  0.605217  1
  Ba  Ba37  1  0.120582  0.342045  0.868435  1
  Ba  Ba38  1  0.212716  0.873483  0.021549  1
  Ba  Ba39  1  0.769782  0.375000  0.894782  1
  Ba  Ba40  1  0.502149  0.223612  0.631566  1
  Ba  Ba41  1  0.842574  0.997684  0.104247  1
  Ba  Ba42  1  0.441164  0.601935  0.478451  1
  Ba  Ba43  1  0.988326  0.643440  0.395751  1
  Ba  Ba44  1  0.473613  0.252146  0.131564  1
  Ba  Ba45  1  0.502322  0.657426  0.895756  1
  Ba  Ba46  1  0.592048  0.870585  0.368437  1
  Ba  Ba47  1  0.856565  0.511669  0.604246  1
  Ba  Ba48  1  0.623484  0.101935  0.160771  1
  Ba  Ba49  1  0.712715  0.691166  0.339232  1
  Ba  Ba50  1  0.941164  0.462715  0.839229  1
  Ba  Ba51  1  0.351934  0.373483  0.660767  1
  Ba  Ba52  1  0.092045  0.723612  0.721463  1
  Ba  Ba53  1  0.620582  0.752146  0.778533  1
  Ba  Ba54  1  0.851934  0.191166  0.978451  1
  Ba  Ba55  1  0.123486  0.962715  0.521551  1
  Nd  Nd56  1  0.250000  0.750000  0.500000  1
  Nd  Nd57  1  0.750001  0.250000  0.500000  1
  Nd  Nd58  1  0.500000  0.500000  0.000000  1
  Nd  Nd59  1  0.999999  0.000000  0.000000  1
  Sb  Sb60  1  0.853867  0.446672  0.143039  1
  Sb  Sb61  1  0.960828  0.053632  0.356961  1
  Sb  Sb62  1  0.196671  0.553632  0.092804  1
  Sb  Sb63  1  0.353867  0.210829  0.407196  1
  Sb  Sb64  1  0.188120  0.546395  0.365733  1
  Sb  Sb65  1  0.072386  0.930664  0.134264  1
  Sb  Sb66  1  0.296399  0.430664  0.858278  1
  Sb  Sb67  1  0.688120  0.322388  0.641725  1
  Sb  Sb68  1  0.572388  0.438121  0.141724  1
  Sb  Sb69  1  0.680663  0.046395  0.358275  1
  Sb  Sb70  1  0.369660  0.869659  0.239320  1
  Sb  Sb71  1  0.250000  0.250000  0.999999  1
  Sb  Sb72  1  0.119659  0.119659  0.739319  1
  Sb  Sb73  1  0.460828  0.103868  0.907196  1
  Sb  Sb74  1  0.803633  0.946672  0.592805  1
  Sb  Sb75  1  0.180663  0.822388  0.634267  1
  Sb  Sb76  1  0.796397  0.938121  0.865735  1
  Sb  Sb77  1  0.619660  0.880341  0.000001  1
  Sb  Sb78  1  0.869659  0.630341  0.500000  1
  Sb  Sb79  1  0.053328  0.646132  0.856961  1
  Sb  Sb80  1  0.446368  0.539171  0.643038  1
  Sb  Sb81  1  0.750001  0.750000  0.999999  1
  Sb  Sb82  1  0.999999  0.500000  0.500001  1
  Sb  Sb83  1  0.303632  0.710829  0.856962  1
  Sb  Sb84  1  0.696672  0.603868  0.643039  1
  Sb  Sb85  1  0.880341  0.619659  0.000000  1
  Sb  Sb86  1  0.130340  0.369659  0.499999  1
  Sb  Sb87  1  0.953603  0.311879  0.634265  1
  Sb  Sb88  1  0.569337  0.427612  0.865733  1
  Sb  Sb89  1  0.946367  0.303328  0.907195  1
  Sb  Sb90  1  0.289172  0.146132  0.592804  1
  Sb  Sb91  1  0.630341  0.130341  0.760681  1
  Sb  Sb92  1  0.500000  0.000000  0.500001  1
  Sb  Sb93  1  0.380340  0.380341  0.260680  1
  Sb  Sb94  1  0.069337  0.203605  0.141725  1
  Sb  Sb95  1  0.177612  0.811879  0.358276  1
  Sb  Sb96  1  0.061880  0.927612  0.858275  1
  Sb  Sb97  1  0.453601  0.819336  0.641722  1
  Sb  Sb98  1  0.677614  0.319336  0.365736  1
  Sb  Sb99  1  0.561880  0.703605  0.134267  1
  Sb  Sb100  1  0.396133  0.039171  0.092804  1
  Sb  Sb101  1  0.553329  0.696368  0.407196  1
  Sb  Sb102  1  0.789172  0.196368  0.143039  1
  Sb  Sb103  1  0.896133  0.803328  0.356961  1
