# generated using pymatgen
data_Mg5Ni(P2Ru3)6
_symmetry_space_group_name_H-M   'P 1'
_cell_length_a   12.25786556
_cell_length_b   12.22289528
_cell_length_c   3.95870000
_cell_angle_alpha   90.00000000
_cell_angle_beta   90.00000000
_cell_angle_gamma   118.16403466
_symmetry_Int_Tables_number   1
_chemical_formula_structural   Mg5Ni(P2Ru3)6
_chemical_formula_sum   'Mg5 Ni1 P12 Ru18'
_cell_volume   522.89329185
_cell_formula_units_Z   1
loop_
 _symmetry_equiv_pos_site_id
 _symmetry_equiv_pos_as_xyz
  1  'x, y, z'
loop_
 _atom_site_type_symbol
 _atom_site_label
 _atom_site_symmetry_multiplicity
 _atom_site_fract_x
 _atom_site_fract_y
 _atom_site_fract_z
 _atom_site_occupancy
  Mg  Mg0  1  0.655874  0.319875  0.000000  1
  Mg  Mg1  1  0.347574  0.677467  0.000000  1
  Mg  Mg2  1  0.812308  0.000084  0.500000  1
  Mg  Mg3  1  0.181947  0.184181  0.500000  1
  Mg  Mg4  1  0.005406  0.823939  0.500000  1
  Ni  Ni5  1  0.863957  0.489200  0.500000  1
  P  P6  1  0.620047  0.001186  0.000000  1
  P  P7  1  0.378510  0.386759  0.000000  1
  P  P8  1  0.006993  0.634554  0.000000  1
  P  P9  1  0.690125  0.510597  0.500000  1
  P  P10  1  0.827804  0.297276  0.500000  1
  P  P11  1  0.303928  0.829926  0.500000  1
  P  P12  1  0.540303  0.700226  0.500000  1
  P  P13  1  0.169856  0.002140  0.000000  1
  P  P14  1  0.830639  0.798906  0.000000  1
  P  P15  1  0.017859  0.194474  0.000000  1
  P  P16  1  0.465354  0.163696  0.500000  1
  P  P17  1  0.170331  0.481506  0.500000  1
  Ru  Ru18  1  0.653974  0.828858  0.000000  1
  Ru  Ru19  1  0.191004  0.390098  0.000000  1
  Ru  Ru20  1  0.364755  0.189767  0.000000  1
  Ru  Ru21  1  0.190963  0.816259  0.000000  1
  Ru  Ru22  1  0.804928  0.594150  0.000000  1
  Ru  Ru23  1  0.490827  0.365024  0.500000  1
  Ru  Ru24  1  0.633110  0.129336  0.500000  1
  Ru  Ru25  1  0.115531  0.632762  0.500000  1
  Ru  Ru26  1  0.372011  0.508953  0.500000  1
  Ru  Ru27  1  0.507315  0.870635  0.500000  1
  Ru  Ru28  1  0.983167  0.997003  0.000000  1
  Ru  Ru29  1  0.735139  0.715131  0.500000  1
  Ru  Ru30  1  0.006804  0.281624  0.500000  1
  Ru  Ru31  1  0.439874  0.005492  0.000000  1
  Ru  Ru32  1  0.559721  0.566330  0.000000  1
  Ru  Ru33  1  0.977005  0.436065  0.000000  1
  Ru  Ru34  1  0.817685  0.175631  0.000000  1
  Ru  Ru35  1  0.267372  0.000894  0.500000  1
