# generated using pymatgen
data_Yb3Sm(CdPt)4
_symmetry_space_group_name_H-M   'P 1'
_cell_length_a   4.16832900
_cell_length_b   7.29178333
_cell_length_c   8.78424961
_cell_angle_alpha   90.33588163
_cell_angle_beta   90.00000000
_cell_angle_gamma   90.00000000
_symmetry_Int_Tables_number   1
_chemical_formula_structural   Yb3Sm(CdPt)4
_chemical_formula_sum   'Yb3 Sm1 Cd4 Pt4'
_cell_volume   266.98874305
_cell_formula_units_Z   1
loop_
 _symmetry_equiv_pos_site_id
 _symmetry_equiv_pos_as_xyz
  1  'x, y, z'
loop_
 _atom_site_type_symbol
 _atom_site_label
 _atom_site_symmetry_multiplicity
 _atom_site_fract_x
 _atom_site_fract_y
 _atom_site_fract_z
 _atom_site_occupancy
  Yb  Yb0  1  0.250000  0.541457  0.176649  1
  Yb  Yb1  1  0.750000  0.956510  0.682499  1
  Yb  Yb2  1  0.750000  0.457567  0.819892  1
  Sm  Sm3  1  0.250000  0.044780  0.323904  1
  Cd  Cd4  1  0.250000  0.140986  0.933493  1
  Cd  Cd5  1  0.250000  0.639811  0.565249  1
  Cd  Cd6  1  0.750000  0.854621  0.061610  1
  Cd  Cd7  1  0.750000  0.368811  0.437642  1
  Pt  Pt8  1  0.250000  0.244245  0.627572  1
  Pt  Pt9  1  0.250000  0.745810  0.868029  1
  Pt  Pt10  1  0.750000  0.758663  0.369056  1
  Pt  Pt11  1  0.750000  0.246741  0.134406  1
