# generated using pymatgen
data_Sr7Cr6CuF34
_symmetry_space_group_name_H-M   'P 1'
_cell_length_a   7.46626010
_cell_length_b   10.02249731
_cell_length_c   10.02249700
_cell_angle_alpha   67.46614693
_cell_angle_beta   99.34138598
_cell_angle_gamma   99.34138908
_symmetry_Int_Tables_number   1
_chemical_formula_structural   Sr7Cr6CuF34
_chemical_formula_sum   'Sr7 Cr6 Cu1 F34'
_cell_volume   679.40725350
_cell_formula_units_Z   1
loop_
 _symmetry_equiv_pos_site_id
 _symmetry_equiv_pos_as_xyz
  1  'x, y, z'
loop_
 _atom_site_type_symbol
 _atom_site_label
 _atom_site_symmetry_multiplicity
 _atom_site_fract_x
 _atom_site_fract_y
 _atom_site_fract_z
 _atom_site_occupancy
  Sr  Sr0  1  0.000000  0.000000  0.000000  1
  Sr  Sr1  1  0.701191  0.555089  0.160535  1
  Sr  Sr2  1  0.114043  0.260889  0.260889  1
  Sr  Sr3  1  0.298809  0.839464  0.444911  1
  Sr  Sr4  1  0.701191  0.160535  0.555089  1
  Sr  Sr5  1  0.885957  0.739112  0.739112  1
  Sr  Sr6  1  0.298809  0.444911  0.839464  1
  Cr  Cr7  1  0.198404  0.645812  0.135267  1
  Cr  Cr8  1  0.540085  0.172621  0.172621  1
  Cr  Cr9  1  0.801597  0.864732  0.354187  1
  Cr  Cr10  1  0.198404  0.135267  0.645812  1
  Cr  Cr11  1  0.459914  0.827379  0.827379  1
  Cr  Cr12  1  0.801597  0.354187  0.864732  1
  Cu  Cu13  1  0.499999  0.500000  0.500000  1
  F  F14  1  0.995293  0.256664  0.006907  1
  F  F15  1  0.392810  0.774390  0.022298  1
  F  F16  1  0.191128  0.509750  0.039780  1
  F  F17  1  0.295661  0.109752  0.109752  1
  F  F18  1  0.459821  0.361285  0.116781  1
  F  F19  1  0.799879  0.780663  0.208669  1
  F  F20  1  0.200122  0.791331  0.219337  1
  F  F21  1  0.607191  0.977702  0.225610  1
  F  F22  1  0.771784  0.251831  0.251831  1
  F  F23  1  0.019777  0.506038  0.249501  1
  F  F24  1  0.995293  0.006907  0.256664  1
  F  F25  1  0.393346  0.546284  0.274816  1
  F  F26  1  0.459821  0.116781  0.361285  1
  F  F27  1  0.686637  0.437016  0.437016  1
  F  F28  1  0.606653  0.725184  0.453716  1
  F  F29  1  0.808871  0.960220  0.490250  1
  F  F30  1  0.980223  0.750498  0.493962  1
  F  F31  1  0.019777  0.249501  0.506038  1
  F  F32  1  0.191128  0.039780  0.509750  1
  F  F33  1  0.393346  0.274816  0.546284  1
  F  F34  1  0.313364  0.562984  0.562984  1
  F  F35  1  0.540180  0.883219  0.638714  1
  F  F36  1  0.606653  0.453716  0.725184  1
  F  F37  1  0.004707  0.993093  0.743336  1
  F  F38  1  0.980223  0.493962  0.750498  1
  F  F39  1  0.228215  0.748169  0.748169  1
  F  F40  1  0.392810  0.022298  0.774390  1
  F  F41  1  0.799879  0.208669  0.780663  1
  F  F42  1  0.200122  0.219337  0.791331  1
  F  F43  1  0.540180  0.638714  0.883219  1
  F  F44  1  0.704340  0.890249  0.890249  1
  F  F45  1  0.808871  0.490250  0.960220  1
  F  F46  1  0.607191  0.225610  0.977702  1
  F  F47  1  0.004707  0.743336  0.993093  1
