# generated using pymatgen
data_NdGaNi3Pt
_symmetry_space_group_name_H-M   'P 1'
_cell_length_a   5.23196664
_cell_length_b   4.90475583
_cell_length_c   4.08916200
_cell_angle_alpha   90.00000000
_cell_angle_beta   90.00000000
_cell_angle_gamma   117.01267283
_symmetry_Int_Tables_number   1
_chemical_formula_structural   NdGaNi3Pt
_chemical_formula_sum   'Nd1 Ga1 Ni3 Pt1'
_cell_volume   93.48643545
_cell_formula_units_Z   1
loop_
 _symmetry_equiv_pos_site_id
 _symmetry_equiv_pos_as_xyz
  1  'x, y, z'
loop_
 _atom_site_type_symbol
 _atom_site_label
 _atom_site_symmetry_multiplicity
 _atom_site_fract_x
 _atom_site_fract_y
 _atom_site_fract_z
 _atom_site_occupancy
  Nd  Nd0  1  0.000000  0.000000  0.000000  1
  Ga  Ga1  1  0.500000  0.500000  0.500000  1
  Ni  Ni2  1  0.636307  0.312404  0.000000  1
  Ni  Ni3  1  0.363693  0.687596  0.000000  1
  Ni  Ni4  1  0.500000  0.000000  0.500000  1
  Pt  Pt5  1  0.000000  0.500000  0.500000  1
