# generated using pymatgen
data_YbErCo6GeB3
_symmetry_space_group_name_H-M   'P 1'
_cell_length_a   5.13851501
_cell_length_b   5.14160766
_cell_length_c   12.22447900
_cell_angle_alpha   90.00022458
_cell_angle_beta   89.99972593
_cell_angle_gamma   120.01893074
_symmetry_Int_Tables_number   1
_chemical_formula_structural   YbErCo6GeB3
_chemical_formula_sum   'Yb2 Er2 Co12 Ge2 B6'
_cell_volume   279.64990572
_cell_formula_units_Z   2
loop_
 _symmetry_equiv_pos_site_id
 _symmetry_equiv_pos_as_xyz
  1  'x, y, z'
loop_
 _atom_site_type_symbol
 _atom_site_label
 _atom_site_symmetry_multiplicity
 _atom_site_fract_x
 _atom_site_fract_y
 _atom_site_fract_z
 _atom_site_occupancy
  Yb  Yb0  1  0.999995  0.000005  0.499982  1
  Yb  Yb1  1  0.999994  0.999993  0.000067  1
  Er  Er2  1  0.000006  0.999989  0.260671  1
  Er  Er3  1  0.999987  0.000006  0.739305  1
  Co  Co4  1  0.500000  0.000001  0.385937  1
  Co  Co5  1  0.000000  0.500000  0.385918  1
  Co  Co6  1  0.500000  0.500002  0.385974  1
  Co  Co7  1  0.499990  0.000007  0.614033  1
  Co  Co8  1  0.499992  0.500005  0.614060  1
  Co  Co9  1  0.999992  0.500007  0.614042  1
  Co  Co10  1  0.500006  0.999994  0.157940  1
  Co  Co11  1  0.000004  0.499993  0.157947  1
  Co  Co12  1  0.500004  0.499995  0.157865  1
  Co  Co13  1  0.499985  0.000004  0.842079  1
  Co  Co14  1  0.499987  0.500002  0.842064  1
  Co  Co15  1  0.999989  0.500005  0.842076  1
  Ge  Ge16  1  0.333165  0.666613  0.000051  1
  Ge  Ge17  1  0.666825  0.333374  0.000050  1
  B  B18  1  0.333308  0.666525  0.268927  1
  B  B19  1  0.666696  0.333469  0.268927  1
  B  B20  1  0.666737  0.333357  0.731060  1
  B  B21  1  0.333244  0.666652  0.731060  1
  B  B22  1  0.333278  0.666652  0.499981  1
  B  B23  1  0.666714  0.333354  0.499982  1
