# generated using pymatgen
data_Nd7ThCu2(Si6Pd)2
_symmetry_space_group_name_H-M   'P 1'
_cell_length_a   8.18241837
_cell_length_b   8.18242033
_cell_length_c   8.52382700
_cell_angle_alpha   89.99925491
_cell_angle_beta   90.00074748
_cell_angle_gamma   119.84597266
_symmetry_Int_Tables_number   1
_chemical_formula_structural   Nd7ThCu2(Si6Pd)2
_chemical_formula_sum   'Nd7 Th1 Cu2 Si12 Pd2'
_cell_volume   494.99486682
_cell_formula_units_Z   1
loop_
 _symmetry_equiv_pos_site_id
 _symmetry_equiv_pos_as_xyz
  1  'x, y, z'
loop_
 _atom_site_type_symbol
 _atom_site_label
 _atom_site_symmetry_multiplicity
 _atom_site_fract_x
 _atom_site_fract_y
 _atom_site_fract_z
 _atom_site_occupancy
  Nd  Nd0  1  0.500190  0.499810  0.248824  1
  Nd  Nd1  1  0.000402  0.500157  0.751449  1
  Nd  Nd2  1  0.999598  0.499824  0.249111  1
  Nd  Nd3  1  0.499843  0.999598  0.751449  1
  Nd  Nd4  1  0.500176  0.000402  0.249111  1
  Nd  Nd5  1  0.999987  0.000013  0.751298  1
  Nd  Nd6  1  0.999973  0.000027  0.248928  1
  Th  Th7  1  0.499804  0.500196  0.750125  1
  Cu  Cu8  1  0.666184  0.333816  0.996848  1
  Cu  Cu9  1  0.333811  0.666189  0.999322  1
  Si  Si10  1  0.830579  0.169421  0.000064  1
  Si  Si11  1  0.169422  0.830578  0.000873  1
  Si  Si12  1  0.338128  0.169066  0.999093  1
  Si  Si13  1  0.166691  0.833309  0.499525  1
  Si  Si14  1  0.661833  0.830906  0.999680  1
  Si  Si15  1  0.833314  0.166686  0.500356  1
  Si  Si16  1  0.830934  0.661872  0.999093  1
  Si  Si17  1  0.669177  0.835218  0.499788  1
  Si  Si18  1  0.169094  0.338167  0.999680  1
  Si  Si19  1  0.330838  0.164763  0.500597  1
  Si  Si20  1  0.164782  0.330823  0.499788  1
  Si  Si21  1  0.835237  0.669162  0.500597  1
  Pd  Pd22  1  0.334543  0.665457  0.501583  1
  Pd  Pd23  1  0.665462  0.334538  0.502821  1
