# generated using pymatgen
data_Tb2ErZr(Al3Ir)6
_symmetry_space_group_name_H-M   'P 1'
_cell_length_a   7.55050868
_cell_length_b   7.54154722
_cell_length_c   9.43035100
_cell_angle_alpha   90.00000000
_cell_angle_beta   90.00000000
_cell_angle_gamma   119.60280851
_symmetry_Int_Tables_number   1
_chemical_formula_structural   Tb2ErZr(Al3Ir)6
_chemical_formula_sum   'Tb2 Er1 Zr1 Al18 Ir6'
_cell_volume   466.89527927
_cell_formula_units_Z   1
loop_
 _symmetry_equiv_pos_site_id
 _symmetry_equiv_pos_as_xyz
  1  'x, y, z'
loop_
 _atom_site_type_symbol
 _atom_site_label
 _atom_site_symmetry_multiplicity
 _atom_site_fract_x
 _atom_site_fract_y
 _atom_site_fract_z
 _atom_site_occupancy
  Tb  Tb0  1  0.005487  0.327732  0.750000  1
  Tb  Tb1  1  0.329401  0.006373  0.750000  1
  Er  Er2  1  0.670694  0.995509  0.250000  1
  Zr  Zr3  1  0.996816  0.672117  0.250000  1
  Al  Al4  1  0.125403  0.123077  0.250000  1
  Al  Al5  1  0.870641  0.869098  0.750000  1
  Al  Al6  1  0.000048  0.337526  0.078726  1
  Al  Al7  1  0.999160  0.665060  0.930348  1
  Al  Al8  1  0.999160  0.665060  0.569652  1
  Al  Al9  1  0.332589  0.998309  0.421109  1
  Al  Al10  1  0.000048  0.337526  0.421274  1
  Al  Al11  1  0.664652  0.997977  0.573847  1
  Al  Al12  1  0.664652  0.997977  0.926153  1
  Al  Al13  1  0.332589  0.998309  0.078891  1
  Al  Al14  1  0.333981  0.334091  0.549577  1
  Al  Al15  1  0.668934  0.667190  0.443789  1
  Al  Al16  1  0.668934  0.667190  0.056211  1
  Al  Al17  1  0.333981  0.334091  0.950423  1
  Al  Al18  1  0.336106  0.549494  0.250000  1
  Al  Al19  1  0.660972  0.452745  0.750000  1
  Al  Al20  1  0.554949  0.344251  0.250000  1
  Al  Al21  1  0.451292  0.659508  0.750000  1
  Ir  Ir22  1  0.672450  0.328187  0.001064  1
  Ir  Ir23  1  0.328050  0.672390  0.001850  1
  Ir  Ir24  1  0.328050  0.672390  0.498150  1
  Ir  Ir25  1  0.672450  0.328187  0.498936  1
  Ir  Ir26  1  0.999257  0.999318  0.001061  1
  Ir  Ir27  1  0.999257  0.999318  0.498939  1
