# generated using pymatgen
data_Sc5Nb5(Sn3P)2
_symmetry_space_group_name_H-M   'P 1'
_cell_length_a   8.48405952
_cell_length_b   8.48405916
_cell_length_c   5.74972100
_cell_angle_alpha   90.00000000
_cell_angle_beta   90.00000000
_cell_angle_gamma   120.20455288
_symmetry_Int_Tables_number   1
_chemical_formula_structural   Sc5Nb5(Sn3P)2
_chemical_formula_sum   'Sc5 Nb5 Sn6 P2'
_cell_volume   357.67281280
_cell_formula_units_Z   1
loop_
 _symmetry_equiv_pos_site_id
 _symmetry_equiv_pos_as_xyz
  1  'x, y, z'
loop_
 _atom_site_type_symbol
 _atom_site_label
 _atom_site_symmetry_multiplicity
 _atom_site_fract_x
 _atom_site_fract_y
 _atom_site_fract_z
 _atom_site_occupancy
  Sc  Sc0  1  0.255131  0.000802  0.750000  1
  Sc  Sc1  1  0.000802  0.255131  0.750000  1
  Sc  Sc2  1  0.248993  0.248993  0.250000  1
  Sc  Sc3  1  0.746575  0.000051  0.250000  1
  Sc  Sc4  1  0.000051  0.746575  0.250000  1
  Nb  Nb5  1  0.666895  0.334389  0.000923  1
  Nb  Nb6  1  0.334389  0.666895  0.000923  1
  Nb  Nb7  1  0.334389  0.666895  0.499077  1
  Nb  Nb8  1  0.666895  0.334389  0.499077  1
  Nb  Nb9  1  0.749919  0.749919  0.750000  1
  Sn  Sn10  1  0.403452  0.403452  0.750000  1
  Sn  Sn11  1  0.601247  0.999075  0.750000  1
  Sn  Sn12  1  0.999075  0.601247  0.750000  1
  Sn  Sn13  1  0.599889  0.599889  0.250000  1
  Sn  Sn14  1  0.400004  0.000278  0.250000  1
  Sn  Sn15  1  0.000278  0.400004  0.250000  1
  P  P16  1  0.996008  0.996008  0.995217  1
  P  P17  1  0.996008  0.996008  0.504783  1
