# generated using pymatgen
data_SmY(MgIr4)2
_symmetry_space_group_name_H-M   'P 1'
_cell_length_a   5.28870600
_cell_length_b   5.28870535
_cell_length_c   8.57071400
_cell_angle_alpha   90.00000000
_cell_angle_beta   90.00000000
_cell_angle_gamma   120.00000406
_symmetry_Int_Tables_number   1
_chemical_formula_structural   SmY(MgIr4)2
_chemical_formula_sum   'Sm1 Y1 Mg2 Ir8'
_cell_volume   207.60911361
_cell_formula_units_Z   1
loop_
 _symmetry_equiv_pos_site_id
 _symmetry_equiv_pos_as_xyz
  1  'x, y, z'
loop_
 _atom_site_type_symbol
 _atom_site_label
 _atom_site_symmetry_multiplicity
 _atom_site_fract_x
 _atom_site_fract_y
 _atom_site_fract_z
 _atom_site_occupancy
  Sm  Sm0  1  0.666667  0.333333  0.569143  1
  Y  Y1  1  0.333333  0.666667  0.069565  1
  Mg  Mg2  1  0.666667  0.333333  0.936695  1
  Mg  Mg3  1  0.333333  0.666667  0.436026  1
  Ir  Ir4  1  0.000000  0.000000  0.995997  1
  Ir  Ir5  1  0.000000  0.000000  0.495423  1
  Ir  Ir6  1  0.829151  0.658304  0.248396  1
  Ir  Ir7  1  0.170971  0.829029  0.750656  1
  Ir  Ir8  1  0.658060  0.829029  0.750656  1
  Ir  Ir9  1  0.341696  0.170849  0.248396  1
  Ir  Ir10  1  0.829151  0.170849  0.248396  1
  Ir  Ir11  1  0.170971  0.341940  0.750656  1
