# generated using pymatgen
data_Tb2Y6Ho8MgCd3Ir4
_symmetry_space_group_name_H-M   'P 1'
_cell_length_a   9.67043700
_cell_length_b   9.67043570
_cell_length_c   9.66915539
_cell_angle_alpha   59.83820973
_cell_angle_beta   59.83821244
_cell_angle_gamma   59.84111795
_symmetry_Int_Tables_number   1
_chemical_formula_structural   Tb2Y6Ho8MgCd3Ir4
_chemical_formula_sum   'Tb2 Y6 Ho8 Mg1 Cd3 Ir4'
_cell_volume   637.05608405
_cell_formula_units_Z   1
loop_
 _symmetry_equiv_pos_site_id
 _symmetry_equiv_pos_as_xyz
  1  'x, y, z'
loop_
 _atom_site_type_symbol
 _atom_site_label
 _atom_site_symmetry_multiplicity
 _atom_site_fract_x
 _atom_site_fract_y
 _atom_site_fract_z
 _atom_site_occupancy
  Tb  Tb0  1  0.349037  0.349037  0.349140  1
  Tb  Tb1  1  0.348383  0.348383  0.955448  1
  Y  Y2  1  0.940418  0.562076  0.561781  1
  Y  Y3  1  0.561979  0.938396  0.938413  1
  Y  Y4  1  0.562076  0.940418  0.561781  1
  Y  Y5  1  0.938396  0.561979  0.938413  1
  Y  Y6  1  0.562235  0.562235  0.939970  1
  Y  Y7  1  0.938808  0.938808  0.561399  1
  Ho  Ho8  1  0.348008  0.956438  0.348118  1
  Ho  Ho9  1  0.956438  0.348008  0.348118  1
  Ho  Ho10  1  0.809820  0.189214  0.189472  1
  Ho  Ho11  1  0.186514  0.812088  0.811817  1
  Ho  Ho12  1  0.189214  0.809820  0.189472  1
  Ho  Ho13  1  0.812088  0.186514  0.811817  1
  Ho  Ho14  1  0.189114  0.189114  0.809768  1
  Ho  Ho15  1  0.811718  0.811718  0.186851  1
  Mg  Mg16  1  0.575568  0.575568  0.575104  1
  Cd  Cd17  1  0.581344  0.581344  0.256259  1
  Cd  Cd18  1  0.581502  0.256220  0.580993  1
  Cd  Cd19  1  0.256220  0.581502  0.580993  1
  Ir  Ir20  1  0.141112  0.141112  0.142923  1
  Ir  Ir21  1  0.142226  0.142226  0.575774  1
  Ir  Ir22  1  0.141494  0.576286  0.143087  1
  Ir  Ir23  1  0.576286  0.141494  0.143087  1
