# generated using pymatgen
data_Yb2TlRu4PbO14
_symmetry_space_group_name_H-M   'P 1'
_cell_length_a   7.29956677
_cell_length_b   7.29956560
_cell_length_c   7.19103856
_cell_angle_alpha   59.99604493
_cell_angle_beta   59.99604709
_cell_angle_gamma   60.68726863
_symmetry_Int_Tables_number   1
_chemical_formula_structural   Yb2TlRu4PbO14
_chemical_formula_sum   'Yb2 Tl1 Ru4 Pb1 O14'
_cell_volume   272.30120488
_cell_formula_units_Z   1
loop_
 _symmetry_equiv_pos_site_id
 _symmetry_equiv_pos_as_xyz
  1  'x, y, z'
loop_
 _atom_site_type_symbol
 _atom_site_label
 _atom_site_symmetry_multiplicity
 _atom_site_fract_x
 _atom_site_fract_y
 _atom_site_fract_z
 _atom_site_occupancy
  Yb  Yb0  1  0.625000  0.125000  0.125000  1
  Yb  Yb1  1  0.125000  0.625000  0.125000  1
  Tl  Tl2  1  0.125000  0.125000  0.625000  1
  Ru  Ru3  1  0.625000  0.625000  0.625000  1
  Ru  Ru4  1  0.125000  0.625000  0.625000  1
  Ru  Ru5  1  0.625000  0.625000  0.125000  1
  Ru  Ru6  1  0.625000  0.125000  0.625000  1
  Pb  Pb7  1  0.125000  0.125000  0.125000  1
  O  O8  1  0.000970  0.000970  0.975688  1
  O  O9  1  0.249030  0.249030  0.274312  1
  O  O10  1  0.298926  0.298926  0.702857  1
  O  O11  1  0.549865  0.549865  0.951622  1
  O  O12  1  0.687182  0.305215  0.701426  1
  O  O13  1  0.702350  0.300397  0.297950  1
  O  O14  1  0.305215  0.687182  0.701426  1
  O  O15  1  0.300397  0.702350  0.297950  1
  O  O16  1  0.700135  0.700135  0.298378  1
  O  O17  1  0.944785  0.562818  0.548574  1
  O  O18  1  0.547650  0.949603  0.952050  1
  O  O19  1  0.951074  0.951074  0.547143  1
  O  O20  1  0.949603  0.547650  0.952050  1
  O  O21  1  0.562818  0.944785  0.548574  1
