# generated using pymatgen
data_Ho10Ga3Bi4Sb
_symmetry_space_group_name_H-M   'P 1'
_cell_length_a   8.68265713
_cell_length_b   8.68265589
_cell_length_c   7.98608700
_cell_angle_alpha   89.60904649
_cell_angle_beta   89.60903995
_cell_angle_gamma   125.26876454
_symmetry_Int_Tables_number   1
_chemical_formula_structural   Ho10Ga3Bi4Sb
_chemical_formula_sum   'Ho10 Ga3 Bi4 Sb1'
_cell_volume   491.49866702
_cell_formula_units_Z   1
loop_
 _symmetry_equiv_pos_site_id
 _symmetry_equiv_pos_as_xyz
  1  'x, y, z'
loop_
 _atom_site_type_symbol
 _atom_site_label
 _atom_site_symmetry_multiplicity
 _atom_site_fract_x
 _atom_site_fract_y
 _atom_site_fract_z
 _atom_site_occupancy
  Ho  Ho0  1  0.049417  0.302902  0.331169  1
  Ho  Ho1  1  0.957129  0.704973  0.674713  1
  Ho  Ho2  1  0.459781  0.208987  0.834484  1
  Ho  Ho3  1  0.783415  0.529751  0.157182  1
  Ho  Ho4  1  0.529751  0.783415  0.157182  1
  Ho  Ho5  1  0.208987  0.459781  0.834484  1
  Ho  Ho6  1  0.704973  0.957129  0.674713  1
  Ho  Ho7  1  0.302902  0.049417  0.331169  1
  Ho  Ho8  1  0.002111  0.002111  0.992470  1
  Ho  Ho9  1  0.492362  0.492362  0.502461  1
  Ga  Ga10  1  0.368026  0.368026  0.130171  1
  Ga  Ga11  1  0.630662  0.630662  0.868418  1
  Ga  Ga12  1  0.139689  0.139689  0.638323  1
  Bi  Bi13  1  0.791053  0.203872  0.002268  1
  Bi  Bi14  1  0.203872  0.791053  0.002268  1
  Bi  Bi15  1  0.712349  0.296831  0.500797  1
  Bi  Bi16  1  0.296831  0.712349  0.500797  1
  Sb  Sb17  1  0.866690  0.866690  0.366928  1
