# generated using pymatgen
data_HoEr3Ni2(B8Ir)2
_symmetry_space_group_name_H-M   'P 1'
_cell_length_a   6.89959218
_cell_length_b   6.89959239
_cell_length_c   6.89959235
_cell_angle_alpha   111.15975403
_cell_angle_beta   113.29314854
_cell_angle_gamma   104.09880646
_symmetry_Int_Tables_number   1
_chemical_formula_structural   HoEr3Ni2(B8Ir)2
_chemical_formula_sum   'Ho1 Er3 Ni2 B16 Ir2'
_cell_volume   251.09875351
_cell_formula_units_Z   1
loop_
 _symmetry_equiv_pos_site_id
 _symmetry_equiv_pos_as_xyz
  1  'x, y, z'
loop_
 _atom_site_type_symbol
 _atom_site_label
 _atom_site_symmetry_multiplicity
 _atom_site_fract_x
 _atom_site_fract_y
 _atom_site_fract_z
 _atom_site_occupancy
  Ho  Ho0  1  0.248305  0.748305  0.500000  1
  Er  Er1  1  0.789391  0.789391  0.000000  1
  Er  Er2  1  0.210497  0.210497  0.000000  1
  Er  Er3  1  0.751709  0.251709  0.500000  1
  Ni  Ni4  1  0.500355  0.746733  0.246379  1
  Ni  Ni5  1  0.500355  0.253976  0.753621  1
  B  B6  1  0.272333  0.108086  0.380411  1
  B  B7  1  0.727675  0.891922  0.619589  1
  B  B8  1  0.272333  0.891922  0.164248  1
  B  B9  1  0.727675  0.108086  0.835752  1
  B  B10  1  0.110477  0.731105  0.841450  1
  B  B11  1  0.889655  0.269026  0.158550  1
  B  B12  1  0.110477  0.269026  0.379371  1
  B  B13  1  0.889655  0.731105  0.620629  1
  B  B14  1  0.115198  0.109660  0.529301  1
  B  B15  1  0.580358  0.585897  0.470699  1
  B  B16  1  0.115198  0.585897  0.005540  1
  B  B17  1  0.580358  0.109660  0.994460  1
  B  B18  1  0.884554  0.890511  0.470665  1
  B  B19  1  0.419847  0.413889  0.529335  1
  B  B20  1  0.884554  0.413889  0.994042  1
  B  B21  1  0.419847  0.890511  0.005958  1
  Ir  Ir22  1  0.276132  0.499598  0.776535  1
  Ir  Ir23  1  0.723063  0.499598  0.223465  1
