# generated using pymatgen
data_Tb7Lu3(In2Co)4
_symmetry_space_group_name_H-M   'P 1'
_cell_length_a   3.59738300
_cell_length_b   7.93961405
_cell_length_c   17.94934877
_cell_angle_alpha   90.01237331
_cell_angle_beta   90.00000000
_cell_angle_gamma   90.00000000
_symmetry_Int_Tables_number   1
_chemical_formula_structural   Tb7Lu3(In2Co)4
_chemical_formula_sum   'Tb7 Lu3 In8 Co4'
_cell_volume   512.66628294
_cell_formula_units_Z   1
loop_
 _symmetry_equiv_pos_site_id
 _symmetry_equiv_pos_as_xyz
  1  'x, y, z'
loop_
 _atom_site_type_symbol
 _atom_site_label
 _atom_site_symmetry_multiplicity
 _atom_site_fract_x
 _atom_site_fract_y
 _atom_site_fract_z
 _atom_site_occupancy
  Tb  Tb0  1  0.000000  0.615031  0.090912  1
  Tb  Tb1  1  0.000000  0.245359  0.221368  1
  Tb  Tb2  1  0.000000  0.756084  0.779224  1
  Tb  Tb3  1  0.000000  0.256720  0.719085  1
  Tb  Tb4  1  0.000000  0.744746  0.281246  1
  Tb  Tb5  1  0.000000  0.998885  0.999433  1
  Tb  Tb6  1  0.000000  0.499813  0.500559  1
  Lu  Lu7  1  0.000000  0.113174  0.409105  1
  Lu  Lu8  1  0.000000  0.886249  0.591108  1
  Lu  Lu9  1  0.000000  0.385819  0.907410  1
  In  In10  1  0.500000  0.421233  0.349061  1
  In  In11  1  0.500000  0.579117  0.652204  1
  In  In12  1  0.500000  0.078263  0.847080  1
  In  In13  1  0.500000  0.927135  0.153421  1
  In  In14  1  0.500000  0.295214  0.066140  1
  In  In15  1  0.500000  0.700699  0.931861  1
  In  In16  1  0.500000  0.199203  0.565314  1
  In  In17  1  0.500000  0.799401  0.434443  1
  Co  Co18  1  0.500000  0.022908  0.305926  1
  Co  Co19  1  0.500000  0.977395  0.694158  1
  Co  Co20  1  0.500000  0.476785  0.804024  1
  Co  Co21  1  0.500000  0.520768  0.196920  1
