# generated using pymatgen
data_Tb3YTm12(CdPt)4
_symmetry_space_group_name_H-M   'P 1'
_cell_length_a   9.61037898
_cell_length_b   9.60069252
_cell_length_c   9.60000101
_cell_angle_alpha   60.06915096
_cell_angle_beta   59.97165809
_cell_angle_gamma   59.96185881
_symmetry_Int_Tables_number   1
_chemical_formula_structural   Tb3YTm12(CdPt)4
_chemical_formula_sum   'Tb3 Y1 Tm12 Cd4 Pt4'
_cell_volume   626.33572057
_cell_formula_units_Z   1
loop_
 _symmetry_equiv_pos_site_id
 _symmetry_equiv_pos_as_xyz
  1  'x, y, z'
loop_
 _atom_site_type_symbol
 _atom_site_label
 _atom_site_symmetry_multiplicity
 _atom_site_fract_x
 _atom_site_fract_y
 _atom_site_fract_z
 _atom_site_occupancy
  Tb  Tb0  1  0.935374  0.564626  0.935374  1
  Tb  Tb1  1  0.564654  0.564549  0.935400  1
  Tb  Tb2  1  0.935400  0.935397  0.564654  1
  Y  Y3  1  0.564603  0.935397  0.564603  1
  Tm  Tm4  1  0.351589  0.352161  0.352130  1
  Tm  Tm5  1  0.352200  0.351618  0.944035  1
  Tm  Tm6  1  0.352130  0.944119  0.351589  1
  Tm  Tm7  1  0.944035  0.352147  0.352200  1
  Tm  Tm8  1  0.810786  0.189213  0.189203  1
  Tm  Tm9  1  0.189203  0.810799  0.810786  1
  Tm  Tm10  1  0.189158  0.810842  0.189158  1
  Tm  Tm11  1  0.810888  0.189112  0.810888  1
  Tm  Tm12  1  0.189113  0.189137  0.810874  1
  Tm  Tm13  1  0.810874  0.810876  0.189113  1
  Tm  Tm14  1  0.937201  0.562735  0.562848  1
  Tm  Tm15  1  0.562848  0.937216  0.937201  1
  Cd  Cd16  1  0.582342  0.581230  0.581033  1
  Cd  Cd17  1  0.581104  0.582394  0.255423  1
  Cd  Cd18  1  0.581033  0.255394  0.582342  1
  Cd  Cd19  1  0.255423  0.581078  0.581104  1
  Pt  Pt20  1  0.143914  0.142856  0.142765  1
  Pt  Pt21  1  0.142920  0.143902  0.570441  1
  Pt  Pt22  1  0.142765  0.570464  0.143914  1
  Pt  Pt23  1  0.570441  0.142737  0.142920  1
