# generated using pymatgen
data_Th3ZnHg2Pd3
_symmetry_space_group_name_H-M   'P 1'
_cell_length_a   7.75477000
_cell_length_b   7.82069691
_cell_length_c   3.89553300
_cell_angle_alpha   90.00000000
_cell_angle_beta   90.00000000
_cell_angle_gamma   119.72153407
_symmetry_Int_Tables_number   1
_chemical_formula_structural   Th3ZnHg2Pd3
_chemical_formula_sum   'Th3 Zn1 Hg2 Pd3'
_cell_volume   205.17465094
_cell_formula_units_Z   1
loop_
 _symmetry_equiv_pos_site_id
 _symmetry_equiv_pos_as_xyz
  1  'x, y, z'
loop_
 _atom_site_type_symbol
 _atom_site_label
 _atom_site_symmetry_multiplicity
 _atom_site_fract_x
 _atom_site_fract_y
 _atom_site_fract_z
 _atom_site_occupancy
  Th  Th0  1  0.997062  0.397734  0.000000  1
  Th  Th1  1  0.599329  0.602266  0.000000  1
  Th  Th2  1  0.411296  0.000000  0.000000  1
  Zn  Zn3  1  0.738106  0.000000  0.500000  1
  Hg  Hg4  1  0.003164  0.741913  0.500000  1
  Hg  Hg5  1  0.261251  0.258087  0.500000  1
  Pd  Pd6  1  0.969285  0.000000  0.000000  1
  Pd  Pd7  1  0.671844  0.323179  0.500000  1
  Pd  Pd8  1  0.348664  0.676821  0.500000  1
