# generated using pymatgen
data_HfSc11(CoIr)6
_symmetry_space_group_name_H-M   'P 1'
_cell_length_a   4.50433300
_cell_length_b   6.45012000
_cell_length_c   13.50948401
_cell_angle_alpha   89.99594742
_cell_angle_beta   89.99916459
_cell_angle_gamma   89.99920593
_symmetry_Int_Tables_number   1
_chemical_formula_structural   HfSc11(CoIr)6
_chemical_formula_sum   'Hf1 Sc11 Co6 Ir6'
_cell_volume   392.49763575
_cell_formula_units_Z   1
loop_
 _symmetry_equiv_pos_site_id
 _symmetry_equiv_pos_as_xyz
  1  'x, y, z'
loop_
 _atom_site_type_symbol
 _atom_site_label
 _atom_site_symmetry_multiplicity
 _atom_site_fract_x
 _atom_site_fract_y
 _atom_site_fract_z
 _atom_site_occupancy
  Hf  Hf0  1  0.499994  0.249559  0.999993  1
  Sc  Sc1  1  0.500001  0.750367  0.999973  1
  Sc  Sc2  1  0.999725  0.249938  0.169023  1
  Sc  Sc3  1  0.999727  0.750038  0.167530  1
  Sc  Sc4  1  0.499713  0.249716  0.334107  1
  Sc  Sc5  1  0.499711  0.750285  0.333943  1
  Sc  Sc6  1  0.000007  0.250076  0.499993  1
  Sc  Sc7  1  0.999999  0.749985  0.499993  1
  Sc  Sc8  1  0.500292  0.249769  0.665915  1
  Sc  Sc9  1  0.500287  0.750235  0.666082  1
  Sc  Sc10  1  0.000271  0.250017  0.830993  1
  Sc  Sc11  1  0.000275  0.749966  0.832476  1
  Co  Co12  1  0.000003  0.004115  0.999999  1
  Co  Co13  1  0.499647  0.498401  0.164656  1
  Co  Co14  1  0.999631  0.999486  0.333040  1
  Co  Co15  1  0.500002  0.500180  0.499995  1
  Co  Co16  1  0.000369  0.999488  0.666958  1
  Co  Co17  1  0.500343  0.498409  0.835336  1
  Ir  Ir18  1  0.999996  0.495776  0.000000  1
  Ir  Ir19  1  0.499694  0.001705  0.165128  1
  Ir  Ir20  1  0.999679  0.500430  0.333408  1
  Ir  Ir21  1  0.500003  0.999918  0.500005  1
  Ir  Ir22  1  0.000324  0.500431  0.666591  1
  Ir  Ir23  1  0.500306  0.001715  0.834862  1
