# generated using pymatgen
data_Nd2Ho2IrRh3O14
_symmetry_space_group_name_H-M   'P 1'
_cell_length_a   7.31109606
_cell_length_b   7.26603105
_cell_length_c   7.30105968
_cell_angle_alpha   60.15858975
_cell_angle_beta   60.39316147
_cell_angle_gamma   60.20370402
_symmetry_Int_Tables_number   1
_chemical_formula_structural   Nd2Ho2IrRh3O14
_chemical_formula_sum   'Nd2 Ho2 Ir1 Rh3 O14'
_cell_volume   275.81324125
_cell_formula_units_Z   1
loop_
 _symmetry_equiv_pos_site_id
 _symmetry_equiv_pos_as_xyz
  1  'x, y, z'
loop_
 _atom_site_type_symbol
 _atom_site_label
 _atom_site_symmetry_multiplicity
 _atom_site_fract_x
 _atom_site_fract_y
 _atom_site_fract_z
 _atom_site_occupancy
  Nd  Nd0  1  0.625000  0.125000  0.125000  1
  Nd  Nd1  1  0.125000  0.125000  0.625000  1
  Ho  Ho2  1  0.125000  0.625000  0.125000  1
  Ho  Ho3  1  0.125000  0.125000  0.125000  1
  Ir  Ir4  1  0.125000  0.625000  0.625000  1
  Rh  Rh5  1  0.625000  0.125000  0.625000  1
  Rh  Rh6  1  0.625000  0.625000  0.125000  1
  Rh  Rh7  1  0.625000  0.625000  0.625000  1
  O  O8  1  0.721278  0.701225  0.288339  1
  O  O9  1  0.288360  0.294501  0.716065  1
  O  O10  1  0.712957  0.289151  0.708742  1
  O  O11  1  0.289103  0.708284  0.294329  1
  O  O12  1  0.288360  0.701075  0.716065  1
  O  O13  1  0.721278  0.289158  0.288339  1
  O  O14  1  0.528722  0.548775  0.961661  1
  O  O15  1  0.961640  0.955499  0.533935  1
  O  O16  1  0.537043  0.960849  0.541258  1
  O  O17  1  0.960897  0.541716  0.955671  1
  O  O18  1  0.961640  0.548925  0.533935  1
  O  O19  1  0.528722  0.960842  0.961661  1
  O  O20  1  0.240832  0.258309  0.242549  1
  O  O21  1  0.009168  0.991691  0.007451  1
