# generated using pymatgen
data_Zr5Ga3C
_symmetry_space_group_name_H-M   'P 1'
_cell_length_a   8.20917300
_cell_length_b   8.20921275
_cell_length_c   5.68537500
_cell_angle_alpha   90.00000000
_cell_angle_beta   90.00000000
_cell_angle_gamma   120.00015752
_symmetry_Int_Tables_number   1
_chemical_formula_structural   Zr5Ga3C
_chemical_formula_sum   'Zr10 Ga6 C2'
_cell_volume   331.81038677
_cell_formula_units_Z   2
loop_
 _symmetry_equiv_pos_site_id
 _symmetry_equiv_pos_as_xyz
  1  'x, y, z'
loop_
 _atom_site_type_symbol
 _atom_site_label
 _atom_site_symmetry_multiplicity
 _atom_site_fract_x
 _atom_site_fract_y
 _atom_site_fract_z
 _atom_site_occupancy
  Zr  Zr0  1  0.225489  0.000000  0.250000  1
  Zr  Zr1  1  0.774511  0.000000  0.750000  1
  Zr  Zr2  1  0.000000  0.225488  0.250000  1
  Zr  Zr3  1  0.000000  0.774512  0.750000  1
  Zr  Zr4  1  0.774511  0.774511  0.250000  1
  Zr  Zr5  1  0.225489  0.225489  0.750000  1
  Zr  Zr6  1  0.333335  0.666668  0.000000  1
  Zr  Zr7  1  0.666665  0.333332  0.000000  1
  Zr  Zr8  1  0.666665  0.333332  0.500000  1
  Zr  Zr9  1  0.333335  0.666668  0.500000  1
  Ga  Ga10  1  0.600418  0.000001  0.250000  1
  Ga  Ga11  1  0.399582  0.999999  0.750000  1
  Ga  Ga12  1  0.000000  0.600408  0.250000  1
  Ga  Ga13  1  0.000000  0.399592  0.750000  1
  Ga  Ga14  1  0.399582  0.399583  0.250000  1
  Ga  Ga15  1  0.600418  0.600417  0.750000  1
  C  C16  1  0.000000  0.000000  0.000000  1
  C  C17  1  0.000000  0.000000  0.500000  1
