# generated using pymatgen
data_TmTh(GaRu)2
_symmetry_space_group_name_H-M   'P 1'
_cell_length_a   4.15604700
_cell_length_b   6.95859100
_cell_length_c   8.06825000
_cell_angle_alpha   90.00000000
_cell_angle_beta   90.00000000
_cell_angle_gamma   90.00000000
_symmetry_Int_Tables_number   1
_chemical_formula_structural   TmTh(GaRu)2
_chemical_formula_sum   'Tm2 Th2 Ga4 Ru4'
_cell_volume   233.33565578
_cell_formula_units_Z   2
loop_
 _symmetry_equiv_pos_site_id
 _symmetry_equiv_pos_as_xyz
  1  'x, y, z'
loop_
 _atom_site_type_symbol
 _atom_site_label
 _atom_site_symmetry_multiplicity
 _atom_site_fract_x
 _atom_site_fract_y
 _atom_site_fract_z
 _atom_site_occupancy
  Tm  Tm0  1  0.750000  0.032996  0.691824  1
  Tm  Tm1  1  0.750000  0.532996  0.808176  1
  Th  Th2  1  0.250000  0.971250  0.318103  1
  Th  Th3  1  0.250000  0.471250  0.181897  1
  Ga  Ga4  1  0.250000  0.352709  0.572371  1
  Ga  Ga5  1  0.250000  0.852709  0.927629  1
  Ga  Ga6  1  0.750000  0.645075  0.445619  1
  Ga  Ga7  1  0.750000  0.145075  0.054381  1
  Ru  Ru8  1  0.250000  0.236102  0.881106  1
  Ru  Ru9  1  0.250000  0.736102  0.618894  1
  Ru  Ru10  1  0.750000  0.761868  0.123751  1
  Ru  Ru11  1  0.750000  0.261868  0.376249  1
