# generated using pymatgen
data_MgTa8MoN12
_symmetry_space_group_name_H-M   'P 1'
_cell_length_a   5.21247060
_cell_length_b   5.21520794
_cell_length_c   10.38310290
_cell_angle_alpha   90.00632298
_cell_angle_beta   89.92262233
_cell_angle_gamma   120.02752817
_symmetry_Int_Tables_number   1
_chemical_formula_structural   MgTa8MoN12
_chemical_formula_sum   'Mg1 Ta8 Mo1 N12'
_cell_volume   244.37232011
_cell_formula_units_Z   1
loop_
 _symmetry_equiv_pos_site_id
 _symmetry_equiv_pos_as_xyz
  1  'x, y, z'
loop_
 _atom_site_type_symbol
 _atom_site_label
 _atom_site_symmetry_multiplicity
 _atom_site_fract_x
 _atom_site_fract_y
 _atom_site_fract_z
 _atom_site_occupancy
  Mg  Mg0  1  0.667602  0.335514  0.999531  1
  Ta  Ta1  1  0.323290  0.000702  0.750618  1
  Ta  Ta2  1  0.996693  0.321559  0.750624  1
  Ta  Ta3  1  0.324594  0.321931  0.251305  1
  Ta  Ta4  1  0.677601  0.002938  0.251029  1
  Ta  Ta5  1  0.997083  0.674784  0.251077  1
  Ta  Ta6  1  0.335355  0.667304  0.001698  1
  Ta  Ta7  1  0.334275  0.667098  0.496145  1
  Ta  Ta8  1  0.666985  0.334729  0.497780  1
  Mo  Mo9  1  0.675456  0.673664  0.747339  1
  N  N10  1  0.664455  0.664835  0.381111  1
  N  N11  1  0.336543  0.000223  0.380639  1
  N  N12  1  0.000681  0.336970  0.380559  1
  N  N13  1  0.337862  0.339017  0.620726  1
  N  N14  1  0.656802  0.002488  0.621152  1
  N  N15  1  0.002832  0.657449  0.621406  1
  N  N16  1  0.341236  0.346362  0.874290  1
  N  N17  1  0.650350  0.995279  0.874168  1
  N  N18  1  0.009029  0.656561  0.874393  1
  N  N19  1  0.650871  0.656858  0.124588  1
  N  N20  1  0.343954  0.993687  0.124935  1
  N  N21  1  0.006453  0.350047  0.124888  1
