# generated using pymatgen
data_NdTmFe6(CoB4)2
_symmetry_space_group_name_H-M   'P 1'
_cell_length_a   6.98463557
_cell_length_b   6.98812625
_cell_length_c   3.81197400
_cell_angle_alpha   90.00000000
_cell_angle_beta   90.00000000
_cell_angle_gamma   89.76983964
_symmetry_Int_Tables_number   1
_chemical_formula_structural   NdTmFe6(CoB4)2
_chemical_formula_sum   'Nd1 Tm1 Fe6 Co2 B8'
_cell_volume   186.05910150
_cell_formula_units_Z   1
loop_
 _symmetry_equiv_pos_site_id
 _symmetry_equiv_pos_as_xyz
  1  'x, y, z'
loop_
 _atom_site_type_symbol
 _atom_site_label
 _atom_site_symmetry_multiplicity
 _atom_site_fract_x
 _atom_site_fract_y
 _atom_site_fract_z
 _atom_site_occupancy
  Nd  Nd0  1  0.500000  0.500000  0.494951  1
  Tm  Tm1  1  0.000000  0.000000  0.996707  1
  Fe  Fe2  1  0.886863  0.365281  0.393083  1
  Fe  Fe3  1  0.113137  0.634719  0.393083  1
  Fe  Fe4  1  0.364968  0.113317  0.607372  1
  Fe  Fe5  1  0.635032  0.886683  0.607372  1
  Fe  Fe6  1  0.615776  0.130136  0.107399  1
  Fe  Fe7  1  0.384224  0.869864  0.107399  1
  Co  Co8  1  0.133472  0.383947  0.892270  1
  Co  Co9  1  0.866528  0.616053  0.892270  1
  B  B10  1  0.668590  0.808324  0.106232  1
  B  B11  1  0.331410  0.191676  0.106232  1
  B  B12  1  0.293549  0.836593  0.606804  1
  B  B13  1  0.706451  0.163407  0.606804  1
  B  B14  1  0.839394  0.708853  0.394584  1
  B  B15  1  0.160606  0.291147  0.394584  1
  B  B16  1  0.197735  0.669984  0.896428  1
  B  B17  1  0.802265  0.330016  0.896428  1
