# generated using pymatgen
data_TbTmFeB6
_symmetry_space_group_name_H-M   'P 1'
_cell_length_a   3.53848300
_cell_length_b   9.05232900
_cell_length_c   11.42784500
_cell_angle_alpha   90.00000000
_cell_angle_beta   90.00000000
_cell_angle_gamma   90.00000000
_symmetry_Int_Tables_number   1
_chemical_formula_structural   TbTmFeB6
_chemical_formula_sum   'Tb4 Tm4 Fe4 B24'
_cell_volume   366.05115742
_cell_formula_units_Z   4
loop_
 _symmetry_equiv_pos_site_id
 _symmetry_equiv_pos_as_xyz
  1  'x, y, z'
loop_
 _atom_site_type_symbol
 _atom_site_label
 _atom_site_symmetry_multiplicity
 _atom_site_fract_x
 _atom_site_fract_y
 _atom_site_fract_z
 _atom_site_occupancy
  Tb  Tb0  1  0.000000  0.823700  0.085613  1
  Tb  Tb1  1  0.000000  0.176300  0.914387  1
  Tb  Tb2  1  0.000000  0.323700  0.414387  1
  Tb  Tb3  1  0.000000  0.676300  0.585613  1
  Tm  Tm4  1  0.000000  0.443333  0.129534  1
  Tm  Tm5  1  0.000000  0.556667  0.870466  1
  Tm  Tm6  1  0.000000  0.943333  0.370466  1
  Tm  Tm7  1  0.000000  0.056667  0.629534  1
  Fe  Fe8  1  0.000000  0.139319  0.180278  1
  Fe  Fe9  1  0.000000  0.860681  0.819722  1
  Fe  Fe10  1  0.000000  0.639319  0.319722  1
  Fe  Fe11  1  0.000000  0.360681  0.680278  1
  B  B12  1  0.500000  0.055149  0.068790  1
  B  B13  1  0.500000  0.944851  0.931210  1
  B  B14  1  0.500000  0.555149  0.431210  1
  B  B15  1  0.500000  0.444851  0.568790  1
  B  B16  1  0.500000  0.247848  0.082148  1
  B  B17  1  0.500000  0.752152  0.917852  1
  B  B18  1  0.500000  0.747848  0.417852  1
  B  B19  1  0.500000  0.252152  0.582148  1
  B  B20  1  0.500000  0.289636  0.233714  1
  B  B21  1  0.500000  0.710364  0.766286  1
  B  B22  1  0.500000  0.789636  0.266286  1
  B  B23  1  0.500000  0.210364  0.733714  1
  B  B24  1  0.500000  0.131582  0.314445  1
  B  B25  1  0.500000  0.868418  0.685555  1
  B  B26  1  0.500000  0.631582  0.185555  1
  B  B27  1  0.500000  0.368418  0.814445  1
  B  B28  1  0.500000  0.486067  0.287729  1
  B  B29  1  0.500000  0.513933  0.712271  1
  B  B30  1  0.500000  0.986067  0.212271  1
  B  B31  1  0.500000  0.013933  0.787729  1
  B  B32  1  0.500000  0.105634  0.471140  1
  B  B33  1  0.500000  0.894366  0.528860  1
  B  B34  1  0.500000  0.605634  0.028860  1
  B  B35  1  0.500000  0.394366  0.971140  1
