# generated using pymatgen
data_Tm7LuB24Os3W
_symmetry_space_group_name_H-M   'P 1'
_cell_length_a   3.60467600
_cell_length_b   9.10754545
_cell_length_c   11.49234102
_cell_angle_alpha   89.90826736
_cell_angle_beta   90.00000000
_cell_angle_gamma   90.00000000
_symmetry_Int_Tables_number   1
_chemical_formula_structural   Tm7LuB24Os3W
_chemical_formula_sum   'Tm7 Lu1 B24 Os3 W1'
_cell_volume   377.29020453
_cell_formula_units_Z   1
loop_
 _symmetry_equiv_pos_site_id
 _symmetry_equiv_pos_as_xyz
  1  'x, y, z'
loop_
 _atom_site_type_symbol
 _atom_site_label
 _atom_site_symmetry_multiplicity
 _atom_site_fract_x
 _atom_site_fract_y
 _atom_site_fract_z
 _atom_site_occupancy
  Tm  Tm0  1  0.000000  0.320432  0.413572  1
  Tm  Tm1  1  0.000000  0.678696  0.585651  1
  Tm  Tm2  1  0.000000  0.819139  0.086848  1
  Tm  Tm3  1  0.000000  0.178366  0.914630  1
  Tm  Tm4  1  0.000000  0.945723  0.373583  1
  Tm  Tm5  1  0.000000  0.057669  0.628191  1
  Tm  Tm6  1  0.000000  0.442550  0.125437  1
  Lu  Lu7  1  0.000000  0.556971  0.871797  1
  B  B8  1  0.500000  0.549589  0.437004  1
  B  B9  1  0.500000  0.446288  0.568231  1
  B  B10  1  0.500000  0.053415  0.066189  1
  B  B11  1  0.500000  0.946350  0.933604  1
  B  B12  1  0.500000  0.752439  0.422984  1
  B  B13  1  0.500000  0.251669  0.580990  1
  B  B14  1  0.500000  0.248631  0.079632  1
  B  B15  1  0.500000  0.750601  0.919290  1
  B  B16  1  0.500000  0.795635  0.263559  1
  B  B17  1  0.500000  0.208944  0.734836  1
  B  B18  1  0.500000  0.290349  0.232566  1
  B  B19  1  0.500000  0.708925  0.765738  1
  B  B20  1  0.500000  0.631383  0.181275  1
  B  B21  1  0.500000  0.369164  0.815542  1
  B  B22  1  0.500000  0.131135  0.314343  1
  B  B23  1  0.500000  0.869857  0.685330  1
  B  B24  1  0.500000  0.982825  0.212434  1
  B  B25  1  0.500000  0.018201  0.788348  1
  B  B26  1  0.500000  0.475698  0.286403  1
  B  B27  1  0.500000  0.517905  0.713411  1
  B  B28  1  0.500000  0.604633  0.026853  1
  B  B29  1  0.500000  0.394601  0.969470  1
  B  B30  1  0.500000  0.106633  0.471258  1
  B  B31  1  0.500000  0.897210  0.530493  1
  Os  Os32  1  0.000000  0.362209  0.680423  1
  Os  Os33  1  0.000000  0.136898  0.177459  1
  Os  Os34  1  0.000000  0.862218  0.821095  1
  W  W35  1  0.000000  0.637051  0.321529  1
