# generated using pymatgen
data_Pu8SiPd24
_symmetry_space_group_name_H-M   'P 1'
_cell_length_a   8.41560800
_cell_length_b   8.41560800
_cell_length_c   8.41560800
_cell_angle_alpha   90.00000000
_cell_angle_beta   90.00000000
_cell_angle_gamma   90.00000000
_symmetry_Int_Tables_number   1
_chemical_formula_structural   Pu8SiPd24
_chemical_formula_sum   'Pu8 Si1 Pd24'
_cell_volume   596.01404421
_cell_formula_units_Z   1
loop_
 _symmetry_equiv_pos_site_id
 _symmetry_equiv_pos_as_xyz
  1  'x, y, z'
loop_
 _atom_site_type_symbol
 _atom_site_label
 _atom_site_symmetry_multiplicity
 _atom_site_fract_x
 _atom_site_fract_y
 _atom_site_fract_z
 _atom_site_occupancy
  Pu  Pu0  1  0.250733  0.250733  0.749267  1
  Pu  Pu1  1  0.250733  0.749267  0.250733  1
  Pu  Pu2  1  0.749267  0.250733  0.250733  1
  Pu  Pu3  1  0.749267  0.749267  0.749267  1
  Pu  Pu4  1  0.749267  0.749267  0.250733  1
  Pu  Pu5  1  0.749267  0.250733  0.749267  1
  Pu  Pu6  1  0.250733  0.749267  0.749267  1
  Pu  Pu7  1  0.250733  0.250733  0.250733  1
  Si  Si8  1  0.000000  0.000000  0.000000  1
  Pd  Pd9  1  0.500000  0.500000  0.746179  1
  Pd  Pd10  1  0.500000  0.253821  0.500000  1
  Pd  Pd11  1  0.253821  0.500000  0.500000  1
  Pd  Pd12  1  0.500000  0.500000  0.253821  1
  Pd  Pd13  1  0.500000  0.746179  0.500000  1
  Pd  Pd14  1  0.746179  0.500000  0.500000  1
  Pd  Pd15  1  0.000000  0.000000  0.712644  1
  Pd  Pd16  1  0.000000  0.287356  0.000000  1
  Pd  Pd17  1  0.287356  0.000000  0.000000  1
  Pd  Pd18  1  0.000000  0.000000  0.287356  1
  Pd  Pd19  1  0.000000  0.712644  0.000000  1
  Pd  Pd20  1  0.712644  0.000000  0.000000  1
  Pd  Pd21  1  0.000000  0.500000  0.739355  1
  Pd  Pd22  1  0.500000  0.260645  0.000000  1
  Pd  Pd23  1  0.260645  0.000000  0.500000  1
  Pd  Pd24  1  0.000000  0.260645  0.500000  1
  Pd  Pd25  1  0.500000  0.000000  0.739355  1
  Pd  Pd26  1  0.260645  0.500000  0.000000  1
  Pd  Pd27  1  0.000000  0.500000  0.260645  1
  Pd  Pd28  1  0.500000  0.739355  0.000000  1
  Pd  Pd29  1  0.000000  0.739355  0.500000  1
  Pd  Pd30  1  0.500000  0.000000  0.260645  1
  Pd  Pd31  1  0.739355  0.000000  0.500000  1
  Pd  Pd32  1  0.739355  0.500000  0.000000  1
