# generated using pymatgen
data_Ac4YbPrSn10
_symmetry_space_group_name_H-M   'P 1'
_cell_length_a   6.79009369
_cell_length_b   6.79009438
_cell_length_c   10.90258700
_cell_angle_alpha   90.00000000
_cell_angle_beta   90.00000000
_cell_angle_gamma   102.38277738
_symmetry_Int_Tables_number   1
_chemical_formula_structural   Ac4YbPrSn10
_chemical_formula_sum   'Ac4 Yb1 Pr1 Sn10'
_cell_volume   490.97421171
_cell_formula_units_Z   1
loop_
 _symmetry_equiv_pos_site_id
 _symmetry_equiv_pos_as_xyz
  1  'x, y, z'
loop_
 _atom_site_type_symbol
 _atom_site_label
 _atom_site_symmetry_multiplicity
 _atom_site_fract_x
 _atom_site_fract_y
 _atom_site_fract_z
 _atom_site_occupancy
  Ac  Ac0  1  0.296118  0.700669  0.500275  1
  Ac  Ac1  1  0.296118  0.700669  0.999725  1
  Ac  Ac2  1  0.700669  0.296118  0.500275  1
  Ac  Ac3  1  0.700669  0.296118  0.999725  1
  Yb  Yb4  1  0.869446  0.869446  0.750000  1
  Pr  Pr5  1  0.132007  0.132007  0.250000  1
  Sn  Sn6  1  0.985717  0.575331  0.250000  1
  Sn  Sn7  1  0.429054  0.013376  0.750000  1
  Sn  Sn8  1  0.013376  0.429054  0.750000  1
  Sn  Sn9  1  0.575331  0.985717  0.250000  1
  Sn  Sn10  1  0.820845  0.820845  0.042099  1
  Sn  Sn11  1  0.177543  0.177543  0.952010  1
  Sn  Sn12  1  0.820845  0.820845  0.457901  1
  Sn  Sn13  1  0.177543  0.177543  0.547990  1
  Sn  Sn14  1  0.522874  0.522874  0.250000  1
  Sn  Sn15  1  0.481846  0.481846  0.750000  1
