# generated using pymatgen
data_YErNi12P7
_symmetry_space_group_name_H-M   'P 1'
_cell_length_a   9.03497600
_cell_length_b   9.03497573
_cell_length_c   3.67365500
_cell_angle_alpha   90.00000000
_cell_angle_beta   90.00000000
_cell_angle_gamma   119.99999368
_symmetry_Int_Tables_number   1
_chemical_formula_structural   YErNi12P7
_chemical_formula_sum   'Y1 Er1 Ni12 P7'
_cell_volume   259.70662067
_cell_formula_units_Z   1
loop_
 _symmetry_equiv_pos_site_id
 _symmetry_equiv_pos_as_xyz
  1  'x, y, z'
loop_
 _atom_site_type_symbol
 _atom_site_label
 _atom_site_symmetry_multiplicity
 _atom_site_fract_x
 _atom_site_fract_y
 _atom_site_fract_z
 _atom_site_occupancy
  Y  Y0  1  0.666667  0.333333  0.000000  1
  Er  Er1  1  0.333333  0.666667  0.500000  1
  Ni  Ni2  1  0.060828  0.626454  0.000000  1
  Ni  Ni3  1  0.565625  0.939172  0.000000  1
  Ni  Ni4  1  0.373546  0.434375  0.000000  1
  Ni  Ni5  1  0.273948  0.122159  0.000000  1
  Ni  Ni6  1  0.848212  0.726052  0.000000  1
  Ni  Ni7  1  0.877841  0.151788  0.000000  1
  Ni  Ni8  1  0.430191  0.048340  0.500000  1
  Ni  Ni9  1  0.618148  0.569809  0.500000  1
  Ni  Ni10  1  0.951660  0.381852  0.500000  1
  Ni  Ni11  1  0.094592  0.877666  0.500000  1
  Ni  Ni12  1  0.783073  0.905408  0.500000  1
  Ni  Ni13  1  0.122334  0.216927  0.500000  1
  P  P14  1  0.293685  0.886401  0.000000  1
  P  P15  1  0.592715  0.706315  0.000000  1
  P  P16  1  0.113599  0.407285  0.000000  1
  P  P17  1  0.404913  0.294337  0.500000  1
  P  P18  1  0.889423  0.595087  0.500000  1
  P  P19  1  0.705663  0.110577  0.500000  1
  P  P20  1  0.000000  0.000000  0.000000  1
