# generated using pymatgen
data_Ce2TiSi3(IrRh)2
_symmetry_space_group_name_H-M   'P 1'
_cell_length_a   4.12714600
_cell_length_b   4.12714600
_cell_length_c   10.34249700
_cell_angle_alpha   90.00000000
_cell_angle_beta   90.00000000
_cell_angle_gamma   90.00000000
_symmetry_Int_Tables_number   1
_chemical_formula_structural   Ce2TiSi3(IrRh)2
_chemical_formula_sum   'Ce2 Ti1 Si3 Ir2 Rh2'
_cell_volume   176.16720688
_cell_formula_units_Z   1
loop_
 _symmetry_equiv_pos_site_id
 _symmetry_equiv_pos_as_xyz
  1  'x, y, z'
loop_
 _atom_site_type_symbol
 _atom_site_label
 _atom_site_symmetry_multiplicity
 _atom_site_fract_x
 _atom_site_fract_y
 _atom_site_fract_z
 _atom_site_occupancy
  Ce  Ce0  1  0.000000  0.500000  0.746800  1
  Ce  Ce1  1  0.500000  0.000000  0.253200  1
  Ti  Ti2  1  0.000000  0.000000  0.000000  1
  Si  Si3  1  0.000000  0.500000  0.375502  1
  Si  Si4  1  0.500000  0.000000  0.624498  1
  Si  Si5  1  0.500000  0.500000  0.000000  1
  Ir  Ir6  1  0.500000  0.000000  0.858669  1
  Ir  Ir7  1  0.000000  0.500000  0.141331  1
  Rh  Rh8  1  0.000000  0.000000  0.500000  1
  Rh  Rh9  1  0.500000  0.500000  0.500000  1
