# generated using pymatgen
data_CdBrO3F
_symmetry_space_group_name_H-M   'P 1'
_cell_length_a   7.98939733
_cell_length_b   7.98939771
_cell_length_c   7.59606000
_cell_angle_alpha   90.00000000
_cell_angle_beta   90.00000000
_cell_angle_gamma   126.60982241
_symmetry_Int_Tables_number   1
_chemical_formula_structural   CdBrO3F
_chemical_formula_sum   'Cd4 Br4 O12 F4'
_cell_volume   389.20459684
_cell_formula_units_Z   4
loop_
 _symmetry_equiv_pos_site_id
 _symmetry_equiv_pos_as_xyz
  1  'x, y, z'
loop_
 _atom_site_type_symbol
 _atom_site_label
 _atom_site_symmetry_multiplicity
 _atom_site_fract_x
 _atom_site_fract_y
 _atom_site_fract_z
 _atom_site_occupancy
  Cd  Cd0  1  0.358438  0.141562  0.750000  1
  Cd  Cd1  1  0.141562  0.358438  0.250000  1
  Cd  Cd2  1  0.641562  0.858438  0.250000  1
  Cd  Cd3  1  0.858438  0.641562  0.750000  1
  Br  Br4  1  0.614804  0.385196  0.314701  1
  Br  Br5  1  0.385196  0.614804  0.685299  1
  Br  Br6  1  0.885196  0.114804  0.814701  1
  Br  Br7  1  0.114804  0.885196  0.185299  1
  O  O8  1  0.430562  0.187864  0.442518  1
  O  O9  1  0.187864  0.430562  0.557482  1
  O  O10  1  0.687865  0.930562  0.942518  1
  O  O11  1  0.930562  0.687864  0.057482  1
  O  O12  1  0.569438  0.812136  0.557482  1
  O  O13  1  0.812136  0.569438  0.442518  1
  O  O14  1  0.312136  0.069438  0.057482  1
  O  O15  1  0.069438  0.312136  0.942518  1
  O  O16  1  0.497733  0.502267  0.249852  1
  O  O17  1  0.502267  0.497733  0.750148  1
  O  O18  1  0.002267  0.997733  0.749852  1
  O  O19  1  0.997733  0.002267  0.250148  1
  F  F20  1  0.196384  0.803616  0.699610  1
  F  F21  1  0.803616  0.196384  0.300390  1
  F  F22  1  0.303616  0.696384  0.199610  1
  F  F23  1  0.696384  0.303616  0.800390  1
