# generated using pymatgen
data_U4TiRe(TcC4)2
_symmetry_space_group_name_H-M   'P 1'
_cell_length_a   3.19211000
_cell_length_b   5.59897592
_cell_length_c   11.04737107
_cell_angle_alpha   89.71895110
_cell_angle_beta   90.00000000
_cell_angle_gamma   90.00000000
_symmetry_Int_Tables_number   1
_chemical_formula_structural   U4TiRe(TcC4)2
_chemical_formula_sum   'U4 Ti1 Re1 Tc2 C8'
_cell_volume   197.44228354
_cell_formula_units_Z   1
loop_
 _symmetry_equiv_pos_site_id
 _symmetry_equiv_pos_as_xyz
  1  'x, y, z'
loop_
 _atom_site_type_symbol
 _atom_site_label
 _atom_site_symmetry_multiplicity
 _atom_site_fract_x
 _atom_site_fract_y
 _atom_site_fract_z
 _atom_site_occupancy
  U  U0  1  0.250000  0.084041  0.856602  1
  U  U1  1  0.250000  0.579810  0.642420  1
  U  U2  1  0.750000  0.915624  0.141479  1
  U  U3  1  0.750000  0.420054  0.360402  1
  Ti  Ti4  1  0.250000  0.921229  0.398429  1
  Re  Re5  1  0.250000  0.416736  0.102774  1
  Tc  Tc6  1  0.750000  0.584176  0.897850  1
  Tc  Tc7  1  0.750000  0.074945  0.601396  1
  C  C8  1  0.250000  0.165209  0.242365  1
  C  C9  1  0.250000  0.660896  0.253732  1
  C  C10  1  0.750000  0.840443  0.755413  1
  C  C11  1  0.750000  0.341154  0.745890  1
  C  C12  1  0.250000  0.747028  0.993077  1
  C  C13  1  0.250000  0.245383  0.507216  1
  C  C14  1  0.750000  0.254567  0.007225  1
  C  C15  1  0.750000  0.748705  0.493731  1
