# generated using pymatgen
data_YTmB6Rh
_symmetry_space_group_name_H-M   'P 1'
_cell_length_a   3.64227600
_cell_length_b   9.14309700
_cell_length_c   11.48719900
_cell_angle_alpha   90.00000000
_cell_angle_beta   90.00000000
_cell_angle_gamma   90.00000000
_symmetry_Int_Tables_number   1
_chemical_formula_structural   YTmB6Rh
_chemical_formula_sum   'Y4 Tm4 B24 Rh4'
_cell_volume   382.54305700
_cell_formula_units_Z   4
loop_
 _symmetry_equiv_pos_site_id
 _symmetry_equiv_pos_as_xyz
  1  'x, y, z'
loop_
 _atom_site_type_symbol
 _atom_site_label
 _atom_site_symmetry_multiplicity
 _atom_site_fract_x
 _atom_site_fract_y
 _atom_site_fract_z
 _atom_site_occupancy
  Y  Y0  1  0.500000  0.321924  0.413573  1
  Y  Y1  1  0.500000  0.678076  0.586427  1
  Y  Y2  1  0.500000  0.178076  0.913573  1
  Y  Y3  1  0.500000  0.821924  0.086427  1
  Tm  Tm4  1  0.500000  0.444407  0.126786  1
  Tm  Tm5  1  0.500000  0.555593  0.873214  1
  Tm  Tm6  1  0.500000  0.055593  0.626786  1
  Tm  Tm7  1  0.500000  0.944407  0.373214  1
  B  B8  1  0.000000  0.107814  0.470787  1
  B  B9  1  0.000000  0.892186  0.529213  1
  B  B10  1  0.000000  0.392186  0.970787  1
  B  B11  1  0.000000  0.607814  0.029213  1
  B  B12  1  0.000000  0.132604  0.316253  1
  B  B13  1  0.000000  0.867396  0.683747  1
  B  B14  1  0.000000  0.367396  0.816253  1
  B  B15  1  0.000000  0.632604  0.183747  1
  B  B16  1  0.000000  0.054365  0.065662  1
  B  B17  1  0.000000  0.945635  0.934338  1
  B  B18  1  0.000000  0.445635  0.565662  1
  B  B19  1  0.000000  0.554365  0.434338  1
  B  B20  1  0.000000  0.483130  0.286074  1
  B  B21  1  0.000000  0.516870  0.713926  1
  B  B22  1  0.000000  0.016870  0.786074  1
  B  B23  1  0.000000  0.983130  0.213926  1
  B  B24  1  0.000000  0.250442  0.079811  1
  B  B25  1  0.000000  0.749558  0.920189  1
  B  B26  1  0.000000  0.249558  0.579811  1
  B  B27  1  0.000000  0.750442  0.420189  1
  B  B28  1  0.000000  0.294521  0.235436  1
  B  B29  1  0.000000  0.705479  0.764564  1
  B  B30  1  0.000000  0.205479  0.735436  1
  B  B31  1  0.000000  0.794521  0.264564  1
  Rh  Rh32  1  0.500000  0.140042  0.179410  1
  Rh  Rh33  1  0.500000  0.859958  0.820590  1
  Rh  Rh34  1  0.500000  0.359958  0.679410  1
  Rh  Rh35  1  0.500000  0.640042  0.320590  1
