# generated using pymatgen
data_Tb2Y14Cd3AgPt4
_symmetry_space_group_name_H-M   'P 1'
_cell_length_a   9.73722857
_cell_length_b   9.73722890
_cell_length_c   9.73559500
_cell_angle_alpha   59.89957727
_cell_angle_beta   59.89957612
_cell_angle_gamma   59.88632822
_symmetry_Int_Tables_number   1
_chemical_formula_structural   Tb2Y14Cd3AgPt4
_chemical_formula_sum   'Tb2 Y14 Cd3 Ag1 Pt4'
_cell_volume   651.15445218
_cell_formula_units_Z   1
loop_
 _symmetry_equiv_pos_site_id
 _symmetry_equiv_pos_as_xyz
  1  'x, y, z'
loop_
 _atom_site_type_symbol
 _atom_site_label
 _atom_site_symmetry_multiplicity
 _atom_site_fract_x
 _atom_site_fract_y
 _atom_site_fract_z
 _atom_site_occupancy
  Tb  Tb0  1  0.350118  0.350118  0.350148  1
  Tb  Tb1  1  0.353757  0.353757  0.940609  1
  Y  Y2  1  0.354843  0.938207  0.355017  1
  Y  Y3  1  0.938207  0.354843  0.355017  1
  Y  Y4  1  0.809920  0.191912  0.191086  1
  Y  Y5  1  0.189696  0.810293  0.810107  1
  Y  Y6  1  0.191912  0.809920  0.191086  1
  Y  Y7  1  0.810293  0.189696  0.810107  1
  Y  Y8  1  0.191328  0.191328  0.810400  1
  Y  Y9  1  0.810244  0.810244  0.189635  1
  Y  Y10  1  0.934955  0.563642  0.563592  1
  Y  Y11  1  0.562415  0.936047  0.935584  1
  Y  Y12  1  0.563642  0.934955  0.563592  1
  Y  Y13  1  0.936047  0.562415  0.935584  1
  Y  Y14  1  0.563412  0.563412  0.933804  1
  Y  Y15  1  0.936060  0.936060  0.561900  1
  Cd  Cd16  1  0.581657  0.581657  0.255105  1
  Cd  Cd17  1  0.581718  0.255468  0.581559  1
  Cd  Cd18  1  0.255468  0.581718  0.581559  1
  Ag  Ag19  1  0.584321  0.584321  0.584044  1
  Pt  Pt20  1  0.144041  0.144041  0.144830  1
  Pt  Pt21  1  0.142866  0.142866  0.570579  1
  Pt  Pt22  1  0.142707  0.570373  0.142527  1
  Pt  Pt23  1  0.570373  0.142707  0.142527  1
