# generated using pymatgen
data_Zr16Fe4Os3Pd
_symmetry_space_group_name_H-M   'P 1'
_cell_length_a   8.69293633
_cell_length_b   8.69168914
_cell_length_c   8.69168900
_cell_angle_alpha   60.00000433
_cell_angle_beta   60.00475021
_cell_angle_gamma   60.00475210
_symmetry_Int_Tables_number   1
_chemical_formula_structural   Zr16Fe4Os3Pd
_chemical_formula_sum   'Zr16 Fe4 Os3 Pd1'
_cell_volume   464.39877227
_cell_formula_units_Z   1
loop_
 _symmetry_equiv_pos_site_id
 _symmetry_equiv_pos_as_xyz
  1  'x, y, z'
loop_
 _atom_site_type_symbol
 _atom_site_label
 _atom_site_symmetry_multiplicity
 _atom_site_fract_x
 _atom_site_fract_y
 _atom_site_fract_z
 _atom_site_occupancy
  Zr  Zr0  1  0.052610  0.649130  0.649130  1
  Zr  Zr1  1  0.646434  0.054464  0.649551  1
  Zr  Zr2  1  0.646434  0.649551  0.054464  1
  Zr  Zr3  1  0.646434  0.649551  0.649551  1
  Zr  Zr4  1  0.798832  0.802795  0.199187  1
  Zr  Zr5  1  0.200193  0.199712  0.800048  1
  Zr  Zr6  1  0.798832  0.199187  0.802795  1
  Zr  Zr7  1  0.200193  0.800048  0.199712  1
  Zr  Zr8  1  0.200193  0.800048  0.800048  1
  Zr  Zr9  1  0.798832  0.199187  0.199187  1
  Zr  Zr10  1  0.437524  0.437167  0.062654  1
  Zr  Zr11  1  0.070291  0.055234  0.437237  1
  Zr  Zr12  1  0.437524  0.062654  0.437167  1
  Zr  Zr13  1  0.070291  0.437237  0.055234  1
  Zr  Zr14  1  0.070291  0.437237  0.437237  1
  Zr  Zr15  1  0.437524  0.062654  0.062654  1
  Fe  Fe16  1  0.418927  0.860358  0.860358  1
  Fe  Fe17  1  0.859999  0.417619  0.861191  1
  Fe  Fe18  1  0.859999  0.861191  0.417619  1
  Fe  Fe19  1  0.859999  0.861191  0.861191  1
  Os  Os20  1  0.414690  0.746329  0.419491  1
  Os  Os21  1  0.414690  0.419491  0.746329  1
  Os  Os22  1  0.414690  0.419491  0.419491  1
  Pd  Pd23  1  0.744574  0.418476  0.418476  1
