# generated using pymatgen
data_Tb3Yb4Ho3Ru4
_symmetry_space_group_name_H-M   'P 1'
_cell_length_a   6.42182866
_cell_length_b   7.24446658
_cell_length_c   8.52274357
_cell_angle_alpha   97.00914903
_cell_angle_beta   112.19376896
_cell_angle_gamma   90.06402839
_symmetry_Int_Tables_number   1
_chemical_formula_structural   Tb3Yb4Ho3Ru4
_chemical_formula_sum   'Tb3 Yb4 Ho3 Ru4'
_cell_volume   363.90030872
_cell_formula_units_Z   1
loop_
 _symmetry_equiv_pos_site_id
 _symmetry_equiv_pos_as_xyz
  1  'x, y, z'
loop_
 _atom_site_type_symbol
 _atom_site_label
 _atom_site_symmetry_multiplicity
 _atom_site_fract_x
 _atom_site_fract_y
 _atom_site_fract_z
 _atom_site_occupancy
  Tb  Tb0  1  0.636454  0.817309  0.433596  1
  Tb  Tb1  1  0.202095  0.682242  0.566107  1
  Tb  Tb2  1  0.363931  0.182765  0.566185  1
  Yb  Yb3  1  0.977777  0.919072  0.182409  1
  Yb  Yb4  1  0.795542  0.580941  0.817553  1
  Yb  Yb5  1  0.022091  0.081193  0.817585  1
  Yb  Yb6  1  0.204721  0.418837  0.182466  1
  Ho  Ho7  1  0.797340  0.317652  0.433495  1
  Ho  Ho8  1  0.430474  0.750303  0.999997  1
  Ho  Ho9  1  0.569820  0.249878  0.000532  1
  Ru  Ru10  1  0.815740  0.573296  0.229410  1
  Ru  Ru11  1  0.586712  0.926334  0.770860  1
  Ru  Ru12  1  0.183342  0.426096  0.770237  1
  Ru  Ru13  1  0.413962  0.074081  0.229567  1
