# generated using pymatgen
data_HfMg(PaPt6)2
_symmetry_space_group_name_H-M   'P 1'
_cell_length_a   5.76993200
_cell_length_b   5.76993227
_cell_length_c   9.52869000
_cell_angle_alpha   90.00000000
_cell_angle_beta   90.00000000
_cell_angle_gamma   119.99999846
_symmetry_Int_Tables_number   1
_chemical_formula_structural   HfMg(PaPt6)2
_chemical_formula_sum   'Hf1 Mg1 Pa2 Pt12'
_cell_volume   274.72946892
_cell_formula_units_Z   1
loop_
 _symmetry_equiv_pos_site_id
 _symmetry_equiv_pos_as_xyz
  1  'x, y, z'
loop_
 _atom_site_type_symbol
 _atom_site_label
 _atom_site_symmetry_multiplicity
 _atom_site_fract_x
 _atom_site_fract_y
 _atom_site_fract_z
 _atom_site_occupancy
  Hf  Hf0  1  0.333333  0.666667  0.250000  1
  Mg  Mg1  1  0.666667  0.333333  0.750000  1
  Pa  Pa2  1  0.000000  0.000000  0.504433  1
  Pa  Pa3  1  0.000000  0.000000  0.995567  1
  Pt  Pt4  1  0.170931  0.341862  0.750000  1
  Pt  Pt5  1  0.001668  0.500835  0.002207  1
  Pt  Pt6  1  0.830409  0.660819  0.250000  1
  Pt  Pt7  1  0.339181  0.169591  0.250000  1
  Pt  Pt8  1  0.499165  0.500835  0.002207  1
  Pt  Pt9  1  0.830409  0.169591  0.250000  1
  Pt  Pt10  1  0.499165  0.500835  0.497793  1
  Pt  Pt11  1  0.499165  0.998332  0.497793  1
  Pt  Pt12  1  0.170931  0.829069  0.750000  1
  Pt  Pt13  1  0.658138  0.829069  0.750000  1
  Pt  Pt14  1  0.499165  0.998332  0.002207  1
  Pt  Pt15  1  0.001668  0.500835  0.497793  1
