# generated using pymatgen
data_Y2Si7Ni5Ru7
_symmetry_space_group_name_H-M   'P 1'
_cell_length_a   9.47855600
_cell_length_b   9.54941079
_cell_length_c   3.78038700
_cell_angle_alpha   90.00000000
_cell_angle_beta   90.00000000
_cell_angle_gamma   120.04851984
_symmetry_Int_Tables_number   1
_chemical_formula_structural   Y2Si7Ni5Ru7
_chemical_formula_sum   'Y2 Si7 Ni5 Ru7'
_cell_volume   296.19185162
_cell_formula_units_Z   1
loop_
 _symmetry_equiv_pos_site_id
 _symmetry_equiv_pos_as_xyz
  1  'x, y, z'
loop_
 _atom_site_type_symbol
 _atom_site_label
 _atom_site_symmetry_multiplicity
 _atom_site_fract_x
 _atom_site_fract_y
 _atom_site_fract_z
 _atom_site_occupancy
  Y  Y0  1  0.999567  0.997995  0.000000  1
  Y  Y1  1  0.667457  0.334795  0.500000  1
  Si  Si2  1  0.624226  0.559603  0.000000  1
  Si  Si3  1  0.932364  0.377769  0.000000  1
  Si  Si4  1  0.444001  0.063821  0.000000  1
  Si  Si5  1  0.731317  0.953460  0.500000  1
  Si  Si6  1  0.223722  0.270157  0.500000  1
  Si  Si7  1  0.045895  0.776024  0.500000  1
  Si  Si8  1  0.334535  0.668016  0.000000  1
  Ni  Ni9  1  0.904424  0.607316  0.000000  1
  Ni  Ni10  1  0.704686  0.096950  0.000000  1
  Ni  Ni11  1  0.612447  0.793712  0.000000  1
  Ni  Ni12  1  0.180592  0.391683  0.000000  1
  Ni  Ni13  1  0.207249  0.815345  0.000000  1
  Ru  Ru14  1  0.396949  0.295240  0.000000  1
  Ru  Ru15  1  0.770489  0.717210  0.500000  1
  Ru  Ru16  1  0.946084  0.229930  0.500000  1
  Ru  Ru17  1  0.279671  0.046309  0.500000  1
  Ru  Ru18  1  0.425518  0.555165  0.500000  1
  Ru  Ru19  1  0.119327  0.569552  0.500000  1
  Ru  Ru20  1  0.449481  0.879952  0.500000  1
