# generated using pymatgen
data_PdF17
_symmetry_space_group_name_H-M   'P 1'
_cell_length_a   8.94860615
_cell_length_b   8.46324451
_cell_length_c   9.91994054
_cell_angle_alpha   78.86558196
_cell_angle_beta   85.75538866
_cell_angle_gamma   66.71290265
_symmetry_Int_Tables_number   1
_chemical_formula_structural   PdF17
_chemical_formula_sum   'Pd2 F34'
_cell_volume   677.08485741
_cell_formula_units_Z   2
loop_
 _symmetry_equiv_pos_site_id
 _symmetry_equiv_pos_as_xyz
  1  'x, y, z'
loop_
 _atom_site_type_symbol
 _atom_site_label
 _atom_site_symmetry_multiplicity
 _atom_site_fract_x
 _atom_site_fract_y
 _atom_site_fract_z
 _atom_site_occupancy
  Pd  Pd0  1  0.865750  0.246171  0.760085  1
  Pd  Pd1  1  0.134250  0.753829  0.239915  1
  F  F2  1  0.603282  0.210909  0.488003  1
  F  F3  1  0.396718  0.789091  0.511997  1
  F  F4  1  0.826868  0.685574  0.726145  1
  F  F5  1  0.173132  0.314426  0.273855  1
  F  F6  1  0.084873  0.770042  0.865962  1
  F  F7  1  0.915127  0.229958  0.134038  1
  F  F8  1  0.562981  0.140294  0.382615  1
  F  F9  1  0.437019  0.859706  0.617385  1
  F  F10  1  0.650050  0.323671  0.693157  1
  F  F11  1  0.349950  0.676329  0.306843  1
  F  F12  1  0.936877  0.064992  0.655237  1
  F  F13  1  0.063123  0.935008  0.344763  1
  F  F14  1  0.910653  0.395199  0.608929  1
  F  F15  1  0.089347  0.604801  0.391071  1
  F  F16  1  0.851938  0.809379  0.617404  1
  F  F17  1  0.148062  0.190621  0.382596  1
  F  F18  1  0.797520  0.429658  0.863414  1
  F  F19  1  0.202480  0.570342  0.136586  1
  F  F20  1  0.208393  0.690691  0.773305  1
  F  F21  1  0.791607  0.309309  0.226695  1
  F  F22  1  0.920232  0.830601  0.170392  1
  F  F23  1  0.079768  0.169399  0.829608  1
  F  F24  1  0.817925  0.096740  0.909945  1
  F  F25  1  0.182075  0.903260  0.090055  1
  F  F26  1  0.476912  0.592128  0.987238  1
  F  F27  1  0.523088  0.407872  0.012762  1
  F  F28  1  0.469333  0.089592  0.862336  1
  F  F29  1  0.530667  0.910408  0.137664  1
  F  F30  1  0.281633  0.249175  0.610425  1
  F  F31  1  0.718367  0.750825  0.389575  1
  F  F32  1  0.256007  0.395694  0.672716  1
  F  F33  1  0.743993  0.604306  0.327284  1
  F  F34  1  0.551388  0.915772  0.837246  1
  F  F35  1  0.448612  0.084228  0.162754  1
