# generated using pymatgen
data_La5Yb3In3Co
_symmetry_space_group_name_H-M   'P 1'
_cell_length_a   10.96566101
_cell_length_b   10.96473787
_cell_length_c   7.07046900
_cell_angle_alpha   89.99990276
_cell_angle_beta   90.00003710
_cell_angle_gamma   119.99737749
_symmetry_Int_Tables_number   1
_chemical_formula_structural   La5Yb3In3Co
_chemical_formula_sum   'La10 Yb6 In6 Co2'
_cell_volume   736.24676597
_cell_formula_units_Z   2
loop_
 _symmetry_equiv_pos_site_id
 _symmetry_equiv_pos_as_xyz
  1  'x, y, z'
loop_
 _atom_site_type_symbol
 _atom_site_label
 _atom_site_symmetry_multiplicity
 _atom_site_fract_x
 _atom_site_fract_y
 _atom_site_fract_z
 _atom_site_occupancy
  La  La0  1  0.175863  0.351747  0.730993  1
  La  La1  1  0.648247  0.824134  0.730994  1
  La  La2  1  0.175916  0.824088  0.731000  1
  La  La3  1  0.824136  0.648250  0.231008  1
  La  La4  1  0.351756  0.175867  0.231011  1
  La  La5  1  0.824083  0.175914  0.231012  1
  La  La6  1  0.666667  0.333326  0.931187  1
  La  La7  1  0.333335  0.666675  0.431177  1
  La  La8  1  0.999961  0.000027  0.523192  1
  La  La9  1  0.000038  0.999971  0.023248  1
  Yb  Yb10  1  0.534129  0.068264  0.526465  1
  Yb  Yb11  1  0.931728  0.465868  0.526461  1
  Yb  Yb12  1  0.534137  0.465868  0.526471  1
  Yb  Yb13  1  0.465871  0.931736  0.026471  1
  Yb  Yb14  1  0.068272  0.534132  0.026467  1
  Yb  Yb15  1  0.465863  0.534132  0.026477  1
  In  In16  1  0.833035  0.666066  0.762764  1
  In  In17  1  0.333927  0.166965  0.762755  1
  In  In18  1  0.833039  0.166968  0.762792  1
  In  In19  1  0.166968  0.333940  0.262768  1
  In  In20  1  0.666067  0.833033  0.262759  1
  In  In21  1  0.166964  0.833030  0.262796  1
  Co  Co22  1  0.666675  0.333323  0.262719  1
  Co  Co23  1  0.333325  0.666677  0.762694  1
