# generated using pymatgen
data_Na12Li8Sn3GeP12
_symmetry_space_group_name_H-M   'P 1'
_cell_length_a   9.53131598
_cell_length_b   9.53131772
_cell_length_c   13.81823700
_cell_angle_alpha   89.98448384
_cell_angle_beta   89.98448259
_cell_angle_gamma   143.92079255
_symmetry_Int_Tables_number   1
_chemical_formula_structural   Na12Li8Sn3GeP12
_chemical_formula_sum   'Na12 Li8 Sn3 Ge1 P12'
_cell_volume   739.26837086
_cell_formula_units_Z   1
loop_
 _symmetry_equiv_pos_site_id
 _symmetry_equiv_pos_as_xyz
  1  'x, y, z'
loop_
 _atom_site_type_symbol
 _atom_site_label
 _atom_site_symmetry_multiplicity
 _atom_site_fract_x
 _atom_site_fract_y
 _atom_site_fract_z
 _atom_site_occupancy
  Na  Na0  1  0.097916  0.440451  0.677832  1
  Na  Na1  1  0.730870  0.729054  0.679519  1
  Na  Na2  1  0.230062  0.229521  0.817515  1
  Na  Na3  1  0.770479  0.769938  0.182485  1
  Na  Na4  1  0.940277  0.597976  0.817073  1
  Na  Na5  1  0.559549  0.902084  0.322168  1
  Na  Na6  1  0.402024  0.059723  0.182927  1
  Na  Na7  1  0.059287  0.402102  0.179906  1
  Na  Na8  1  0.900096  0.560048  0.325623  1
  Na  Na9  1  0.439952  0.099904  0.674377  1
  Na  Na10  1  0.597898  0.940714  0.820094  1
  Na  Na11  1  0.270946  0.269130  0.320481  1
  Li  Li12  1  0.916920  0.083080  0.000000  1
  Li  Li13  1  0.583215  0.416785  0.500000  1
  Li  Li14  1  0.083364  0.916636  0.000000  1
  Li  Li15  1  0.417939  0.582061  0.500000  1
  Li  Li16  1  0.756083  0.243917  0.000000  1
  Li  Li17  1  0.743547  0.256453  0.500000  1
  Li  Li18  1  0.243511  0.756489  0.000000  1
  Li  Li19  1  0.253242  0.746758  0.500000  1
  Sn  Sn20  1  0.407376  0.592624  0.000000  1
  Sn  Sn21  1  0.909394  0.090606  0.500000  1
  Sn  Sn22  1  0.593104  0.406896  0.000000  1
  Ge  Ge23  1  0.091471  0.908529  0.500000  1
  P  P24  1  0.912526  0.579722  0.112879  1
  P  P25  1  0.420278  0.087474  0.887121  1
  P  P26  1  0.588147  0.920520  0.610816  1
  P  P27  1  0.930170  0.607183  0.604340  1
  P  P28  1  0.086511  0.419372  0.888005  1
  P  P29  1  0.580628  0.913489  0.111995  1
  P  P30  1  0.392817  0.069830  0.395660  1
  P  P31  1  0.229219  0.218534  0.599284  1
  P  P32  1  0.734490  0.734256  0.896323  1
  P  P33  1  0.265744  0.265510  0.103677  1
  P  P34  1  0.079480  0.411853  0.389184  1
  P  P35  1  0.781466  0.770781  0.400716  1
