# generated using pymatgen
data_Y2SiPd14
_symmetry_space_group_name_H-M   'P 1'
_cell_length_a   8.91198600
_cell_length_b   8.91198600
_cell_length_c   7.11641000
_cell_angle_alpha   90.00000000
_cell_angle_beta   90.00000000
_cell_angle_gamma   90.00000000
_symmetry_Int_Tables_number   1
_chemical_formula_structural   Y2SiPd14
_chemical_formula_sum   'Y4 Si2 Pd28'
_cell_volume   565.21015024
_cell_formula_units_Z   2
loop_
 _symmetry_equiv_pos_site_id
 _symmetry_equiv_pos_as_xyz
  1  'x, y, z'
loop_
 _atom_site_type_symbol
 _atom_site_label
 _atom_site_symmetry_multiplicity
 _atom_site_fract_x
 _atom_site_fract_y
 _atom_site_fract_z
 _atom_site_occupancy
  Y  Y0  1  0.500000  0.000000  0.935682  1
  Y  Y1  1  0.000000  0.500000  0.064318  1
  Y  Y2  1  0.000000  0.000000  0.500000  1
  Y  Y3  1  0.500000  0.500000  0.500000  1
  Si  Si4  1  0.500000  0.000000  0.448844  1
  Si  Si5  1  0.000000  0.500000  0.551156  1
  Pd  Pd6  1  0.334523  0.834523  0.616349  1
  Pd  Pd7  1  0.334523  0.165477  0.616349  1
  Pd  Pd8  1  0.665477  0.834523  0.616349  1
  Pd  Pd9  1  0.665477  0.165477  0.616349  1
  Pd  Pd10  1  0.165477  0.665477  0.383651  1
  Pd  Pd11  1  0.165477  0.334523  0.383651  1
  Pd  Pd12  1  0.834523  0.665477  0.383651  1
  Pd  Pd13  1  0.834523  0.334523  0.383651  1
  Pd  Pd14  1  0.500000  0.770320  0.256674  1
  Pd  Pd15  1  0.500000  0.229680  0.256674  1
  Pd  Pd16  1  0.270320  0.000000  0.256674  1
  Pd  Pd17  1  0.729680  0.000000  0.256674  1
  Pd  Pd18  1  0.000000  0.729680  0.743326  1
  Pd  Pd19  1  0.000000  0.270320  0.743326  1
  Pd  Pd20  1  0.229680  0.500000  0.743326  1
  Pd  Pd21  1  0.770320  0.500000  0.743326  1
  Pd  Pd22  1  0.500000  0.348700  0.854149  1
  Pd  Pd23  1  0.500000  0.651300  0.854149  1
  Pd  Pd24  1  0.848700  0.000000  0.854149  1
  Pd  Pd25  1  0.151300  0.000000  0.854149  1
  Pd  Pd26  1  0.000000  0.151300  0.145851  1
  Pd  Pd27  1  0.000000  0.848700  0.145851  1
  Pd  Pd28  1  0.651300  0.500000  0.145851  1
  Pd  Pd29  1  0.348700  0.500000  0.145851  1
  Pd  Pd30  1  0.250000  0.750000  0.000000  1
  Pd  Pd31  1  0.250000  0.250000  0.000000  1
  Pd  Pd32  1  0.750000  0.750000  0.000000  1
  Pd  Pd33  1  0.750000  0.250000  0.000000  1
