# generated using pymatgen
data_Pr8LuSc11Ga11Si5
_symmetry_space_group_name_H-M   'P 1'
_cell_length_a   7.38142402
_cell_length_b   7.70038564
_cell_length_c   14.57115697
_cell_angle_alpha   90.01616375
_cell_angle_beta   90.11711818
_cell_angle_gamma   90.28056764
_symmetry_Int_Tables_number   1
_chemical_formula_structural   Pr8LuSc11Ga11Si5
_chemical_formula_sum   'Pr8 Lu1 Sc11 Ga11 Si5'
_cell_volume   828.21012033
_cell_formula_units_Z   1
loop_
 _symmetry_equiv_pos_site_id
 _symmetry_equiv_pos_as_xyz
  1  'x, y, z'
loop_
 _atom_site_type_symbol
 _atom_site_label
 _atom_site_symmetry_multiplicity
 _atom_site_fract_x
 _atom_site_fract_y
 _atom_site_fract_z
 _atom_site_occupancy
  Pr  Pr0  1  0.014697  0.175825  0.403972  1
  Pr  Pr1  1  0.513975  0.325703  0.404485  1
  Pr  Pr2  1  0.489385  0.676283  0.905063  1
  Pr  Pr3  1  0.489647  0.677703  0.593508  1
  Pr  Pr4  1  0.987277  0.819627  0.594716  1
  Pr  Pr5  1  0.985184  0.825254  0.904525  1
  Pr  Pr6  1  0.510696  0.323274  0.095419  1
  Pr  Pr7  1  0.010969  0.177811  0.096370  1
  Lu  Lu8  1  0.327720  0.171826  0.621494  1
  Sc  Sc9  1  0.671259  0.824216  0.376943  1
  Sc  Sc10  1  0.665352  0.994581  0.752844  1
  Sc  Sc11  1  0.173409  0.673788  0.375992  1
  Sc  Sc12  1  0.823049  0.326289  0.876680  1
  Sc  Sc13  1  0.825813  0.330609  0.623105  1
  Sc  Sc14  1  0.840664  0.498600  0.252076  1
  Sc  Sc15  1  0.336594  0.003457  0.252169  1
  Sc  Sc16  1  0.333135  0.173312  0.875637  1
  Sc  Sc17  1  0.171625  0.669939  0.125438  1
  Sc  Sc18  1  0.671293  0.827901  0.123303  1
  Sc  Sc19  1  0.157448  0.502930  0.751470  1
  Ga  Ga20  1  0.285462  0.878296  0.750896  1
  Ga  Ga21  1  0.468370  0.620148  0.250655  1
  Ga  Ga22  1  0.028598  0.124541  0.750890  1
  Ga  Ga23  1  0.532911  0.383789  0.750214  1
  Ga  Ga24  1  0.150830  0.467168  0.539989  1
  Ga  Ga25  1  0.968253  0.875979  0.250014  1
  Ga  Ga26  1  0.712830  0.118507  0.250926  1
  Ga  Ga27  1  0.844757  0.537213  0.042500  1
  Ga  Ga28  1  0.343585  0.961440  0.041258  1
  Ga  Ga29  1  0.154516  0.462275  0.957421  1
  Ga  Ga30  1  0.660604  0.036691  0.539383  1
  Si  Si31  1  0.348132  0.960832  0.454939  1
  Si  Si32  1  0.848887  0.536099  0.456318  1
  Si  Si33  1  0.785062  0.616413  0.749793  1
  Si  Si34  1  0.215635  0.384087  0.250773  1
  Si  Si35  1  0.652381  0.037595  0.958818  1
