# generated using pymatgen
data_Dy5Ru2Pb
_symmetry_space_group_name_H-M   'P 1'
_cell_length_a   8.81673476
_cell_length_b   8.81673466
_cell_length_c   8.81673496
_cell_angle_alpha   127.96446322
_cell_angle_beta   127.96445495
_cell_angle_gamma   76.68261262
_symmetry_Int_Tables_number   1
_chemical_formula_structural   Dy5Ru2Pb
_chemical_formula_sum   'Dy10 Ru4 Pb2'
_cell_volume   413.73078607
_cell_formula_units_Z   2
loop_
 _symmetry_equiv_pos_site_id
 _symmetry_equiv_pos_as_xyz
  1  'x, y, z'
loop_
 _atom_site_type_symbol
 _atom_site_label
 _atom_site_symmetry_multiplicity
 _atom_site_fract_x
 _atom_site_fract_y
 _atom_site_fract_z
 _atom_site_occupancy
  Dy  Dy0  1  0.000000  0.000000  0.000000  1
  Dy  Dy1  1  0.500000  0.500000  0.000000  1
  Dy  Dy2  1  0.786976  0.286976  0.813669  1
  Dy  Dy3  1  0.213024  0.713024  0.186331  1
  Dy  Dy4  1  0.473307  0.973307  0.186331  1
  Dy  Dy5  1  0.286976  0.473307  0.500000  1
  Dy  Dy6  1  0.026693  0.213024  0.500000  1
  Dy  Dy7  1  0.526693  0.026693  0.813669  1
  Dy  Dy8  1  0.713024  0.526693  0.500000  1
  Dy  Dy9  1  0.973307  0.786976  0.500000  1
  Ru  Ru10  1  0.143524  0.643524  0.787046  1
  Ru  Ru11  1  0.856476  0.356476  0.212954  1
  Ru  Ru12  1  0.643524  0.856476  0.500000  1
  Ru  Ru13  1  0.356476  0.143524  0.500000  1
  Pb  Pb14  1  0.250000  0.250000  0.000000  1
  Pb  Pb15  1  0.750000  0.750000  0.000000  1
