# generated using pymatgen
data_Y3B6Ru3Rh5
_symmetry_space_group_name_H-M   'P 1'
_cell_length_a   9.94060329
_cell_length_b   9.13085152
_cell_length_c   5.56984133
_cell_angle_alpha   81.18914803
_cell_angle_beta   65.18962798
_cell_angle_gamma   33.29742531
_symmetry_Int_Tables_number   1
_chemical_formula_structural   Y3B6Ru3Rh5
_chemical_formula_sum   'Y3 B6 Ru3 Rh5'
_cell_volume   231.28121200
_cell_formula_units_Z   1
loop_
 _symmetry_equiv_pos_site_id
 _symmetry_equiv_pos_as_xyz
  1  'x, y, z'
loop_
 _atom_site_type_symbol
 _atom_site_label
 _atom_site_symmetry_multiplicity
 _atom_site_fract_x
 _atom_site_fract_y
 _atom_site_fract_z
 _atom_site_occupancy
  Y  Y0  1  0.999627  0.999627  0.000373  1
  Y  Y1  1  0.182266  0.182266  0.817734  1
  Y  Y2  1  0.819017  0.819017  0.180983  1
  B  B3  1  0.827443  0.523285  0.481921  1
  B  B4  1  0.175131  0.475526  0.511703  1
  B  B5  1  0.475526  0.175131  0.837640  1
  B  B6  1  0.668079  0.330504  0.678023  1
  B  B7  1  0.523285  0.827443  0.167350  1
  B  B8  1  0.330504  0.668079  0.323394  1
  Ru  Ru9  1  0.248827  0.248827  0.251173  1
  Ru  Ru10  1  0.414109  0.414109  0.085891  1
  Ru  Ru11  1  0.750321  0.750321  0.749679  1
  Rh  Rh12  1  0.415257  0.415257  0.584743  1
  Rh  Rh13  1  0.585958  0.585958  0.914042  1
  Rh  Rh14  1  0.085177  0.085177  0.414823  1
  Rh  Rh15  1  0.914077  0.914077  0.585923  1
  Rh  Rh16  1  0.585397  0.585397  0.414603  1
