# generated using pymatgen
data_Ho5Bi2Os
_symmetry_space_group_name_H-M   'P 1'
_cell_length_a   7.93605200
_cell_length_b   9.01467000
_cell_length_c   12.46084900
_cell_angle_alpha   90.00000000
_cell_angle_beta   90.00000000
_cell_angle_gamma   90.00000000
_symmetry_Int_Tables_number   1
_chemical_formula_structural   Ho5Bi2Os
_chemical_formula_sum   'Ho20 Bi8 Os4'
_cell_volume   891.46022616
_cell_formula_units_Z   4
loop_
 _symmetry_equiv_pos_site_id
 _symmetry_equiv_pos_as_xyz
  1  'x, y, z'
loop_
 _atom_site_type_symbol
 _atom_site_label
 _atom_site_symmetry_multiplicity
 _atom_site_fract_x
 _atom_site_fract_y
 _atom_site_fract_z
 _atom_site_occupancy
  Ho  Ho0  1  0.839521  0.750000  0.792375  1
  Ho  Ho1  1  0.160479  0.250000  0.207625  1
  Ho  Ho2  1  0.339521  0.250000  0.707625  1
  Ho  Ho3  1  0.660479  0.750000  0.292375  1
  Ho  Ho4  1  0.374983  0.750000  0.690079  1
  Ho  Ho5  1  0.625017  0.250000  0.309921  1
  Ho  Ho6  1  0.874983  0.250000  0.809921  1
  Ho  Ho7  1  0.125017  0.750000  0.190079  1
  Ho  Ho8  1  0.944352  0.750000  0.504149  1
  Ho  Ho9  1  0.055648  0.250000  0.495851  1
  Ho  Ho10  1  0.444352  0.250000  0.995851  1
  Ho  Ho11  1  0.555648  0.750000  0.004149  1
  Ho  Ho12  1  0.674033  0.041220  0.564765  1
  Ho  Ho13  1  0.325967  0.958780  0.435235  1
  Ho  Ho14  1  0.174033  0.958780  0.935235  1
  Ho  Ho15  1  0.325967  0.541220  0.435235  1
  Ho  Ho16  1  0.825967  0.041220  0.064765  1
  Ho  Ho17  1  0.674033  0.458780  0.564765  1
  Ho  Ho18  1  0.825967  0.458780  0.064765  1
  Ho  Ho19  1  0.174033  0.541220  0.935235  1
  Bi  Bi20  1  0.566084  0.493319  0.827316  1
  Bi  Bi21  1  0.433916  0.506681  0.172684  1
  Bi  Bi22  1  0.066084  0.506681  0.672684  1
  Bi  Bi23  1  0.433916  0.993319  0.172684  1
  Bi  Bi24  1  0.933916  0.493319  0.327316  1
  Bi  Bi25  1  0.566084  0.006681  0.827316  1
  Bi  Bi26  1  0.933916  0.006681  0.327316  1
  Bi  Bi27  1  0.066084  0.993319  0.672684  1
  Os  Os28  1  0.575265  0.750000  0.509434  1
  Os  Os29  1  0.424735  0.250000  0.490566  1
  Os  Os30  1  0.075265  0.250000  0.990566  1
  Os  Os31  1  0.924735  0.750000  0.009434  1
