# generated using pymatgen
data_La8Sc11Si16Au
_symmetry_space_group_name_H-M   'P 1'
_cell_length_a   7.23923606
_cell_length_b   7.63976527
_cell_length_c   14.34040900
_cell_angle_alpha   90.00000000
_cell_angle_beta   90.00000000
_cell_angle_gamma   90.38349048
_symmetry_Int_Tables_number   1
_chemical_formula_structural   La8Sc11Si16Au
_chemical_formula_sum   'La8 Sc11 Si16 Au1'
_cell_volume   793.09381604
_cell_formula_units_Z   1
loop_
 _symmetry_equiv_pos_site_id
 _symmetry_equiv_pos_as_xyz
  1  'x, y, z'
loop_
 _atom_site_type_symbol
 _atom_site_label
 _atom_site_symmetry_multiplicity
 _atom_site_fract_x
 _atom_site_fract_y
 _atom_site_fract_z
 _atom_site_occupancy
  La  La0  1  0.012190  0.172930  0.402267  1
  La  La1  1  0.510694  0.331687  0.402127  1
  La  La2  1  0.493865  0.682314  0.897825  1
  La  La3  1  0.493865  0.682314  0.602175  1
  La  La4  1  0.978270  0.827634  0.603234  1
  La  La5  1  0.978270  0.827634  0.896766  1
  La  La6  1  0.510694  0.331687  0.097873  1
  La  La7  1  0.012190  0.172930  0.097733  1
  Sc  Sc8  1  0.335739  0.171780  0.624749  1
  Sc  Sc9  1  0.672846  0.822762  0.373354  1
  Sc  Sc10  1  0.172091  0.676321  0.375969  1
  Sc  Sc11  1  0.827483  0.311319  0.874688  1
  Sc  Sc12  1  0.827483  0.311319  0.625312  1
  Sc  Sc13  1  0.841711  0.504391  0.250000  1
  Sc  Sc14  1  0.341308  0.995217  0.250000  1
  Sc  Sc15  1  0.335739  0.171780  0.875251  1
  Sc  Sc16  1  0.172091  0.676321  0.124031  1
  Sc  Sc17  1  0.672846  0.822762  0.126646  1
  Sc  Sc18  1  0.158247  0.489357  0.750000  1
  Si  Si19  1  0.279584  0.888155  0.750000  1
  Si  Si20  1  0.467702  0.627340  0.250000  1
  Si  Si21  1  0.045702  0.125491  0.750000  1
  Si  Si22  1  0.530933  0.383017  0.750000  1
  Si  Si23  1  0.152046  0.466024  0.541774  1
  Si  Si24  1  0.969890  0.871210  0.250000  1
  Si  Si25  1  0.707743  0.114816  0.250000  1
  Si  Si26  1  0.851488  0.536343  0.037575  1
  Si  Si27  1  0.350592  0.963391  0.039740  1
  Si  Si28  1  0.152046  0.466024  0.958226  1
  Si  Si29  1  0.651887  0.041537  0.529591  1
  Si  Si30  1  0.350592  0.963391  0.460260  1
  Si  Si31  1  0.851488  0.536343  0.462425  1
  Si  Si32  1  0.794113  0.583126  0.750000  1
  Si  Si33  1  0.207607  0.389492  0.250000  1
  Si  Si34  1  0.651887  0.041537  0.970409  1
  Au  Au35  1  0.637078  0.020306  0.750000  1
