# generated using pymatgen
data_Y4Tm8Co5Sn
_symmetry_space_group_name_H-M   'P 1'
_cell_length_a   8.24519124
_cell_length_b   8.24519052
_cell_length_c   8.24519067
_cell_angle_alpha   110.83932769
_cell_angle_beta   110.49480794
_cell_angle_gamma   107.10531493
_symmetry_Int_Tables_number   1
_chemical_formula_structural   Y4Tm8Co5Sn
_chemical_formula_sum   'Y4 Tm8 Co5 Sn1'
_cell_volume   430.94640259
_cell_formula_units_Z   1
loop_
 _symmetry_equiv_pos_site_id
 _symmetry_equiv_pos_as_xyz
  1  'x, y, z'
loop_
 _atom_site_type_symbol
 _atom_site_label
 _atom_site_symmetry_multiplicity
 _atom_site_fract_x
 _atom_site_fract_y
 _atom_site_fract_z
 _atom_site_occupancy
  Y  Y0  1  0.289132  0.187045  0.476177  1
  Y  Y1  1  0.710868  0.812955  0.523823  1
  Y  Y2  1  0.289132  0.812955  0.102087  1
  Y  Y3  1  0.710868  0.187045  0.897913  1
  Tm  Tm4  1  0.621811  0.313824  0.307988  1
  Tm  Tm5  1  0.378189  0.686176  0.692012  1
  Tm  Tm6  1  0.005836  0.313824  0.692012  1
  Tm  Tm7  1  0.994164  0.686176  0.307988  1
  Tm  Tm8  1  0.210134  0.402926  0.192793  1
  Tm  Tm9  1  0.789866  0.597074  0.807207  1
  Tm  Tm10  1  0.210134  0.017341  0.807207  1
  Tm  Tm11  1  0.789866  0.982659  0.192793  1
  Co  Co12  1  0.000000  0.377015  0.377015  1
  Co  Co13  1  0.000000  0.622985  0.622985  1
  Co  Co14  1  0.387169  0.887169  0.500000  1
  Co  Co15  1  0.612831  0.112831  0.500000  1
  Co  Co16  1  0.000000  0.000000  0.000000  1
  Sn  Sn17  1  0.500000  0.500000  0.000000  1
