# generated using pymatgen
data_Nd2NbIr2Rh
_symmetry_space_group_name_H-M   'P 1'
_cell_length_a   5.32381554
_cell_length_b   5.31122164
_cell_length_c   5.31122109
_cell_angle_alpha   65.85743762
_cell_angle_beta   65.84789982
_cell_angle_gamma   65.84790574
_symmetry_Int_Tables_number   1
_chemical_formula_structural   Nd2NbIr2Rh
_chemical_formula_sum   'Nd2 Nb1 Ir2 Rh1'
_cell_volume   119.65801940
_cell_formula_units_Z   1
loop_
 _symmetry_equiv_pos_site_id
 _symmetry_equiv_pos_as_xyz
  1  'x, y, z'
loop_
 _atom_site_type_symbol
 _atom_site_label
 _atom_site_symmetry_multiplicity
 _atom_site_fract_x
 _atom_site_fract_y
 _atom_site_fract_z
 _atom_site_occupancy
  Nd  Nd0  1  0.373035  0.374891  0.374891  1
  Nd  Nd1  1  0.626965  0.625109  0.625109  1
  Nb  Nb2  1  0.000000  0.000000  0.000000  1
  Ir  Ir3  1  0.000000  0.499999  0.000000  1
  Ir  Ir4  1  0.000000  0.000000  0.499999  1
  Rh  Rh5  1  0.499999  0.000000  0.000000  1
