# generated using pymatgen
data_Dy3Mg2ZnSi2Ag
_symmetry_space_group_name_H-M   'P 1'
_cell_length_a   7.12857090
_cell_length_b   7.12857126
_cell_length_c   4.35808100
_cell_angle_alpha   90.00000000
_cell_angle_beta   90.00000000
_cell_angle_gamma   120.46979104
_symmetry_Int_Tables_number   1
_chemical_formula_structural   Dy3Mg2ZnSi2Ag
_chemical_formula_sum   'Dy3 Mg2 Zn1 Si2 Ag1'
_cell_volume   190.87781446
_cell_formula_units_Z   1
loop_
 _symmetry_equiv_pos_site_id
 _symmetry_equiv_pos_as_xyz
  1  'x, y, z'
loop_
 _atom_site_type_symbol
 _atom_site_label
 _atom_site_symmetry_multiplicity
 _atom_site_fract_x
 _atom_site_fract_y
 _atom_site_fract_z
 _atom_site_occupancy
  Dy  Dy0  1  0.432064  0.432064  0.500000  1
  Dy  Dy1  1  0.577539  0.999291  0.500000  1
  Dy  Dy2  1  0.999291  0.577539  0.500000  1
  Mg  Mg3  1  0.241481  0.996841  0.000000  1
  Mg  Mg4  1  0.996841  0.241481  0.000000  1
  Zn  Zn5  1  0.746234  0.746234  0.000000  1
  Si  Si6  1  0.669305  0.341816  0.000000  1
  Si  Si7  1  0.341816  0.669305  0.000000  1
  Ag  Ag8  1  0.995429  0.995429  0.500000  1
