# generated using pymatgen
data_Sm2Si5(PRh6)2
_symmetry_space_group_name_H-M   'P 1'
_cell_length_a   9.74554266
_cell_length_b   9.71278688
_cell_length_c   3.86835524
_cell_angle_alpha   89.97927882
_cell_angle_beta   90.02346574
_cell_angle_gamma   119.78504615
_symmetry_Int_Tables_number   1
_chemical_formula_structural   Sm2Si5(PRh6)2
_chemical_formula_sum   'Sm2 Si5 P2 Rh12'
_cell_volume   317.79235409
_cell_formula_units_Z   1
loop_
 _symmetry_equiv_pos_site_id
 _symmetry_equiv_pos_as_xyz
  1  'x, y, z'
loop_
 _atom_site_type_symbol
 _atom_site_label
 _atom_site_symmetry_multiplicity
 _atom_site_fract_x
 _atom_site_fract_y
 _atom_site_fract_z
 _atom_site_occupancy
  Sm  Sm0  1  0.332417  0.665303  0.740025  1
  Sm  Sm1  1  0.665968  0.334938  0.242316  1
  Si  Si2  1  0.999973  0.997554  0.675335  1
  Si  Si3  1  0.398383  0.288170  0.741260  1
  Si  Si4  1  0.712152  0.112341  0.742336  1
  Si  Si5  1  0.887990  0.601708  0.741499  1
  Si  Si6  1  0.601101  0.708986  0.240826  1
  P  P7  1  0.291165  0.890447  0.239529  1
  P  P8  1  0.108590  0.398490  0.240181  1
  Rh  Rh9  1  0.444511  0.065818  0.741884  1
  Rh  Rh10  1  0.936279  0.380877  0.742025  1
  Rh  Rh11  1  0.620011  0.557216  0.741733  1
  Rh  Rh12  1  0.554421  0.939933  0.241031  1
  Rh  Rh13  1  0.062453  0.616298  0.239930  1
  Rh  Rh14  1  0.378612  0.440319  0.239897  1
  Rh  Rh15  1  0.146650  0.271076  0.739554  1
  Rh  Rh16  1  0.728509  0.877722  0.739926  1
  Rh  Rh17  1  0.126741  0.849095  0.739074  1
  Rh  Rh18  1  0.867136  0.753194  0.243802  1
  Rh  Rh19  1  0.249056  0.108726  0.243487  1
  Rh  Rh20  1  0.887883  0.141789  0.244350  1
