# generated using pymatgen
data_Cs4InSbAu7
_symmetry_space_group_name_H-M   'P 1'
_cell_length_a   10.77004064
_cell_length_b   10.77004064
_cell_length_c   10.77004300
_cell_angle_alpha   38.12740157
_cell_angle_beta   38.12740161
_cell_angle_gamma   38.12740056
_symmetry_Int_Tables_number   1
_chemical_formula_structural   Cs4InSbAu7
_chemical_formula_sum   'Cs4 In1 Sb1 Au7'
_cell_volume   427.57169341
_cell_formula_units_Z   1
loop_
 _symmetry_equiv_pos_site_id
 _symmetry_equiv_pos_as_xyz
  1  'x, y, z'
loop_
 _atom_site_type_symbol
 _atom_site_label
 _atom_site_symmetry_multiplicity
 _atom_site_fract_x
 _atom_site_fract_y
 _atom_site_fract_z
 _atom_site_occupancy
  Cs  Cs0  1  0.811255  0.811255  0.811255  1
  Cs  Cs1  1  0.685517  0.685517  0.685517  1
  Cs  Cs2  1  0.317666  0.317666  0.317666  1
  Cs  Cs3  1  0.188146  0.188146  0.188146  1
  In  In4  1  0.448191  0.448191  0.448191  1
  Sb  Sb5  1  0.551131  0.551131  0.551131  1
  Au  Au6  1  0.787678  0.787678  0.188988  1
  Au  Au7  1  0.211370  0.811401  0.211370  1
  Au  Au8  1  0.787678  0.188988  0.787678  1
  Au  Au9  1  0.811401  0.211370  0.211370  1
  Au  Au10  1  0.188988  0.787678  0.787678  1
  Au  Au11  1  0.999604  0.999604  0.999604  1
  Au  Au12  1  0.211370  0.211370  0.811401  1
