# generated using pymatgen
data_K4Li2LuInAs4
_symmetry_space_group_name_H-M   'P 1'
_cell_length_a   10.22822815
_cell_length_b   10.22822945
_cell_length_c   6.57110800
_cell_angle_alpha   90.00000000
_cell_angle_beta   90.00000000
_cell_angle_gamma   100.86513100
_symmetry_Int_Tables_number   1
_chemical_formula_structural   K4Li2LuInAs4
_chemical_formula_sum   'K8 Li4 Lu2 In2 As8'
_cell_volume   675.12395005
_cell_formula_units_Z   2
loop_
 _symmetry_equiv_pos_site_id
 _symmetry_equiv_pos_as_xyz
  1  'x, y, z'
loop_
 _atom_site_type_symbol
 _atom_site_label
 _atom_site_symmetry_multiplicity
 _atom_site_fract_x
 _atom_site_fract_y
 _atom_site_fract_z
 _atom_site_occupancy
  K  K0  1  0.074577  0.432659  0.746354  1
  K  K1  1  0.672934  0.320975  0.785548  1
  K  K2  1  0.320975  0.672934  0.214452  1
  K  K3  1  0.574577  0.932659  0.753646  1
  K  K4  1  0.432659  0.074577  0.253646  1
  K  K5  1  0.932659  0.574577  0.246354  1
  K  K6  1  0.820975  0.172934  0.285548  1
  K  K7  1  0.172934  0.820975  0.714452  1
  Li  Li8  1  0.121691  0.121691  0.500000  1
  Li  Li9  1  0.880763  0.880763  0.500000  1
  Li  Li10  1  0.380763  0.380763  0.000000  1
  Li  Li11  1  0.621691  0.621691  0.000000  1
  Lu  Lu12  1  0.627121  0.627121  0.500000  1
  Lu  Lu13  1  0.127121  0.127121  0.000000  1
  In  In14  1  0.869491  0.869491  0.000000  1
  In  In15  1  0.369491  0.369491  0.500000  1
  As  As16  1  0.847576  0.651699  0.751046  1
  As  As17  1  0.098535  0.901979  0.234254  1
  As  As18  1  0.401979  0.598535  0.734254  1
  As  As19  1  0.598535  0.401979  0.265746  1
  As  As20  1  0.651699  0.847576  0.248954  1
  As  As21  1  0.151699  0.347576  0.251046  1
  As  As22  1  0.347576  0.151699  0.748954  1
  As  As23  1  0.901979  0.098535  0.765746  1
