# generated using pymatgen
data_Y5Ho7Tm4(InRh)4
_symmetry_space_group_name_H-M   'P 1'
_cell_length_a   9.62179676
_cell_length_b   9.62787794
_cell_length_c   9.63717517
_cell_angle_alpha   59.99099587
_cell_angle_beta   59.88489601
_cell_angle_gamma   59.89961166
_symmetry_Int_Tables_number   1
_chemical_formula_structural   Y5Ho7Tm4(InRh)4
_chemical_formula_sum   'Y5 Ho7 Tm4 In4 Rh4'
_cell_volume   630.20641928
_cell_formula_units_Z   1
loop_
 _symmetry_equiv_pos_site_id
 _symmetry_equiv_pos_as_xyz
  1  'x, y, z'
loop_
 _atom_site_type_symbol
 _atom_site_label
 _atom_site_symmetry_multiplicity
 _atom_site_fract_x
 _atom_site_fract_y
 _atom_site_fract_z
 _atom_site_occupancy
  Y  Y0  1  0.062316  0.062607  0.437449  1
  Y  Y1  1  0.437970  0.061544  0.437786  1
  Y  Y2  1  0.062383  0.437090  0.062539  1
  Y  Y3  1  0.050465  0.649480  0.649683  1
  Y  Y4  1  0.438542  0.437560  0.061212  1
  Ho  Ho5  1  0.650265  0.049521  0.648020  1
  Ho  Ho6  1  0.189340  0.811419  0.188309  1
  Ho  Ho7  1  0.188475  0.188190  0.811699  1
  Ho  Ho8  1  0.810816  0.810564  0.190030  1
  Ho  Ho9  1  0.441591  0.058464  0.058320  1
  Ho  Ho10  1  0.811558  0.189155  0.188474  1
  Ho  Ho11  1  0.059514  0.439265  0.440054  1
  Tm  Tm12  1  0.811178  0.190178  0.810602  1
  Tm  Tm13  1  0.189469  0.811917  0.811545  1
  Tm  Tm14  1  0.650544  0.648217  0.048365  1
  Tm  Tm15  1  0.650767  0.651745  0.652323  1
  In  In16  1  0.416717  0.417195  0.416670  1
  In  In17  1  0.748411  0.417983  0.417567  1
  In  In18  1  0.417821  0.748666  0.417121  1
  In  In19  1  0.417933  0.417442  0.748583  1
  Rh  Rh20  1  0.856245  0.857690  0.426176  1
  Rh  Rh21  1  0.853779  0.860446  0.860635  1
  Rh  Rh22  1  0.428402  0.857473  0.858664  1
  Rh  Rh23  1  0.855500  0.426188  0.858173  1
