# generated using pymatgen
data_CaScP7Ru11Rh
_symmetry_space_group_name_H-M   'P 1'
_cell_length_a   9.36963495
_cell_length_b   9.44252832
_cell_length_c   3.93561900
_cell_angle_alpha   90.00000000
_cell_angle_beta   90.00000000
_cell_angle_gamma   119.73121416
_symmetry_Int_Tables_number   1
_chemical_formula_structural   CaScP7Ru11Rh
_chemical_formula_sum   'Ca1 Sc1 P7 Ru11 Rh1'
_cell_volume   302.36015415
_cell_formula_units_Z   1
loop_
 _symmetry_equiv_pos_site_id
 _symmetry_equiv_pos_as_xyz
  1  'x, y, z'
loop_
 _atom_site_type_symbol
 _atom_site_label
 _atom_site_symmetry_multiplicity
 _atom_site_fract_x
 _atom_site_fract_y
 _atom_site_fract_z
 _atom_site_occupancy
  Ca  Ca0  1  0.332439  0.664838  0.000000  1
  Sc  Sc1  1  0.667594  0.334030  0.500000  1
  P  P2  1  0.601874  0.714775  0.500000  1
  P  P3  1  0.997442  0.999200  0.000000  1
  P  P4  1  0.276504  0.880822  0.500000  1
  P  P5  1  0.116809  0.397077  0.500000  1
  P  P6  1  0.885975  0.572324  0.000000  1
  P  P7  1  0.431114  0.314026  0.000000  1
  P  P8  1  0.691711  0.119976  0.000000  1
  Ru  Ru9  1  0.397452  0.438295  0.500000  1
  Ru  Ru10  1  0.913255  0.121692  0.500000  1
  Ru  Ru11  1  0.207271  0.085123  0.500000  1
  Ru  Ru12  1  0.880025  0.798074  0.500000  1
  Ru  Ru13  1  0.723920  0.891333  0.000000  1
  Ru  Ru14  1  0.109765  0.837544  0.000000  1
  Ru  Ru15  1  0.163357  0.269917  0.000000  1
  Ru  Ru16  1  0.427996  0.072308  0.000000  1
  Ru  Ru17  1  0.931978  0.356169  0.000000  1
  Ru  Ru18  1  0.646734  0.576754  0.000000  1
  Ru  Ru19  1  0.042239  0.602596  0.500000  1
  Rh  Rh20  1  0.554545  0.953124  0.500000  1
