# generated using pymatgen
data_Dy3Y4Pa(ReB6)4
_symmetry_space_group_name_H-M   'P 1'
_cell_length_a   3.69917200
_cell_length_b   9.18837926
_cell_length_c   11.56526100
_cell_angle_alpha   90.17810441
_cell_angle_beta   90.00000000
_cell_angle_gamma   90.00000000
_symmetry_Int_Tables_number   1
_chemical_formula_structural   Dy3Y4Pa(ReB6)4
_chemical_formula_sum   'Dy3 Y4 Pa1 Re4 B24'
_cell_volume   393.09432857
_cell_formula_units_Z   1
loop_
 _symmetry_equiv_pos_site_id
 _symmetry_equiv_pos_as_xyz
  1  'x, y, z'
loop_
 _atom_site_type_symbol
 _atom_site_label
 _atom_site_symmetry_multiplicity
 _atom_site_fract_x
 _atom_site_fract_y
 _atom_site_fract_z
 _atom_site_occupancy
  Dy  Dy0  1  0.000000  0.055134  0.629130  1
  Dy  Dy1  1  0.000000  0.443508  0.127823  1
  Dy  Dy2  1  0.000000  0.557100  0.870080  1
  Y  Y3  1  0.000000  0.678994  0.586997  1
  Y  Y4  1  0.000000  0.823547  0.085447  1
  Y  Y5  1  0.000000  0.175679  0.913529  1
  Y  Y6  1  0.000000  0.942731  0.371934  1
  Pa  Pa7  1  0.000000  0.323559  0.414110  1
  Re  Re8  1  0.000000  0.635018  0.322079  1
  Re  Re9  1  0.000000  0.362204  0.675815  1
  Re  Re10  1  0.000000  0.141034  0.181745  1
  Re  Re11  1  0.000000  0.862006  0.821126  1
  B  B12  1  0.500000  0.552467  0.431942  1
  B  B13  1  0.500000  0.445458  0.566953  1
  B  B14  1  0.500000  0.053954  0.067776  1
  B  B15  1  0.500000  0.946983  0.933426  1
  B  B16  1  0.500000  0.748081  0.418614  1
  B  B17  1  0.500000  0.251512  0.580830  1
  B  B18  1  0.500000  0.248324  0.080921  1
  B  B19  1  0.500000  0.751544  0.918840  1
  B  B20  1  0.500000  0.791139  0.266240  1
  B  B21  1  0.500000  0.208409  0.734171  1
  B  B22  1  0.500000  0.291762  0.234492  1
  B  B23  1  0.500000  0.708403  0.765998  1
  B  B24  1  0.500000  0.631180  0.185344  1
  B  B25  1  0.500000  0.369335  0.813553  1
  B  B26  1  0.500000  0.132464  0.314789  1
  B  B27  1  0.500000  0.868608  0.686342  1
  B  B28  1  0.500000  0.983187  0.212410  1
  B  B29  1  0.500000  0.017105  0.788024  1
  B  B30  1  0.500000  0.482934  0.287596  1
  B  B31  1  0.500000  0.517216  0.712622  1
  B  B32  1  0.500000  0.602538  0.028105  1
  B  B33  1  0.500000  0.397514  0.970602  1
  B  B34  1  0.500000  0.106556  0.470563  1
  B  B35  1  0.500000  0.892807  0.530034  1
