# generated using pymatgen
data_CaNd5SmOsBr12
_symmetry_space_group_name_H-M   'P 1'
_cell_length_a   9.62763200
_cell_length_b   9.51728297
_cell_length_c   9.51546199
_cell_angle_alpha   106.90210954
_cell_angle_beta   107.17312952
_cell_angle_gamma   106.82365672
_symmetry_Int_Tables_number   1
_chemical_formula_structural   CaNd5SmOsBr12
_chemical_formula_sum   'Ca1 Nd5 Sm1 Os1 Br12'
_cell_volume   726.78016519
_cell_formula_units_Z   1
loop_
 _symmetry_equiv_pos_site_id
 _symmetry_equiv_pos_as_xyz
  1  'x, y, z'
loop_
 _atom_site_type_symbol
 _atom_site_label
 _atom_site_symmetry_multiplicity
 _atom_site_fract_x
 _atom_site_fract_y
 _atom_site_fract_z
 _atom_site_occupancy
  Ca  Ca0  1  0.499891  0.500119  0.500231  1
  Nd  Nd1  1  0.322267  0.107113  0.026769  1
  Nd  Nd2  1  0.025917  0.311417  0.103588  1
  Nd  Nd3  1  0.102557  0.026132  0.312334  1
  Nd  Nd4  1  0.895878  0.973405  0.687218  1
  Nd  Nd5  1  0.973662  0.688272  0.896396  1
  Sm  Sm6  1  0.680698  0.893565  0.972999  1
  Os  Os7  1  0.999592  0.999731  0.999660  1
  Br  Br8  1  0.683840  0.218548  0.068719  1
  Br  Br9  1  0.379060  0.456748  0.164306  1
  Br  Br10  1  0.069809  0.683276  0.222246  1
  Br  Br11  1  0.777391  0.930017  0.313424  1
  Br  Br12  1  0.455325  0.164018  0.380383  1
  Br  Br13  1  0.166268  0.381178  0.457459  1
  Br  Br14  1  0.833583  0.618741  0.542440  1
  Br  Br15  1  0.544803  0.836523  0.623088  1
  Br  Br16  1  0.220258  0.069278  0.682964  1
  Br  Br17  1  0.930177  0.316694  0.777731  1
  Br  Br18  1  0.620845  0.546757  0.837517  1
  Br  Br19  1  0.318182  0.778472  0.930529  1
