# generated using pymatgen
data_Zr6Ta3Mn2NbAl12Ir5
_symmetry_space_group_name_H-M   'P 1'
_cell_length_a   8.79592461
_cell_length_b   8.79592532
_cell_length_c   8.79569900
_cell_angle_alpha   60.00084738
_cell_angle_beta   60.00084471
_cell_angle_gamma   59.97408537
_symmetry_Int_Tables_number   1
_chemical_formula_structural   Zr6Ta3Mn2NbAl12Ir5
_chemical_formula_sum   'Zr6 Ta3 Mn2 Nb1 Al12 Ir5'
_cell_volume   481.10383146
_cell_formula_units_Z   1
loop_
 _symmetry_equiv_pos_site_id
 _symmetry_equiv_pos_as_xyz
  1  'x, y, z'
loop_
 _atom_site_type_symbol
 _atom_site_label
 _atom_site_symmetry_multiplicity
 _atom_site_fract_x
 _atom_site_fract_y
 _atom_site_fract_z
 _atom_site_occupancy
  Zr  Zr0  1  0.697385  0.697385  0.302589  1
  Zr  Zr1  1  0.306862  0.691930  0.310105  1
  Zr  Zr2  1  0.691930  0.306862  0.310105  1
  Zr  Zr3  1  0.307477  0.307477  0.692601  1
  Zr  Zr4  1  0.691462  0.307398  0.690992  1
  Zr  Zr5  1  0.307398  0.691462  0.690992  1
  Ta  Ta6  1  0.885503  0.885503  0.354866  1
  Ta  Ta7  1  0.883619  0.352644  0.881886  1
  Ta  Ta8  1  0.352644  0.883619  0.881886  1
  Mn  Mn9  1  0.001554  0.001554  0.998251  1
  Mn  Mn10  1  0.995277  0.995277  0.504306  1
  Nb  Nb11  1  0.885899  0.885899  0.873712  1
  Al  Al12  1  0.117446  0.117446  0.641867  1
  Al  Al13  1  0.117283  0.643715  0.119557  1
  Al  Al14  1  0.643715  0.117283  0.119557  1
  Al  Al15  1  0.116853  0.116853  0.123736  1
  Al  Al16  1  0.662228  0.662228  0.015431  1
  Al  Al17  1  0.668223  0.009971  0.661210  1
  Al  Al18  1  0.009971  0.668223  0.661210  1
  Al  Al19  1  0.661687  0.661687  0.660547  1
  Al  Al20  1  0.336349  0.336349  0.990750  1
  Al  Al21  1  0.329466  0.994655  0.338032  1
  Al  Al22  1  0.994655  0.329466  0.338032  1
  Al  Al23  1  0.336283  0.336283  0.336661  1
  Ir  Ir24  1  0.500616  0.998531  0.502594  1
  Ir  Ir25  1  0.998531  0.500616  0.502594  1
  Ir  Ir26  1  0.501891  0.501891  0.998248  1
  Ir  Ir27  1  0.998925  0.498870  0.998842  1
  Ir  Ir28  1  0.498870  0.998925  0.998842  1
