# generated using pymatgen
data_Sr4Mn(TcO4)3
_symmetry_space_group_name_H-M   'P 1'
_cell_length_a   5.68673081
_cell_length_b   5.68861551
_cell_length_c   9.83989302
_cell_angle_alpha   89.71725374
_cell_angle_beta   106.31237507
_cell_angle_gamma   59.68638543
_symmetry_Int_Tables_number   1
_chemical_formula_structural   Sr4Mn(TcO4)3
_chemical_formula_sum   'Sr4 Mn1 Tc3 O12'
_cell_volume   259.56608485
_cell_formula_units_Z   1
loop_
 _symmetry_equiv_pos_site_id
 _symmetry_equiv_pos_as_xyz
  1  'x, y, z'
loop_
 _atom_site_type_symbol
 _atom_site_label
 _atom_site_symmetry_multiplicity
 _atom_site_fract_x
 _atom_site_fract_y
 _atom_site_fract_z
 _atom_site_occupancy
  Sr  Sr0  1  0.740710  0.379675  0.361352  1
  Sr  Sr1  1  0.259129  0.620418  0.638389  1
  Sr  Sr2  1  0.758632  0.870604  0.887606  1
  Sr  Sr3  1  0.241459  0.129376  0.112487  1
  Mn  Mn4  1  0.500031  0.499865  0.000133  1
  Tc  Tc5  1  0.004538  0.747911  0.257014  1
  Tc  Tc6  1  0.499990  0.999973  0.499991  1
  Tc  Tc7  1  0.995520  0.252103  0.743003  1
  O  O8  1  0.252501  0.873980  0.378877  1
  O  O9  1  0.747736  0.125815  0.621263  1
  O  O10  1  0.236992  0.372032  0.865685  1
  O  O11  1  0.762548  0.628405  0.134143  1
  O  O12  1  0.747298  0.626917  0.620469  1
  O  O13  1  0.238188  0.890720  0.865524  1
  O  O14  1  0.762043  0.109500  0.134498  1
  O  O15  1  0.252658  0.372853  0.379549  1
  O  O16  1  0.751499  0.874071  0.379167  1
  O  O17  1  0.248450  0.125959  0.620906  1
  O  O18  1  0.755910  0.372672  0.865268  1
  O  O19  1  0.244168  0.627153  0.134674  1
