# generated using pymatgen
data_NdY7CdNi2Ag
_symmetry_space_group_name_H-M   'P 1'
_cell_length_a   9.58509025
_cell_length_b   9.58508947
_cell_length_c   9.57977700
_cell_angle_alpha   60.01833599
_cell_angle_beta   60.01833866
_cell_angle_gamma   60.01659528
_symmetry_Int_Tables_number   1
_chemical_formula_structural   NdY7CdNi2Ag
_chemical_formula_sum   'Nd2 Y14 Cd2 Ni4 Ag2'
_cell_volume   622.59777725
_cell_formula_units_Z   2
loop_
 _symmetry_equiv_pos_site_id
 _symmetry_equiv_pos_as_xyz
  1  'x, y, z'
loop_
 _atom_site_type_symbol
 _atom_site_label
 _atom_site_symmetry_multiplicity
 _atom_site_fract_x
 _atom_site_fract_y
 _atom_site_fract_z
 _atom_site_occupancy
  Nd  Nd0  1  0.598809  0.598809  0.600065  1
  Nd  Nd1  1  0.598809  0.598809  0.202317  1
  Y  Y2  1  0.601411  0.196565  0.601012  1
  Y  Y3  1  0.196565  0.601411  0.601012  1
  Y  Y4  1  0.062352  0.438841  0.438681  1
  Y  Y5  1  0.438841  0.062352  0.060126  1
  Y  Y6  1  0.438841  0.062352  0.438681  1
  Y  Y7  1  0.062352  0.438841  0.060126  1
  Y  Y8  1  0.438270  0.438270  0.061730  1
  Y  Y9  1  0.061399  0.061399  0.438601  1
  Y  Y10  1  0.183147  0.814241  0.814976  1
  Y  Y11  1  0.814241  0.183147  0.187635  1
  Y  Y12  1  0.814241  0.183147  0.814976  1
  Y  Y13  1  0.183147  0.814241  0.187635  1
  Y  Y14  1  0.814068  0.814068  0.185932  1
  Y  Y15  1  0.185805  0.185805  0.814195  1
  Cd  Cd16  1  0.833798  0.508422  0.828890  1
  Cd  Cd17  1  0.508422  0.833798  0.828890  1
  Ni  Ni18  1  0.391577  0.391577  0.394622  1
  Ni  Ni19  1  0.391577  0.391577  0.822224  1
  Ni  Ni20  1  0.389435  0.824290  0.393137  1
  Ni  Ni21  1  0.824290  0.389435  0.393137  1
  Ag  Ag22  1  0.834300  0.834300  0.829601  1
  Ag  Ag23  1  0.834300  0.834300  0.501798  1
