# generated using pymatgen
data_Y7Ho3(BiPb)3
_symmetry_space_group_name_H-M   'P 1'
_cell_length_a   9.12633600
_cell_length_b   9.12633616
_cell_length_c   6.49310100
_cell_angle_alpha   90.00000000
_cell_angle_beta   90.00000000
_cell_angle_gamma   119.99999943
_symmetry_Int_Tables_number   1
_chemical_formula_structural   Y7Ho3(BiPb)3
_chemical_formula_sum   'Y7 Ho3 Bi3 Pb3'
_cell_volume   468.35558979
_cell_formula_units_Z   1
loop_
 _symmetry_equiv_pos_site_id
 _symmetry_equiv_pos_as_xyz
  1  'x, y, z'
loop_
 _atom_site_type_symbol
 _atom_site_label
 _atom_site_symmetry_multiplicity
 _atom_site_fract_x
 _atom_site_fract_y
 _atom_site_fract_z
 _atom_site_occupancy
  Y  Y0  1  0.666667  0.333333  0.497384  1
  Y  Y1  1  0.761589  0.761599  0.750039  1
  Y  Y2  1  0.238401  0.999990  0.750039  1
  Y  Y3  1  0.000010  0.238411  0.750039  1
  Y  Y4  1  0.238874  0.238905  0.249952  1
  Y  Y5  1  0.761095  0.999969  0.249952  1
  Y  Y6  1  0.000031  0.761126  0.249952  1
  Ho  Ho7  1  0.666667  0.333333  0.002705  1
  Ho  Ho8  1  0.333333  0.666667  0.002788  1
  Ho  Ho9  1  0.333333  0.666667  0.497193  1
  Bi  Bi10  1  0.393562  0.393672  0.750145  1
  Bi  Bi11  1  0.606328  0.999890  0.750145  1
  Bi  Bi12  1  0.000110  0.606438  0.750145  1
  Pb  Pb13  1  0.606411  0.606583  0.249840  1
  Pb  Pb14  1  0.393417  0.999828  0.249840  1
  Pb  Pb15  1  0.000172  0.393589  0.249840  1
