# generated using pymatgen
data_Y6MnCo15(TcP6)2
_symmetry_space_group_name_H-M   'P 1'
_cell_length_a   3.72782500
_cell_length_b   10.54660400
_cell_length_c   12.19628500
_cell_angle_alpha   90.00000000
_cell_angle_beta   90.00000000
_cell_angle_gamma   90.00000000
_symmetry_Int_Tables_number   1
_chemical_formula_structural   Y6MnCo15(TcP6)2
_chemical_formula_sum   'Y6 Mn1 Co15 Tc2 P12'
_cell_volume   479.50784894
_cell_formula_units_Z   1
loop_
 _symmetry_equiv_pos_site_id
 _symmetry_equiv_pos_as_xyz
  1  'x, y, z'
loop_
 _atom_site_type_symbol
 _atom_site_label
 _atom_site_symmetry_multiplicity
 _atom_site_fract_x
 _atom_site_fract_y
 _atom_site_fract_z
 _atom_site_occupancy
  Y  Y0  1  0.000000  0.500000  0.523984  1
  Y  Y1  1  0.500000  0.000000  0.475764  1
  Y  Y2  1  0.500000  0.816791  0.204730  1
  Y  Y3  1  0.500000  0.183209  0.204730  1
  Y  Y4  1  0.000000  0.681210  0.795609  1
  Y  Y5  1  0.000000  0.318790  0.795609  1
  Mn  Mn6  1  0.000000  0.500000  0.986867  1
  Co  Co7  1  0.500000  0.500000  0.698971  1
  Co  Co8  1  0.000000  0.000000  0.298454  1
  Co  Co9  1  0.500000  0.000000  0.013372  1
  Co  Co10  1  0.500000  0.329010  0.990347  1
  Co  Co11  1  0.500000  0.670990  0.990347  1
  Co  Co12  1  0.000000  0.166388  0.009915  1
  Co  Co13  1  0.000000  0.833612  0.009915  1
  Co  Co14  1  0.500000  0.296087  0.431486  1
  Co  Co15  1  0.500000  0.703913  0.431486  1
  Co  Co16  1  0.000000  0.203558  0.569574  1
  Co  Co17  1  0.000000  0.796442  0.569574  1
  Co  Co18  1  0.500000  0.879706  0.708004  1
  Co  Co19  1  0.500000  0.120294  0.708004  1
  Co  Co20  1  0.000000  0.621197  0.292758  1
  Co  Co21  1  0.000000  0.378803  0.292758  1
  Tc  Tc22  1  0.500000  0.500000  0.155638  1
  Tc  Tc23  1  0.000000  0.000000  0.843898  1
  P  P24  1  0.500000  0.500000  0.881879  1
  P  P25  1  0.000000  0.000000  0.119342  1
  P  P26  1  0.500000  0.500000  0.346750  1
  P  P27  1  0.000000  0.000000  0.652505  1
  P  P28  1  0.500000  0.310435  0.616382  1
  P  P29  1  0.500000  0.689565  0.616382  1
  P  P30  1  0.000000  0.189092  0.383782  1
  P  P31  1  0.000000  0.810908  0.383782  1
  P  P32  1  0.500000  0.846723  0.893448  1
  P  P33  1  0.500000  0.153277  0.893448  1
  P  P34  1  0.000000  0.652763  0.105255  1
  P  P35  1  0.000000  0.347237  0.105255  1
