# generated using pymatgen
data_Tb4Er8InCo4Au
_symmetry_space_group_name_H-M   'P 1'
_cell_length_a   8.29988317
_cell_length_b   8.29988414
_cell_length_c   8.29988360
_cell_angle_alpha   110.89963642
_cell_angle_beta   110.60070812
_cell_angle_gamma   106.94267522
_symmetry_Int_Tables_number   1
_chemical_formula_structural   Tb4Er8InCo4Au
_chemical_formula_sum   'Tb4 Er8 In1 Co4 Au1'
_cell_volume   439.50082108
_cell_formula_units_Z   1
loop_
 _symmetry_equiv_pos_site_id
 _symmetry_equiv_pos_as_xyz
  1  'x, y, z'
loop_
 _atom_site_type_symbol
 _atom_site_label
 _atom_site_symmetry_multiplicity
 _atom_site_fract_x
 _atom_site_fract_y
 _atom_site_fract_z
 _atom_site_occupancy
  Tb  Tb0  1  0.187335  0.290125  0.477461  1
  Tb  Tb1  1  0.812665  0.709875  0.522539  1
  Tb  Tb2  1  0.187335  0.709875  0.897210  1
  Tb  Tb3  1  0.812665  0.290125  0.102790  1
  Er  Er4  1  0.316135  0.620646  0.304513  1
  Er  Er5  1  0.683865  0.379354  0.695487  1
  Er  Er6  1  0.316135  0.011622  0.695487  1
  Er  Er7  1  0.683865  0.988378  0.304513  1
  Er  Er8  1  0.425748  0.221605  0.204142  1
  Er  Er9  1  0.574252  0.778395  0.795858  1
  Er  Er10  1  0.017463  0.221605  0.795858  1
  Er  Er11  1  0.982537  0.778395  0.204142  1
  In  In12  1  0.500000  0.500000  0.000000  1
  Co  Co13  1  0.113170  0.613170  0.500000  1
  Co  Co14  1  0.886830  0.386830  0.500000  1
  Co  Co15  1  0.377671  0.000000  0.377671  1
  Co  Co16  1  0.622329  0.000000  0.622329  1
  Au  Au17  1  0.000000  0.000000  0.000000  1
