# generated using pymatgen
data_Mg3FeAs(PN2)6
_symmetry_space_group_name_H-M   'P 1'
_cell_length_a   7.26189932
_cell_length_b   7.26189841
_cell_length_c   7.26189971
_cell_angle_alpha   109.51056328
_cell_angle_beta   109.51056392
_cell_angle_gamma   109.51055277
_symmetry_Int_Tables_number   1
_chemical_formula_structural   Mg3FeAs(PN2)6
_chemical_formula_sum   'Mg3 Fe1 As1 P6 N12'
_cell_volume   294.37070108
_cell_formula_units_Z   1
loop_
 _symmetry_equiv_pos_site_id
 _symmetry_equiv_pos_as_xyz
  1  'x, y, z'
loop_
 _atom_site_type_symbol
 _atom_site_label
 _atom_site_symmetry_multiplicity
 _atom_site_fract_x
 _atom_site_fract_y
 _atom_site_fract_z
 _atom_site_occupancy
  Mg  Mg0  1  0.000196  0.651180  0.000196  1
  Mg  Mg1  1  0.651180  0.000196  0.000196  1
  Mg  Mg2  1  0.000196  0.000196  0.651180  1
  Fe  Fe3  1  0.349821  0.349821  0.349821  1
  As  As4  1  0.025778  0.025778  0.025778  1
  P  P5  1  0.497762  0.248699  0.748823  1
  P  P6  1  0.497762  0.748823  0.248699  1
  P  P7  1  0.748823  0.248699  0.497762  1
  P  P8  1  0.248699  0.497762  0.748823  1
  P  P9  1  0.748823  0.497762  0.248699  1
  P  P10  1  0.248699  0.748823  0.497762  1
  N  N11  1  0.998776  0.720954  0.435648  1
  N  N12  1  0.274513  0.709100  0.274513  1
  N  N13  1  0.288753  0.562314  0.562314  1
  N  N14  1  0.562314  0.562314  0.288753  1
  N  N15  1  0.562314  0.288753  0.562314  1
  N  N16  1  0.720954  0.998776  0.435648  1
  N  N17  1  0.435648  0.998776  0.720954  1
  N  N18  1  0.720954  0.435648  0.998776  1
  N  N19  1  0.274513  0.274513  0.709100  1
  N  N20  1  0.709100  0.274513  0.274513  1
  N  N21  1  0.998776  0.435648  0.720954  1
  N  N22  1  0.435648  0.720954  0.998776  1
