# generated using pymatgen
data_Tm15Lu5Pt12
_symmetry_space_group_name_H-M   'P 1'
_cell_length_a   10.84976820
_cell_length_b   10.85039516
_cell_length_c   6.36648000
_cell_angle_alpha   90.00510099
_cell_angle_beta   89.98908981
_cell_angle_gamma   89.99176863
_symmetry_Int_Tables_number   1
_chemical_formula_structural   Tm15Lu5Pt12
_chemical_formula_sum   'Tm15 Lu5 Pt12'
_cell_volume   749.48920065
_cell_formula_units_Z   1
loop_
 _symmetry_equiv_pos_site_id
 _symmetry_equiv_pos_as_xyz
  1  'x, y, z'
loop_
 _atom_site_type_symbol
 _atom_site_label
 _atom_site_symmetry_multiplicity
 _atom_site_fract_x
 _atom_site_fract_y
 _atom_site_fract_z
 _atom_site_occupancy
  Tm  Tm0  1  0.291488  0.912504  0.876995  1
  Tm  Tm1  1  0.708320  0.087685  0.876891  1
  Tm  Tm2  1  0.708439  0.912596  0.377287  1
  Tm  Tm3  1  0.587733  0.791630  0.877014  1
  Tm  Tm4  1  0.587116  0.208407  0.377249  1
  Tm  Tm5  1  0.412321  0.791860  0.377311  1
  Tm  Tm6  1  0.411979  0.208327  0.876887  1
  Tm  Tm7  1  0.208029  0.412526  0.621758  1
  Tm  Tm8  1  0.208232  0.587395  0.123937  1
  Tm  Tm9  1  0.791731  0.412522  0.123961  1
  Tm  Tm10  1  0.791979  0.587440  0.621995  1
  Tm  Tm11  1  0.912620  0.708364  0.123919  1
  Tm  Tm12  1  0.912541  0.291909  0.621997  1
  Tm  Tm13  1  0.087436  0.708087  0.621651  1
  Tm  Tm14  1  0.087775  0.291414  0.123996  1
  Lu  Lu15  1  0.292116  0.087397  0.377768  1
  Lu  Lu16  1  0.000385  0.000171  0.499749  1
  Lu  Lu17  1  0.000078  0.000131  0.999832  1
  Lu  Lu18  1  0.499933  0.499869  0.000072  1
  Lu  Lu19  1  0.499942  0.500061  0.499906  1
  Pt  Pt20  1  0.999868  0.499825  0.382256  1
  Pt  Pt21  1  0.846864  0.152542  0.250398  1
  Pt  Pt22  1  0.847525  0.847118  0.749741  1
  Pt  Pt23  1  0.153312  0.152644  0.748279  1
  Pt  Pt24  1  0.153526  0.848287  0.250620  1
  Pt  Pt25  1  0.652797  0.347555  0.749803  1
  Pt  Pt26  1  0.652425  0.653157  0.250285  1
  Pt  Pt27  1  0.347603  0.345856  0.250960  1
  Pt  Pt28  1  0.346842  0.652324  0.749801  1
  Pt  Pt29  1  0.499620  0.000186  0.117362  1
  Pt  Pt30  1  0.499305  0.000234  0.617112  1
  Pt  Pt31  1  0.000124  0.499976  0.883209  1
