# generated using pymatgen
data_Ba(SiPd)4
_symmetry_space_group_name_H-M   'P 1'
_cell_length_a   6.46649134
_cell_length_b   6.46649080
_cell_length_c   6.46649128
_cell_angle_alpha   97.33222839
_cell_angle_beta   97.33222402
_cell_angle_gamma   138.13806654
_symmetry_Int_Tables_number   1
_chemical_formula_structural   Ba(SiPd)4
_chemical_formula_sum   'Ba1 Si4 Pd4'
_cell_volume   168.54042174
_cell_formula_units_Z   1
loop_
 _symmetry_equiv_pos_site_id
 _symmetry_equiv_pos_as_xyz
  1  'x, y, z'
loop_
 _atom_site_type_symbol
 _atom_site_label
 _atom_site_symmetry_multiplicity
 _atom_site_fract_x
 _atom_site_fract_y
 _atom_site_fract_z
 _atom_site_occupancy
  Ba  Ba0  1  0.467872  0.467872  0.000000  1
  Si  Si1  1  0.369656  0.872621  0.273299  1
  Si  Si2  1  0.599322  0.096357  0.726701  1
  Si  Si3  1  0.096357  0.369656  0.497035  1
  Si  Si4  1  0.872621  0.599322  0.502965  1
  Pd  Pd5  1  0.147623  0.676698  0.854737  1
  Pd  Pd6  1  0.821961  0.292887  0.145263  1
  Pd  Pd7  1  0.292887  0.147623  0.470926  1
  Pd  Pd8  1  0.676698  0.821961  0.529074  1
