# generated using pymatgen
data_ErTm3Hf2(B2Ir5)2
_symmetry_space_group_name_H-M   'P 1'
_cell_length_a   9.66583748
_cell_length_b   9.66583748
_cell_length_c   3.24707800
_cell_angle_alpha   90.00000000
_cell_angle_beta   90.00000000
_cell_angle_gamma   90.03621799
_symmetry_Int_Tables_number   1
_chemical_formula_structural   ErTm3Hf2(B2Ir5)2
_chemical_formula_sum   'Er1 Tm3 Hf2 B4 Ir10'
_cell_volume   303.36928786
_cell_formula_units_Z   1
loop_
 _symmetry_equiv_pos_site_id
 _symmetry_equiv_pos_as_xyz
  1  'x, y, z'
loop_
 _atom_site_type_symbol
 _atom_site_label
 _atom_site_symmetry_multiplicity
 _atom_site_fract_x
 _atom_site_fract_y
 _atom_site_fract_z
 _atom_site_occupancy
  Er  Er0  1  0.675785  0.824215  0.000000  1
  Tm  Tm1  1  0.175870  0.675837  0.000000  1
  Tm  Tm2  1  0.324074  0.175926  0.000000  1
  Tm  Tm3  1  0.824163  0.324130  0.000000  1
  Hf  Hf4  1  0.499942  0.499888  0.000000  1
  Hf  Hf5  1  0.000112  0.000058  0.000000  1
  B  B6  1  0.380592  0.880786  0.000000  1
  B  B7  1  0.119258  0.380742  0.000000  1
  B  B8  1  0.880945  0.619055  0.000000  1
  B  B9  1  0.619214  0.119408  0.000000  1
  Ir  Ir10  1  0.224150  0.929747  0.500000  1
  Ir  Ir11  1  0.930213  0.775569  0.500000  1
  Ir  Ir12  1  0.429303  0.724137  0.500000  1
  Ir  Ir13  1  0.570253  0.275850  0.500000  1
  Ir  Ir14  1  0.724431  0.569787  0.500000  1
  Ir  Ir15  1  0.275764  0.429709  0.500000  1
  Ir  Ir16  1  0.070291  0.224236  0.500000  1
  Ir  Ir17  1  0.000103  0.499897  0.500000  1
  Ir  Ir18  1  0.499674  0.000326  0.500000  1
  Ir  Ir19  1  0.775863  0.070697  0.500000  1
