# generated using pymatgen
data_Ho8Er2Cd3Ni
_symmetry_space_group_name_H-M   'P 1'
_cell_length_a   9.53895611
_cell_length_b   9.53895572
_cell_length_c   9.76631400
_cell_angle_alpha   90.00194765
_cell_angle_beta   89.99805316
_cell_angle_gamma   119.98239350
_symmetry_Int_Tables_number   1
_chemical_formula_structural   Ho8Er2Cd3Ni
_chemical_formula_sum   'Ho16 Er4 Cd6 Ni2'
_cell_volume   769.73284957
_cell_formula_units_Z   2
loop_
 _symmetry_equiv_pos_site_id
 _symmetry_equiv_pos_as_xyz
  1  'x, y, z'
loop_
 _atom_site_type_symbol
 _atom_site_label
 _atom_site_symmetry_multiplicity
 _atom_site_fract_x
 _atom_site_fract_y
 _atom_site_fract_z
 _atom_site_occupancy
  Ho  Ho0  1  0.543493  0.087346  0.250084  1
  Ho  Ho1  1  0.912654  0.456507  0.250084  1
  Ho  Ho2  1  0.456333  0.543667  0.750032  1
  Ho  Ho3  1  0.456200  0.912606  0.749787  1
  Ho  Ho4  1  0.087394  0.543800  0.749787  1
  Ho  Ho5  1  0.210969  0.421806  0.437719  1
  Ho  Ho6  1  0.578194  0.789031  0.437719  1
  Ho  Ho7  1  0.789282  0.210718  0.562000  1
  Ho  Ho8  1  0.789266  0.578521  0.561855  1
  Ho  Ho9  1  0.421479  0.210734  0.561855  1
  Ho  Ho10  1  0.789204  0.210796  0.937952  1
  Ho  Ho11  1  0.789157  0.578484  0.938088  1
  Ho  Ho12  1  0.421516  0.210843  0.938088  1
  Ho  Ho13  1  0.210804  0.789196  0.062413  1
  Ho  Ho14  1  0.210942  0.421429  0.062167  1
  Ho  Ho15  1  0.578571  0.789058  0.062167  1
  Er  Er16  1  0.000088  0.999912  0.499969  1
  Er  Er17  1  0.000015  0.999985  0.999869  1
  Er  Er18  1  0.543664  0.456336  0.250091  1
  Er  Er19  1  0.210736  0.789264  0.437978  1
  Cd  Cd20  1  0.885778  0.114222  0.249995  1
  Cd  Cd21  1  0.885434  0.771213  0.250039  1
  Cd  Cd22  1  0.228787  0.114566  0.250039  1
  Cd  Cd23  1  0.114188  0.885812  0.749693  1
  Cd  Cd24  1  0.114267  0.228406  0.750018  1
  Cd  Cd25  1  0.771594  0.885733  0.750018  1
  Ni  Ni26  1  0.333287  0.666713  0.250487  1
  Ni  Ni27  1  0.666701  0.333299  0.750005  1
