# generated using pymatgen
data_Ho12GaSi4Hg
_symmetry_space_group_name_H-M   'P 1'
_cell_length_a   8.40403693
_cell_length_b   8.40403583
_cell_length_c   8.40403686
_cell_angle_alpha   111.03894988
_cell_angle_beta   111.52832052
_cell_angle_gamma   105.90459932
_symmetry_Int_Tables_number   1
_chemical_formula_structural   Ho12GaSi4Hg
_chemical_formula_sum   'Ho12 Ga1 Si4 Hg1'
_cell_volume   455.59566209
_cell_formula_units_Z   1
loop_
 _symmetry_equiv_pos_site_id
 _symmetry_equiv_pos_as_xyz
  1  'x, y, z'
loop_
 _atom_site_type_symbol
 _atom_site_label
 _atom_site_symmetry_multiplicity
 _atom_site_fract_x
 _atom_site_fract_y
 _atom_site_fract_z
 _atom_site_occupancy
  Ho  Ho0  1  0.951960  0.256296  0.695664  1
  Ho  Ho1  1  0.048040  0.743704  0.304336  1
  Ho  Ho2  1  0.677029  0.878163  0.201133  1
  Ho  Ho3  1  0.322971  0.524104  0.201133  1
  Ho  Ho4  1  0.322971  0.121837  0.798867  1
  Ho  Ho5  1  0.677029  0.475896  0.798867  1
  Ho  Ho6  1  0.560633  0.256296  0.304336  1
  Ho  Ho7  1  0.439367  0.743704  0.695664  1
  Ho  Ho8  1  0.178373  0.768787  0.947159  1
  Ho  Ho9  1  0.821627  0.768787  0.590415  1
  Ho  Ho10  1  0.178373  0.231213  0.409585  1
  Ho  Ho11  1  0.821627  0.231213  0.052841  1
  Ga  Ga12  1  0.000000  0.500000  0.500000  1
  Si  Si13  1  0.117409  0.117409  0.000000  1
  Si  Si14  1  0.882591  0.882591  0.000000  1
  Si  Si15  1  0.637937  0.500000  0.137937  1
  Si  Si16  1  0.362063  0.500000  0.862063  1
  Hg  Hg17  1  0.500000  0.000000  0.500000  1
