# generated using pymatgen
data_Ho8Er4InCo4Os
_symmetry_space_group_name_H-M   'P 1'
_cell_length_a   8.24759341
_cell_length_b   8.24759259
_cell_length_c   8.24759359
_cell_angle_alpha   111.44281574
_cell_angle_beta   110.64890729
_cell_angle_gamma   106.36688939
_symmetry_Int_Tables_number   1
_chemical_formula_structural   Ho8Er4InCo4Os
_chemical_formula_sum   'Ho8 Er4 In1 Co4 Os1'
_cell_volume   430.91050962
_cell_formula_units_Z   1
loop_
 _symmetry_equiv_pos_site_id
 _symmetry_equiv_pos_as_xyz
  1  'x, y, z'
loop_
 _atom_site_type_symbol
 _atom_site_label
 _atom_site_symmetry_multiplicity
 _atom_site_fract_x
 _atom_site_fract_y
 _atom_site_fract_z
 _atom_site_occupancy
  Ho  Ho0  1  0.181846  0.279404  0.461249  1
  Ho  Ho1  1  0.818154  0.720596  0.538751  1
  Ho  Ho2  1  0.181846  0.720596  0.902441  1
  Ho  Ho3  1  0.818154  0.279404  0.097559  1
  Ho  Ho4  1  0.314349  0.618929  0.304580  1
  Ho  Ho5  1  0.685651  0.381071  0.695420  1
  Ho  Ho6  1  0.314349  0.009770  0.695420  1
  Ho  Ho7  1  0.685651  0.990230  0.304580  1
  Er  Er8  1  0.415721  0.220834  0.194886  1
  Er  Er9  1  0.584279  0.779166  0.805114  1
  Er  Er10  1  0.025948  0.220834  0.805114  1
  Er  Er11  1  0.974052  0.779166  0.194886  1
  In  In12  1  0.500000  0.500000  0.000000  1
  Co  Co13  1  0.111618  0.611618  0.500000  1
  Co  Co14  1  0.888382  0.388382  0.500000  1
  Co  Co15  1  0.376711  0.000000  0.376711  1
  Co  Co16  1  0.623289  0.000000  0.623289  1
  Os  Os17  1  0.000000  0.000000  0.000000  1
