# generated using pymatgen
data_NpPa3O8
_symmetry_space_group_name_H-M   'P 1'
_cell_length_a   6.69452426
_cell_length_b   6.69452357
_cell_length_c   6.69452320
_cell_angle_alpha   131.80243676
_cell_angle_beta   131.80243781
_cell_angle_gamma   70.54124429
_symmetry_Int_Tables_number   1
_chemical_formula_structural   NpPa3O8
_chemical_formula_sum   'Np1 Pa3 O8'
_cell_volume   163.35117172
_cell_formula_units_Z   1
loop_
 _symmetry_equiv_pos_site_id
 _symmetry_equiv_pos_as_xyz
  1  'x, y, z'
loop_
 _atom_site_type_symbol
 _atom_site_label
 _atom_site_symmetry_multiplicity
 _atom_site_fract_x
 _atom_site_fract_y
 _atom_site_fract_z
 _atom_site_occupancy
  Np  Np0  1  0.000000  0.000000  0.000000  1
  Pa  Pa1  1  0.250000  0.750000  0.500000  1
  Pa  Pa2  1  0.500000  0.500000  0.000000  1
  Pa  Pa3  1  0.750000  0.250000  0.500000  1
  O  O4  1  0.617903  0.617903  0.490440  1
  O  O5  1  0.872537  0.382097  0.000000  1
  O  O6  1  0.127463  0.127463  0.509560  1
  O  O7  1  0.382097  0.872537  0.000000  1
  O  O8  1  0.382097  0.382097  0.509560  1
  O  O9  1  0.617903  0.127463  0.000000  1
  O  O10  1  0.872537  0.872537  0.490440  1
  O  O11  1  0.127463  0.617903  0.000000  1
