# generated using pymatgen
data_Nd2ErTm7Sb6
_symmetry_space_group_name_H-M   'P 1'
_cell_length_a   8.08529000
_cell_length_b   9.21214400
_cell_length_c   11.78792300
_cell_angle_alpha   90.00000000
_cell_angle_beta   90.00000000
_cell_angle_gamma   90.00000000
_symmetry_Int_Tables_number   1
_chemical_formula_structural   Nd2ErTm7Sb6
_chemical_formula_sum   'Nd4 Er2 Tm14 Sb12'
_cell_volume   877.99816854
_cell_formula_units_Z   2
loop_
 _symmetry_equiv_pos_site_id
 _symmetry_equiv_pos_as_xyz
  1  'x, y, z'
loop_
 _atom_site_type_symbol
 _atom_site_label
 _atom_site_symmetry_multiplicity
 _atom_site_fract_x
 _atom_site_fract_y
 _atom_site_fract_z
 _atom_site_occupancy
  Nd  Nd0  1  0.170536  0.750000  0.222812  1
  Nd  Nd1  1  0.329464  0.750000  0.722812  1
  Nd  Nd2  1  0.829378  0.250000  0.776905  1
  Nd  Nd3  1  0.670622  0.250000  0.276905  1
  Er  Er4  1  0.334399  0.250000  0.711967  1
  Er  Er5  1  0.165601  0.250000  0.211967  1
  Tm  Tm6  1  0.811408  0.561492  0.063816  1
  Tm  Tm7  1  0.688592  0.938508  0.563816  1
  Tm  Tm8  1  0.188465  0.061404  0.936335  1
  Tm  Tm9  1  0.311535  0.438596  0.436335  1
  Tm  Tm10  1  0.188465  0.438596  0.936335  1
  Tm  Tm11  1  0.311535  0.061404  0.436335  1
  Tm  Tm12  1  0.811408  0.938508  0.063816  1
  Tm  Tm13  1  0.688592  0.561492  0.563816  1
  Tm  Tm14  1  0.475145  0.750000  0.002632  1
  Tm  Tm15  1  0.024855  0.750000  0.502632  1
  Tm  Tm16  1  0.524895  0.250000  0.997488  1
  Tm  Tm17  1  0.975105  0.250000  0.497488  1
  Tm  Tm18  1  0.666360  0.750000  0.288243  1
  Tm  Tm19  1  0.833640  0.750000  0.788243  1
  Sb  Sb20  1  0.404739  0.750000  0.463719  1
  Sb  Sb21  1  0.095261  0.750000  0.963719  1
  Sb  Sb22  1  0.595807  0.250000  0.535772  1
  Sb  Sb23  1  0.904193  0.250000  0.035772  1
  Sb  Sb24  1  0.935837  0.507062  0.329132  1
  Sb  Sb25  1  0.564163  0.992938  0.829132  1
  Sb  Sb26  1  0.063648  0.006598  0.670947  1
  Sb  Sb27  1  0.436352  0.493402  0.170947  1
  Sb  Sb28  1  0.063648  0.493402  0.670947  1
  Sb  Sb29  1  0.436352  0.006598  0.170947  1
  Sb  Sb30  1  0.935837  0.992938  0.329132  1
  Sb  Sb31  1  0.564163  0.507062  0.829132  1
