# generated using pymatgen
data_Dy(Al3Pt)3
_symmetry_space_group_name_H-M   'P 1'
_cell_length_a   10.38091226
_cell_length_b   10.38091249
_cell_length_c   10.38091323
_cell_angle_alpha   42.45563038
_cell_angle_beta   42.45562863
_cell_angle_gamma   42.45562606
_symmetry_Int_Tables_number   1
_chemical_formula_structural   Dy(Al3Pt)3
_chemical_formula_sum   'Dy2 Al18 Pt6'
_cell_volume   461.50782746
_cell_formula_units_Z   2
loop_
 _symmetry_equiv_pos_site_id
 _symmetry_equiv_pos_as_xyz
  1  'x, y, z'
loop_
 _atom_site_type_symbol
 _atom_site_label
 _atom_site_symmetry_multiplicity
 _atom_site_fract_x
 _atom_site_fract_y
 _atom_site_fract_z
 _atom_site_occupancy
  Dy  Dy0  1  0.166875  0.166875  0.166875  1
  Dy  Dy1  1  0.833125  0.833125  0.833125  1
  Al  Al2  1  0.107706  0.435974  0.764657  1
  Al  Al3  1  0.435974  0.764657  0.107706  1
  Al  Al4  1  0.564026  0.892294  0.235343  1
  Al  Al5  1  0.949480  0.949480  0.949480  1
  Al  Al6  1  0.050520  0.050520  0.050520  1
  Al  Al7  1  0.295835  0.704165  0.500000  1
  Al  Al8  1  0.892294  0.235343  0.564026  1
  Al  Al9  1  0.385257  0.385257  0.385257  1
  Al  Al10  1  0.500000  0.295835  0.704165  1
  Al  Al11  1  0.235343  0.564026  0.892294  1
  Al  Al12  1  0.716747  0.716747  0.716747  1
  Al  Al13  1  0.614743  0.614743  0.614743  1
  Al  Al14  1  0.334032  0.000000  0.665968  1
  Al  Al15  1  0.704165  0.500000  0.295835  1
  Al  Al16  1  0.665968  0.334032  0.000000  1
  Al  Al17  1  0.283253  0.283253  0.283253  1
  Al  Al18  1  0.000000  0.665968  0.334032  1
  Al  Al19  1  0.764657  0.107706  0.435974  1
  Pt  Pt20  1  0.418821  0.077045  0.760460  1
  Pt  Pt21  1  0.581179  0.239540  0.922955  1
  Pt  Pt22  1  0.077045  0.760460  0.418821  1
  Pt  Pt23  1  0.760460  0.418821  0.077045  1
  Pt  Pt24  1  0.922955  0.581179  0.239540  1
  Pt  Pt25  1  0.239540  0.922955  0.581179  1
