# generated using pymatgen
data_RbSb5O13
_symmetry_space_group_name_H-M   'P 1'
_cell_length_a   17.26901200
_cell_length_b   5.64654103
_cell_length_c   5.67374694
_cell_angle_alpha   72.59024839
_cell_angle_beta   90.00000000
_cell_angle_gamma   90.00000000
_symmetry_Int_Tables_number   1
_chemical_formula_structural   RbSb5O13
_chemical_formula_sum   'Rb2 Sb10 O26'
_cell_volume   527.90349545
_cell_formula_units_Z   2
loop_
 _symmetry_equiv_pos_site_id
 _symmetry_equiv_pos_as_xyz
  1  'x, y, z'
loop_
 _atom_site_type_symbol
 _atom_site_label
 _atom_site_symmetry_multiplicity
 _atom_site_fract_x
 _atom_site_fract_y
 _atom_site_fract_z
 _atom_site_occupancy
  Rb  Rb0  1  0.750000  0.107013  0.147997  1
  Rb  Rb1  1  0.250000  0.892987  0.852003  1
  Sb  Sb2  1  0.576240  0.386459  0.386586  1
  Sb  Sb3  1  0.423760  0.613541  0.613414  1
  Sb  Sb4  1  0.923760  0.386459  0.386586  1
  Sb  Sb5  1  0.076240  0.613541  0.613414  1
  Sb  Sb6  1  0.500000  0.000000  0.000000  1
  Sb  Sb7  1  0.000000  0.000000  0.000000  1
  Sb  Sb8  1  0.362359  0.234047  0.229131  1
  Sb  Sb9  1  0.637641  0.765953  0.770869  1
  Sb  Sb10  1  0.137641  0.234047  0.229131  1
  Sb  Sb11  1  0.862359  0.765953  0.770869  1
  O  O12  1  0.750000  0.812584  0.805850  1
  O  O13  1  0.250000  0.187416  0.194150  1
  O  O14  1  0.351198  0.445474  0.445895  1
  O  O15  1  0.648802  0.554526  0.554105  1
  O  O16  1  0.148802  0.445474  0.445895  1
  O  O17  1  0.851198  0.554526  0.554105  1
  O  O18  1  0.611669  0.982070  0.985140  1
  O  O19  1  0.388331  0.017930  0.014860  1
  O  O20  1  0.888331  0.982070  0.985140  1
  O  O21  1  0.111669  0.017930  0.014860  1
  O  O22  1  0.500003  0.689556  0.311134  1
  O  O23  1  0.999997  0.689556  0.311134  1
  O  O24  1  0.499997  0.310444  0.688866  1
  O  O25  1  0.000003  0.310444  0.688866  1
  O  O26  1  0.630194  0.068748  0.480942  1
  O  O27  1  0.366991  0.524689  0.926316  1
  O  O28  1  0.869806  0.068748  0.480942  1
  O  O29  1  0.133009  0.524689  0.926316  1
  O  O30  1  0.369806  0.931252  0.519058  1
  O  O31  1  0.633009  0.475311  0.073684  1
  O  O32  1  0.130194  0.931252  0.519058  1
  O  O33  1  0.866991  0.475311  0.073684  1
  O  O34  1  0.509499  0.771962  0.778129  1
  O  O35  1  0.490501  0.228038  0.221871  1
  O  O36  1  0.990501  0.771962  0.778129  1
  O  O37  1  0.009499  0.228038  0.221871  1
