# generated using pymatgen
data_Tm6Ti7Al9Os7
_symmetry_space_group_name_H-M   'P 1'
_cell_length_a   9.04330247
_cell_length_b   9.04330316
_cell_length_c   9.04330297
_cell_angle_alpha   59.47226335
_cell_angle_beta   59.47226019
_cell_angle_gamma   59.47226099
_symmetry_Int_Tables_number   1
_chemical_formula_structural   Tm6Ti7Al9Os7
_chemical_formula_sum   'Tm6 Ti7 Al9 Os7'
_cell_volume   516.67961215
_cell_formula_units_Z   1
loop_
 _symmetry_equiv_pos_site_id
 _symmetry_equiv_pos_as_xyz
  1  'x, y, z'
loop_
 _atom_site_type_symbol
 _atom_site_label
 _atom_site_symmetry_multiplicity
 _atom_site_fract_x
 _atom_site_fract_y
 _atom_site_fract_z
 _atom_site_occupancy
  Tm  Tm0  1  0.705533  0.705533  0.293158  1
  Tm  Tm1  1  0.294035  0.710387  0.294035  1
  Tm  Tm2  1  0.710387  0.294035  0.294035  1
  Tm  Tm3  1  0.294035  0.294035  0.710387  1
  Tm  Tm4  1  0.705533  0.293158  0.705533  1
  Tm  Tm5  1  0.293158  0.705533  0.705533  1
  Ti  Ti6  1  0.880048  0.880048  0.360436  1
  Ti  Ti7  1  0.880048  0.360436  0.880048  1
  Ti  Ti8  1  0.360436  0.880048  0.880048  1
  Ti  Ti9  1  0.877471  0.877471  0.877471  1
  Ti  Ti10  1  0.122531  0.122531  0.634603  1
  Ti  Ti11  1  0.122531  0.634603  0.122531  1
  Ti  Ti12  1  0.634603  0.122531  0.122531  1
  Al  Al13  1  0.117732  0.117732  0.117732  1
  Al  Al14  1  0.668798  0.668798  0.992287  1
  Al  Al15  1  0.668798  0.992287  0.668798  1
  Al  Al16  1  0.992287  0.668798  0.668798  1
  Al  Al17  1  0.669344  0.669344  0.669344  1
  Al  Al18  1  0.329649  0.329649  0.008844  1
  Al  Al19  1  0.329649  0.008844  0.329649  1
  Al  Al20  1  0.008844  0.329649  0.329649  1
  Al  Al21  1  0.332920  0.332920  0.332920  1
  Os  Os22  1  0.996625  0.996625  0.996625  1
  Os  Os23  1  0.000467  0.000467  0.503936  1
  Os  Os24  1  0.500570  0.998995  0.500570  1
  Os  Os25  1  0.998995  0.500570  0.500570  1
  Os  Os26  1  0.500570  0.500570  0.998995  1
  Os  Os27  1  0.000467  0.503936  0.000467  1
  Os  Os28  1  0.503936  0.000467  0.000467  1
