# generated using pymatgen
data_Y3LuTh6(Si3C)2
_symmetry_space_group_name_H-M   'P 1'
_cell_length_a   8.74160202
_cell_length_b   8.74171715
_cell_length_c   6.36515803
_cell_angle_alpha   89.99503052
_cell_angle_beta   89.99365540
_cell_angle_gamma   120.00325227
_symmetry_Int_Tables_number   1
_chemical_formula_structural   Y3LuTh6(Si3C)2
_chemical_formula_sum   'Y3 Lu1 Th6 Si6 C2'
_cell_volume   421.22424532
_cell_formula_units_Z   1
loop_
 _symmetry_equiv_pos_site_id
 _symmetry_equiv_pos_as_xyz
  1  'x, y, z'
loop_
 _atom_site_type_symbol
 _atom_site_label
 _atom_site_symmetry_multiplicity
 _atom_site_fract_x
 _atom_site_fract_y
 _atom_site_fract_z
 _atom_site_occupancy
  Y  Y0  1  0.666890  0.333552  0.500137  1
  Y  Y1  1  0.333080  0.666422  0.499882  1
  Y  Y2  1  0.333459  0.666819  0.999907  1
  Lu  Lu3  1  0.666693  0.333236  0.000173  1
  Th  Th4  1  0.766303  0.766394  0.250081  1
  Th  Th5  1  0.233574  0.999949  0.249725  1
  Th  Th6  1  0.000109  0.233692  0.249430  1
  Th  Th7  1  0.233609  0.233750  0.749879  1
  Th  Th8  1  0.766271  0.999833  0.750322  1
  Th  Th9  1  0.000080  0.766429  0.750415  1
  Si  Si10  1  0.402970  0.400805  0.247137  1
  Si  Si11  1  0.599191  0.002142  0.247203  1
  Si  Si12  1  0.997845  0.597036  0.247084  1
  Si  Si13  1  0.599173  0.597015  0.752874  1
  Si  Si14  1  0.402940  0.002159  0.752818  1
  Si  Si15  1  0.997835  0.400777  0.752939  1
  C  C16  1  0.999990  0.999996  0.500005  1
  C  C17  1  0.999991  0.999992  0.999989  1
