# generated using pymatgen
data_Tb2YTm(Ga3Rh)6
_symmetry_space_group_name_H-M   'P 1'
_cell_length_a   7.57735807
_cell_length_b   7.58116896
_cell_length_c   9.53287800
_cell_angle_alpha   90.00000000
_cell_angle_beta   90.00000000
_cell_angle_gamma   119.83054974
_symmetry_Int_Tables_number   1
_chemical_formula_structural   Tb2YTm(Ga3Rh)6
_chemical_formula_sum   'Tb2 Y1 Tm1 Ga18 Rh6'
_cell_volume   475.05913992
_cell_formula_units_Z   1
loop_
 _symmetry_equiv_pos_site_id
 _symmetry_equiv_pos_as_xyz
  1  'x, y, z'
loop_
 _atom_site_type_symbol
 _atom_site_label
 _atom_site_symmetry_multiplicity
 _atom_site_fract_x
 _atom_site_fract_y
 _atom_site_fract_z
 _atom_site_occupancy
  Tb  Tb0  1  0.003146  0.332072  0.750000  1
  Tb  Tb1  1  0.667865  0.996871  0.250000  1
  Y  Y2  1  0.996910  0.667942  0.250000  1
  Tm  Tm3  1  0.332137  0.003109  0.750000  1
  Ga  Ga4  1  0.125084  0.125056  0.250000  1
  Ga  Ga5  1  0.875576  0.875111  0.750000  1
  Ga  Ga6  1  0.000509  0.334291  0.079581  1
  Ga  Ga7  1  0.000309  0.666503  0.919936  1
  Ga  Ga8  1  0.000309  0.666503  0.580064  1
  Ga  Ga9  1  0.334234  0.000374  0.420967  1
  Ga  Ga10  1  0.000509  0.334291  0.420419  1
  Ga  Ga11  1  0.664780  0.999507  0.580098  1
  Ga  Ga12  1  0.664780  0.999507  0.919902  1
  Ga  Ga13  1  0.334234  0.000374  0.079033  1
  Ga  Ga14  1  0.333086  0.332379  0.564409  1
  Ga  Ga15  1  0.667003  0.666974  0.436345  1
  Ga  Ga16  1  0.667003  0.666974  0.063655  1
  Ga  Ga17  1  0.333086  0.332379  0.935591  1
  Ga  Ga18  1  0.338506  0.547577  0.250000  1
  Ga  Ga19  1  0.660971  0.451854  0.750000  1
  Ga  Ga20  1  0.547421  0.338353  0.250000  1
  Ga  Ga21  1  0.452434  0.661974  0.750000  1
  Rh  Rh22  1  0.671355  0.328380  0.999788  1
  Rh  Rh23  1  0.328404  0.671472  0.999788  1
  Rh  Rh24  1  0.328404  0.671472  0.500212  1
  Rh  Rh25  1  0.671355  0.328380  0.500212  1
  Rh  Rh26  1  0.000295  0.000162  0.999681  1
  Rh  Rh27  1  0.000295  0.000162  0.500319  1
