# generated using pymatgen
data_Na3Sm2P12Ru5Rh14
_symmetry_space_group_name_H-M   'P 1'
_cell_length_a   12.69231100
_cell_length_b   12.65755170
_cell_length_c   3.95415400
_cell_angle_alpha   90.00000000
_cell_angle_beta   90.00000000
_cell_angle_gamma   120.07210564
_symmetry_Int_Tables_number   1
_chemical_formula_structural   Na3Sm2P12Ru5Rh14
_chemical_formula_sum   'Na3 Sm2 P12 Ru5 Rh14'
_cell_volume   549.74161748
_cell_formula_units_Z   1
loop_
 _symmetry_equiv_pos_site_id
 _symmetry_equiv_pos_as_xyz
  1  'x, y, z'
loop_
 _atom_site_type_symbol
 _atom_site_label
 _atom_site_symmetry_multiplicity
 _atom_site_fract_x
 _atom_site_fract_y
 _atom_site_fract_z
 _atom_site_occupancy
  Na  Na0  1  0.665408  0.331986  0.000000  1
  Na  Na1  1  0.334602  0.668317  0.000000  1
  Na  Na2  1  0.999596  0.813547  0.500000  1
  Sm  Sm3  1  0.817525  0.000166  0.500000  1
  Sm  Sm4  1  0.180096  0.181405  0.500000  1
  P  P5  1  0.629240  0.998159  0.000000  1
  P  P6  1  0.369191  0.369476  0.000000  1
  P  P7  1  0.000536  0.631420  0.000000  1
  P  P8  1  0.689508  0.518439  0.500000  1
  P  P9  1  0.827294  0.308188  0.500000  1
  P  P10  1  0.315266  0.832652  0.500000  1
  P  P11  1  0.519871  0.690463  0.500000  1
  P  P12  1  0.181539  0.997205  0.000000  1
  P  P13  1  0.817143  0.814359  0.000000  1
  P  P14  1  0.995769  0.184398  0.000000  1
  P  P15  1  0.479457  0.167295  0.500000  1
  P  P16  1  0.171059  0.484287  0.500000  1
  Ru  Ru17  1  0.515397  0.874648  0.500000  1
  Ru  Ru18  1  0.714077  0.713439  0.500000  1
  Ru  Ru19  1  0.001185  0.290052  0.500000  1
  Ru  Ru20  1  0.816640  0.196450  0.000000  1
  Ru  Ru21  1  0.284883  0.000126  0.500000  1
  Rh  Rh22  1  0.623117  0.803554  0.000000  1
  Rh  Rh23  1  0.183457  0.378382  0.000000  1
  Rh  Rh24  1  0.376372  0.182295  0.000000  1
  Rh  Rh25  1  0.195057  0.816011  0.000000  1
  Rh  Rh26  1  0.805163  0.619576  0.000000  1
  Rh  Rh27  1  0.873263  0.510555  0.500000  1
  Rh  Rh28  1  0.488319  0.359710  0.500000  1
  Rh  Rh29  1  0.637127  0.128095  0.500000  1
  Rh  Rh30  1  0.128416  0.641103  0.500000  1
  Rh  Rh31  1  0.360429  0.488737  0.500000  1
  Rh  Rh32  1  0.999620  0.001812  0.000000  1
  Rh  Rh33  1  0.450839  0.002655  0.000000  1
  Rh  Rh34  1  0.549121  0.548546  0.000000  1
  Rh  Rh35  1  0.004421  0.452489  0.000000  1
