# generated using pymatgen
data_Ho4AlTc6Ru
_symmetry_space_group_name_H-M   'P 1'
_cell_length_a   5.27392900
_cell_length_b   5.27392746
_cell_length_c   9.09229400
_cell_angle_alpha   90.00000000
_cell_angle_beta   90.00000000
_cell_angle_gamma   120.00000340
_symmetry_Int_Tables_number   1
_chemical_formula_structural   Ho4AlTc6Ru
_chemical_formula_sum   'Ho4 Al1 Tc6 Ru1'
_cell_volume   219.01432309
_cell_formula_units_Z   1
loop_
 _symmetry_equiv_pos_site_id
 _symmetry_equiv_pos_as_xyz
  1  'x, y, z'
loop_
 _atom_site_type_symbol
 _atom_site_label
 _atom_site_symmetry_multiplicity
 _atom_site_fract_x
 _atom_site_fract_y
 _atom_site_fract_z
 _atom_site_occupancy
  Ho  Ho0  1  0.333333  0.666667  0.431061  1
  Ho  Ho1  1  0.666667  0.333333  0.568939  1
  Ho  Ho2  1  0.666667  0.333333  0.935827  1
  Ho  Ho3  1  0.333333  0.666667  0.064173  1
  Al  Al4  1  0.000000  0.000000  0.500000  1
  Tc  Tc5  1  0.829486  0.170514  0.251624  1
  Tc  Tc6  1  0.829486  0.658973  0.251624  1
  Tc  Tc7  1  0.341027  0.170514  0.251624  1
  Tc  Tc8  1  0.170514  0.829486  0.748376  1
  Tc  Tc9  1  0.170514  0.341027  0.748376  1
  Tc  Tc10  1  0.658973  0.829486  0.748376  1
  Ru  Ru11  1  0.000000  0.000000  0.000000  1
