# generated using pymatgen
data_Tb5Ho2Co6Sn23
_symmetry_space_group_name_H-M   'P 1'
_cell_length_a   9.71893932
_cell_length_b   9.71893862
_cell_length_c   9.98476109
_cell_angle_alpha   89.98659733
_cell_angle_beta   90.01340074
_cell_angle_gamma   120.02622223
_symmetry_Int_Tables_number   1
_chemical_formula_structural   Tb5Ho2Co6Sn23
_chemical_formula_sum   'Tb5 Ho2 Co6 Sn23'
_cell_volume   816.56580350
_cell_formula_units_Z   1
loop_
 _symmetry_equiv_pos_site_id
 _symmetry_equiv_pos_as_xyz
  1  'x, y, z'
loop_
 _atom_site_type_symbol
 _atom_site_label
 _atom_site_symmetry_multiplicity
 _atom_site_fract_x
 _atom_site_fract_y
 _atom_site_fract_z
 _atom_site_occupancy
  Tb  Tb0  1  0.000000  0.000000  0.000000  1
  Tb  Tb1  1  0.478236  0.956703  0.305898  1
  Tb  Tb2  1  0.521764  0.043297  0.694102  1
  Tb  Tb3  1  0.043297  0.521764  0.305898  1
  Tb  Tb4  1  0.956703  0.478236  0.694102  1
  Ho  Ho5  1  0.478692  0.521308  0.305730  1
  Ho  Ho6  1  0.521308  0.478692  0.694270  1
  Co  Co7  1  0.832786  0.167214  0.196787  1
  Co  Co8  1  0.167214  0.832786  0.803213  1
  Co  Co9  1  0.831957  0.664873  0.197010  1
  Co  Co10  1  0.168043  0.335127  0.802990  1
  Co  Co11  1  0.335127  0.168043  0.197010  1
  Co  Co12  1  0.664873  0.831957  0.802990  1
  Sn  Sn13  1  0.345918  0.000117  0.000086  1
  Sn  Sn14  1  0.654082  0.999883  0.999914  1
  Sn  Sn15  1  0.000117  0.345918  0.999914  1
  Sn  Sn16  1  0.999883  0.654082  0.000086  1
  Sn  Sn17  1  0.654145  0.654145  0.000000  1
  Sn  Sn18  1  0.345855  0.345855  0.000000  1
  Sn  Sn19  1  0.333454  0.666546  0.817523  1
  Sn  Sn20  1  0.666546  0.333454  0.182477  1
  Sn  Sn21  1  0.000000  0.000000  0.500000  1
  Sn  Sn22  1  0.781233  0.218767  0.451652  1
  Sn  Sn23  1  0.218767  0.781233  0.548348  1
  Sn  Sn24  1  0.780238  0.562318  0.451677  1
  Sn  Sn25  1  0.219762  0.437682  0.548323  1
  Sn  Sn26  1  0.437682  0.219762  0.451677  1
  Sn  Sn27  1  0.562318  0.780238  0.548323  1
  Sn  Sn28  1  0.334053  0.665947  0.116385  1
  Sn  Sn29  1  0.665947  0.334053  0.883615  1
  Sn  Sn30  1  0.117680  0.882320  0.274833  1
  Sn  Sn31  1  0.882320  0.117680  0.725167  1
  Sn  Sn32  1  0.118641  0.236500  0.274959  1
  Sn  Sn33  1  0.881359  0.763500  0.725041  1
  Sn  Sn34  1  0.763500  0.881359  0.274959  1
  Sn  Sn35  1  0.236500  0.118641  0.725041  1
