# generated using pymatgen
data_Ba6SmCd(BO3)6
_symmetry_space_group_name_H-M   'P 1'
_cell_length_a   8.23147108
_cell_length_b   8.23147087
_cell_length_c   8.23146970
_cell_angle_alpha   105.58874914
_cell_angle_beta   105.58875412
_cell_angle_gamma   105.58876099
_symmetry_Int_Tables_number   1
_chemical_formula_structural   Ba6SmCd(BO3)6
_chemical_formula_sum   'Ba6 Sm1 Cd1 B6 O18'
_cell_volume   481.25547028
_cell_formula_units_Z   1
loop_
 _symmetry_equiv_pos_site_id
 _symmetry_equiv_pos_as_xyz
  1  'x, y, z'
loop_
 _atom_site_type_symbol
 _atom_site_label
 _atom_site_symmetry_multiplicity
 _atom_site_fract_x
 _atom_site_fract_y
 _atom_site_fract_z
 _atom_site_occupancy
  Ba  Ba0  1  0.352085  0.727564  0.834669  1
  Ba  Ba1  1  0.834669  0.352085  0.727564  1
  Ba  Ba2  1  0.727564  0.834669  0.352085  1
  Ba  Ba3  1  0.647915  0.272436  0.165331  1
  Ba  Ba4  1  0.165331  0.647915  0.272436  1
  Ba  Ba5  1  0.272436  0.165331  0.647915  1
  Sm  Sm6  1  0.000000  0.000000  0.000000  1
  Cd  Cd7  1  0.500000  0.500000  0.500000  1
  B  B8  1  0.706814  0.619955  0.956380  1
  B  B9  1  0.956380  0.706814  0.619955  1
  B  B10  1  0.619955  0.956380  0.706814  1
  B  B11  1  0.043620  0.293186  0.380045  1
  B  B12  1  0.380045  0.043620  0.293186  1
  B  B13  1  0.293186  0.380045  0.043620  1
  O  O14  1  0.065776  0.809338  0.554819  1
  O  O15  1  0.554819  0.065776  0.809338  1
  O  O16  1  0.431761  0.502278  0.206464  1
  O  O17  1  0.502278  0.206464  0.431761  1
  O  O18  1  0.206464  0.431761  0.502278  1
  O  O19  1  0.793536  0.568239  0.497722  1
  O  O20  1  0.568239  0.497722  0.793536  1
  O  O21  1  0.497722  0.793536  0.568239  1
  O  O22  1  0.263898  0.195347  0.988369  1
  O  O23  1  0.195347  0.988369  0.263898  1
  O  O24  1  0.988369  0.263898  0.195347  1
  O  O25  1  0.736102  0.804653  0.011631  1
  O  O26  1  0.804653  0.011631  0.736102  1
  O  O27  1  0.011631  0.736102  0.804653  1
  O  O28  1  0.190662  0.445181  0.934224  1
  O  O29  1  0.445181  0.934224  0.190662  1
  O  O30  1  0.934224  0.190662  0.445181  1
  O  O31  1  0.809338  0.554819  0.065776  1
