# generated using pymatgen
data_PaVCl10
_symmetry_space_group_name_H-M   'P 1'
_cell_length_a   9.87047200
_cell_length_b   9.87047200
_cell_length_c   8.54093600
_cell_angle_alpha   90.00000000
_cell_angle_beta   90.00000000
_cell_angle_gamma   90.00000000
_symmetry_Int_Tables_number   1
_chemical_formula_structural   PaVCl10
_chemical_formula_sum   'Pa2 V2 Cl20'
_cell_volume   832.11108841
_cell_formula_units_Z   2
loop_
 _symmetry_equiv_pos_site_id
 _symmetry_equiv_pos_as_xyz
  1  'x, y, z'
loop_
 _atom_site_type_symbol
 _atom_site_label
 _atom_site_symmetry_multiplicity
 _atom_site_fract_x
 _atom_site_fract_y
 _atom_site_fract_z
 _atom_site_occupancy
  Pa  Pa0  1  0.500000  0.500000  0.382476  1
  Pa  Pa1  1  0.000000  0.000000  0.617524  1
  V  V2  1  0.500000  0.000000  0.000000  1
  V  V3  1  0.000000  0.500000  0.000000  1
  Cl  Cl4  1  0.500000  0.500000  0.082283  1
  Cl  Cl5  1  0.661058  0.059289  0.142848  1
  Cl  Cl6  1  0.059289  0.338943  0.142848  1
  Cl  Cl7  1  0.940711  0.661058  0.142848  1
  Cl  Cl8  1  0.338943  0.940711  0.142848  1
  Cl  Cl9  1  0.000000  0.000000  0.316692  1
  Cl  Cl10  1  0.407925  0.257842  0.381279  1
  Cl  Cl11  1  0.742159  0.407925  0.381279  1
  Cl  Cl12  1  0.257842  0.592075  0.381279  1
  Cl  Cl13  1  0.592075  0.742159  0.381279  1
  Cl  Cl14  1  0.757843  0.092075  0.618722  1
  Cl  Cl15  1  0.092075  0.242158  0.618722  1
  Cl  Cl16  1  0.907926  0.757843  0.618722  1
  Cl  Cl17  1  0.242158  0.907926  0.618722  1
  Cl  Cl18  1  0.500000  0.500000  0.683308  1
  Cl  Cl19  1  0.440711  0.161058  0.857152  1
  Cl  Cl20  1  0.838943  0.440711  0.857152  1
  Cl  Cl21  1  0.161058  0.559290  0.857152  1
  Cl  Cl22  1  0.559290  0.838943  0.857152  1
  Cl  Cl23  1  0.000000  0.000000  0.917717  1
