# generated using pymatgen
data_Li12ZrOsN8
_symmetry_space_group_name_H-M   'P 1'
_cell_length_a   6.89011600
_cell_length_b   6.89011600
_cell_length_c   4.90015500
_cell_angle_alpha   90.00000000
_cell_angle_beta   90.00000000
_cell_angle_gamma   90.00000000
_symmetry_Int_Tables_number   1
_chemical_formula_structural   Li12ZrOsN8
_chemical_formula_sum   'Li12 Zr1 Os1 N8'
_cell_volume   232.62848104
_cell_formula_units_Z   1
loop_
 _symmetry_equiv_pos_site_id
 _symmetry_equiv_pos_as_xyz
  1  'x, y, z'
loop_
 _atom_site_type_symbol
 _atom_site_label
 _atom_site_symmetry_multiplicity
 _atom_site_fract_x
 _atom_site_fract_y
 _atom_site_fract_z
 _atom_site_occupancy
  Li  Li0  1  0.500000  0.000000  0.545781  1
  Li  Li1  1  0.000000  0.500000  0.918024  1
  Li  Li2  1  0.000000  0.500000  0.454219  1
  Li  Li3  1  0.500000  0.000000  0.081976  1
  Li  Li4  1  0.220953  0.220953  0.500000  1
  Li  Li5  1  0.779047  0.779047  0.500000  1
  Li  Li6  1  0.704711  0.704711  0.000000  1
  Li  Li7  1  0.295289  0.295289  0.000000  1
  Li  Li8  1  0.220953  0.779047  0.500000  1
  Li  Li9  1  0.779047  0.220953  0.500000  1
  Li  Li10  1  0.704711  0.295289  0.000000  1
  Li  Li11  1  0.295289  0.704711  0.000000  1
  Zr  Zr12  1  0.500000  0.500000  0.500000  1
  Os  Os13  1  0.000000  0.000000  0.000000  1
  N  N14  1  0.500000  0.236655  0.290906  1
  N  N15  1  0.500000  0.763345  0.290906  1
  N  N16  1  0.000000  0.778336  0.201891  1
  N  N17  1  0.000000  0.221664  0.201891  1
  N  N18  1  0.236655  0.500000  0.709094  1
  N  N19  1  0.763345  0.500000  0.709094  1
  N  N20  1  0.778336  0.000000  0.798109  1
  N  N21  1  0.221664  0.000000  0.798109  1
