# generated using pymatgen
data_Tb6Dy10Cd4TcPt3
_symmetry_space_group_name_H-M   'P 1'
_cell_length_a   9.72874675
_cell_length_b   9.72874610
_cell_length_c   9.72874737
_cell_angle_alpha   59.47936681
_cell_angle_beta   59.47937697
_cell_angle_gamma   59.47937499
_symmetry_Int_Tables_number   1
_chemical_formula_structural   Tb6Dy10Cd4TcPt3
_chemical_formula_sum   'Tb6 Dy10 Cd4 Tc1 Pt3'
_cell_volume   643.40156798
_cell_formula_units_Z   1
loop_
 _symmetry_equiv_pos_site_id
 _symmetry_equiv_pos_as_xyz
  1  'x, y, z'
loop_
 _atom_site_type_symbol
 _atom_site_label
 _atom_site_symmetry_multiplicity
 _atom_site_fract_x
 _atom_site_fract_y
 _atom_site_fract_z
 _atom_site_occupancy
  Tb  Tb0  1  0.935782  0.564721  0.564721  1
  Tb  Tb1  1  0.556703  0.937893  0.937893  1
  Tb  Tb2  1  0.564721  0.935782  0.564721  1
  Tb  Tb3  1  0.937893  0.556703  0.937893  1
  Tb  Tb4  1  0.564721  0.564721  0.935782  1
  Tb  Tb5  1  0.937893  0.937893  0.556703  1
  Dy  Dy6  1  0.351575  0.351575  0.351575  1
  Dy  Dy7  1  0.350135  0.350135  0.949052  1
  Dy  Dy8  1  0.350135  0.949052  0.350135  1
  Dy  Dy9  1  0.949052  0.350135  0.350135  1
  Dy  Dy10  1  0.815516  0.188226  0.188226  1
  Dy  Dy11  1  0.189031  0.809552  0.809552  1
  Dy  Dy12  1  0.188226  0.815516  0.188226  1
  Dy  Dy13  1  0.809552  0.189031  0.809552  1
  Dy  Dy14  1  0.188226  0.188226  0.815516  1
  Dy  Dy15  1  0.809552  0.809552  0.189031  1
  Cd  Cd16  1  0.579976  0.579976  0.579976  1
  Cd  Cd17  1  0.580855  0.580855  0.254539  1
  Cd  Cd18  1  0.580855  0.254539  0.580855  1
  Cd  Cd19  1  0.254539  0.580855  0.580855  1
  Tc  Tc20  1  0.143604  0.143604  0.143604  1
  Pt  Pt21  1  0.144231  0.144231  0.572997  1
  Pt  Pt22  1  0.144231  0.572997  0.144231  1
  Pt  Pt23  1  0.572997  0.144231  0.144231  1
