# generated using pymatgen
data_Nd5Gd5(Al2Ru3)2
_symmetry_space_group_name_H-M   'P 1'
_cell_length_a   8.56931181
_cell_length_b   8.56931123
_cell_length_c   8.56707100
_cell_angle_alpha   109.41709077
_cell_angle_beta   109.47031099
_cell_angle_gamma   109.53685822
_symmetry_Int_Tables_number   1
_chemical_formula_structural   Nd5Gd5(Al2Ru3)2
_chemical_formula_sum   'Nd5 Gd5 Al4 Ru6'
_cell_volume   484.22272060
_cell_formula_units_Z   1
loop_
 _symmetry_equiv_pos_site_id
 _symmetry_equiv_pos_as_xyz
  1  'x, y, z'
loop_
 _atom_site_type_symbol
 _atom_site_label
 _atom_site_symmetry_multiplicity
 _atom_site_fract_x
 _atom_site_fract_y
 _atom_site_fract_z
 _atom_site_occupancy
  Nd  Nd0  1  0.250478  0.682735  0.432368  1
  Nd  Nd1  1  0.750368  0.818111  0.067632  1
  Nd  Nd2  1  0.432038  0.249669  0.681810  1
  Nd  Nd3  1  0.682027  0.432027  0.250000  1
  Nd  Nd4  1  0.067857  0.750228  0.818190  1
  Gd  Gd5  1  0.818462  0.068462  0.750000  1
  Gd  Gd6  1  0.208406  0.208823  0.208754  1
  Gd  Gd7  1  0.500070  0.999652  0.291246  1
  Gd  Gd8  1  0.289555  0.499024  0.999152  1
  Gd  Gd9  1  0.999874  0.290403  0.500848  1
  Al  Al10  1  0.587220  0.587268  0.587203  1
  Al  Al11  1  0.500066  0.000016  0.912797  1
  Al  Al12  1  0.913771  0.498130  0.998470  1
  Al  Al13  1  0.999661  0.915301  0.501530  1
  Ru  Ru14  1  0.249602  0.122782  0.871814  1
  Ru  Ru15  1  0.750967  0.377788  0.628186  1
  Ru  Ru16  1  0.870385  0.247599  0.116756  1
  Ru  Ru17  1  0.120813  0.870812  0.250000  1
  Ru  Ru18  1  0.630843  0.753630  0.383244  1
  Ru  Ru19  1  0.377540  0.627540  0.750000  1
