# generated using pymatgen
data_YHo4In4PtRh
_symmetry_space_group_name_H-M   'P 1'
_cell_length_a   3.61029400
_cell_length_b   8.11117890
_cell_length_c   18.22617913
_cell_angle_alpha   90.12633751
_cell_angle_beta   90.00000000
_cell_angle_gamma   90.00000000
_symmetry_Int_Tables_number   1
_chemical_formula_structural   YHo4In4PtRh
_chemical_formula_sum   'Y2 Ho8 In8 Pt2 Rh2'
_cell_volume   533.72940291
_cell_formula_units_Z   2
loop_
 _symmetry_equiv_pos_site_id
 _symmetry_equiv_pos_as_xyz
  1  'x, y, z'
loop_
 _atom_site_type_symbol
 _atom_site_label
 _atom_site_symmetry_multiplicity
 _atom_site_fract_x
 _atom_site_fract_y
 _atom_site_fract_z
 _atom_site_occupancy
  Y  Y0  1  0.000000  0.000000  0.000000  1
  Y  Y1  1  0.000000  0.500000  0.500000  1
  Ho  Ho2  1  0.000000  0.115390  0.412050  1
  Ho  Ho3  1  0.000000  0.884610  0.587950  1
  Ho  Ho4  1  0.000000  0.383209  0.914161  1
  Ho  Ho5  1  0.000000  0.616791  0.085839  1
  Ho  Ho6  1  0.000000  0.239061  0.221225  1
  Ho  Ho7  1  0.000000  0.760939  0.778775  1
  Ho  Ho8  1  0.000000  0.250962  0.720119  1
  Ho  Ho9  1  0.000000  0.749038  0.279881  1
  In  In10  1  0.500000  0.423232  0.350885  1
  In  In11  1  0.500000  0.576768  0.649115  1
  In  In12  1  0.500000  0.074097  0.849980  1
  In  In13  1  0.500000  0.925903  0.150020  1
  In  In14  1  0.500000  0.292527  0.066546  1
  In  In15  1  0.500000  0.707473  0.933454  1
  In  In16  1  0.500000  0.205908  0.567670  1
  In  In17  1  0.500000  0.794092  0.432330  1
  Pt  Pt18  1  0.500000  0.476556  0.803400  1
  Pt  Pt19  1  0.500000  0.523444  0.196600  1
  Rh  Rh20  1  0.500000  0.022803  0.304386  1
  Rh  Rh21  1  0.500000  0.977197  0.695614  1
