# generated using pymatgen
data_CuSn2BRh5
_symmetry_space_group_name_H-M   'P 1'
_cell_length_a   5.77270150
_cell_length_b   5.66817425
_cell_length_c   5.66817408
_cell_angle_alpha   61.22385262
_cell_angle_beta   59.38807126
_cell_angle_gamma   59.38806946
_symmetry_Int_Tables_number   1
_chemical_formula_structural   CuSn2BRh5
_chemical_formula_sum   'Cu1 Sn2 B1 Rh5'
_cell_volume   131.05372997
_cell_formula_units_Z   1
loop_
 _symmetry_equiv_pos_site_id
 _symmetry_equiv_pos_as_xyz
  1  'x, y, z'
loop_
 _atom_site_type_symbol
 _atom_site_label
 _atom_site_symmetry_multiplicity
 _atom_site_fract_x
 _atom_site_fract_y
 _atom_site_fract_z
 _atom_site_occupancy
  Cu  Cu0  1  0.737161  0.262840  0.262840  1
  Sn  Sn1  1  0.249593  0.250407  0.250407  1
  Sn  Sn2  1  0.749593  0.750407  0.750407  1
  B  B3  1  0.000322  0.999678  0.999678  1
  Rh  Rh4  1  0.254415  0.745586  0.252497  1
  Rh  Rh5  1  0.747503  0.745585  0.252498  1
  Rh  Rh6  1  0.254415  0.252497  0.745586  1
  Rh  Rh7  1  0.747503  0.252498  0.745585  1
  Rh  Rh8  1  0.259497  0.740504  0.740504  1
