# generated using pymatgen
data_LiY8GaPt23
_symmetry_space_group_name_H-M   'P 1'
_cell_length_a   8.40415000
_cell_length_b   8.37110100
_cell_length_c   8.37110100
_cell_angle_alpha   90.00000000
_cell_angle_beta   90.00000000
_cell_angle_gamma   90.00000000
_symmetry_Int_Tables_number   1
_chemical_formula_structural   LiY8GaPt23
_chemical_formula_sum   'Li1 Y8 Ga1 Pt23'
_cell_volume   588.92360103
_cell_formula_units_Z   1
loop_
 _symmetry_equiv_pos_site_id
 _symmetry_equiv_pos_as_xyz
  1  'x, y, z'
loop_
 _atom_site_type_symbol
 _atom_site_label
 _atom_site_symmetry_multiplicity
 _atom_site_fract_x
 _atom_site_fract_y
 _atom_site_fract_z
 _atom_site_occupancy
  Li  Li0  1  0.675444  0.000000  0.000000  1
  Y  Y1  1  0.252359  0.250185  0.749815  1
  Y  Y2  1  0.252359  0.749815  0.250185  1
  Y  Y3  1  0.749895  0.253897  0.253897  1
  Y  Y4  1  0.749895  0.746103  0.746103  1
  Y  Y5  1  0.749895  0.746103  0.253897  1
  Y  Y6  1  0.749895  0.253897  0.746103  1
  Y  Y7  1  0.252359  0.749815  0.749815  1
  Y  Y8  1  0.252359  0.250185  0.250185  1
  Ga  Ga9  1  0.999231  0.000000  0.000000  1
  Pt  Pt10  1  0.499717  0.500000  0.748326  1
  Pt  Pt11  1  0.499717  0.251674  0.500000  1
  Pt  Pt12  1  0.255347  0.500000  0.500000  1
  Pt  Pt13  1  0.499717  0.500000  0.251674  1
  Pt  Pt14  1  0.499717  0.748326  0.500000  1
  Pt  Pt15  1  0.747057  0.500000  0.500000  1
  Pt  Pt16  1  0.997827  0.000000  0.707399  1
  Pt  Pt17  1  0.997827  0.292601  0.000000  1
  Pt  Pt18  1  0.297459  0.000000  0.000000  1
  Pt  Pt19  1  0.997827  0.000000  0.292601  1
  Pt  Pt20  1  0.997827  0.707399  0.000000  1
  Pt  Pt21  1  0.002349  0.500000  0.739502  1
  Pt  Pt22  1  0.504727  0.257461  0.000000  1
  Pt  Pt23  1  0.261006  0.000000  0.500000  1
  Pt  Pt24  1  0.002349  0.260498  0.500000  1
  Pt  Pt25  1  0.504727  0.000000  0.742539  1
  Pt  Pt26  1  0.261006  0.500000  0.000000  1
  Pt  Pt27  1  0.002349  0.500000  0.260498  1
  Pt  Pt28  1  0.504727  0.742539  0.000000  1
  Pt  Pt29  1  0.002349  0.739502  0.500000  1
  Pt  Pt30  1  0.504727  0.000000  0.257461  1
  Pt  Pt31  1  0.737975  0.000000  0.500000  1
  Pt  Pt32  1  0.737975  0.500000  0.000000  1
