# generated using pymatgen
data_Ho2B(IrPd2)2
_symmetry_space_group_name_H-M   'P 1'
_cell_length_a   5.90093643
_cell_length_b   5.87716453
_cell_length_c   5.90093754
_cell_angle_alpha   60.13317838
_cell_angle_beta   59.88353463
_cell_angle_gamma   60.13318034
_symmetry_Int_Tables_number   1
_chemical_formula_structural   Ho2B(IrPd2)2
_chemical_formula_sum   'Ho2 B1 Ir2 Pd4'
_cell_volume   144.87080362
_cell_formula_units_Z   1
loop_
 _symmetry_equiv_pos_site_id
 _symmetry_equiv_pos_as_xyz
  1  'x, y, z'
loop_
 _atom_site_type_symbol
 _atom_site_label
 _atom_site_symmetry_multiplicity
 _atom_site_fract_x
 _atom_site_fract_y
 _atom_site_fract_z
 _atom_site_occupancy
  Ho  Ho0  1  0.252500  0.250647  0.246207  1
  Ho  Ho1  1  0.753793  0.749353  0.747500  1
  B  B2  1  0.483521  0.500000  0.516479  1
  Ir  Ir3  1  0.246470  0.759454  0.753529  1
  Ir  Ir4  1  0.246470  0.240545  0.753529  1
  Pd  Pd5  1  0.755606  0.247917  0.244393  1
  Pd  Pd6  1  0.243920  0.759096  0.237887  1
  Pd  Pd7  1  0.755606  0.752082  0.244393  1
  Pd  Pd8  1  0.762112  0.240903  0.756079  1
