# generated using pymatgen
data_Dy3HfMn7CoP6
_symmetry_space_group_name_H-M   'P 1'
_cell_length_a   3.70795200
_cell_length_b   10.92141800
_cell_length_c   12.87655900
_cell_angle_alpha   90.00000000
_cell_angle_beta   90.00000000
_cell_angle_gamma   90.00000000
_symmetry_Int_Tables_number   1
_chemical_formula_structural   Dy3HfMn7CoP6
_chemical_formula_sum   'Dy6 Hf2 Mn14 Co2 P12'
_cell_volume   521.45034000
_cell_formula_units_Z   2
loop_
 _symmetry_equiv_pos_site_id
 _symmetry_equiv_pos_as_xyz
  1  'x, y, z'
loop_
 _atom_site_type_symbol
 _atom_site_label
 _atom_site_symmetry_multiplicity
 _atom_site_fract_x
 _atom_site_fract_y
 _atom_site_fract_z
 _atom_site_occupancy
  Dy  Dy0  1  0.000000  0.500000  0.535495  1
  Dy  Dy1  1  0.500000  0.000000  0.464505  1
  Dy  Dy2  1  0.500000  0.825400  0.207294  1
  Dy  Dy3  1  0.500000  0.174600  0.207294  1
  Dy  Dy4  1  0.000000  0.674600  0.792706  1
  Dy  Dy5  1  0.000000  0.325400  0.792706  1
  Hf  Hf6  1  0.500000  0.500000  0.164815  1
  Hf  Hf7  1  0.000000  0.000000  0.835185  1
  Mn  Mn8  1  0.000000  0.500000  0.989371  1
  Mn  Mn9  1  0.500000  0.000000  0.010629  1
  Mn  Mn10  1  0.500000  0.332795  0.995264  1
  Mn  Mn11  1  0.500000  0.667205  0.995264  1
  Mn  Mn12  1  0.000000  0.167205  0.004736  1
  Mn  Mn13  1  0.000000  0.832795  0.004736  1
  Mn  Mn14  1  0.500000  0.295012  0.435102  1
  Mn  Mn15  1  0.500000  0.704988  0.435102  1
  Mn  Mn16  1  0.000000  0.204988  0.564898  1
  Mn  Mn17  1  0.000000  0.795012  0.564898  1
  Mn  Mn18  1  0.500000  0.879752  0.694438  1
  Mn  Mn19  1  0.500000  0.120248  0.694438  1
  Mn  Mn20  1  0.000000  0.620248  0.305562  1
  Mn  Mn21  1  0.000000  0.379752  0.305562  1
  Co  Co22  1  0.500000  0.500000  0.705370  1
  Co  Co23  1  0.000000  0.000000  0.294630  1
  P  P24  1  0.500000  0.500000  0.879169  1
  P  P25  1  0.000000  0.000000  0.120831  1
  P  P26  1  0.500000  0.500000  0.369351  1
  P  P27  1  0.000000  0.000000  0.630649  1
  P  P28  1  0.500000  0.318685  0.617546  1
  P  P29  1  0.500000  0.681315  0.617546  1
  P  P30  1  0.000000  0.181315  0.382454  1
  P  P31  1  0.000000  0.818685  0.382454  1
  P  P32  1  0.500000  0.838306  0.888224  1
  P  P33  1  0.500000  0.161694  0.888224  1
  P  P34  1  0.000000  0.661694  0.111776  1
  P  P35  1  0.000000  0.338306  0.111776  1
