# generated using pymatgen
data_V6Ni7Pt11
_symmetry_space_group_name_H-M   'P 1'
_cell_length_a   5.40147307
_cell_length_b   13.07901900
_cell_length_c   4.61380702
_cell_angle_alpha   90.00000000
_cell_angle_beta   89.98476028
_cell_angle_gamma   90.00000000
_symmetry_Int_Tables_number   1
_chemical_formula_structural   V6Ni7Pt11
_chemical_formula_sum   'V6 Ni7 Pt11'
_cell_volume   325.94685625
_cell_formula_units_Z   1
loop_
 _symmetry_equiv_pos_site_id
 _symmetry_equiv_pos_as_xyz
  1  'x, y, z'
loop_
 _atom_site_type_symbol
 _atom_site_label
 _atom_site_symmetry_multiplicity
 _atom_site_fract_x
 _atom_site_fract_y
 _atom_site_fract_z
 _atom_site_occupancy
  V  V0  1  0.999954  0.335311  0.181118  1
  V  V1  1  0.999954  0.664689  0.181118  1
  V  V2  1  0.500759  0.500000  0.508856  1
  V  V3  1  0.006435  0.000000  0.495784  1
  V  V4  1  0.494628  0.160375  0.820363  1
  V  V5  1  0.494628  0.839625  0.820363  1
  Ni  Ni6  1  0.248868  0.000000  0.974660  1
  Ni  Ni7  1  0.497859  0.334807  0.179837  1
  Ni  Ni8  1  0.497859  0.665193  0.179837  1
  Ni  Ni9  1  0.999925  0.500000  0.508291  1
  Ni  Ni10  1  0.490755  0.000000  0.502607  1
  Ni  Ni11  1  0.007907  0.160478  0.818063  1
  Ni  Ni12  1  0.007907  0.839522  0.818063  1
  Pt  Pt13  1  0.757839  0.000000  0.972542  1
  Pt  Pt14  1  0.248612  0.162334  0.314807  1
  Pt  Pt15  1  0.750330  0.165337  0.321934  1
  Pt  Pt16  1  0.248612  0.837665  0.314807  1
  Pt  Pt17  1  0.750330  0.834662  0.321934  1
  Pt  Pt18  1  0.249882  0.331197  0.676266  1
  Pt  Pt19  1  0.747739  0.331483  0.678205  1
  Pt  Pt20  1  0.249882  0.668803  0.676266  1
  Pt  Pt21  1  0.747739  0.668517  0.678205  1
  Pt  Pt22  1  0.252927  0.500000  0.026764  1
  Pt  Pt23  1  0.748684  0.500000  0.029313  1
