# generated using pymatgen
data_Sr6Ti2PdO12
_symmetry_space_group_name_H-M   'P 1'
_cell_length_a   8.80066694
_cell_length_b   8.80066602
_cell_length_c   6.92992990
_cell_angle_alpha   67.60771988
_cell_angle_beta   67.60771284
_cell_angle_gamma   36.86359706
_symmetry_Int_Tables_number   1
_chemical_formula_structural   Sr6Ti2PdO12
_chemical_formula_sum   'Sr6 Ti2 Pd1 O12'
_cell_volume   294.89461448
_cell_formula_units_Z   1
loop_
 _symmetry_equiv_pos_site_id
 _symmetry_equiv_pos_as_xyz
  1  'x, y, z'
loop_
 _atom_site_type_symbol
 _atom_site_label
 _atom_site_symmetry_multiplicity
 _atom_site_fract_x
 _atom_site_fract_y
 _atom_site_fract_z
 _atom_site_occupancy
  Sr  Sr0  1  0.881559  0.881559  0.710846  1
  Sr  Sr1  1  0.215100  0.215100  0.709168  1
  Sr  Sr2  1  0.548222  0.548222  0.710373  1
  Sr  Sr3  1  0.451778  0.451778  0.289627  1
  Sr  Sr4  1  0.784900  0.784900  0.290832  1
  Sr  Sr5  1  0.118441  0.118441  0.289154  1
  Ti  Ti6  1  0.667157  0.667157  0.999856  1
  Ti  Ti7  1  0.332843  0.332843  0.000144  1
  Pd  Pd8  1  0.000000  0.000000  0.000000  1
  O  O9  1  0.945768  0.945768  0.326130  1
  O  O10  1  0.279383  0.279383  0.316146  1
  O  O11  1  0.615066  0.615066  0.316632  1
  O  O12  1  0.384934  0.384934  0.683368  1
  O  O13  1  0.720617  0.720617  0.683854  1
  O  O14  1  0.054232  0.054232  0.673870  1
  O  O15  1  0.500000  0.000000  0.000000  1
  O  O16  1  0.832196  0.337059  0.999988  1
  O  O17  1  0.167804  0.662941  0.000012  1
  O  O18  1  0.000000  0.500000  0.000000  1
  O  O19  1  0.337059  0.832196  0.999988  1
  O  O20  1  0.662941  0.167804  0.000012  1
