# generated using pymatgen
data_Mo2P4(PbO6)3
_symmetry_space_group_name_H-M   'P 1'
_cell_length_a   4.92679596
_cell_length_b   9.36587568
_cell_length_c   18.26557500
_cell_angle_alpha   88.30757284
_cell_angle_beta   88.20969673
_cell_angle_gamma   78.51835159
_symmetry_Int_Tables_number   1
_chemical_formula_structural   Mo2P4(PbO6)3
_chemical_formula_sum   'Mo4 P8 Pb6 O36'
_cell_volume   825.33864887
_cell_formula_units_Z   2
loop_
 _symmetry_equiv_pos_site_id
 _symmetry_equiv_pos_as_xyz
  1  'x, y, z'
loop_
 _atom_site_type_symbol
 _atom_site_label
 _atom_site_symmetry_multiplicity
 _atom_site_fract_x
 _atom_site_fract_y
 _atom_site_fract_z
 _atom_site_occupancy
  Mo  Mo0  1  0.308691  0.765641  0.445419  1
  Mo  Mo1  1  0.691309  0.234359  0.554581  1
  Mo  Mo2  1  0.164546  0.227335  0.050788  1
  Mo  Mo3  1  0.835454  0.772665  0.949212  1
  P  P4  1  0.244481  0.145607  0.434406  1
  P  P5  1  0.755519  0.854393  0.565594  1
  P  P6  1  0.299615  0.846096  0.069088  1
  P  P7  1  0.131947  0.279986  0.679424  1
  P  P8  1  0.700385  0.153904  0.930912  1
  P  P9  1  0.622024  0.260499  0.178253  1
  P  P10  1  0.377976  0.739501  0.821747  1
  P  P11  1  0.868053  0.720014  0.320576  1
  Pb  Pb12  1  0.702844  0.020427  0.744039  1
  Pb  Pb13  1  0.967329  0.421776  0.845412  1
  Pb  Pb14  1  0.032671  0.578224  0.154588  1
  Pb  Pb15  1  0.297156  0.979573  0.255961  1
  Pb  Pb16  1  0.464011  0.391687  0.335745  1
  Pb  Pb17  1  0.535989  0.608313  0.664255  1
  O  O18  1  0.915581  0.270452  0.146509  1
  O  O19  1  0.204658  0.407757  0.044898  1
  O  O20  1  0.279906  0.781233  0.147958  1
  O  O21  1  0.843357  0.991973  0.931827  1
  O  O22  1  0.720094  0.218767  0.852042  1
  O  O23  1  0.391017  0.170628  0.955603  1
  O  O24  1  0.724301  0.413864  0.546218  1
  O  O25  1  0.717240  0.815542  0.258429  1
  O  O26  1  0.659295  0.012429  0.592876  1
  O  O27  1  0.162856  0.755827  0.015929  1
  O  O28  1  0.519485  0.826774  0.874555  1
  O  O29  1  0.890425  0.204294  0.655412  1
  O  O30  1  0.340705  0.987571  0.407124  1
  O  O31  1  0.001916  0.567297  0.290724  1
  O  O32  1  0.109575  0.795706  0.344588  1
  O  O33  1  0.128603  0.247386  0.369934  1
  O  O34  1  0.837144  0.244173  0.984071  1
  O  O35  1  0.795342  0.592243  0.955102  1
  O  O36  1  0.046642  0.145166  0.501204  1
  O  O37  1  0.282760  0.184458  0.741571  1
  O  O38  1  0.679807  0.703546  0.387888  1
  O  O39  1  0.458906  0.419155  0.192823  1
  O  O40  1  0.541094  0.580845  0.807177  1
  O  O41  1  0.275699  0.586136  0.453782  1
  O  O42  1  0.156643  0.008027  0.068173  1
  O  O43  1  0.084419  0.729548  0.853491  1
  O  O44  1  0.871397  0.752614  0.630066  1
  O  O45  1  0.608983  0.829372  0.044397  1
  O  O46  1  0.320193  0.296454  0.612112  1
  O  O47  1  0.480515  0.173226  0.125445  1
  O  O48  1  0.506049  0.203185  0.459739  1
  O  O49  1  0.355921  0.821636  0.746158  1
  O  O50  1  0.644079  0.178364  0.253842  1
  O  O51  1  0.493951  0.796815  0.540261  1
  O  O52  1  0.998084  0.432703  0.709276  1
  O  O53  1  0.953358  0.854834  0.498796  1
