# generated using pymatgen
data_Pr3EuPu4N12
_symmetry_space_group_name_H-M   'P 1'
_cell_length_a   5.84476600
_cell_length_b   6.05435121
_cell_length_c   8.37128700
_cell_angle_alpha   90.00000000
_cell_angle_beta   90.00000000
_cell_angle_gamma   90.23794324
_symmetry_Int_Tables_number   1
_chemical_formula_structural   Pr3EuPu4N12
_chemical_formula_sum   'Pr3 Eu1 Pu4 N12'
_cell_volume   296.22603488
_cell_formula_units_Z   1
loop_
 _symmetry_equiv_pos_site_id
 _symmetry_equiv_pos_as_xyz
  1  'x, y, z'
loop_
 _atom_site_type_symbol
 _atom_site_label
 _atom_site_symmetry_multiplicity
 _atom_site_fract_x
 _atom_site_fract_y
 _atom_site_fract_z
 _atom_site_occupancy
  Pr  Pr0  1  0.508130  0.554639  0.250000  1
  Pr  Pr1  1  0.991498  0.053798  0.250000  1
  Pr  Pr2  1  0.491209  0.446276  0.750000  1
  Eu  Eu3  1  0.007086  0.947983  0.750000  1
  Pu  Pu4  1  0.000207  0.500567  0.999258  1
  Pu  Pu5  1  0.499508  0.999985  0.500970  1
  Pu  Pu6  1  0.000207  0.500567  0.500742  1
  Pu  Pu7  1  0.499508  0.999985  0.999030  1
  N  N8  1  0.402322  0.968313  0.250000  1
  N  N9  1  0.096063  0.467474  0.250000  1
  N  N10  1  0.595832  0.032801  0.750000  1
  N  N11  1  0.904228  0.532173  0.750000  1
  N  N12  1  0.769232  0.810780  0.049149  1
  N  N13  1  0.728483  0.312067  0.452080  1
  N  N14  1  0.230513  0.189271  0.547701  1
  N  N15  1  0.273872  0.685602  0.953352  1
  N  N16  1  0.230513  0.189271  0.952299  1
  N  N17  1  0.273872  0.685602  0.546648  1
  N  N18  1  0.769232  0.810780  0.450851  1
  N  N19  1  0.728483  0.312067  0.047920  1
