# generated using pymatgen
data_Dy8Er2(BiPb)3
_symmetry_space_group_name_H-M   'P 1'
_cell_length_a   9.13730800
_cell_length_b   9.13730863
_cell_length_c   6.46904100
_cell_angle_alpha   90.00000000
_cell_angle_beta   90.00000000
_cell_angle_gamma   120.00000496
_symmetry_Int_Tables_number   1
_chemical_formula_structural   Dy8Er2(BiPb)3
_chemical_formula_sum   'Dy8 Er2 Bi3 Pb3'
_cell_volume   467.74275816
_cell_formula_units_Z   1
loop_
 _symmetry_equiv_pos_site_id
 _symmetry_equiv_pos_as_xyz
  1  'x, y, z'
loop_
 _atom_site_type_symbol
 _atom_site_label
 _atom_site_symmetry_multiplicity
 _atom_site_fract_x
 _atom_site_fract_y
 _atom_site_fract_z
 _atom_site_occupancy
  Dy  Dy0  1  0.666667  0.333333  0.002714  1
  Dy  Dy1  1  0.333333  0.666667  0.002714  1
  Dy  Dy2  1  0.761687  0.761687  0.749847  1
  Dy  Dy3  1  0.238313  0.000000  0.749847  1
  Dy  Dy4  1  0.000000  0.238313  0.749847  1
  Dy  Dy5  1  0.238703  0.238703  0.250171  1
  Dy  Dy6  1  0.761297  0.000000  0.250171  1
  Dy  Dy7  1  0.000000  0.761297  0.250171  1
  Er  Er8  1  0.333333  0.666667  0.497071  1
  Er  Er9  1  0.666667  0.333333  0.497071  1
  Bi  Bi10  1  0.393123  0.393123  0.749522  1
  Bi  Bi11  1  0.606877  0.000000  0.749522  1
  Bi  Bi12  1  0.000000  0.606877  0.749522  1
  Pb  Pb13  1  0.607205  0.607205  0.250604  1
  Pb  Pb14  1  0.392795  0.000000  0.250604  1
  Pb  Pb15  1  0.000000  0.392795  0.250604  1
