# generated using pymatgen
data_Ca6NdEr(Si3Au)4
_symmetry_space_group_name_H-M   'P 1'
_cell_length_a   8.30755600
_cell_length_b   8.30755417
_cell_length_c   8.42957400
_cell_angle_alpha   90.00000000
_cell_angle_beta   90.00000000
_cell_angle_gamma   119.99999934
_symmetry_Int_Tables_number   1
_chemical_formula_structural   Ca6NdEr(Si3Au)4
_chemical_formula_sum   'Ca6 Nd1 Er1 Si12 Au4'
_cell_volume   503.82848922
_cell_formula_units_Z   1
loop_
 _symmetry_equiv_pos_site_id
 _symmetry_equiv_pos_as_xyz
  1  'x, y, z'
loop_
 _atom_site_type_symbol
 _atom_site_label
 _atom_site_symmetry_multiplicity
 _atom_site_fract_x
 _atom_site_fract_y
 _atom_site_fract_z
 _atom_site_occupancy
  Ca  Ca0  1  0.500209  0.000419  0.250000  1
  Ca  Ca1  1  0.499013  0.998025  0.750000  1
  Ca  Ca2  1  0.999581  0.499791  0.250000  1
  Ca  Ca3  1  0.001975  0.500987  0.750000  1
  Ca  Ca4  1  0.500209  0.499791  0.250000  1
  Ca  Ca5  1  0.499013  0.500987  0.750000  1
  Nd  Nd6  1  0.000000  0.000000  0.250000  1
  Er  Er7  1  0.000000  0.000000  0.750000  1
  Si  Si8  1  0.162227  0.324453  0.996102  1
  Si  Si9  1  0.837892  0.675785  0.994752  1
  Si  Si10  1  0.675547  0.837773  0.996102  1
  Si  Si11  1  0.837892  0.675785  0.505248  1
  Si  Si12  1  0.324215  0.162108  0.994752  1
  Si  Si13  1  0.162227  0.324453  0.503898  1
  Si  Si14  1  0.162227  0.837773  0.996102  1
  Si  Si15  1  0.324215  0.162108  0.505248  1
  Si  Si16  1  0.837892  0.162108  0.994752  1
  Si  Si17  1  0.675547  0.837773  0.503898  1
  Si  Si18  1  0.837892  0.162108  0.505248  1
  Si  Si19  1  0.162227  0.837773  0.503898  1
  Au  Au20  1  0.333333  0.666667  0.001393  1
  Au  Au21  1  0.666667  0.333333  0.998396  1
  Au  Au22  1  0.666667  0.333333  0.501604  1
  Au  Au23  1  0.333333  0.666667  0.498607  1
