# generated using pymatgen
data_TaTi4Nb11As12
_symmetry_space_group_name_H-M   'P 1'
_cell_length_a   7.44416302
_cell_length_b   7.44416280
_cell_length_c   19.19561304
_cell_angle_alpha   90.00695386
_cell_angle_beta   89.99304669
_cell_angle_gamma   152.43288703
_symmetry_Int_Tables_number   1
_chemical_formula_structural   TaTi4Nb11As12
_chemical_formula_sum   'Ta1 Ti4 Nb11 As12'
_cell_volume   492.28334548
_cell_formula_units_Z   1
loop_
 _symmetry_equiv_pos_site_id
 _symmetry_equiv_pos_as_xyz
  1  'x, y, z'
loop_
 _atom_site_type_symbol
 _atom_site_label
 _atom_site_symmetry_multiplicity
 _atom_site_fract_x
 _atom_site_fract_y
 _atom_site_fract_z
 _atom_site_occupancy
  Ta  Ta0  1  0.000000  0.000000  0.000000  1
  Ti  Ti1  1  0.735806  0.264194  0.163218  1
  Ti  Ti2  1  0.264194  0.735806  0.836782  1
  Ti  Ti3  1  0.264143  0.735857  0.663278  1
  Ti  Ti4  1  0.735857  0.264143  0.336722  1
  Nb  Nb5  1  0.535147  0.464853  0.121070  1
  Nb  Nb6  1  0.464853  0.535147  0.878930  1
  Nb  Nb7  1  0.464747  0.535253  0.621289  1
  Nb  Nb8  1  0.535253  0.464747  0.378711  1
  Nb  Nb9  1  0.663875  0.336125  0.973295  1
  Nb  Nb10  1  0.336125  0.663875  0.026705  1
  Nb  Nb11  1  0.335628  0.664372  0.473210  1
  Nb  Nb12  1  0.664372  0.335628  0.526790  1
  Nb  Nb13  1  0.000000  0.000000  0.500000  1
  Nb  Nb14  1  0.055849  0.944151  0.750014  1
  Nb  Nb15  1  0.944151  0.055849  0.249986  1
  As  As16  1  0.900034  0.099966  0.118516  1
  As  As17  1  0.099966  0.900034  0.881484  1
  As  As18  1  0.099972  0.900028  0.618513  1
  As  As19  1  0.900028  0.099972  0.381487  1
  As  As20  1  0.838684  0.161316  0.921197  1
  As  As21  1  0.161316  0.838684  0.078803  1
  As  As22  1  0.161316  0.838684  0.421208  1
  As  As23  1  0.838684  0.161316  0.578792  1
  As  As24  1  0.700063  0.299937  0.750027  1
  As  As25  1  0.299937  0.700063  0.249973  1
  As  As26  1  0.412305  0.587695  0.749992  1
  As  As27  1  0.587695  0.412305  0.250008  1
