# generated using pymatgen
data_Zr5MnFe15Si7W
_symmetry_space_group_name_H-M   'P 1'
_cell_length_a   8.07545649
_cell_length_b   8.07545569
_cell_length_c   8.02949495
_cell_angle_alpha   60.12277365
_cell_angle_beta   60.12277855
_cell_angle_gamma   59.79509446
_symmetry_Int_Tables_number   1
_chemical_formula_structural   Zr5MnFe15Si7W
_chemical_formula_sum   'Zr5 Mn1 Fe15 Si7 W1'
_cell_volume   370.36614745
_cell_formula_units_Z   1
loop_
 _symmetry_equiv_pos_site_id
 _symmetry_equiv_pos_as_xyz
  1  'x, y, z'
loop_
 _atom_site_type_symbol
 _atom_site_label
 _atom_site_symmetry_multiplicity
 _atom_site_fract_x
 _atom_site_fract_y
 _atom_site_fract_z
 _atom_site_occupancy
  Zr  Zr0  1  0.300030  0.703963  0.294954  1
  Zr  Zr1  1  0.703963  0.300030  0.294954  1
  Zr  Zr2  1  0.288339  0.288339  0.712886  1
  Zr  Zr3  1  0.705673  0.295986  0.704951  1
  Zr  Zr4  1  0.295986  0.705673  0.704951  1
  Mn  Mn5  1  0.875834  0.875834  0.357203  1
  Fe  Fe6  1  0.875186  0.368124  0.878473  1
  Fe  Fe7  1  0.368124  0.875186  0.878473  1
  Fe  Fe8  1  0.874565  0.874565  0.889991  1
  Fe  Fe9  1  0.121719  0.121719  0.631155  1
  Fe  Fe10  1  0.108096  0.641442  0.128018  1
  Fe  Fe11  1  0.641442  0.108096  0.128018  1
  Fe  Fe12  1  0.119310  0.119310  0.126671  1
  Fe  Fe13  1  0.676490  0.676490  0.975177  1
  Fe  Fe14  1  0.677736  0.972478  0.674299  1
  Fe  Fe15  1  0.972478  0.677736  0.674299  1
  Fe  Fe16  1  0.676891  0.676891  0.669771  1
  Fe  Fe17  1  0.325107  0.325107  0.027158  1
  Fe  Fe18  1  0.328626  0.024828  0.322469  1
  Fe  Fe19  1  0.024828  0.328626  0.322469  1
  Fe  Fe20  1  0.325026  0.325026  0.321541  1
  Si  Si21  1  0.008200  0.008200  0.987233  1
  Si  Si22  1  0.000786  0.000786  0.499998  1
  Si  Si23  1  0.497181  0.001227  0.501292  1
  Si  Si24  1  0.001227  0.497181  0.501292  1
  Si  Si25  1  0.500526  0.500526  0.999337  1
  Si  Si26  1  0.000284  0.501103  0.999920  1
  Si  Si27  1  0.501103  0.000284  0.999920  1
  W  W28  1  0.705240  0.705240  0.293130  1
