# generated using pymatgen
data_Y3Lu7Si5As
_symmetry_space_group_name_H-M   'P 1'
_cell_length_a   8.30523134
_cell_length_b   8.33802808
_cell_length_c   6.18040300
_cell_angle_alpha   90.00000000
_cell_angle_beta   90.00000000
_cell_angle_gamma   119.95572008
_symmetry_Int_Tables_number   1
_chemical_formula_structural   Y3Lu7Si5As
_chemical_formula_sum   'Y3 Lu7 Si5 As1'
_cell_volume   370.81399815
_cell_formula_units_Z   1
loop_
 _symmetry_equiv_pos_site_id
 _symmetry_equiv_pos_as_xyz
  1  'x, y, z'
loop_
 _atom_site_type_symbol
 _atom_site_label
 _atom_site_symmetry_multiplicity
 _atom_site_fract_x
 _atom_site_fract_y
 _atom_site_fract_z
 _atom_site_occupancy
  Y  Y0  1  0.758116  0.999852  0.750000  1
  Y  Y1  1  0.243505  0.247448  0.750000  1
  Y  Y2  1  0.242909  0.999313  0.250000  1
  Lu  Lu3  1  0.995479  0.751349  0.750000  1
  Lu  Lu4  1  0.000167  0.245718  0.250000  1
  Lu  Lu5  1  0.755992  0.755247  0.250000  1
  Lu  Lu6  1  0.332681  0.663538  0.498471  1
  Lu  Lu7  1  0.669945  0.337008  0.001531  1
  Lu  Lu8  1  0.669945  0.337008  0.498469  1
  Lu  Lu9  1  0.332681  0.663538  0.001529  1
  Si  Si10  1  0.394696  0.394901  0.250000  1
  Si  Si11  1  0.999789  0.604792  0.250000  1
  Si  Si12  1  0.999472  0.397166  0.750000  1
  Si  Si13  1  0.606499  0.605364  0.750000  1
  Si  Si14  1  0.609069  0.999888  0.250000  1
  As  As15  1  0.389055  0.997871  0.750000  1
