# generated using pymatgen
data_Dy3Er2Ru2C7
_symmetry_space_group_name_H-M   'P 1'
_cell_length_a   8.17301752
_cell_length_b   8.13175706
_cell_length_c   3.50309200
_cell_angle_alpha   90.00000000
_cell_angle_beta   90.00000000
_cell_angle_gamma   121.69237645
_symmetry_Int_Tables_number   1
_chemical_formula_structural   Dy3Er2Ru2C7
_chemical_formula_sum   'Dy3 Er2 Ru2 C7'
_cell_volume   198.10124464
_cell_formula_units_Z   1
loop_
 _symmetry_equiv_pos_site_id
 _symmetry_equiv_pos_as_xyz
  1  'x, y, z'
loop_
 _atom_site_type_symbol
 _atom_site_label
 _atom_site_symmetry_multiplicity
 _atom_site_fract_x
 _atom_site_fract_y
 _atom_site_fract_z
 _atom_site_occupancy
  Dy  Dy0  1  0.500000  0.500000  0.000000  1
  Dy  Dy1  1  0.076346  0.335805  0.500000  1
  Dy  Dy2  1  0.923654  0.664195  0.500000  1
  Er  Er3  1  0.658433  0.922424  0.500000  1
  Er  Er4  1  0.341567  0.077576  0.500000  1
  Ru  Ru5  1  0.713929  0.286902  0.000000  1
  Ru  Ru6  1  0.286071  0.713098  0.000000  1
  C  C7  1  0.630464  0.370329  0.500000  1
  C  C8  1  0.369536  0.629671  0.500000  1
  C  C9  1  0.000000  0.000000  0.000000  1
  C  C10  1  0.173517  0.168556  0.000000  1
  C  C11  1  0.826483  0.831444  0.000000  1
  C  C12  1  0.000000  0.500000  0.000000  1
  C  C13  1  0.500000  0.000000  0.000000  1
