# generated using pymatgen
data_Ce8Si12Ni3Pd
_symmetry_space_group_name_H-M   'P 1'
_cell_length_a   8.09162900
_cell_length_b   8.09162801
_cell_length_c   8.38287000
_cell_angle_alpha   90.00000000
_cell_angle_beta   90.00000000
_cell_angle_gamma   119.99999176
_symmetry_Int_Tables_number   1
_chemical_formula_structural   Ce8Si12Ni3Pd
_chemical_formula_sum   'Ce8 Si12 Ni3 Pd1'
_cell_volume   475.33004956
_cell_formula_units_Z   1
loop_
 _symmetry_equiv_pos_site_id
 _symmetry_equiv_pos_as_xyz
  1  'x, y, z'
loop_
 _atom_site_type_symbol
 _atom_site_label
 _atom_site_symmetry_multiplicity
 _atom_site_fract_x
 _atom_site_fract_y
 _atom_site_fract_z
 _atom_site_occupancy
  Ce  Ce0  1  0.501667  0.003337  0.248114  1
  Ce  Ce1  1  0.501714  0.003427  0.751936  1
  Ce  Ce2  1  0.996663  0.498333  0.248114  1
  Ce  Ce3  1  0.996573  0.498286  0.751936  1
  Ce  Ce4  1  0.501667  0.498333  0.248114  1
  Ce  Ce5  1  0.501714  0.498286  0.751936  1
  Ce  Ce6  1  0.000000  0.000000  0.248957  1
  Ce  Ce7  1  0.000000  0.000000  0.751075  1
  Si  Si8  1  0.170408  0.340815  0.000017  1
  Si  Si9  1  0.830371  0.660742  0.000095  1
  Si  Si10  1  0.659185  0.829592  0.000017  1
  Si  Si11  1  0.829037  0.658075  0.500023  1
  Si  Si12  1  0.339258  0.169629  0.000095  1
  Si  Si13  1  0.163591  0.327181  0.499981  1
  Si  Si14  1  0.170408  0.829592  0.000017  1
  Si  Si15  1  0.341925  0.170963  0.500023  1
  Si  Si16  1  0.830371  0.169629  0.000095  1
  Si  Si17  1  0.672819  0.836409  0.499981  1
  Si  Si18  1  0.829037  0.170963  0.500023  1
  Si  Si19  1  0.163591  0.836409  0.499981  1
  Ni  Ni20  1  0.333333  0.666667  0.999710  1
  Ni  Ni21  1  0.666667  0.333333  0.999832  1
  Ni  Ni22  1  0.666667  0.333333  0.499751  1
  Pd  Pd23  1  0.333333  0.666667  0.500177  1
