# generated using pymatgen
data_Ho2Er8Si5P
_symmetry_space_group_name_H-M   'P 1'
_cell_length_a   8.32931718
_cell_length_b   8.33673874
_cell_length_c   6.24011100
_cell_angle_alpha   90.00000000
_cell_angle_beta   90.00000000
_cell_angle_gamma   119.94661809
_symmetry_Int_Tables_number   1
_chemical_formula_structural   Ho2Er8Si5P
_chemical_formula_sum   'Ho2 Er8 Si5 P1'
_cell_volume   375.45846432
_cell_formula_units_Z   1
loop_
 _symmetry_equiv_pos_site_id
 _symmetry_equiv_pos_as_xyz
  1  'x, y, z'
loop_
 _atom_site_type_symbol
 _atom_site_label
 _atom_site_symmetry_multiplicity
 _atom_site_fract_x
 _atom_site_fract_y
 _atom_site_fract_z
 _atom_site_occupancy
  Ho  Ho0  1  0.001053  0.757368  0.750000  1
  Ho  Ho1  1  0.755681  0.000016  0.750000  1
  Er  Er2  1  0.000910  0.243855  0.250000  1
  Er  Er3  1  0.756891  0.756066  0.250000  1
  Er  Er4  1  0.243749  0.242811  0.750000  1
  Er  Er5  1  0.243052  0.000101  0.250000  1
  Er  Er6  1  0.333668  0.667237  0.500348  1
  Er  Er7  1  0.666297  0.332665  0.999655  1
  Er  Er8  1  0.666297  0.332665  0.500345  1
  Er  Er9  1  0.333668  0.667237  0.999652  1
  Si  Si10  1  0.394526  0.393937  0.250000  1
  Si  Si11  1  0.000587  0.606105  0.250000  1
  Si  Si12  1  0.000304  0.394054  0.750000  1
  Si  Si13  1  0.605702  0.605593  0.750000  1
  Si  Si14  1  0.606735  0.000008  0.250000  1
  P  P15  1  0.390881  0.000283  0.750000  1
