# generated using pymatgen
data_Li4Si4IrPt3
_symmetry_space_group_name_H-M   'P 1'
_cell_length_a   3.93620100
_cell_length_b   6.82951526
_cell_length_c   6.62402500
_cell_angle_alpha   90.04664527
_cell_angle_beta   90.00000000
_cell_angle_gamma   90.00000000
_symmetry_Int_Tables_number   1
_chemical_formula_structural   Li4Si4IrPt3
_chemical_formula_sum   'Li4 Si4 Ir1 Pt3'
_cell_volume   178.06926506
_cell_formula_units_Z   1
loop_
 _symmetry_equiv_pos_site_id
 _symmetry_equiv_pos_as_xyz
  1  'x, y, z'
loop_
 _atom_site_type_symbol
 _atom_site_label
 _atom_site_symmetry_multiplicity
 _atom_site_fract_x
 _atom_site_fract_y
 _atom_site_fract_z
 _atom_site_occupancy
  Li  Li0  1  0.250000  0.503274  0.160228  1
  Li  Li1  1  0.750000  0.492569  0.839966  1
  Li  Li2  1  0.750000  0.998872  0.660591  1
  Li  Li3  1  0.250000  0.005182  0.337273  1
  Si  Si4  1  0.250000  0.799642  0.872344  1
  Si  Si5  1  0.750000  0.209428  0.120087  1
  Si  Si6  1  0.750000  0.703602  0.373084  1
  Si  Si7  1  0.250000  0.293282  0.633040  1
  Ir  Ir8  1  0.250000  0.143853  0.941679  1
  Pt  Pt9  1  0.250000  0.645832  0.560500  1
  Pt  Pt10  1  0.750000  0.351330  0.440560  1
  Pt  Pt11  1  0.750000  0.853137  0.060649  1
