# generated using pymatgen
data_Ho6Tm4Tl7Hg
_symmetry_space_group_name_H-M   'P 1'
_cell_length_a   9.21398900
_cell_length_b   9.21399051
_cell_length_c   6.64846000
_cell_angle_alpha   90.00000000
_cell_angle_beta   90.00000000
_cell_angle_gamma   119.99999817
_symmetry_Int_Tables_number   1
_chemical_formula_structural   Ho6Tm4Tl7Hg
_chemical_formula_sum   'Ho6 Tm4 Tl7 Hg1'
_cell_volume   488.81795523
_cell_formula_units_Z   1
loop_
 _symmetry_equiv_pos_site_id
 _symmetry_equiv_pos_as_xyz
  1  'x, y, z'
loop_
 _atom_site_type_symbol
 _atom_site_label
 _atom_site_symmetry_multiplicity
 _atom_site_fract_x
 _atom_site_fract_y
 _atom_site_fract_z
 _atom_site_occupancy
  Ho  Ho0  1  0.288412  0.000000  0.748858  1
  Ho  Ho1  1  0.711588  0.000000  0.251142  1
  Ho  Ho2  1  0.000000  0.288412  0.748858  1
  Ho  Ho3  1  0.000000  0.711588  0.251142  1
  Ho  Ho4  1  0.711588  0.711588  0.748858  1
  Ho  Ho5  1  0.288412  0.288412  0.251142  1
  Tm  Tm6  1  0.333333  0.666667  0.500000  1
  Tm  Tm7  1  0.666667  0.333333  0.500000  1
  Tm  Tm8  1  0.666667  0.333333  0.000000  1
  Tm  Tm9  1  0.333333  0.666667  0.000000  1
  Tl  Tl10  1  0.000000  0.000000  0.000000  1
  Tl  Tl11  1  0.627061  0.000000  0.749810  1
  Tl  Tl12  1  0.372939  0.000000  0.250190  1
  Tl  Tl13  1  0.000000  0.627061  0.749810  1
  Tl  Tl14  1  0.000000  0.372939  0.250190  1
  Tl  Tl15  1  0.372939  0.372939  0.749810  1
  Tl  Tl16  1  0.627061  0.627061  0.250190  1
  Hg  Hg17  1  0.000000  0.000000  0.500000  1
