# generated using pymatgen
data_Zr4CuSi4IrRh2
_symmetry_space_group_name_H-M   'P 1'
_cell_length_a   3.90142100
_cell_length_b   6.60210377
_cell_length_c   7.50223904
_cell_angle_alpha   90.45916542
_cell_angle_beta   90.00000000
_cell_angle_gamma   90.00000000
_symmetry_Int_Tables_number   1
_chemical_formula_structural   Zr4CuSi4IrRh2
_chemical_formula_sum   'Zr4 Cu1 Si4 Ir1 Rh2'
_cell_volume   193.23336412
_cell_formula_units_Z   1
loop_
 _symmetry_equiv_pos_site_id
 _symmetry_equiv_pos_as_xyz
  1  'x, y, z'
loop_
 _atom_site_type_symbol
 _atom_site_label
 _atom_site_symmetry_multiplicity
 _atom_site_fract_x
 _atom_site_fract_y
 _atom_site_fract_z
 _atom_site_occupancy
  Zr  Zr0  1  0.250000  0.520036  0.678443  1
  Zr  Zr1  1  0.750000  0.475181  0.319095  1
  Zr  Zr2  1  0.250000  0.018878  0.817567  1
  Zr  Zr3  1  0.750000  0.980335  0.183562  1
  Cu  Cu4  1  0.250000  0.649482  0.063207  1
  Si  Si5  1  0.250000  0.269275  0.117195  1
  Si  Si6  1  0.750000  0.728153  0.878555  1
  Si  Si7  1  0.250000  0.771229  0.384244  1
  Si  Si8  1  0.750000  0.225457  0.618785  1
  Ir  Ir9  1  0.250000  0.148372  0.435669  1
  Rh  Rh10  1  0.750000  0.853723  0.563363  1
  Rh  Rh11  1  0.750000  0.359876  0.940317  1
