# generated using pymatgen
data_Rb2Np(AgSe2)2
_symmetry_space_group_name_H-M   'P 1'
_cell_length_a   8.12413515
_cell_length_b   8.12413632
_cell_length_c   8.31034000
_cell_angle_alpha   71.08518186
_cell_angle_beta   71.08517157
_cell_angle_gamma   30.98192674
_symmetry_Int_Tables_number   1
_chemical_formula_structural   Rb2Np(AgSe2)2
_chemical_formula_sum   'Rb2 Np1 Ag2 Se4'
_cell_volume   265.89414276
_cell_formula_units_Z   1
loop_
 _symmetry_equiv_pos_site_id
 _symmetry_equiv_pos_as_xyz
  1  'x, y, z'
loop_
 _atom_site_type_symbol
 _atom_site_label
 _atom_site_symmetry_multiplicity
 _atom_site_fract_x
 _atom_site_fract_y
 _atom_site_fract_z
 _atom_site_occupancy
  Rb  Rb0  1  0.863752  0.863752  0.570988  1
  Rb  Rb1  1  0.136248  0.136248  0.429012  1
  Np  Np2  1  0.000000  0.000000  0.000000  1
  Ag  Ag3  1  0.319234  0.319234  0.983340  1
  Ag  Ag4  1  0.680766  0.680766  0.016660  1
  Se  Se5  1  0.809139  0.809138  0.185967  1
  Se  Se6  1  0.190861  0.190862  0.814033  1
  Se  Se7  1  0.489619  0.489619  0.773123  1
  Se  Se8  1  0.510381  0.510381  0.226877  1
