# generated using pymatgen
data_Tb2Er3Co19(SiP3)3
_symmetry_space_group_name_H-M   'P 1'
_cell_length_a   12.03474400
_cell_length_b   12.03474397
_cell_length_c   3.68296400
_cell_angle_alpha   90.00000000
_cell_angle_beta   90.00000000
_cell_angle_gamma   120.00000008
_symmetry_Int_Tables_number   1
_chemical_formula_structural   Tb2Er3Co19(SiP3)3
_chemical_formula_sum   'Tb2 Er3 Co19 Si3 P9'
_cell_volume   461.95728168
_cell_formula_units_Z   1
loop_
 _symmetry_equiv_pos_site_id
 _symmetry_equiv_pos_as_xyz
  1  'x, y, z'
loop_
 _atom_site_type_symbol
 _atom_site_label
 _atom_site_symmetry_multiplicity
 _atom_site_fract_x
 _atom_site_fract_y
 _atom_site_fract_z
 _atom_site_occupancy
  Tb  Tb0  1  0.333333  0.666667  0.000000  1
  Tb  Tb1  1  0.666667  0.333333  0.000000  1
  Er  Er2  1  0.000000  0.184801  0.500000  1
  Er  Er3  1  0.815199  0.815199  0.500000  1
  Er  Er4  1  0.184801  0.000000  0.500000  1
  Co  Co5  1  0.623075  0.824974  0.000000  1
  Co  Co6  1  0.175026  0.798102  0.000000  1
  Co  Co7  1  0.201898  0.376925  0.000000  1
  Co  Co8  1  0.376925  0.201898  0.000000  1
  Co  Co9  1  0.824974  0.623075  0.000000  1
  Co  Co10  1  0.798102  0.175026  0.000000  1
  Co  Co11  1  0.000000  0.556590  0.000000  1
  Co  Co12  1  0.443410  0.443410  0.000000  1
  Co  Co13  1  0.556590  0.000000  0.000000  1
  Co  Co14  1  0.515468  0.642176  0.500000  1
  Co  Co15  1  0.357824  0.873293  0.500000  1
  Co  Co16  1  0.126707  0.484532  0.500000  1
  Co  Co17  1  0.484532  0.126707  0.500000  1
  Co  Co18  1  0.642176  0.515468  0.500000  1
  Co  Co19  1  0.873293  0.357824  0.500000  1
  Co  Co20  1  0.000000  0.716488  0.500000  1
  Co  Co21  1  0.283512  0.283512  0.500000  1
  Co  Co22  1  0.716488  0.000000  0.500000  1
  Co  Co23  1  0.000000  0.000000  0.000000  1
  Si  Si24  1  0.000000  0.368519  0.000000  1
  Si  Si25  1  0.631481  0.631481  0.000000  1
  Si  Si26  1  0.368519  0.000000  0.000000  1
  P  P27  1  0.520887  0.835068  0.500000  1
  P  P28  1  0.164932  0.685819  0.500000  1
  P  P29  1  0.314181  0.479113  0.500000  1
  P  P30  1  0.479113  0.314181  0.500000  1
  P  P31  1  0.835068  0.520887  0.500000  1
  P  P32  1  0.685819  0.164932  0.500000  1
  P  P33  1  0.000000  0.818894  0.000000  1
  P  P34  1  0.181106  0.181106  0.000000  1
  P  P35  1  0.818894  0.000000  0.000000  1
