# generated using pymatgen
data_Pr2Y3Ta2Nb(Co4P3)4
_symmetry_space_group_name_H-M   'P 1'
_cell_length_a   12.25379600
_cell_length_b   12.25379496
_cell_length_c   3.71893100
_cell_angle_alpha   90.00000000
_cell_angle_beta   90.00000000
_cell_angle_gamma   119.99999742
_symmetry_Int_Tables_number   1
_chemical_formula_structural   Pr2Y3Ta2Nb(Co4P3)4
_chemical_formula_sum   'Pr2 Y3 Ta2 Nb1 Co16 P12'
_cell_volume   483.60414943
_cell_formula_units_Z   1
loop_
 _symmetry_equiv_pos_site_id
 _symmetry_equiv_pos_as_xyz
  1  'x, y, z'
loop_
 _atom_site_type_symbol
 _atom_site_label
 _atom_site_symmetry_multiplicity
 _atom_site_fract_x
 _atom_site_fract_y
 _atom_site_fract_z
 _atom_site_occupancy
  Pr  Pr0  1  0.333398  0.666558  0.000000  1
  Pr  Pr1  1  0.666558  0.333398  0.000000  1
  Y  Y2  1  0.816061  0.000073  0.500000  1
  Y  Y3  1  0.000073  0.816061  0.500000  1
  Y  Y4  1  0.184169  0.184169  0.500000  1
  Ta  Ta5  1  0.443072  0.000092  0.000000  1
  Ta  Ta6  1  0.000092  0.443072  0.000000  1
  Nb  Nb7  1  0.556046  0.556046  0.000000  1
  Co  Co8  1  0.277725  0.999977  0.500000  1
  Co  Co9  1  0.999977  0.277725  0.500000  1
  Co  Co10  1  0.723054  0.723054  0.500000  1
  Co  Co11  1  0.628787  0.804737  0.000000  1
  Co  Co12  1  0.196027  0.824646  0.000000  1
  Co  Co13  1  0.175203  0.371275  0.000000  1
  Co  Co14  1  0.371275  0.175203  0.000000  1
  Co  Co15  1  0.804737  0.628787  0.000000  1
  Co  Co16  1  0.824646  0.196027  0.000000  1
  Co  Co17  1  0.522025  0.876529  0.500000  1
  Co  Co18  1  0.123674  0.645740  0.500000  1
  Co  Co19  1  0.353114  0.477348  0.500000  1
  Co  Co20  1  0.477348  0.353114  0.500000  1
  Co  Co21  1  0.876529  0.522025  0.500000  1
  Co  Co22  1  0.645740  0.123674  0.500000  1
  Co  Co23  1  0.999890  0.999890  0.000000  1
  P  P24  1  0.176779  0.000020  0.000000  1
  P  P25  1  0.000020  0.176779  0.000000  1
  P  P26  1  0.822808  0.822808  0.000000  1
  P  P27  1  0.525974  0.690760  0.500000  1
  P  P28  1  0.309643  0.835155  0.500000  1
  P  P29  1  0.164928  0.474475  0.500000  1
  P  P30  1  0.474475  0.164928  0.500000  1
  P  P31  1  0.690760  0.525974  0.500000  1
  P  P32  1  0.835155  0.309643  0.500000  1
  P  P33  1  0.643230  0.999870  0.000000  1
  P  P34  1  0.999870  0.643230  0.000000  1
  P  P35  1  0.357136  0.357136  0.000000  1
