# generated using pymatgen
data_Tb4Lu2GaNiRu
_symmetry_space_group_name_H-M   'P 1'
_cell_length_a   8.31928042
_cell_length_b   8.31928120
_cell_length_c   8.31928018
_cell_angle_alpha   113.16982038
_cell_angle_beta   110.40528011
_cell_angle_gamma   104.94453345
_symmetry_Int_Tables_number   1
_chemical_formula_structural   Tb4Lu2GaNiRu
_chemical_formula_sum   'Tb8 Lu4 Ga2 Ni2 Ru2'
_cell_volume   440.90315262
_cell_formula_units_Z   2
loop_
 _symmetry_equiv_pos_site_id
 _symmetry_equiv_pos_as_xyz
  1  'x, y, z'
loop_
 _atom_site_type_symbol
 _atom_site_label
 _atom_site_symmetry_multiplicity
 _atom_site_fract_x
 _atom_site_fract_y
 _atom_site_fract_z
 _atom_site_occupancy
  Tb  Tb0  1  0.435836  0.242514  0.193322  1
  Tb  Tb1  1  0.564164  0.757486  0.806678  1
  Tb  Tb2  1  0.049192  0.242514  0.806678  1
  Tb  Tb3  1  0.950808  0.757486  0.193322  1
  Tb  Tb4  1  0.179790  0.280146  0.459936  1
  Tb  Tb5  1  0.820210  0.719854  0.540064  1
  Tb  Tb6  1  0.179790  0.719854  0.899643  1
  Tb  Tb7  1  0.820210  0.280146  0.100357  1
  Lu  Lu8  1  0.331637  0.646917  0.315280  1
  Lu  Lu9  1  0.668363  0.353083  0.684720  1
  Lu  Lu10  1  0.331637  0.016358  0.684720  1
  Lu  Lu11  1  0.668363  0.983642  0.315280  1
  Ga  Ga12  1  0.500000  0.500000  0.000000  1
  Ga  Ga13  1  0.000000  0.000000  0.000000  1
  Ni  Ni14  1  0.121698  0.621698  0.500000  1
  Ni  Ni15  1  0.878302  0.378302  0.500000  1
  Ru  Ru16  1  0.331226  0.000000  0.331226  1
  Ru  Ru17  1  0.668774  0.000000  0.668774  1
