# generated using pymatgen
data_Zr2H6IrOs
_symmetry_space_group_name_H-M   'P 1'
_cell_length_a   5.63806332
_cell_length_b   5.63806358
_cell_length_c   4.48905600
_cell_angle_alpha   90.00000000
_cell_angle_beta   90.00000000
_cell_angle_gamma   140.63517397
_symmetry_Int_Tables_number   1
_chemical_formula_structural   Zr2H6IrOs
_chemical_formula_sum   'Zr2 H6 Ir1 Os1'
_cell_volume   90.50645061
_cell_formula_units_Z   1
loop_
 _symmetry_equiv_pos_site_id
 _symmetry_equiv_pos_as_xyz
  1  'x, y, z'
loop_
 _atom_site_type_symbol
 _atom_site_label
 _atom_site_symmetry_multiplicity
 _atom_site_fract_x
 _atom_site_fract_y
 _atom_site_fract_z
 _atom_site_occupancy
  Zr  Zr0  1  0.126323  0.873680  0.250000  1
  Zr  Zr1  1  0.871706  0.128297  0.750001  1
  H  H2  1  0.695068  0.304934  0.023663  1
  H  H3  1  0.910441  0.089562  0.250000  1
  H  H4  1  0.695068  0.304934  0.476339  1
  H  H5  1  0.306901  0.693101  0.524763  1
  H  H6  1  0.087189  0.912814  0.750001  1
  H  H7  1  0.306901  0.693101  0.975237  1
  Ir  Ir8  1  0.417888  0.582115  0.250000  1
  Os  Os9  1  0.582528  0.417475  0.750001  1
