# generated using pymatgen
data_Dy4Co17(Si4Ni)3
_symmetry_space_group_name_H-M   'P 1'
_cell_length_a   3.73850800
_cell_length_b   6.79182458
_cell_length_c   18.41787490
_cell_angle_alpha   89.87879161
_cell_angle_beta   90.00000000
_cell_angle_gamma   90.00000000
_symmetry_Int_Tables_number   1
_chemical_formula_structural   Dy4Co17(Si4Ni)3
_chemical_formula_sum   'Dy4 Co17 Si12 Ni3'
_cell_volume   467.65256642
_cell_formula_units_Z   1
loop_
 _symmetry_equiv_pos_site_id
 _symmetry_equiv_pos_as_xyz
  1  'x, y, z'
loop_
 _atom_site_type_symbol
 _atom_site_label
 _atom_site_symmetry_multiplicity
 _atom_site_fract_x
 _atom_site_fract_y
 _atom_site_fract_z
 _atom_site_occupancy
  Dy  Dy0  1  0.250000  0.873019  0.356963  1
  Dy  Dy1  1  0.750000  0.126909  0.643321  1
  Dy  Dy2  1  0.750000  0.373442  0.142275  1
  Dy  Dy3  1  0.250000  0.625268  0.857317  1
  Co  Co4  1  0.250000  0.056710  0.203518  1
  Co  Co5  1  0.750000  0.942922  0.795868  1
  Co  Co6  1  0.750000  0.557233  0.295007  1
  Co  Co7  1  0.250000  0.442437  0.705048  1
  Co  Co8  1  0.250000  0.625092  0.488633  1
  Co  Co9  1  0.750000  0.374463  0.511410  1
  Co  Co10  1  0.750000  0.121368  0.009612  1
  Co  Co11  1  0.250000  0.873907  0.990195  1
  Co  Co12  1  0.250000  0.679173  0.201979  1
  Co  Co13  1  0.750000  0.321500  0.799052  1
  Co  Co14  1  0.750000  0.178678  0.297119  1
  Co  Co15  1  0.250000  0.820944  0.702682  1
  Co  Co16  1  0.250000  0.358236  0.386490  1
  Co  Co17  1  0.750000  0.641945  0.613205  1
  Co  Co18  1  0.750000  0.864336  0.111167  1
  Co  Co19  1  0.250000  0.136439  0.889350  1
  Co  Co20  1  0.250000  0.374897  0.005118  1
  Si  Si21  1  0.250000  0.092984  0.080540  1
  Si  Si22  1  0.750000  0.911184  0.918006  1
  Si  Si23  1  0.750000  0.583999  0.417940  1
  Si  Si24  1  0.250000  0.415495  0.582080  1
  Si  Si25  1  0.250000  0.649804  0.077153  1
  Si  Si26  1  0.750000  0.349357  0.924670  1
  Si  Si27  1  0.750000  0.155982  0.422335  1
  Si  Si28  1  0.250000  0.844139  0.577392  1
  Si  Si29  1  0.250000  0.367322  0.262924  1
  Si  Si30  1  0.750000  0.631921  0.736713  1
  Si  Si31  1  0.750000  0.868099  0.235752  1
  Si  Si32  1  0.250000  0.132134  0.764394  1
  Ni  Ni33  1  0.750000  0.628725  0.995091  1
  Ni  Ni34  1  0.750000  0.874022  0.494415  1
  Ni  Ni35  1  0.250000  0.125913  0.505266  1
