# generated using pymatgen
data_VFeNiClO4
_symmetry_space_group_name_H-M   'P 1'
_cell_length_a   6.73986408
_cell_length_b   5.09654398
_cell_length_c   7.11956911
_cell_angle_alpha   88.54285229
_cell_angle_beta   89.98839769
_cell_angle_gamma   90.00164061
_symmetry_Int_Tables_number   1
_chemical_formula_structural   VFeNiClO4
_chemical_formula_sum   'V2 Fe2 Ni2 Cl2 O8'
_cell_volume   244.47820747
_cell_formula_units_Z   2
loop_
 _symmetry_equiv_pos_site_id
 _symmetry_equiv_pos_as_xyz
  1  'x, y, z'
loop_
 _atom_site_type_symbol
 _atom_site_label
 _atom_site_symmetry_multiplicity
 _atom_site_fract_x
 _atom_site_fract_y
 _atom_site_fract_z
 _atom_site_occupancy
  V  V0  1  0.750071  0.506741  0.768487  1
  V  V1  1  0.249929  0.493259  0.231513  1
  Fe  Fe2  1  0.250093  0.344044  0.737800  1
  Fe  Fe3  1  0.749907  0.655956  0.262200  1
  Ni  Ni4  1  0.000000  0.000000  0.000000  1
  Ni  Ni5  1  0.500000  0.000000  0.000000  1
  Cl  Cl6  1  0.250042  0.833272  0.771850  1
  Cl  Cl7  1  0.749958  0.166728  0.228150  1
  O  O8  1  0.039976  0.692622  0.191616  1
  O  O9  1  0.249904  0.372775  0.453031  1
  O  O10  1  0.459919  0.692608  0.191586  1
  O  O11  1  0.960024  0.307378  0.808384  1
  O  O12  1  0.750096  0.627225  0.546969  1
  O  O13  1  0.249964  0.222856  0.072171  1
  O  O14  1  0.540081  0.307392  0.808414  1
  O  O15  1  0.750036  0.777144  0.927829  1
