# generated using pymatgen
data_Nb8Fe3Co4Si14Os
_symmetry_space_group_name_H-M   'P 1'
_cell_length_a   9.26156614
_cell_length_b   9.26543366
_cell_length_c   9.25141938
_cell_angle_alpha   94.29959836
_cell_angle_beta   94.27737486
_cell_angle_gamma   148.28117555
_symmetry_Int_Tables_number   1
_chemical_formula_structural   Nb8Fe3Co4Si14Os
_chemical_formula_sum   'Nb8 Fe3 Co4 Si14 Os1'
_cell_volume   401.45673354
_cell_formula_units_Z   1
loop_
 _symmetry_equiv_pos_site_id
 _symmetry_equiv_pos_as_xyz
  1  'x, y, z'
loop_
 _atom_site_type_symbol
 _atom_site_label
 _atom_site_symmetry_multiplicity
 _atom_site_fract_x
 _atom_site_fract_y
 _atom_site_fract_z
 _atom_site_occupancy
  Nb  Nb0  1  0.310119  0.499755  0.809185  1
  Nb  Nb1  1  0.690793  0.500948  0.193174  1
  Nb  Nb2  1  0.502380  0.692224  0.193174  1
  Nb  Nb3  1  0.499067  0.309430  0.809185  1
  Nb  Nb4  1  0.134499  0.134499  0.268996  1
  Nb  Nb5  1  0.865175  0.865175  0.730351  1
  Nb  Nb6  1  0.136139  0.868042  0.000961  1
  Nb  Nb7  1  0.864822  0.132919  0.000961  1
  Fe  Fe8  1  0.103761  0.603761  0.207523  1
  Fe  Fe9  1  0.900392  0.099413  0.497636  1
  Fe  Fe10  1  0.597243  0.398223  0.497636  1
  Co  Co11  1  0.598896  0.098896  0.197795  1
  Co  Co12  1  0.899931  0.399931  0.799861  1
  Co  Co13  1  0.100093  0.899063  0.500345  1
  Co  Co14  1  0.400252  0.601282  0.500345  1
  Si  Si15  1  0.291119  0.291119  0.582237  1
  Si  Si16  1  0.708664  0.708664  0.417328  1
  Si  Si17  1  0.281689  0.695548  0.006081  1
  Si  Si18  1  0.724392  0.310533  0.006081  1
  Si  Si19  1  0.076428  0.479570  0.587991  1
  Si  Si20  1  0.899606  0.495396  0.405499  1
  Si  Si21  1  0.505893  0.910103  0.405499  1
  Si  Si22  1  0.511563  0.108421  0.587991  1
  Si  Si23  1  0.249347  0.249141  0.000318  1
  Si  Si24  1  0.750972  0.751177  0.000318  1
  Si  Si25  1  0.297521  0.000370  0.296719  1
  Si  Si26  1  0.716313  0.006625  0.701610  1
  Si  Si27  1  0.985297  0.694985  0.701610  1
  Si  Si28  1  0.999198  0.296349  0.296719  1
  Os  Os29  1  0.398437  0.898437  0.796873  1
