# generated using pymatgen
data_Mg(OsO3)2
_symmetry_space_group_name_H-M   'P 1'
_cell_length_a   4.64345700
_cell_length_b   4.64345700
_cell_length_c   9.28815600
_cell_angle_alpha   90.00000000
_cell_angle_beta   90.00000000
_cell_angle_gamma   90.00000000
_symmetry_Int_Tables_number   1
_chemical_formula_structural   Mg(OsO3)2
_chemical_formula_sum   'Mg2 Os4 O12'
_cell_volume   200.26836738
_cell_formula_units_Z   2
loop_
 _symmetry_equiv_pos_site_id
 _symmetry_equiv_pos_as_xyz
  1  'x, y, z'
loop_
 _atom_site_type_symbol
 _atom_site_label
 _atom_site_symmetry_multiplicity
 _atom_site_fract_x
 _atom_site_fract_y
 _atom_site_fract_z
 _atom_site_occupancy
  Mg  Mg0  1  0.000000  0.000000  0.000000  1
  Mg  Mg1  1  0.500000  0.500000  0.500000  1
  Os  Os2  1  0.500000  0.500000  0.829887  1
  Os  Os3  1  0.000000  0.000000  0.329887  1
  Os  Os4  1  0.500000  0.500000  0.170113  1
  Os  Os5  1  0.000000  0.000000  0.670113  1
  O  O6  1  0.705441  0.705441  0.676077  1
  O  O7  1  0.294559  0.294559  0.676077  1
  O  O8  1  0.705441  0.705441  0.323923  1
  O  O9  1  0.205441  0.794559  0.176077  1
  O  O10  1  0.794559  0.205441  0.176077  1
  O  O11  1  0.794559  0.205441  0.823923  1
  O  O12  1  0.317740  0.317740  0.000000  1
  O  O13  1  0.182260  0.817740  0.500000  1
  O  O14  1  0.817740  0.182260  0.500000  1
  O  O15  1  0.682260  0.682260  0.000000  1
  O  O16  1  0.294559  0.294559  0.323923  1
  O  O17  1  0.205441  0.794559  0.823923  1
