# generated using pymatgen
data_TmFe2MoP3Rh2
_symmetry_space_group_name_H-M   'P 1'
_cell_length_a   3.78955400
_cell_length_b   10.57503100
_cell_length_c   12.27415900
_cell_angle_alpha   90.00000000
_cell_angle_beta   90.00000000
_cell_angle_gamma   90.00000000
_symmetry_Int_Tables_number   1
_chemical_formula_structural   TmFe2MoP3Rh2
_chemical_formula_sum   'Tm4 Fe8 Mo4 P12 Rh8'
_cell_volume   491.88263856
_cell_formula_units_Z   4
loop_
 _symmetry_equiv_pos_site_id
 _symmetry_equiv_pos_as_xyz
  1  'x, y, z'
loop_
 _atom_site_type_symbol
 _atom_site_label
 _atom_site_symmetry_multiplicity
 _atom_site_fract_x
 _atom_site_fract_y
 _atom_site_fract_z
 _atom_site_occupancy
  Tm  Tm0  1  0.250000  0.578583  0.710218  1
  Tm  Tm1  1  0.250000  0.921417  0.210218  1
  Tm  Tm2  1  0.750000  0.421417  0.289782  1
  Tm  Tm3  1  0.750000  0.078583  0.789782  1
  Fe  Fe4  1  0.250000  0.881160  0.696391  1
  Fe  Fe5  1  0.250000  0.618840  0.196391  1
  Fe  Fe6  1  0.750000  0.118840  0.303609  1
  Fe  Fe7  1  0.750000  0.381160  0.803609  1
  Fe  Fe8  1  0.250000  0.462390  0.936498  1
  Fe  Fe9  1  0.250000  0.037610  0.436498  1
  Fe  Fe10  1  0.750000  0.537610  0.063502  1
  Fe  Fe11  1  0.750000  0.962390  0.563502  1
  Mo  Mo12  1  0.250000  0.700600  0.990212  1
  Mo  Mo13  1  0.250000  0.799400  0.490212  1
  Mo  Mo14  1  0.750000  0.299400  0.009788  1
  Mo  Mo15  1  0.750000  0.200600  0.509788  1
  P  P16  1  0.250000  0.434181  0.112843  1
  P  P17  1  0.250000  0.065819  0.612843  1
  P  P18  1  0.750000  0.565819  0.887157  1
  P  P19  1  0.750000  0.934181  0.387157  1
  P  P20  1  0.250000  0.272347  0.866114  1
  P  P21  1  0.250000  0.227653  0.366114  1
  P  P22  1  0.750000  0.727653  0.133886  1
  P  P23  1  0.750000  0.772347  0.633886  1
  P  P24  1  0.250000  0.600324  0.382307  1
  P  P25  1  0.250000  0.899676  0.882307  1
  P  P26  1  0.750000  0.399676  0.617693  1
  P  P27  1  0.750000  0.100324  0.117693  1
  Rh  Rh28  1  0.250000  0.405773  0.480579  1
  Rh  Rh29  1  0.250000  0.094227  0.980579  1
  Rh  Rh30  1  0.750000  0.594227  0.519421  1
  Rh  Rh31  1  0.750000  0.905773  0.019421  1
  Rh  Rh32  1  0.250000  0.228111  0.178229  1
  Rh  Rh33  1  0.250000  0.271889  0.678229  1
  Rh  Rh34  1  0.750000  0.771889  0.821771  1
  Rh  Rh35  1  0.750000  0.728111  0.321771  1
