# generated using pymatgen
data_EuNb8NiSe16
_symmetry_space_group_name_H-M   'P 1'
_cell_length_a   7.06374713
_cell_length_b   7.06367048
_cell_length_c   14.00488700
_cell_angle_alpha   90.04810832
_cell_angle_beta   89.95550982
_cell_angle_gamma   119.99716492
_symmetry_Int_Tables_number   1
_chemical_formula_structural   EuNb8NiSe16
_chemical_formula_sum   'Eu1 Nb8 Ni1 Se16'
_cell_volume   605.18482840
_cell_formula_units_Z   1
loop_
 _symmetry_equiv_pos_site_id
 _symmetry_equiv_pos_as_xyz
  1  'x, y, z'
loop_
 _atom_site_type_symbol
 _atom_site_label
 _atom_site_symmetry_multiplicity
 _atom_site_fract_x
 _atom_site_fract_y
 _atom_site_fract_z
 _atom_site_occupancy
  Eu  Eu0  1  0.000000  0.000000  0.500000  1
  Nb  Nb1  1  0.506477  0.493744  0.778250  1
  Nb  Nb2  1  0.012942  0.506333  0.221766  1
  Nb  Nb3  1  0.493359  0.986683  0.221770  1
  Nb  Nb4  1  0.506641  0.013317  0.778230  1
  Nb  Nb5  1  0.987058  0.493667  0.778234  1
  Nb  Nb6  1  0.493523  0.506256  0.221750  1
  Nb  Nb7  1  0.000110  0.000319  0.777590  1
  Nb  Nb8  1  0.999890  0.999681  0.222410  1
  Ni  Ni9  1  0.000000  0.000000  0.000000  1
  Se  Se10  1  0.831429  0.168195  0.340897  1
  Se  Se11  1  0.831446  0.663070  0.340928  1
  Se  Se12  1  0.336587  0.168226  0.340896  1
  Se  Se13  1  0.663901  0.832264  0.894583  1
  Se  Se14  1  0.168554  0.336930  0.659072  1
  Se  Se15  1  0.168059  0.832249  0.894549  1
  Se  Se16  1  0.168043  0.336444  0.894628  1
  Se  Se17  1  0.831941  0.167751  0.105451  1
  Se  Se18  1  0.336099  0.167736  0.105417  1
  Se  Se19  1  0.663413  0.831774  0.659104  1
  Se  Se20  1  0.333388  0.666290  0.100765  1
  Se  Se21  1  0.666819  0.333515  0.654334  1
  Se  Se22  1  0.666612  0.333710  0.899235  1
  Se  Se23  1  0.333181  0.666485  0.345666  1
  Se  Se24  1  0.831957  0.663556  0.105372  1
  Se  Se25  1  0.168571  0.831805  0.659103  1
