# generated using pymatgen
data_LiTaMnO4
_symmetry_space_group_name_H-M   'P 1'
_cell_length_a   6.25134503
_cell_length_b   8.65713604
_cell_length_c   6.25077505
_cell_angle_alpha   90.01025549
_cell_angle_beta   89.99874435
_cell_angle_gamma   89.99240370
_symmetry_Int_Tables_number   1
_chemical_formula_structural   LiTaMnO4
_chemical_formula_sum   'Li4 Ta4 Mn4 O16'
_cell_volume   338.28408849
_cell_formula_units_Z   4
loop_
 _symmetry_equiv_pos_site_id
 _symmetry_equiv_pos_as_xyz
  1  'x, y, z'
loop_
 _atom_site_type_symbol
 _atom_site_label
 _atom_site_symmetry_multiplicity
 _atom_site_fract_x
 _atom_site_fract_y
 _atom_site_fract_z
 _atom_site_occupancy
  Li  Li0  1  0.223098  0.999982  0.000014  1
  Li  Li1  1  0.776917  0.499999  0.999968  1
  Li  Li2  1  0.999995  0.250010  0.223112  1
  Li  Li3  1  0.000013  0.749997  0.776893  1
  Ta  Ta4  1  0.773830  0.499996  0.499996  1
  Ta  Ta5  1  0.500028  0.749993  0.773823  1
  Ta  Ta6  1  0.500013  0.250003  0.226211  1
  Ta  Ta7  1  0.226210  0.999998  0.500016  1
  Mn  Mn8  1  0.251150  0.625019  0.251165  1
  Mn  Mn9  1  0.251260  0.375016  0.748829  1
  Mn  Mn10  1  0.748813  0.874989  0.251208  1
  Mn  Mn11  1  0.748732  0.124977  0.748790  1
  O  O12  1  0.266263  0.253776  0.031939  1
  O  O13  1  0.733734  0.246226  0.031916  1
  O  O14  1  0.031945  0.996205  0.266249  1
  O  O15  1  0.968064  0.503792  0.266239  1
  O  O16  1  0.031913  0.003811  0.733749  1
  O  O17  1  0.968083  0.496215  0.733730  1
  O  O18  1  0.266265  0.746231  0.968067  1
  O  O19  1  0.733732  0.753783  0.968091  1
  O  O20  1  0.483746  0.020509  0.271565  1
  O  O21  1  0.516234  0.479494  0.271587  1
  O  O22  1  0.271576  0.229505  0.483753  1
  O  O23  1  0.728426  0.270503  0.483724  1
  O  O24  1  0.271566  0.770498  0.516258  1
  O  O25  1  0.728398  0.729492  0.516266  1
  O  O26  1  0.516273  0.520504  0.728429  1
  O  O27  1  0.483722  0.979477  0.728418  1
