# generated using pymatgen
data_Er5GaBi2
_symmetry_space_group_name_H-M   'P 1'
_cell_length_a   8.02753300
_cell_length_b   9.24170500
_cell_length_c   11.96084500
_cell_angle_alpha   90.00000000
_cell_angle_beta   90.00000000
_cell_angle_gamma   90.00000000
_symmetry_Int_Tables_number   1
_chemical_formula_structural   Er5GaBi2
_chemical_formula_sum   'Er20 Ga4 Bi8'
_cell_volume   887.35226763
_cell_formula_units_Z   4
loop_
 _symmetry_equiv_pos_site_id
 _symmetry_equiv_pos_as_xyz
  1  'x, y, z'
loop_
 _atom_site_type_symbol
 _atom_site_label
 _atom_site_symmetry_multiplicity
 _atom_site_fract_x
 _atom_site_fract_y
 _atom_site_fract_z
 _atom_site_occupancy
  Er  Er0  1  0.670432  0.750000  0.715866  1
  Er  Er1  1  0.329568  0.250000  0.284134  1
  Er  Er2  1  0.170432  0.250000  0.784134  1
  Er  Er3  1  0.829568  0.750000  0.215866  1
  Er  Er4  1  0.143506  0.750000  0.793888  1
  Er  Er5  1  0.856494  0.250000  0.206112  1
  Er  Er6  1  0.643506  0.250000  0.706112  1
  Er  Er7  1  0.356494  0.750000  0.293888  1
  Er  Er8  1  0.539343  0.750000  0.002714  1
  Er  Er9  1  0.460657  0.250000  0.997286  1
  Er  Er10  1  0.039343  0.250000  0.497286  1
  Er  Er11  1  0.960657  0.750000  0.502714  1
  Er  Er12  1  0.819229  0.445561  0.936669  1
  Er  Er13  1  0.180771  0.554439  0.063331  1
  Er  Er14  1  0.319229  0.554439  0.563331  1
  Er  Er15  1  0.180771  0.945561  0.063331  1
  Er  Er16  1  0.680771  0.445561  0.436669  1
  Er  Er17  1  0.819229  0.054439  0.936669  1
  Er  Er18  1  0.680771  0.054439  0.436669  1
  Er  Er19  1  0.319229  0.945561  0.563331  1
  Ga  Ga20  1  0.908472  0.750000  0.975827  1
  Ga  Ga21  1  0.091528  0.250000  0.024173  1
  Ga  Ga22  1  0.408472  0.250000  0.524173  1
  Ga  Ga23  1  0.591528  0.750000  0.475827  1
  Bi  Bi24  1  0.935979  0.009548  0.674460  1
  Bi  Bi25  1  0.064021  0.990452  0.325540  1
  Bi  Bi26  1  0.435979  0.990452  0.825540  1
  Bi  Bi27  1  0.064021  0.509548  0.325540  1
  Bi  Bi28  1  0.564021  0.009548  0.174460  1
  Bi  Bi29  1  0.935979  0.490452  0.674460  1
  Bi  Bi30  1  0.564021  0.490452  0.174460  1
  Bi  Bi31  1  0.435979  0.509548  0.825540  1
