# generated using pymatgen
data_K6LuInSb4
_symmetry_space_group_name_H-M   'P 1'
_cell_length_a   9.84023792
_cell_length_b   9.84023780
_cell_length_c   9.84023923
_cell_angle_alpha   129.49372820
_cell_angle_beta   68.32399797
_cell_angle_gamma   137.16913149
_symmetry_Int_Tables_number   1
_chemical_formula_structural   K6LuInSb4
_chemical_formula_sum   'K6 Lu1 In1 Sb4'
_cell_volume   491.25200161
_cell_formula_units_Z   1
loop_
 _symmetry_equiv_pos_site_id
 _symmetry_equiv_pos_as_xyz
  1  'x, y, z'
loop_
 _atom_site_type_symbol
 _atom_site_label
 _atom_site_symmetry_multiplicity
 _atom_site_fract_x
 _atom_site_fract_y
 _atom_site_fract_z
 _atom_site_occupancy
  K  K0  1  0.310206  0.690618  0.012667  1
  K  K1  1  0.189794  0.202462  0.380412  1
  K  K2  1  0.750000  0.250000  0.500000  1
  K  K3  1  0.250000  0.749999  0.499999  1
  K  K4  1  0.822051  0.809383  0.619589  1
  K  K5  1  0.677949  0.297539  0.987334  1
  Lu  Lu6  1  0.750000  0.750000  0.000000  1
  In  In7  1  0.250000  0.250000  0.000000  1
  Sb  Sb8  1  0.899571  0.201522  0.094692  1
  Sb  Sb9  1  0.600430  0.695123  0.301952  1
  Sb  Sb10  1  0.393170  0.298477  0.698047  1
  Sb  Sb11  1  0.106830  0.804877  0.905307  1
