# generated using pymatgen
data_Ho7Er2Mg(BiAu2)2
_symmetry_space_group_name_H-M   'P 1'
_cell_length_a   8.70788008
_cell_length_b   8.70916897
_cell_length_c   8.70801063
_cell_angle_alpha   125.63821719
_cell_angle_beta   125.63613415
_cell_angle_gamma   80.49184387
_symmetry_Int_Tables_number   1
_chemical_formula_structural   Ho7Er2Mg(BiAu2)2
_chemical_formula_sum   'Ho7 Er2 Mg1 Bi2 Au4'
_cell_volume   420.74705296
_cell_formula_units_Z   1
loop_
 _symmetry_equiv_pos_site_id
 _symmetry_equiv_pos_as_xyz
  1  'x, y, z'
loop_
 _atom_site_type_symbol
 _atom_site_label
 _atom_site_symmetry_multiplicity
 _atom_site_fract_x
 _atom_site_fract_y
 _atom_site_fract_z
 _atom_site_occupancy
  Ho  Ho0  1  0.711142  0.196456  0.188253  1
  Ho  Ho1  1  0.522977  0.711099  0.514694  1
  Ho  Ho2  1  0.196411  0.008234  0.485257  1
  Ho  Ho3  1  0.991745  0.477038  0.188095  1
  Ho  Ho4  1  0.288872  0.803565  0.811845  1
  Ho  Ho5  1  0.477094  0.288936  0.485336  1
  Ho  Ho6  1  0.803629  0.991804  0.514742  1
  Er  Er7  1  0.499921  0.500011  0.999978  1
  Er  Er8  1  0.008333  0.523083  0.811748  1
  Mg  Mg9  1  0.999993  0.999959  0.999974  1
  Bi  Bi10  1  0.746029  0.745922  0.999993  1
  Bi  Bi11  1  0.254015  0.254056  0.999998  1
  Au  Au12  1  0.635061  0.141548  0.776620  1
  Au  Au13  1  0.364770  0.858290  0.223200  1
  Au  Au14  1  0.141527  0.364986  0.506629  1
  Au  Au15  1  0.858481  0.635012  0.493640  1
