# generated using pymatgen
data_Ho2Tm2(Al8Ni3)3
_symmetry_space_group_name_H-M   'P 1'
_cell_length_a   7.30839837
_cell_length_b   7.34160629
_cell_length_c   12.77769006
_cell_angle_alpha   84.59416993
_cell_angle_beta   79.08087313
_cell_angle_gamma   59.98912654
_symmetry_Int_Tables_number   1
_chemical_formula_structural   Ho2Tm2(Al8Ni3)3
_chemical_formula_sum   'Ho2 Tm2 Al24 Ni9'
_cell_volume   582.92661883
_cell_formula_units_Z   1
loop_
 _symmetry_equiv_pos_site_id
 _symmetry_equiv_pos_as_xyz
  1  'x, y, z'
loop_
 _atom_site_type_symbol
 _atom_site_label
 _atom_site_symmetry_multiplicity
 _atom_site_fract_x
 _atom_site_fract_y
 _atom_site_fract_z
 _atom_site_occupancy
  Ho  Ho0  1  0.394096  0.168848  0.804903  1
  Ho  Ho1  1  0.605904  0.831152  0.195097  1
  Tm  Tm2  1  0.735057  0.497826  0.804492  1
  Tm  Tm3  1  0.264943  0.502174  0.195508  1
  Al  Al4  1  0.680813  0.833272  0.947715  1
  Al  Al5  1  0.319187  0.166728  0.052285  1
  Al  Al6  1  0.145742  0.833099  0.559802  1
  Al  Al7  1  0.854258  0.166901  0.440198  1
  Al  Al8  1  0.480487  0.166748  0.557433  1
  Al  Al9  1  0.519513  0.833252  0.442567  1
  Al  Al10  1  0.215524  0.165545  0.336015  1
  Al  Al11  1  0.784476  0.834455  0.663985  1
  Al  Al12  1  0.438912  0.506812  0.663854  1
  Al  Al13  1  0.561088  0.493188  0.336146  1
  Al  Al14  1  0.110925  0.159510  0.662535  1
  Al  Al15  1  0.889075  0.840490  0.337465  1
  Al  Al16  1  0.354409  0.496739  0.948211  1
  Al  Al17  1  0.645591  0.503261  0.051789  1
  Al  Al18  1  0.012943  0.169677  0.960455  1
  Al  Al19  1  0.987057  0.830323  0.039545  1
  Al  Al20  1  0.186571  0.499390  0.442496  1
  Al  Al21  1  0.813429  0.500610  0.557504  1
  Al  Al22  1  0.728017  0.164989  0.184925  1
  Al  Al23  1  0.271983  0.835011  0.815075  1
  Al  Al24  1  0.061302  0.626241  0.814058  1
  Al  Al25  1  0.938698  0.373759  0.185942  1
  Al  Al26  1  0.851329  0.046793  0.815444  1
  Al  Al27  1  0.148671  0.953207  0.184556  1
  Ni  Ni28  1  0.118494  0.492417  0.638083  1
  Ni  Ni29  1  0.881506  0.507583  0.361917  1
  Ni  Ni30  1  0.658536  0.170632  0.000645  1
  Ni  Ni31  1  0.341464  0.829368  0.999355  1
  Ni  Ni32  1  0.539214  0.166548  0.362306  1
  Ni  Ni33  1  0.460786  0.833452  0.637694  1
  Ni  Ni34  1  0.778291  0.175120  0.637598  1
  Ni  Ni35  1  0.221709  0.824880  0.362402  1
  Ni  Ni36  1  0.000000  0.500000  0.000000  1
