# generated using pymatgen
data_LaPr19(Ir2Ru)4
_symmetry_space_group_name_H-M   'P 1'
_cell_length_a   11.31113241
_cell_length_b   11.31509876
_cell_length_c   6.69003077
_cell_angle_alpha   90.00899285
_cell_angle_beta   89.89595770
_cell_angle_gamma   89.95883949
_symmetry_Int_Tables_number   1
_chemical_formula_structural   LaPr19(Ir2Ru)4
_chemical_formula_sum   'La1 Pr19 Ir8 Ru4'
_cell_volume   856.23251714
_cell_formula_units_Z   1
loop_
 _symmetry_equiv_pos_site_id
 _symmetry_equiv_pos_as_xyz
  1  'x, y, z'
loop_
 _atom_site_type_symbol
 _atom_site_label
 _atom_site_symmetry_multiplicity
 _atom_site_fract_x
 _atom_site_fract_y
 _atom_site_fract_z
 _atom_site_occupancy
  La  La0  1  0.294630  0.088761  0.384835  1
  Pr  Pr1  1  0.293380  0.910738  0.883613  1
  Pr  Pr2  1  0.706127  0.088308  0.883358  1
  Pr  Pr3  1  0.706783  0.911208  0.383324  1
  Pr  Pr4  1  0.588894  0.793878  0.883141  1
  Pr  Pr5  1  0.589866  0.207044  0.382698  1
  Pr  Pr6  1  0.411815  0.792572  0.382822  1
  Pr  Pr7  1  0.411842  0.207072  0.883131  1
  Pr  Pr8  1  0.206373  0.411788  0.617148  1
  Pr  Pr9  1  0.206460  0.588616  0.117045  1
  Pr  Pr10  1  0.793413  0.411558  0.116623  1
  Pr  Pr11  1  0.793406  0.588564  0.616722  1
  Pr  Pr12  1  0.911188  0.706509  0.117123  1
  Pr  Pr13  1  0.911058  0.293485  0.616612  1
  Pr  Pr14  1  0.088528  0.706609  0.617051  1
  Pr  Pr15  1  0.088314  0.293659  0.116242  1
  Pr  Pr16  1  0.999520  0.999641  0.499936  1
  Pr  Pr17  1  0.999812  0.000139  0.999899  1
  Pr  Pr18  1  0.499935  0.499877  0.000349  1
  Pr  Pr19  1  0.500309  0.499982  0.500090  1
  Ir  Ir20  1  0.847199  0.152758  0.249784  1
  Ir  Ir21  1  0.847318  0.847370  0.750137  1
  Ir  Ir22  1  0.153529  0.152267  0.748309  1
  Ir  Ir23  1  0.152590  0.846968  0.249760  1
  Ir  Ir24  1  0.652712  0.347357  0.750105  1
  Ir  Ir25  1  0.652631  0.652834  0.249794  1
  Ir  Ir26  1  0.347068  0.346974  0.250303  1
  Ir  Ir27  1  0.347404  0.652622  0.750211  1
  Ru  Ru28  1  0.498598  0.000409  0.119187  1
  Ru  Ru29  1  0.499169  0.000344  0.615743  1
  Ru  Ru30  1  0.000127  0.499912  0.882321  1
  Ru  Ru31  1  0.000000  0.500178  0.382586  1
