# generated using pymatgen
data_YHo(Tc2Ge)4
_symmetry_space_group_name_H-M   'P 1'
_cell_length_a   7.42725414
_cell_length_b   7.42725414
_cell_length_c   4.22369700
_cell_angle_alpha   90.00000000
_cell_angle_beta   90.00000000
_cell_angle_gamma   90.08700145
_symmetry_Int_Tables_number   1
_chemical_formula_structural   YHo(Tc2Ge)4
_chemical_formula_sum   'Y1 Ho1 Tc8 Ge4'
_cell_volume   232.99619225
_cell_formula_units_Z   1
loop_
 _symmetry_equiv_pos_site_id
 _symmetry_equiv_pos_as_xyz
  1  'x, y, z'
loop_
 _atom_site_type_symbol
 _atom_site_label
 _atom_site_symmetry_multiplicity
 _atom_site_fract_x
 _atom_site_fract_y
 _atom_site_fract_z
 _atom_site_occupancy
  Y  Y0  1  0.000000  0.000000  0.000000  1
  Ho  Ho1  1  0.500000  0.500000  0.500000  1
  Tc  Tc2  1  0.596035  0.150704  0.000000  1
  Tc  Tc3  1  0.403965  0.849296  0.000000  1
  Tc  Tc4  1  0.650233  0.903410  0.500000  1
  Tc  Tc5  1  0.096590  0.349767  0.500000  1
  Tc  Tc6  1  0.349767  0.096590  0.500000  1
  Tc  Tc7  1  0.903410  0.650233  0.500000  1
  Tc  Tc8  1  0.150704  0.596035  0.000000  1
  Tc  Tc9  1  0.849296  0.403965  0.000000  1
  Ge  Ge10  1  0.293291  0.293291  0.000000  1
  Ge  Ge11  1  0.706709  0.706709  0.000000  1
  Ge  Ge12  1  0.792678  0.207322  0.500000  1
  Ge  Ge13  1  0.207322  0.792678  0.500000  1
