# generated using pymatgen
data_ScTa3NbB6
_symmetry_space_group_name_H-M   'P 1'
_cell_length_a   11.60962204
_cell_length_b   11.60962225
_cell_length_c   3.34252300
_cell_angle_alpha   90.00000000
_cell_angle_beta   90.00000000
_cell_angle_gamma   164.46993034
_symmetry_Int_Tables_number   1
_chemical_formula_structural   ScTa3NbB6
_chemical_formula_sum   'Sc1 Ta3 Nb1 B6'
_cell_volume   120.62308448
_cell_formula_units_Z   1
loop_
 _symmetry_equiv_pos_site_id
 _symmetry_equiv_pos_as_xyz
  1  'x, y, z'
loop_
 _atom_site_type_symbol
 _atom_site_label
 _atom_site_symmetry_multiplicity
 _atom_site_fract_x
 _atom_site_fract_y
 _atom_site_fract_z
 _atom_site_occupancy
  Sc  Sc0  1  0.999955  0.000045  0.000000  1
  Ta  Ta1  1  0.805598  0.194402  0.500000  1
  Ta  Ta2  1  0.385938  0.614062  0.000000  1
  Ta  Ta3  1  0.613904  0.386096  0.000000  1
  Nb  Nb4  1  0.194274  0.805726  0.500000  1
  B  B5  1  0.459990  0.540010  0.500000  1
  B  B6  1  0.539989  0.460011  0.500000  1
  B  B7  1  0.271864  0.728136  0.000000  1
  B  B8  1  0.728598  0.271402  0.000000  1
  B  B9  1  0.081614  0.918386  0.500000  1
  B  B10  1  0.918274  0.081726  0.500000  1
