# generated using pymatgen
data_Gd3HoMg2Ir3
_symmetry_space_group_name_H-M   'P 1'
_cell_length_a   7.43692200
_cell_length_b   7.47013122
_cell_length_c   4.10807300
_cell_angle_alpha   90.00000000
_cell_angle_beta   90.00000000
_cell_angle_gamma   120.14781413
_symmetry_Int_Tables_number   1
_chemical_formula_structural   Gd3HoMg2Ir3
_chemical_formula_sum   'Gd3 Ho1 Mg2 Ir3'
_cell_volume   197.35195915
_cell_formula_units_Z   1
loop_
 _symmetry_equiv_pos_site_id
 _symmetry_equiv_pos_as_xyz
  1  'x, y, z'
loop_
 _atom_site_type_symbol
 _atom_site_label
 _atom_site_symmetry_multiplicity
 _atom_site_fract_x
 _atom_site_fract_y
 _atom_site_fract_z
 _atom_site_occupancy
  Gd  Gd0  1  0.431945  0.412862  0.000000  1
  Gd  Gd1  1  0.568055  0.980918  0.000000  1
  Gd  Gd2  1  0.000000  0.608538  0.000000  1
  Ho  Ho3  1  0.000000  0.248248  0.500000  1
  Mg  Mg4  1  0.750400  0.752439  0.500000  1
  Mg  Mg5  1  0.249600  0.002039  0.500000  1
  Ir  Ir6  1  0.000000  0.998034  0.000000  1
  Ir  Ir7  1  0.330331  0.663627  0.500000  1
  Ir  Ir8  1  0.669669  0.333295  0.500000  1
