# generated using pymatgen
data_Er12GaFe3NiPb
_symmetry_space_group_name_H-M   'P 1'
_cell_length_a   8.29265266
_cell_length_b   8.29265206
_cell_length_c   8.29265191
_cell_angle_alpha   107.42532023
_cell_angle_beta   109.99741511
_cell_angle_gamma   111.01178419
_symmetry_Int_Tables_number   1
_chemical_formula_structural   Er12GaFe3NiPb
_chemical_formula_sum   'Er12 Ga1 Fe3 Ni1 Pb1'
_cell_volume   438.54017290
_cell_formula_units_Z   1
loop_
 _symmetry_equiv_pos_site_id
 _symmetry_equiv_pos_as_xyz
  1  'x, y, z'
loop_
 _atom_site_type_symbol
 _atom_site_label
 _atom_site_symmetry_multiplicity
 _atom_site_fract_x
 _atom_site_fract_y
 _atom_site_fract_z
 _atom_site_occupancy
  Er  Er0  1  0.711210  0.267095  0.978306  1
  Er  Er1  1  0.290965  0.718418  0.009382  1
  Er  Er2  1  0.711210  0.732905  0.444117  1
  Er  Er3  1  0.290965  0.281582  0.572546  1
  Er  Er4  1  0.806687  0.116297  0.317874  1
  Er  Er5  1  0.806687  0.488814  0.690390  1
  Er  Er6  1  0.201577  0.883703  0.690390  1
  Er  Er7  1  0.201577  0.511186  0.317874  1
  Er  Er8  1  0.602107  0.782923  0.819184  1
  Er  Er9  1  0.972579  0.786523  0.186057  1
  Er  Er10  1  0.036262  0.217077  0.819184  1
  Er  Er11  1  0.399533  0.213477  0.186057  1
  Ga  Ga12  1  0.513706  0.500000  0.013706  1
  Fe  Fe13  1  0.099745  0.500000  0.599745  1
  Fe  Fe14  1  0.000743  0.109009  0.109753  1
  Fe  Fe15  1  0.000743  0.890991  0.891735  1
  Ni  Ni16  1  0.855481  0.500000  0.355481  1
  Pb  Pb17  1  0.498219  0.000000  0.498219  1
