# generated using pymatgen
data_Te(S8Br)3
_symmetry_space_group_name_H-M   'P 1'
_cell_length_a   15.27152137
_cell_length_b   15.27152069
_cell_length_c   15.27152087
_cell_angle_alpha   118.80852380
_cell_angle_beta   118.80852342
_cell_angle_gamma   118.80851871
_symmetry_Int_Tables_number   1
_chemical_formula_structural   Te(S8Br)3
_chemical_formula_sum   'Te1 S24 Br3'
_cell_volume   1004.63233817
_cell_formula_units_Z   1
loop_
 _symmetry_equiv_pos_site_id
 _symmetry_equiv_pos_as_xyz
  1  'x, y, z'
loop_
 _atom_site_type_symbol
 _atom_site_label
 _atom_site_symmetry_multiplicity
 _atom_site_fract_x
 _atom_site_fract_y
 _atom_site_fract_z
 _atom_site_occupancy
  Te  Te0  1  0.151958  0.151958  0.151958  1
  S  S1  1  0.017502  0.612653  0.612653  1
  S  S2  1  0.612653  0.612653  0.017502  1
  S  S3  1  0.612653  0.017502  0.612653  1
  S  S4  1  0.236610  0.846647  0.718817  1
  S  S5  1  0.846647  0.718817  0.236610  1
  S  S6  1  0.718817  0.236610  0.846647  1
  S  S7  1  0.846647  0.236610  0.718817  1
  S  S8  1  0.236610  0.718817  0.846647  1
  S  S9  1  0.718817  0.846647  0.236610  1
  S  S10  1  0.100136  0.628750  0.448167  1
  S  S11  1  0.628750  0.448167  0.100136  1
  S  S12  1  0.448167  0.100136  0.628750  1
  S  S13  1  0.628750  0.100136  0.448167  1
  S  S14  1  0.100136  0.448167  0.628750  1
  S  S15  1  0.448167  0.628750  0.100136  1
  S  S16  1  0.357059  0.746105  0.617834  1
  S  S17  1  0.746105  0.617834  0.357059  1
  S  S18  1  0.617834  0.357059  0.746105  1
  S  S19  1  0.746105  0.357059  0.617834  1
  S  S20  1  0.357059  0.617834  0.746105  1
  S  S21  1  0.617834  0.746105  0.357059  1
  S  S22  1  0.188548  0.469917  0.469917  1
  S  S23  1  0.469917  0.469917  0.188548  1
  S  S24  1  0.469917  0.188548  0.469917  1
  Br  Br25  1  0.152671  0.985516  0.985516  1
  Br  Br26  1  0.985516  0.985516  0.152671  1
  Br  Br27  1  0.985516  0.152671  0.985516  1
