# generated using pymatgen
data_Sm3Ho4Th(ReB6)4
_symmetry_space_group_name_H-M   'P 1'
_cell_length_a   3.72425800
_cell_length_b   9.22265138
_cell_length_c   11.65123200
_cell_angle_alpha   90.04208366
_cell_angle_beta   90.00000000
_cell_angle_gamma   90.00000000
_symmetry_Int_Tables_number   1
_chemical_formula_structural   Sm3Ho4Th(ReB6)4
_chemical_formula_sum   'Sm3 Ho4 Th1 Re4 B24'
_cell_volume   400.19096986
_cell_formula_units_Z   1
loop_
 _symmetry_equiv_pos_site_id
 _symmetry_equiv_pos_as_xyz
  1  'x, y, z'
loop_
 _atom_site_type_symbol
 _atom_site_label
 _atom_site_symmetry_multiplicity
 _atom_site_fract_x
 _atom_site_fract_y
 _atom_site_fract_z
 _atom_site_occupancy
  Sm  Sm0  1  0.000000  0.677872  0.586885  1
  Sm  Sm1  1  0.000000  0.823032  0.085300  1
  Sm  Sm2  1  0.000000  0.176371  0.913942  1
  Ho  Ho3  1  0.000000  0.942101  0.369316  1
  Ho  Ho4  1  0.000000  0.056324  0.631241  1
  Ho  Ho5  1  0.000000  0.443333  0.128934  1
  Ho  Ho6  1  0.000000  0.557327  0.869975  1
  Th  Th7  1  0.000000  0.322535  0.414203  1
  Re  Re8  1  0.000000  0.638636  0.320194  1
  Re  Re9  1  0.000000  0.361356  0.680059  1
  Re  Re10  1  0.000000  0.139373  0.179861  1
  Re  Re11  1  0.000000  0.860978  0.820187  1
  B  B12  1  0.500000  0.555475  0.431101  1
  B  B13  1  0.500000  0.445652  0.569797  1
  B  B14  1  0.500000  0.054096  0.067925  1
  B  B15  1  0.500000  0.945790  0.931684  1
  B  B16  1  0.500000  0.750172  0.416827  1
  B  B17  1  0.500000  0.250540  0.584832  1
  B  B18  1  0.500000  0.249274  0.082036  1
  B  B19  1  0.500000  0.750444  0.917082  1
  B  B20  1  0.500000  0.791509  0.265774  1
  B  B21  1  0.500000  0.208622  0.734944  1
  B  B22  1  0.500000  0.290735  0.232750  1
  B  B23  1  0.500000  0.708491  0.766196  1
  B  B24  1  0.500000  0.630912  0.185323  1
  B  B25  1  0.500000  0.370152  0.814483  1
  B  B26  1  0.500000  0.129506  0.312757  1
  B  B27  1  0.500000  0.869692  0.686442  1
  B  B28  1  0.500000  0.983388  0.212014  1
  B  B29  1  0.500000  0.016176  0.787695  1
  B  B30  1  0.500000  0.485180  0.286311  1
  B  B31  1  0.500000  0.516772  0.713805  1
  B  B32  1  0.500000  0.598859  0.027097  1
  B  B33  1  0.500000  0.401559  0.972228  1
  B  B34  1  0.500000  0.096900  0.473060  1
  B  B35  1  0.500000  0.900865  0.527740  1
