# generated using pymatgen
data_Tb16Cd3HgIr3Pd
_symmetry_space_group_name_H-M   'P 1'
_cell_length_a   9.66500877
_cell_length_b   9.66500897
_cell_length_c   9.66500881
_cell_angle_alpha   60.27854954
_cell_angle_beta   60.27855078
_cell_angle_gamma   60.27855203
_symmetry_Int_Tables_number   1
_chemical_formula_structural   Tb16Cd3HgIr3Pd
_chemical_formula_sum   'Tb16 Cd3 Hg1 Ir3 Pd1'
_cell_volume   642.42299868
_cell_formula_units_Z   1
loop_
 _symmetry_equiv_pos_site_id
 _symmetry_equiv_pos_as_xyz
  1  'x, y, z'
loop_
 _atom_site_type_symbol
 _atom_site_label
 _atom_site_symmetry_multiplicity
 _atom_site_fract_x
 _atom_site_fract_y
 _atom_site_fract_z
 _atom_site_occupancy
  Tb  Tb0  1  0.597134  0.597134  0.597134  1
  Tb  Tb1  1  0.604714  0.604714  0.195608  1
  Tb  Tb2  1  0.604714  0.195608  0.604714  1
  Tb  Tb3  1  0.195608  0.604714  0.604714  1
  Tb  Tb4  1  0.054588  0.440453  0.440453  1
  Tb  Tb5  1  0.438264  0.059885  0.059885  1
  Tb  Tb6  1  0.440453  0.054588  0.440453  1
  Tb  Tb7  1  0.059885  0.438264  0.059885  1
  Tb  Tb8  1  0.440453  0.440453  0.054588  1
  Tb  Tb9  1  0.059885  0.059885  0.438264  1
  Tb  Tb10  1  0.188051  0.812812  0.812812  1
  Tb  Tb11  1  0.814173  0.187316  0.187316  1
  Tb  Tb12  1  0.812812  0.188051  0.812812  1
  Tb  Tb13  1  0.187316  0.814173  0.187316  1
  Tb  Tb14  1  0.812812  0.812812  0.188051  1
  Tb  Tb15  1  0.187316  0.187316  0.814173  1
  Cd  Cd16  1  0.830434  0.830434  0.505967  1
  Cd  Cd17  1  0.830434  0.505967  0.830434  1
  Cd  Cd18  1  0.505967  0.830434  0.830434  1
  Hg  Hg19  1  0.834436  0.834436  0.834436  1
  Ir  Ir20  1  0.391709  0.391709  0.823735  1
  Ir  Ir21  1  0.391709  0.823735  0.391709  1
  Ir  Ir22  1  0.823735  0.391709  0.391709  1
  Pd  Pd23  1  0.393402  0.393402  0.393402  1
