# generated using pymatgen
data_YNiP3Ir4
_symmetry_space_group_name_H-M   'P 1'
_cell_length_a   3.96611200
_cell_length_b   10.67679500
_cell_length_c   12.44655800
_cell_angle_alpha   90.00000000
_cell_angle_beta   90.00000000
_cell_angle_gamma   90.00000000
_symmetry_Int_Tables_number   1
_chemical_formula_structural   YNiP3Ir4
_chemical_formula_sum   'Y4 Ni4 P12 Ir16'
_cell_volume   527.05403865
_cell_formula_units_Z   4
loop_
 _symmetry_equiv_pos_site_id
 _symmetry_equiv_pos_as_xyz
  1  'x, y, z'
loop_
 _atom_site_type_symbol
 _atom_site_label
 _atom_site_symmetry_multiplicity
 _atom_site_fract_x
 _atom_site_fract_y
 _atom_site_fract_z
 _atom_site_occupancy
  Y  Y0  1  0.250000  0.587861  0.709858  1
  Y  Y1  1  0.250000  0.912139  0.209858  1
  Y  Y2  1  0.750000  0.412139  0.290142  1
  Y  Y3  1  0.750000  0.087861  0.790142  1
  Ni  Ni4  1  0.250000  0.463358  0.935054  1
  Ni  Ni5  1  0.250000  0.036642  0.435054  1
  Ni  Ni6  1  0.750000  0.536642  0.064946  1
  Ni  Ni7  1  0.750000  0.963358  0.564946  1
  P  P8  1  0.250000  0.420416  0.107007  1
  P  P9  1  0.250000  0.079584  0.607007  1
  P  P10  1  0.750000  0.579584  0.892993  1
  P  P11  1  0.750000  0.920416  0.392993  1
  P  P12  1  0.250000  0.271146  0.870684  1
  P  P13  1  0.250000  0.228854  0.370684  1
  P  P14  1  0.750000  0.728854  0.129316  1
  P  P15  1  0.750000  0.771146  0.629316  1
  P  P16  1  0.250000  0.592841  0.382909  1
  P  P17  1  0.250000  0.907159  0.882909  1
  P  P18  1  0.750000  0.407159  0.617091  1
  P  P19  1  0.750000  0.092841  0.117091  1
  Ir  Ir20  1  0.250000  0.718342  0.972780  1
  Ir  Ir21  1  0.250000  0.781658  0.472780  1
  Ir  Ir22  1  0.750000  0.281658  0.027220  1
  Ir  Ir23  1  0.750000  0.218342  0.527220  1
  Ir  Ir24  1  0.250000  0.406170  0.477797  1
  Ir  Ir25  1  0.250000  0.093830  0.977797  1
  Ir  Ir26  1  0.750000  0.593830  0.522203  1
  Ir  Ir27  1  0.750000  0.906170  0.022203  1
  Ir  Ir28  1  0.250000  0.227355  0.181505  1
  Ir  Ir29  1  0.250000  0.272645  0.681505  1
  Ir  Ir30  1  0.750000  0.772645  0.818495  1
  Ir  Ir31  1  0.750000  0.727355  0.318495  1
  Ir  Ir32  1  0.250000  0.887456  0.695950  1
  Ir  Ir33  1  0.250000  0.612544  0.195950  1
  Ir  Ir34  1  0.750000  0.112544  0.304050  1
  Ir  Ir35  1  0.750000  0.387456  0.804050  1
