# generated using pymatgen
data_Ho4Cd2Si3Ge
_symmetry_space_group_name_H-M   'P 1'
_cell_length_a   7.18282618
_cell_length_b   7.18282664
_cell_length_c   4.18524800
_cell_angle_alpha   90.00000000
_cell_angle_beta   90.00000000
_cell_angle_gamma   90.12779602
_symmetry_Int_Tables_number   1
_chemical_formula_structural   Ho4Cd2Si3Ge
_chemical_formula_sum   'Ho4 Cd2 Si3 Ge1'
_cell_volume   215.92894314
_cell_formula_units_Z   1
loop_
 _symmetry_equiv_pos_site_id
 _symmetry_equiv_pos_as_xyz
  1  'x, y, z'
loop_
 _atom_site_type_symbol
 _atom_site_label
 _atom_site_symmetry_multiplicity
 _atom_site_fract_x
 _atom_site_fract_y
 _atom_site_fract_z
 _atom_site_occupancy
  Ho  Ho0  1  0.679920  0.177522  0.500000  1
  Ho  Ho1  1  0.322478  0.820080  0.500000  1
  Ho  Ho2  1  0.175738  0.324262  0.500000  1
  Ho  Ho3  1  0.822867  0.677133  0.500000  1
  Cd  Cd4  1  0.501170  0.502948  0.000000  1
  Cd  Cd5  1  0.997052  0.998830  0.000000  1
  Si  Si6  1  0.117362  0.617528  0.000000  1
  Si  Si7  1  0.882472  0.382638  0.000000  1
  Si  Si8  1  0.620441  0.879559  0.000000  1
  Ge  Ge9  1  0.380500  0.119500  0.000000  1
