# generated using pymatgen
data_Dy3(Zn2Ga)2
_symmetry_space_group_name_H-M   'P 1'
_cell_length_a   6.93609727
_cell_length_b   6.93623335
_cell_length_c   4.32827917
_cell_angle_alpha   89.99987235
_cell_angle_beta   89.99995743
_cell_angle_gamma   119.99669510
_symmetry_Int_Tables_number   1
_chemical_formula_structural   Dy3(Zn2Ga)2
_chemical_formula_sum   'Dy3 Zn4 Ga2'
_cell_volume   180.34297476
_cell_formula_units_Z   1
loop_
 _symmetry_equiv_pos_site_id
 _symmetry_equiv_pos_as_xyz
  1  'x, y, z'
loop_
 _atom_site_type_symbol
 _atom_site_label
 _atom_site_symmetry_multiplicity
 _atom_site_fract_x
 _atom_site_fract_y
 _atom_site_fract_z
 _atom_site_occupancy
  Dy  Dy0  1  0.000042  0.421070  0.499951  1
  Dy  Dy1  1  0.578926  0.578914  0.499942  1
  Dy  Dy2  1  0.421040  0.000029  0.499938  1
  Zn  Zn3  1  0.000004  0.762818  0.000136  1
  Zn  Zn4  1  0.237195  0.237175  0.000081  1
  Zn  Zn5  1  0.762776  0.999987  0.000036  1
  Zn  Zn6  1  0.999929  0.999962  0.500084  1
  Ga  Ga7  1  0.333358  0.666701  0.999915  1
  Ga  Ga8  1  0.666732  0.333346  0.999916  1
