# generated using pymatgen
data_Y3ZnCdIn3Ir
_symmetry_space_group_name_H-M   'P 1'
_cell_length_a   7.93836600
_cell_length_b   7.93836683
_cell_length_c   3.83793500
_cell_angle_alpha   90.00000000
_cell_angle_beta   90.00000000
_cell_angle_gamma   120.00000488
_symmetry_Int_Tables_number   1
_chemical_formula_structural   Y3ZnCdIn3Ir
_chemical_formula_sum   'Y3 Zn1 Cd1 In3 Ir1'
_cell_volume   209.45489163
_cell_formula_units_Z   1
loop_
 _symmetry_equiv_pos_site_id
 _symmetry_equiv_pos_as_xyz
  1  'x, y, z'
loop_
 _atom_site_type_symbol
 _atom_site_label
 _atom_site_symmetry_multiplicity
 _atom_site_fract_x
 _atom_site_fract_y
 _atom_site_fract_z
 _atom_site_occupancy
  Y  Y0  1  0.382015  0.965020  0.500000  1
  Y  Y1  1  0.034980  0.416994  0.500000  1
  Y  Y2  1  0.583006  0.617985  0.500000  1
  Zn  Zn3  1  0.000000  0.000000  0.500000  1
  Cd  Cd4  1  0.666667  0.333333  0.000000  1
  In  In5  1  0.740156  0.003032  0.000000  1
  In  In6  1  0.996968  0.737123  0.000000  1
  In  In7  1  0.262877  0.259844  0.000000  1
  Ir  Ir8  1  0.333333  0.666667  0.000000  1
