# generated using pymatgen
data_Pr3Nd5(YSn3)2
_symmetry_space_group_name_H-M   'P 1'
_cell_length_a   9.26090400
_cell_length_b   9.26087098
_cell_length_c   6.80380200
_cell_angle_alpha   90.00067712
_cell_angle_beta   89.99865194
_cell_angle_gamma   120.00011794
_symmetry_Int_Tables_number   1
_chemical_formula_structural   Pr3Nd5(YSn3)2
_chemical_formula_sum   'Pr3 Nd5 Y2 Sn6'
_cell_volume   505.34386564
_cell_formula_units_Z   1
loop_
 _symmetry_equiv_pos_site_id
 _symmetry_equiv_pos_as_xyz
  1  'x, y, z'
loop_
 _atom_site_type_symbol
 _atom_site_label
 _atom_site_symmetry_multiplicity
 _atom_site_fract_x
 _atom_site_fract_y
 _atom_site_fract_z
 _atom_site_occupancy
  Pr  Pr0  1  0.758570  0.758476  0.248671  1
  Pr  Pr1  1  0.000093  0.241524  0.248671  1
  Pr  Pr2  1  0.758512  0.000000  0.751330  1
  Nd  Nd3  1  0.333231  0.666668  0.500057  1
  Nd  Nd4  1  0.241682  0.000000  0.248582  1
  Nd  Nd5  1  0.666564  0.333332  0.500057  1
  Nd  Nd6  1  0.000096  0.758367  0.751419  1
  Nd  Nd7  1  0.241729  0.241633  0.751419  1
  Y  Y8  1  0.333236  0.666669  0.999941  1
  Y  Y9  1  0.666569  0.333331  0.999941  1
  Sn  Sn10  1  0.602955  0.602633  0.756688  1
  Sn  Sn11  1  0.396581  0.000000  0.756681  1
  Sn  Sn12  1  0.602462  0.000000  0.243294  1
  Sn  Sn13  1  0.000322  0.397367  0.756688  1
  Sn  Sn14  1  0.397072  0.396748  0.243280  1
  Sn  Sn15  1  0.000324  0.603252  0.243280  1
