# generated using pymatgen
data_Pr16Mg3HgIr4
_symmetry_space_group_name_H-M   'P 1'
_cell_length_a   10.06190158
_cell_length_b   10.06190140
_cell_length_c   10.06190229
_cell_angle_alpha   60.15205761
_cell_angle_beta   60.15205659
_cell_angle_gamma   60.15205709
_symmetry_Int_Tables_number   1
_chemical_formula_structural   Pr16Mg3HgIr4
_chemical_formula_sum   'Pr16 Mg3 Hg1 Ir4'
_cell_volume   722.80050072
_cell_formula_units_Z   1
loop_
 _symmetry_equiv_pos_site_id
 _symmetry_equiv_pos_as_xyz
  1  'x, y, z'
loop_
 _atom_site_type_symbol
 _atom_site_label
 _atom_site_symmetry_multiplicity
 _atom_site_fract_x
 _atom_site_fract_y
 _atom_site_fract_z
 _atom_site_occupancy
  Pr  Pr0  1  0.346564  0.346564  0.346564  1
  Pr  Pr1  1  0.348533  0.348533  0.956453  1
  Pr  Pr2  1  0.348533  0.956453  0.348533  1
  Pr  Pr3  1  0.956453  0.348533  0.348533  1
  Pr  Pr4  1  0.811167  0.188452  0.188452  1
  Pr  Pr5  1  0.190079  0.808233  0.808233  1
  Pr  Pr6  1  0.188452  0.811167  0.188452  1
  Pr  Pr7  1  0.808233  0.190079  0.808233  1
  Pr  Pr8  1  0.188452  0.188452  0.811167  1
  Pr  Pr9  1  0.808233  0.808233  0.190079  1
  Pr  Pr10  1  0.938345  0.560528  0.560528  1
  Pr  Pr11  1  0.558520  0.939397  0.939397  1
  Pr  Pr12  1  0.560528  0.938345  0.560528  1
  Pr  Pr13  1  0.939397  0.558520  0.939397  1
  Pr  Pr14  1  0.560528  0.560528  0.938345  1
  Pr  Pr15  1  0.939397  0.939397  0.558520  1
  Mg  Mg16  1  0.578761  0.578761  0.266658  1
  Mg  Mg17  1  0.578761  0.266658  0.578761  1
  Mg  Mg18  1  0.266658  0.578761  0.578761  1
  Hg  Hg19  1  0.581647  0.581647  0.581647  1
  Ir  Ir20  1  0.142108  0.142108  0.142108  1
  Ir  Ir21  1  0.142533  0.142533  0.575585  1
  Ir  Ir22  1  0.142533  0.575585  0.142533  1
  Ir  Ir23  1  0.575585  0.142533  0.142533  1
