# generated using pymatgen
data_Pr4TmIr2Ru
_symmetry_space_group_name_H-M   'P 1'
_cell_length_a   11.20423600
_cell_length_b   11.20423600
_cell_length_c   6.59143400
_cell_angle_alpha   90.00000000
_cell_angle_beta   90.00000000
_cell_angle_gamma   90.00000000
_symmetry_Int_Tables_number   1
_chemical_formula_structural   Pr4TmIr2Ru
_chemical_formula_sum   'Pr16 Tm4 Ir8 Ru4'
_cell_volume   827.45503668
_cell_formula_units_Z   4
loop_
 _symmetry_equiv_pos_site_id
 _symmetry_equiv_pos_as_xyz
  1  'x, y, z'
loop_
 _atom_site_type_symbol
 _atom_site_label
 _atom_site_symmetry_multiplicity
 _atom_site_fract_x
 _atom_site_fract_y
 _atom_site_fract_z
 _atom_site_occupancy
  Pr  Pr0  1  0.290558  0.086161  0.380515  1
  Pr  Pr1  1  0.290558  0.913839  0.880515  1
  Pr  Pr2  1  0.709442  0.086161  0.880515  1
  Pr  Pr3  1  0.709442  0.913839  0.380515  1
  Pr  Pr4  1  0.586161  0.790558  0.880515  1
  Pr  Pr5  1  0.586161  0.209442  0.380515  1
  Pr  Pr6  1  0.413839  0.790558  0.380515  1
  Pr  Pr7  1  0.413839  0.209442  0.880515  1
  Pr  Pr8  1  0.209442  0.413839  0.619485  1
  Pr  Pr9  1  0.209442  0.586161  0.119485  1
  Pr  Pr10  1  0.790558  0.413839  0.119485  1
  Pr  Pr11  1  0.790558  0.586161  0.619485  1
  Pr  Pr12  1  0.913839  0.709442  0.119485  1
  Pr  Pr13  1  0.913839  0.290558  0.619485  1
  Pr  Pr14  1  0.086161  0.709442  0.619485  1
  Pr  Pr15  1  0.086161  0.290558  0.119485  1
  Tm  Tm16  1  0.000000  0.000000  0.500000  1
  Tm  Tm17  1  0.000000  0.000000  0.000000  1
  Tm  Tm18  1  0.500000  0.500000  0.000000  1
  Tm  Tm19  1  0.500000  0.500000  0.500000  1
  Ir  Ir20  1  0.854055  0.145945  0.250000  1
  Ir  Ir21  1  0.854055  0.854055  0.750000  1
  Ir  Ir22  1  0.145945  0.145945  0.750000  1
  Ir  Ir23  1  0.145945  0.854055  0.250000  1
  Ir  Ir24  1  0.645945  0.354055  0.750000  1
  Ir  Ir25  1  0.645945  0.645945  0.250000  1
  Ir  Ir26  1  0.354055  0.354055  0.250000  1
  Ir  Ir27  1  0.354055  0.645945  0.750000  1
  Ru  Ru28  1  0.500000  0.000000  0.116139  1
  Ru  Ru29  1  0.500000  0.000000  0.616139  1
  Ru  Ru30  1  0.000000  0.500000  0.883861  1
  Ru  Ru31  1  0.000000  0.500000  0.383861  1
