# generated using pymatgen
data_Pr7Nd(Y3Si4)4
_symmetry_space_group_name_H-M   'P 1'
_cell_length_a   7.84584605
_cell_length_b   7.84508596
_cell_length_c   14.64313400
_cell_angle_alpha   90.02731471
_cell_angle_beta   89.97032187
_cell_angle_gamma   90.04159239
_symmetry_Int_Tables_number   1
_chemical_formula_structural   Pr7Nd(Y3Si4)4
_chemical_formula_sum   'Pr7 Nd1 Y12 Si16'
_cell_volume   901.30401036
_cell_formula_units_Z   1
loop_
 _symmetry_equiv_pos_site_id
 _symmetry_equiv_pos_as_xyz
  1  'x, y, z'
loop_
 _atom_site_type_symbol
 _atom_site_label
 _atom_site_symmetry_multiplicity
 _atom_site_fract_x
 _atom_site_fract_y
 _atom_site_fract_z
 _atom_site_occupancy
  Pr  Pr0  1  0.009263  0.364044  0.544541  1
  Pr  Pr1  1  0.636337  0.990587  0.956201  1
  Pr  Pr2  1  0.135333  0.509903  0.794639  1
  Pr  Pr3  1  0.863839  0.490212  0.294115  1
  Pr  Pr4  1  0.509468  0.135637  0.205305  1
  Pr  Pr5  1  0.490190  0.864196  0.705519  1
  Pr  Pr6  1  0.364107  0.009338  0.455266  1
  Nd  Nd7  1  0.991651  0.634585  0.045188  1
  Y  Y8  1  0.364971  0.488961  0.375010  1
  Y  Y9  1  0.864642  0.010460  0.374653  1
  Y  Y10  1  0.989430  0.135025  0.124910  1
  Y  Y11  1  0.010811  0.864780  0.625061  1
  Y  Y12  1  0.635574  0.511653  0.875514  1
  Y  Y13  1  0.489058  0.364664  0.624872  1
  Y  Y14  1  0.510896  0.635405  0.124643  1
  Y  Y15  1  0.134609  0.989176  0.875117  1
  Y  Y16  1  0.685332  0.685291  0.499923  1
  Y  Y17  1  0.814193  0.185486  0.750316  1
  Y  Y18  1  0.185364  0.814234  0.249938  1
  Y  Y19  1  0.314808  0.314673  0.999904  1
  Si  Si20  1  0.069071  0.712385  0.438519  1
  Si  Si21  1  0.931541  0.288769  0.938822  1
  Si  Si22  1  0.712624  0.068925  0.561330  1
  Si  Si23  1  0.212353  0.431079  0.188406  1
  Si  Si24  1  0.787178  0.569245  0.688527  1
  Si  Si25  1  0.430915  0.212772  0.811565  1
  Si  Si26  1  0.569862  0.787112  0.311131  1
  Si  Si27  1  0.286538  0.929965  0.061410  1
  Si  Si28  1  0.840886  0.800738  0.806675  1
  Si  Si29  1  0.158269  0.200164  0.306725  1
  Si  Si30  1  0.800298  0.841188  0.192262  1
  Si  Si31  1  0.300162  0.658425  0.556679  1
  Si  Si32  1  0.701490  0.342770  0.057420  1
  Si  Si33  1  0.658611  0.299878  0.443123  1
  Si  Si34  1  0.340531  0.699572  0.943461  1
  Si  Si35  1  0.199794  0.158703  0.693313  1
