# generated using pymatgen
data_Er3Bi(AuO5)2
_symmetry_space_group_name_H-M   'P 1'
_cell_length_a   8.49746595
_cell_length_b   8.49746554
_cell_length_c   5.68289099
_cell_angle_alpha   88.86903904
_cell_angle_beta   91.13096071
_cell_angle_gamma   90.00177512
_symmetry_Int_Tables_number   1
_chemical_formula_structural   Er3Bi(AuO5)2
_chemical_formula_sum   'Er6 Bi2 Au4 O20'
_cell_volume   410.18419170
_cell_formula_units_Z   2
loop_
 _symmetry_equiv_pos_site_id
 _symmetry_equiv_pos_as_xyz
  1  'x, y, z'
loop_
 _atom_site_type_symbol
 _atom_site_label
 _atom_site_symmetry_multiplicity
 _atom_site_fract_x
 _atom_site_fract_y
 _atom_site_fract_z
 _atom_site_occupancy
  Er  Er0  1  0.354026  0.655815  0.247606  1
  Er  Er1  1  0.844185  0.145974  0.747606  1
  Er  Er2  1  0.651851  0.651851  0.750000  1
  Er  Er3  1  0.655815  0.354026  0.252394  1
  Er  Er4  1  0.848149  0.848149  0.250000  1
  Er  Er5  1  0.145974  0.844185  0.752394  1
  Bi  Bi6  1  0.358849  0.358849  0.750000  1
  Bi  Bi7  1  0.141151  0.141151  0.250000  1
  Au  Au8  1  0.496493  0.998182  0.408955  1
  Au  Au9  1  0.501818  0.003507  0.908955  1
  Au  Au10  1  0.998182  0.496493  0.091045  1
  Au  Au11  1  0.003507  0.501818  0.591045  1
  O  O12  1  0.106877  0.289793  0.600463  1
  O  O13  1  0.907324  0.278575  0.110199  1
  O  O14  1  0.907409  0.718638  0.608594  1
  O  O15  1  0.718638  0.907409  0.891406  1
  O  O16  1  0.221425  0.592676  0.610199  1
  O  O17  1  0.405085  0.787711  0.895710  1
  O  O18  1  0.393123  0.210207  0.399537  1
  O  O19  1  0.781362  0.592591  0.108594  1
  O  O20  1  0.278575  0.907324  0.389801  1
  O  O21  1  0.592676  0.221425  0.889801  1
  O  O22  1  0.494062  0.499874  0.999624  1
  O  O23  1  0.499874  0.494062  0.500376  1
  O  O24  1  0.787711  0.405085  0.604290  1
  O  O25  1  0.094915  0.712289  0.104290  1
  O  O26  1  0.289793  0.106877  0.899537  1
  O  O27  1  0.592591  0.781362  0.391406  1
  O  O28  1  0.210207  0.393123  0.100463  1
  O  O29  1  0.005938  0.000126  0.000376  1
  O  O30  1  0.000126  0.005938  0.499624  1
  O  O31  1  0.712289  0.094915  0.395710  1
