# generated using pymatgen
data_Rb4NpSeBr12
_symmetry_space_group_name_H-M   'P 1'
_cell_length_a   7.84722100
_cell_length_b   7.84722100
_cell_length_c   11.24486600
_cell_angle_alpha   90.00000000
_cell_angle_beta   90.00000000
_cell_angle_gamma   90.00000000
_symmetry_Int_Tables_number   1
_chemical_formula_structural   Rb4NpSeBr12
_chemical_formula_sum   'Rb4 Np1 Se1 Br12'
_cell_volume   692.44622505
_cell_formula_units_Z   1
loop_
 _symmetry_equiv_pos_site_id
 _symmetry_equiv_pos_as_xyz
  1  'x, y, z'
loop_
 _atom_site_type_symbol
 _atom_site_label
 _atom_site_symmetry_multiplicity
 _atom_site_fract_x
 _atom_site_fract_y
 _atom_site_fract_z
 _atom_site_occupancy
  Rb  Rb0  1  0.500000  0.000000  0.754593  1
  Rb  Rb1  1  0.500000  0.000000  0.245407  1
  Rb  Rb2  1  0.000000  0.500000  0.245407  1
  Rb  Rb3  1  0.000000  0.500000  0.754593  1
  Np  Np4  1  0.500000  0.500000  0.500000  1
  Se  Se5  1  0.000000  0.000000  0.000000  1
  Br  Br6  1  0.794752  0.262048  0.000000  1
  Br  Br7  1  0.205248  0.737952  0.000000  1
  Br  Br8  1  0.500000  0.500000  0.252930  1
  Br  Br9  1  0.286152  0.219852  0.500000  1
  Br  Br10  1  0.262048  0.205248  0.000000  1
  Br  Br11  1  0.780148  0.286152  0.500000  1
  Br  Br12  1  0.000000  0.000000  0.232341  1
  Br  Br13  1  0.713848  0.780148  0.500000  1
  Br  Br14  1  0.219852  0.713848  0.500000  1
  Br  Br15  1  0.500000  0.500000  0.747070  1
  Br  Br16  1  0.737952  0.794752  0.000000  1
  Br  Br17  1  0.000000  0.000000  0.767659  1
