# generated using pymatgen
data_PrDy3(Si5Pt3)2
_symmetry_space_group_name_H-M   'P 1'
_cell_length_a   8.19211488
_cell_length_b   8.19576486
_cell_length_c   8.19576366
_cell_angle_alpha   136.38389896
_cell_angle_beta   105.05835489
_cell_angle_gamma   90.93638829
_symmetry_Int_Tables_number   1
_chemical_formula_structural   PrDy3(Si5Pt3)2
_chemical_formula_sum   'Pr1 Dy3 Si10 Pt6'
_cell_volume   348.86507990
_cell_formula_units_Z   1
loop_
 _symmetry_equiv_pos_site_id
 _symmetry_equiv_pos_as_xyz
  1  'x, y, z'
loop_
 _atom_site_type_symbol
 _atom_site_label
 _atom_site_symmetry_multiplicity
 _atom_site_fract_x
 _atom_site_fract_y
 _atom_site_fract_z
 _atom_site_occupancy
  Pr  Pr0  1  0.603122  0.871211  0.731910  1
  Dy  Dy1  1  0.858908  0.628930  0.229978  1
  Dy  Dy2  1  0.140629  0.370959  0.769671  1
  Dy  Dy3  1  0.398387  0.128918  0.269469  1
  Si  Si4  1  0.499705  0.750948  0.250115  1
  Si  Si5  1  0.499705  0.249591  0.748758  1
  Si  Si6  1  0.227604  0.978399  0.749082  1
  Si  Si7  1  0.771187  0.520823  0.750300  1
  Si  Si8  1  0.771187  0.020888  0.250364  1
  Si  Si9  1  0.227604  0.478522  0.249205  1
  Si  Si10  1  0.037586  0.887535  0.150052  1
  Si  Si11  1  0.965183  0.115018  0.850165  1
  Si  Si12  1  0.736791  0.387376  0.349416  1
  Si  Si13  1  0.261906  0.610971  0.650936  1
  Pt  Pt14  1  0.001387  0.749657  0.750249  1
  Pt  Pt15  1  0.001387  0.251138  0.251730  1
  Pt  Pt16  1  0.249511  0.862750  0.386762  1
  Pt  Pt17  1  0.750767  0.138553  0.612213  1
  Pt  Pt18  1  0.473944  0.363032  0.110912  1
  Pt  Pt19  1  0.523499  0.634783  0.888716  1
