# generated using pymatgen
data_Ho3Er(ScOs)4
_symmetry_space_group_name_H-M   'P 1'
_cell_length_a   4.11145600
_cell_length_b   7.19975121
_cell_length_c   8.58422300
_cell_angle_alpha   90.12156684
_cell_angle_beta   90.00000000
_cell_angle_gamma   90.00000000
_symmetry_Int_Tables_number   1
_chemical_formula_structural   Ho3Er(ScOs)4
_chemical_formula_sum   'Ho3 Er1 Sc4 Os4'
_cell_volume   254.10496432
_cell_formula_units_Z   1
loop_
 _symmetry_equiv_pos_site_id
 _symmetry_equiv_pos_as_xyz
  1  'x, y, z'
loop_
 _atom_site_type_symbol
 _atom_site_label
 _atom_site_symmetry_multiplicity
 _atom_site_fract_x
 _atom_site_fract_y
 _atom_site_fract_z
 _atom_site_occupancy
  Ho  Ho0  1  0.250000  0.971982  0.326742  1
  Ho  Ho1  1  0.250000  0.472438  0.172733  1
  Ho  Ho2  1  0.750000  0.027910  0.673131  1
  Er  Er3  1  0.750000  0.528047  0.827206  1
  Sc  Sc4  1  0.250000  0.356674  0.558604  1
  Sc  Sc5  1  0.250000  0.856497  0.941460  1
  Sc  Sc6  1  0.750000  0.642891  0.442093  1
  Sc  Sc7  1  0.750000  0.143640  0.057927  1
  Os  Os8  1  0.250000  0.235241  0.871189  1
  Os  Os9  1  0.250000  0.733542  0.629174  1
  Os  Os10  1  0.750000  0.765923  0.128466  1
  Os  Os11  1  0.750000  0.265216  0.371274  1
