# generated using pymatgen
data_EuY2Ho3(Co3P2)6
_symmetry_space_group_name_H-M   'P 1'
_cell_length_a   3.70505300
_cell_length_b   10.54367102
_cell_length_c   12.18174305
_cell_angle_alpha   90.00173938
_cell_angle_beta   90.00000000
_cell_angle_gamma   90.00000000
_symmetry_Int_Tables_number   1
_chemical_formula_structural   EuY2Ho3(Co3P2)6
_chemical_formula_sum   'Eu1 Y2 Ho3 Co18 P12'
_cell_volume   475.87808584
_cell_formula_units_Z   1
loop_
 _symmetry_equiv_pos_site_id
 _symmetry_equiv_pos_as_xyz
  1  'x, y, z'
loop_
 _atom_site_type_symbol
 _atom_site_label
 _atom_site_symmetry_multiplicity
 _atom_site_fract_x
 _atom_site_fract_y
 _atom_site_fract_z
 _atom_site_occupancy
  Eu  Eu0  1  0.500000  0.000131  0.476082  1
  Y  Y1  1  0.000000  0.500056  0.522447  1
  Y  Y2  1  0.500000  0.817132  0.204947  1
  Ho  Ho3  1  0.500000  0.182874  0.204866  1
  Ho  Ho4  1  0.000000  0.682276  0.795033  1
  Ho  Ho5  1  0.000000  0.317659  0.794846  1
  Co  Co6  1  0.000000  0.499661  0.985687  1
  Co  Co7  1  0.500000  0.000278  0.013488  1
  Co  Co8  1  0.500000  0.299251  0.430101  1
  Co  Co9  1  0.500000  0.700698  0.430567  1
  Co  Co10  1  0.000000  0.205527  0.570296  1
  Co  Co11  1  0.000000  0.794580  0.570656  1
  Co  Co12  1  0.500000  0.878884  0.711244  1
  Co  Co13  1  0.500000  0.121126  0.711036  1
  Co  Co14  1  0.000000  0.619927  0.289713  1
  Co  Co15  1  0.000000  0.379590  0.289322  1
  Co  Co16  1  0.500000  0.333465  0.994249  1
  Co  Co17  1  0.500000  0.666235  0.994052  1
  Co  Co18  1  0.000000  0.166907  0.005561  1
  Co  Co19  1  0.000000  0.833289  0.005439  1
  Co  Co20  1  0.500000  0.499810  0.158244  1
  Co  Co21  1  0.000000  0.000146  0.842419  1
  Co  Co22  1  0.500000  0.499912  0.702839  1
  Co  Co23  1  0.000000  0.000740  0.295822  1
  P  P24  1  0.500000  0.310105  0.616667  1
  P  P25  1  0.500000  0.689831  0.616940  1
  P  P26  1  0.000000  0.192859  0.383076  1
  P  P27  1  0.000000  0.807289  0.383728  1
  P  P28  1  0.500000  0.499830  0.882263  1
  P  P29  1  0.000000  0.000553  0.116845  1
  P  P30  1  0.500000  0.846826  0.893709  1
  P  P31  1  0.500000  0.153218  0.893501  1
  P  P32  1  0.000000  0.651954  0.106172  1
  P  P33  1  0.000000  0.347398  0.106412  1
  P  P34  1  0.500000  0.499990  0.342702  1
  P  P35  1  0.000000  0.999990  0.659024  1
