# generated using pymatgen
data_Tm12InCo2Ru3
_symmetry_space_group_name_H-M   'P 1'
_cell_length_a   8.24514643
_cell_length_b   8.24514561
_cell_length_c   8.24514500
_cell_angle_alpha   109.80033622
_cell_angle_beta   113.09163733
_cell_angle_gamma   105.60796458
_symmetry_Int_Tables_number   1
_chemical_formula_structural   Tm12InCo2Ru3
_chemical_formula_sum   'Tm12 In1 Co2 Ru3'
_cell_volume   429.65221513
_cell_formula_units_Z   1
loop_
 _symmetry_equiv_pos_site_id
 _symmetry_equiv_pos_as_xyz
  1  'x, y, z'
loop_
 _atom_site_type_symbol
 _atom_site_label
 _atom_site_symmetry_multiplicity
 _atom_site_fract_x
 _atom_site_fract_y
 _atom_site_fract_z
 _atom_site_occupancy
  Tm  Tm0  1  0.276385  0.178163  0.454535  1
  Tm  Tm1  1  0.723615  0.821837  0.545465  1
  Tm  Tm2  1  0.276371  0.821837  0.098221  1
  Tm  Tm3  1  0.723629  0.178163  0.901779  1
  Tm  Tm4  1  0.637775  0.321275  0.316534  1
  Tm  Tm5  1  0.362225  0.678725  0.683466  1
  Tm  Tm6  1  0.004742  0.321275  0.683501  1
  Tm  Tm7  1  0.995258  0.678725  0.316499  1
  Tm  Tm8  1  0.231174  0.418695  0.187522  1
  Tm  Tm9  1  0.768826  0.581305  0.812478  1
  Tm  Tm10  1  0.231222  0.043722  0.812500  1
  Tm  Tm11  1  0.768778  0.956278  0.187500  1
  In  In12  1  0.500000  0.500000  0.000000  1
  Co  Co13  1  0.388844  0.888838  0.499994  1
  Co  Co14  1  0.611156  0.111162  0.500006  1
  Ru  Ru15  1  0.000153  0.337420  0.337266  1
  Ru  Ru16  1  0.999847  0.662580  0.662734  1
  Ru  Ru17  1  0.000000  0.000000  0.000000  1
