# generated using pymatgen
data_K8Hf(ZrTe4)3
_symmetry_space_group_name_H-M   'P 1'
_cell_length_a   14.37398246
_cell_length_b   7.00488643
_cell_length_c   9.32545702
_cell_angle_alpha   73.96795352
_cell_angle_beta   89.99341552
_cell_angle_gamma   90.02531186
_symmetry_Int_Tables_number   1
_chemical_formula_structural   K8Hf(ZrTe4)3
_chemical_formula_sum   'K8 Hf1 Zr3 Te12'
_cell_volume   902.44384873
_cell_formula_units_Z   1
loop_
 _symmetry_equiv_pos_site_id
 _symmetry_equiv_pos_as_xyz
  1  'x, y, z'
loop_
 _atom_site_type_symbol
 _atom_site_label
 _atom_site_symmetry_multiplicity
 _atom_site_fract_x
 _atom_site_fract_y
 _atom_site_fract_z
 _atom_site_occupancy
  K  K0  1  0.963596  0.663348  0.655319  1
  K  K1  1  0.463753  0.836680  0.344610  1
  K  K2  1  0.036250  0.336534  0.344568  1
  K  K3  1  0.536453  0.163019  0.655238  1
  K  K4  1  0.862557  0.058150  0.898855  1
  K  K5  1  0.362711  0.442003  0.101171  1
  K  K6  1  0.137228  0.941827  0.101201  1
  K  K7  1  0.637429  0.558244  0.898755  1
  Hf  Hf8  1  0.749146  0.693914  0.292430  1
  Zr  Zr9  1  0.249153  0.805193  0.707543  1
  Zr  Zr10  1  0.250881  0.305267  0.707492  1
  Zr  Zr11  1  0.750831  0.195611  0.292742  1
  Te  Te12  1  0.914219  0.922610  0.274168  1
  Te  Te13  1  0.415451  0.574391  0.726564  1
  Te  Te14  1  0.084532  0.074387  0.726509  1
  Te  Te15  1  0.585449  0.428234  0.274238  1
  Te  Te16  1  0.811586  0.335763  0.533779  1
  Te  Te17  1  0.311383  0.167573  0.464582  1
  Te  Te18  1  0.188677  0.667490  0.464669  1
  Te  Te19  1  0.688527  0.830725  0.533163  1
  Te  Te20  1  0.849151  0.502061  0.079590  1
  Te  Te21  1  0.349967  0.000566  0.921344  1
  Te  Te22  1  0.149991  0.500390  0.921418  1
  Te  Te23  1  0.651079  0.996020  0.080052  1
