# generated using pymatgen
data_Ce5P12Ir5Ru14
_symmetry_space_group_name_H-M   'P 1'
_cell_length_a   12.66666346
_cell_length_b   12.71470173
_cell_length_c   3.95933300
_cell_angle_alpha   90.00000000
_cell_angle_beta   90.00000000
_cell_angle_gamma   119.92997064
_symmetry_Int_Tables_number   1
_chemical_formula_structural   Ce5P12Ir5Ru14
_chemical_formula_sum   'Ce5 P12 Ir5 Ru14'
_cell_volume   552.62064187
_cell_formula_units_Z   1
loop_
 _symmetry_equiv_pos_site_id
 _symmetry_equiv_pos_as_xyz
  1  'x, y, z'
loop_
 _atom_site_type_symbol
 _atom_site_label
 _atom_site_symmetry_multiplicity
 _atom_site_fract_x
 _atom_site_fract_y
 _atom_site_fract_z
 _atom_site_occupancy
  Ce  Ce0  1  0.188086  0.187770  0.500000  1
  Ce  Ce1  1  0.812622  0.000195  0.500000  1
  Ce  Ce2  1  0.999898  0.811661  0.500000  1
  Ce  Ce3  1  0.331268  0.666039  0.000000  1
  Ce  Ce4  1  0.667429  0.333738  0.000000  1
  P  P5  1  0.817193  0.817134  0.000000  1
  P  P6  1  0.182936  0.000167  0.000000  1
  P  P7  1  0.000890  0.182654  0.000000  1
  P  P8  1  0.170526  0.480105  0.500000  1
  P  P9  1  0.520359  0.693964  0.500000  1
  P  P10  1  0.303389  0.824968  0.500000  1
  P  P11  1  0.693363  0.519347  0.500000  1
  P  P12  1  0.826546  0.307218  0.500000  1
  P  P13  1  0.481596  0.174689  0.500000  1
  P  P14  1  0.372797  0.367454  0.000000  1
  P  P15  1  0.632535  0.005329  0.000000  1
  P  P16  1  0.999179  0.627358  0.000000  1
  Ir  Ir17  1  0.713615  0.714523  0.500000  1
  Ir  Ir18  1  0.286217  0.000140  0.500000  1
  Ir  Ir19  1  0.001187  0.285324  0.500000  1
  Ir  Ir20  1  0.365619  0.494315  0.500000  1
  Ir  Ir21  1  0.505529  0.872366  0.500000  1
  Ru  Ru22  1  0.550965  0.552304  0.000000  1
  Ru  Ru23  1  0.447714  0.998642  0.000000  1
  Ru  Ru24  1  0.001117  0.447231  0.000000  1
  Ru  Ru25  1  0.184363  0.378067  0.000000  1
  Ru  Ru26  1  0.620868  0.804875  0.000000  1
  Ru  Ru27  1  0.195322  0.818250  0.000000  1
  Ru  Ru28  1  0.803854  0.622753  0.000000  1
  Ru  Ru29  1  0.819531  0.196827  0.000000  1
  Ru  Ru30  1  0.378352  0.180889  0.000000  1
  Ru  Ru31  1  0.125476  0.634128  0.500000  1
  Ru  Ru32  1  0.873932  0.508278  0.500000  1
  Ru  Ru33  1  0.634788  0.125928  0.500000  1
  Ru  Ru34  1  0.491208  0.365816  0.500000  1
  Ru  Ru35  1  0.999733  0.999552  0.000000  1
