# generated using pymatgen
data_Sc18Re7MoS2
_symmetry_space_group_name_H-M   'P 1'
_cell_length_a   8.54564116
_cell_length_b   8.70374673
_cell_length_c   8.70216600
_cell_angle_alpha   119.99171218
_cell_angle_beta   90.02980230
_cell_angle_gamma   89.97374711
_symmetry_Int_Tables_number   1
_chemical_formula_structural   Sc18Re7MoS2
_chemical_formula_sum   'Sc18 Re7 Mo1 S2'
_cell_volume   560.58966373
_cell_formula_units_Z   1
loop_
 _symmetry_equiv_pos_site_id
 _symmetry_equiv_pos_as_xyz
  1  'x, y, z'
loop_
 _atom_site_type_symbol
 _atom_site_label
 _atom_site_symmetry_multiplicity
 _atom_site_fract_x
 _atom_site_fract_y
 _atom_site_fract_z
 _atom_site_occupancy
  Sc  Sc0  1  0.548617  0.802278  0.604579  1
  Sc  Sc1  1  0.548524  0.802341  0.197672  1
  Sc  Sc2  1  0.548592  0.395393  0.197715  1
  Sc  Sc3  1  0.451383  0.197722  0.395421  1
  Sc  Sc4  1  0.451476  0.197659  0.802328  1
  Sc  Sc5  1  0.451408  0.604607  0.802285  1
  Sc  Sc6  1  0.048380  0.196591  0.393165  1
  Sc  Sc7  1  0.048422  0.196566  0.803432  1
  Sc  Sc8  1  0.048376  0.606858  0.803420  1
  Sc  Sc9  1  0.951620  0.803409  0.606835  1
  Sc  Sc10  1  0.951578  0.803434  0.196568  1
  Sc  Sc11  1  0.951624  0.393142  0.196580  1
  Sc  Sc12  1  0.750074  0.458066  0.916093  1
  Sc  Sc13  1  0.750066  0.458043  0.541963  1
  Sc  Sc14  1  0.750082  0.083931  0.541954  1
  Sc  Sc15  1  0.249926  0.541934  0.083907  1
  Sc  Sc16  1  0.249934  0.541957  0.458037  1
  Sc  Sc17  1  0.249918  0.916069  0.458046  1
  Re  Re18  1  0.750473  0.107768  0.215482  1
  Re  Re19  1  0.750455  0.107750  0.892257  1
  Re  Re20  1  0.750470  0.784525  0.892237  1
  Re  Re21  1  0.249527  0.892232  0.784518  1
  Re  Re22  1  0.249545  0.892250  0.107743  1
  Re  Re23  1  0.249530  0.215475  0.107763  1
  Re  Re24  1  0.000000  0.000000  0.000000  1
  Mo  Mo25  1  0.500000  0.000000  0.000000  1
  S  S26  1  0.750736  0.666639  0.333309  1
  S  S27  1  0.249264  0.333361  0.666691  1
