# generated using pymatgen
data_Sm8Ga(PdPt5)4
_symmetry_space_group_name_H-M   'P 1'
_cell_length_a   8.44430800
_cell_length_b   8.44532808
_cell_length_c   8.47128508
_cell_angle_alpha   89.98423715
_cell_angle_beta   90.00000000
_cell_angle_gamma   90.00000000
_symmetry_Int_Tables_number   1
_chemical_formula_structural   Sm8Ga(PdPt5)4
_chemical_formula_sum   'Sm8 Ga1 Pd4 Pt20'
_cell_volume   604.12926150
_cell_formula_units_Z   1
loop_
 _symmetry_equiv_pos_site_id
 _symmetry_equiv_pos_as_xyz
  1  'x, y, z'
loop_
 _atom_site_type_symbol
 _atom_site_label
 _atom_site_symmetry_multiplicity
 _atom_site_fract_x
 _atom_site_fract_y
 _atom_site_fract_z
 _atom_site_occupancy
  Sm  Sm0  1  0.250666  0.250892  0.250876  1
  Sm  Sm1  1  0.748558  0.748579  0.748198  1
  Sm  Sm2  1  0.749187  0.749161  0.251275  1
  Sm  Sm3  1  0.748768  0.251491  0.748592  1
  Sm  Sm4  1  0.251232  0.251491  0.748592  1
  Sm  Sm5  1  0.250813  0.749161  0.251275  1
  Sm  Sm6  1  0.251442  0.748579  0.748198  1
  Sm  Sm7  1  0.749334  0.250892  0.250876  1
  Ga  Ga8  1  0.000000  0.000278  0.003710  1
  Pd  Pd9  1  0.500000  0.745543  0.499864  1
  Pd  Pd10  1  0.500000  0.499724  0.254738  1
  Pd  Pd11  1  0.500000  0.499788  0.745480  1
  Pd  Pd12  1  0.000000  0.999718  0.705534  1
  Pt  Pt13  1  0.263165  0.500204  0.999960  1
  Pt  Pt14  1  0.736835  0.500204  0.999960  1
  Pt  Pt15  1  0.000000  0.261858  0.500118  1
  Pt  Pt16  1  0.500000  0.262916  0.999933  1
  Pt  Pt17  1  0.000000  0.737427  0.500195  1
  Pt  Pt18  1  0.500000  0.736816  0.999947  1
  Pt  Pt19  1  0.500000  0.000222  0.262279  1
  Pt  Pt20  1  0.262550  0.000568  0.500143  1
  Pt  Pt21  1  0.500000  0.000267  0.736129  1
  Pt  Pt22  1  0.737450  0.000568  0.500143  1
  Pt  Pt23  1  0.000000  0.500110  0.261945  1
  Pt  Pt24  1  0.000000  0.500143  0.736443  1
  Pt  Pt25  1  0.254150  0.499357  0.499822  1
  Pt  Pt26  1  0.745850  0.499357  0.499822  1
  Pt  Pt27  1  0.500000  0.254502  0.499823  1
  Pt  Pt28  1  0.297641  0.999795  0.998928  1
  Pt  Pt29  1  0.702359  0.999795  0.998928  1
  Pt  Pt30  1  0.000000  0.297611  0.998946  1
  Pt  Pt31  1  0.000000  0.703258  0.998897  1
  Pt  Pt32  1  0.000000  0.999726  0.300434  1
