# generated using pymatgen
data_Cs2KLuCl6
_symmetry_space_group_name_H-M   'P 1'
_cell_length_a   7.95719600
_cell_length_b   7.95719582
_cell_length_c   7.95719600
_cell_angle_alpha   120.00000074
_cell_angle_beta   90.00000000
_cell_angle_gamma   120.00000074
_symmetry_Int_Tables_number   1
_chemical_formula_structural   Cs2KLuCl6
_chemical_formula_sum   'Cs2 K1 Lu1 Cl6'
_cell_volume   356.25843005
_cell_formula_units_Z   1
loop_
 _symmetry_equiv_pos_site_id
 _symmetry_equiv_pos_as_xyz
  1  'x, y, z'
loop_
 _atom_site_type_symbol
 _atom_site_label
 _atom_site_symmetry_multiplicity
 _atom_site_fract_x
 _atom_site_fract_y
 _atom_site_fract_z
 _atom_site_occupancy
  Cs  Cs0  1  0.750000  0.500000  0.250000  1
  Cs  Cs1  1  0.250000  0.500000  0.750000  1
  K  K2  1  0.000000  0.000000  0.000000  1
  Lu  Lu3  1  0.500000  0.000000  0.500000  1
  Cl  Cl4  1  0.270015  0.000000  0.270015  1
  Cl  Cl5  1  0.729985  0.000000  0.270015  1
  Cl  Cl6  1  0.270015  0.540030  0.270015  1
  Cl  Cl7  1  0.270015  0.000000  0.729985  1
  Cl  Cl8  1  0.729985  0.000000  0.729985  1
  Cl  Cl9  1  0.729985  0.459970  0.729985  1
