# generated using pymatgen
data_Tb2DyHo(Al8Pt3)3
_symmetry_space_group_name_H-M   'P 1'
_cell_length_a   7.53578506
_cell_length_b   7.55616873
_cell_length_c   13.17753001
_cell_angle_alpha   84.56681982
_cell_angle_beta   79.10159035
_cell_angle_gamma   59.97632578
_symmetry_Int_Tables_number   1
_chemical_formula_structural   Tb2DyHo(Al8Pt3)3
_chemical_formula_sum   'Tb2 Dy1 Ho1 Al24 Pt9'
_cell_volume   637.95006944
_cell_formula_units_Z   1
loop_
 _symmetry_equiv_pos_site_id
 _symmetry_equiv_pos_as_xyz
  1  'x, y, z'
loop_
 _atom_site_type_symbol
 _atom_site_label
 _atom_site_symmetry_multiplicity
 _atom_site_fract_x
 _atom_site_fract_y
 _atom_site_fract_z
 _atom_site_occupancy
  Tb  Tb0  1  0.393362  0.168456  0.807901  1
  Tb  Tb1  1  0.606625  0.831534  0.192086  1
  Dy  Dy2  1  0.265938  0.501505  0.192376  1
  Ho  Ho3  1  0.734148  0.498496  0.807501  1
  Al  Al4  1  0.684502  0.833571  0.944366  1
  Al  Al5  1  0.315533  0.166281  0.055558  1
  Al  Al6  1  0.146851  0.832368  0.561313  1
  Al  Al7  1  0.853143  0.167638  0.438703  1
  Al  Al8  1  0.479699  0.166845  0.558685  1
  Al  Al9  1  0.520308  0.833146  0.441328  1
  Al  Al10  1  0.217109  0.165280  0.329969  1
  Al  Al11  1  0.782852  0.834617  0.670111  1
  Al  Al12  1  0.437943  0.506194  0.670145  1
  Al  Al13  1  0.562159  0.493804  0.329927  1
  Al  Al14  1  0.109573  0.160117  0.669347  1
  Al  Al15  1  0.890268  0.840006  0.330740  1
  Al  Al16  1  0.353388  0.499049  0.944478  1
  Al  Al17  1  0.646796  0.500952  0.055374  1
  Al  Al18  1  0.014915  0.167952  0.952964  1
  Al  Al19  1  0.984987  0.832167  0.046950  1
  Al  Al20  1  0.186740  0.498927  0.441275  1
  Al  Al21  1  0.813236  0.501073  0.558777  1
  Al  Al22  1  0.734416  0.163860  0.183336  1
  Al  Al23  1  0.265737  0.836009  0.816659  1
  Al  Al24  1  0.061707  0.631519  0.815429  1
  Al  Al25  1  0.938143  0.368469  0.184571  1
  Al  Al26  1  0.854941  0.041761  0.815985  1
  Al  Al27  1  0.145038  0.958429  0.184013  1
  Pt  Pt28  1  0.119930  0.492014  0.638894  1
  Pt  Pt29  1  0.879928  0.507978  0.361184  1
  Pt  Pt30  1  0.657153  0.171290  0.999914  1
  Pt  Pt31  1  0.342895  0.828699  0.000023  1
  Pt  Pt32  1  0.537937  0.166695  0.361205  1
  Pt  Pt33  1  0.462159  0.833189  0.638876  1
  Pt  Pt34  1  0.778845  0.175169  0.637364  1
  Pt  Pt35  1  0.221105  0.824961  0.362714  1
  Pt  Pt36  1  0.999990  0.499983  0.999963  1
