# generated using pymatgen
data_Dy5ErV2(Co4P3)4
_symmetry_space_group_name_H-M   'P 1'
_cell_length_a   3.68637600
_cell_length_b   10.54585403
_cell_length_c   12.21036604
_cell_angle_alpha   90.00924402
_cell_angle_beta   90.00000000
_cell_angle_gamma   90.00000000
_symmetry_Int_Tables_number   1
_chemical_formula_structural   Dy5ErV2(Co4P3)4
_chemical_formula_sum   'Dy5 Er1 V2 Co16 P12'
_cell_volume   474.68997899
_cell_formula_units_Z   1
loop_
 _symmetry_equiv_pos_site_id
 _symmetry_equiv_pos_as_xyz
  1  'x, y, z'
loop_
 _atom_site_type_symbol
 _atom_site_label
 _atom_site_symmetry_multiplicity
 _atom_site_fract_x
 _atom_site_fract_y
 _atom_site_fract_z
 _atom_site_occupancy
  Dy  Dy0  1  0.000000  0.500040  0.523201  1
  Dy  Dy1  1  0.500000  0.999945  0.476654  1
  Dy  Dy2  1  0.500000  0.181005  0.204505  1
  Dy  Dy3  1  0.000000  0.681257  0.795461  1
  Dy  Dy4  1  0.000000  0.318810  0.795643  1
  Er  Er5  1  0.500000  0.818732  0.204272  1
  V  V6  1  0.500000  0.499882  0.154446  1
  V  V7  1  0.000000  0.999831  0.845470  1
  Co  Co8  1  0.500000  0.500129  0.702104  1
  Co  Co9  1  0.000000  0.999365  0.297644  1
  Co  Co10  1  0.000000  0.500318  0.987221  1
  Co  Co11  1  0.500000  0.999682  0.013352  1
  Co  Co12  1  0.500000  0.332479  0.993251  1
  Co  Co13  1  0.500000  0.667881  0.993487  1
  Co  Co14  1  0.000000  0.167323  0.007082  1
  Co  Co15  1  0.000000  0.832381  0.007350  1
  Co  Co16  1  0.500000  0.295921  0.431124  1
  Co  Co17  1  0.500000  0.704177  0.430654  1
  Co  Co18  1  0.000000  0.203970  0.568837  1
  Co  Co19  1  0.000000  0.796031  0.568497  1
  Co  Co20  1  0.500000  0.878816  0.707584  1
  Co  Co21  1  0.500000  0.121218  0.707751  1
  Co  Co22  1  0.000000  0.621773  0.291927  1
  Co  Co23  1  0.000000  0.378928  0.292354  1
  P  P24  1  0.500000  0.500163  0.882463  1
  P  P25  1  0.000000  0.999332  0.118116  1
  P  P26  1  0.500000  0.499988  0.346977  1
  P  P27  1  0.000000  0.000012  0.652953  1
  P  P28  1  0.500000  0.311159  0.615854  1
  P  P29  1  0.500000  0.688975  0.615578  1
  P  P30  1  0.000000  0.188657  0.384118  1
  P  P31  1  0.000000  0.811232  0.383370  1
  P  P32  1  0.500000  0.845980  0.891888  1
  P  P33  1  0.500000  0.153900  0.892111  1
  P  P34  1  0.000000  0.654681  0.108552  1
  P  P35  1  0.000000  0.346025  0.108151  1
