# generated using pymatgen
data_RbCdH6Ir
_symmetry_space_group_name_H-M   'P 1'
_cell_length_a   7.63346500
_cell_length_b   7.63346500
_cell_length_c   7.63346500
_cell_angle_alpha   90.00000000
_cell_angle_beta   90.00000000
_cell_angle_gamma   90.00000000
_symmetry_Int_Tables_number   1
_chemical_formula_structural   RbCdH6Ir
_chemical_formula_sum   'Rb4 Cd4 H24 Ir4'
_cell_volume   444.80038654
_cell_formula_units_Z   4
loop_
 _symmetry_equiv_pos_site_id
 _symmetry_equiv_pos_as_xyz
  1  'x, y, z'
loop_
 _atom_site_type_symbol
 _atom_site_label
 _atom_site_symmetry_multiplicity
 _atom_site_fract_x
 _atom_site_fract_y
 _atom_site_fract_z
 _atom_site_occupancy
  Rb  Rb0  1  0.000000  0.000000  0.500000  1
  Rb  Rb1  1  0.000000  0.500000  0.000000  1
  Rb  Rb2  1  0.500000  0.000000  0.000000  1
  Rb  Rb3  1  0.000000  0.000000  0.000000  1
  Cd  Cd4  1  0.500000  0.500000  0.500000  1
  Cd  Cd5  1  0.000000  0.500000  0.500000  1
  Cd  Cd6  1  0.500000  0.000000  0.500000  1
  Cd  Cd7  1  0.500000  0.500000  0.000000  1
  H  H8  1  0.728384  0.728384  0.500596  1
  H  H9  1  0.271616  0.271616  0.500596  1
  H  H10  1  0.061034  0.720334  0.720334  1
  H  H11  1  0.279666  0.938966  0.720334  1
  H  H12  1  0.720334  0.061034  0.720334  1
  H  H13  1  0.938966  0.279666  0.720334  1
  H  H14  1  0.728384  0.500596  0.728384  1
  H  H15  1  0.500596  0.728384  0.728384  1
  H  H16  1  0.499404  0.271616  0.728384  1
  H  H17  1  0.271616  0.499404  0.728384  1
  H  H18  1  0.279666  0.720334  0.938966  1
  H  H19  1  0.720334  0.279666  0.938966  1
  H  H20  1  0.720334  0.720334  0.061034  1
  H  H21  1  0.279666  0.279666  0.061034  1
  H  H22  1  0.271616  0.500596  0.271616  1
  H  H23  1  0.499404  0.728384  0.271616  1
  H  H24  1  0.500596  0.271616  0.271616  1
  H  H25  1  0.728384  0.499404  0.271616  1
  H  H26  1  0.938966  0.720334  0.279666  1
  H  H27  1  0.720334  0.938966  0.279666  1
  H  H28  1  0.279666  0.061034  0.279666  1
  H  H29  1  0.061034  0.279666  0.279666  1
  H  H30  1  0.271616  0.728384  0.499404  1
  H  H31  1  0.728384  0.271616  0.499404  1
  Ir  Ir32  1  0.284130  0.715870  0.715870  1
  Ir  Ir33  1  0.715870  0.284130  0.715870  1
  Ir  Ir34  1  0.715870  0.715870  0.284130  1
  Ir  Ir35  1  0.284130  0.284130  0.284130  1
