# generated using pymatgen
data_Tm12Fe2Ni3Bi
_symmetry_space_group_name_H-M   'P 1'
_cell_length_a   8.21975568
_cell_length_b   8.21975509
_cell_length_c   8.21975506
_cell_angle_alpha   109.63433511
_cell_angle_beta   110.57557338
_cell_angle_gamma   108.21245521
_symmetry_Int_Tables_number   1
_chemical_formula_structural   Tm12Fe2Ni3Bi
_chemical_formula_sum   'Tm12 Fe2 Ni3 Bi1'
_cell_volume   427.33449056
_cell_formula_units_Z   1
loop_
 _symmetry_equiv_pos_site_id
 _symmetry_equiv_pos_as_xyz
  1  'x, y, z'
loop_
 _atom_site_type_symbol
 _atom_site_label
 _atom_site_symmetry_multiplicity
 _atom_site_fract_x
 _atom_site_fract_y
 _atom_site_fract_z
 _atom_site_occupancy
  Tm  Tm0  1  0.288136  0.180656  0.468791  1
  Tm  Tm1  1  0.711864  0.819344  0.531209  1
  Tm  Tm2  1  0.288136  0.819344  0.107479  1
  Tm  Tm3  1  0.711864  0.180656  0.892521  1
  Tm  Tm4  1  0.622194  0.314714  0.307479  1
  Tm  Tm5  1  0.377806  0.685286  0.692521  1
  Tm  Tm6  1  0.007235  0.314714  0.692521  1
  Tm  Tm7  1  0.992765  0.685286  0.307479  1
  Tm  Tm8  1  0.211951  0.409596  0.197647  1
  Tm  Tm9  1  0.788049  0.590404  0.802353  1
  Tm  Tm10  1  0.211951  0.014304  0.802353  1
  Tm  Tm11  1  0.788049  0.985696  0.197647  1
  Fe  Fe12  1  0.389549  0.889549  0.500000  1
  Fe  Fe13  1  0.610451  0.110451  0.500000  1
  Ni  Ni14  1  0.000000  0.368092  0.368092  1
  Ni  Ni15  1  0.000000  0.631908  0.631908  1
  Ni  Ni16  1  0.000000  0.000000  0.000000  1
  Bi  Bi17  1  0.500000  0.500000  0.000000  1
