# generated using pymatgen
data_NdEr4Ga6P6Ir19
_symmetry_space_group_name_H-M   'P 1'
_cell_length_a   12.96413000
_cell_length_b   12.96413007
_cell_length_c   3.98707900
_cell_angle_alpha   90.00000000
_cell_angle_beta   90.00000000
_cell_angle_gamma   119.99999982
_symmetry_Int_Tables_number   1
_chemical_formula_structural   NdEr4Ga6P6Ir19
_chemical_formula_sum   'Nd1 Er4 Ga6 P6 Ir19'
_cell_volume   580.32626989
_cell_formula_units_Z   1
loop_
 _symmetry_equiv_pos_site_id
 _symmetry_equiv_pos_as_xyz
  1  'x, y, z'
loop_
 _atom_site_type_symbol
 _atom_site_label
 _atom_site_symmetry_multiplicity
 _atom_site_fract_x
 _atom_site_fract_y
 _atom_site_fract_z
 _atom_site_occupancy
  Nd  Nd0  1  0.666667  0.333333  0.000000  1
  Er  Er1  1  0.333333  0.666667  0.000000  1
  Er  Er2  1  0.816697  0.812096  0.500000  1
  Er  Er3  1  0.187904  0.004600  0.500000  1
  Er  Er4  1  0.995400  0.183303  0.500000  1
  Ga  Ga5  1  0.677014  0.156836  0.500000  1
  Ga  Ga6  1  0.843164  0.520178  0.500000  1
  Ga  Ga7  1  0.479822  0.322986  0.500000  1
  Ga  Ga8  1  0.635511  0.637486  0.000000  1
  Ga  Ga9  1  0.362514  0.998026  0.000000  1
  Ga  Ga10  1  0.001974  0.364489  0.000000  1
  P  P11  1  0.180473  0.697507  0.500000  1
  P  P12  1  0.517033  0.819527  0.500000  1
  P  P13  1  0.302493  0.482967  0.500000  1
  P  P14  1  0.175125  0.181277  0.000000  1
  P  P15  1  0.818723  0.993847  0.000000  1
  P  P16  1  0.006153  0.824875  0.000000  1
  Ir  Ir17  1  0.809843  0.168679  0.000000  1
  Ir  Ir18  1  0.831321  0.641164  0.000000  1
  Ir  Ir19  1  0.358836  0.190157  0.000000  1
  Ir  Ir20  1  0.182334  0.793775  0.000000  1
  Ir  Ir21  1  0.611441  0.817666  0.000000  1
  Ir  Ir22  1  0.206225  0.388559  0.000000  1
  Ir  Ir23  1  0.446552  0.440661  0.000000  1
  Ir  Ir24  1  0.559339  0.005891  0.000000  1
  Ir  Ir25  1  0.994109  0.553448  0.000000  1
  Ir  Ir26  1  0.267110  0.280515  0.500000  1
  Ir  Ir27  1  0.719485  0.986595  0.500000  1
  Ir  Ir28  1  0.013405  0.732890  0.500000  1
  Ir  Ir29  1  0.874738  0.348610  0.500000  1
  Ir  Ir30  1  0.651390  0.526129  0.500000  1
  Ir  Ir31  1  0.473871  0.125262  0.500000  1
  Ir  Ir32  1  0.371472  0.868456  0.500000  1
  Ir  Ir33  1  0.496987  0.628528  0.500000  1
  Ir  Ir34  1  0.131544  0.503013  0.500000  1
  Ir  Ir35  1  0.000000  0.000000  0.000000  1
