# generated using pymatgen
data_Dy2TmGa5Pt
_symmetry_space_group_name_H-M   'P 1'
_cell_length_a   6.94395343
_cell_length_b   6.94395457
_cell_length_c   4.27377400
_cell_angle_alpha   90.00000000
_cell_angle_beta   90.00000000
_cell_angle_gamma   119.78316381
_symmetry_Int_Tables_number   1
_chemical_formula_structural   Dy2TmGa5Pt
_chemical_formula_sum   'Dy2 Tm1 Ga5 Pt1'
_cell_volume   178.85481689
_cell_formula_units_Z   1
loop_
 _symmetry_equiv_pos_site_id
 _symmetry_equiv_pos_as_xyz
  1  'x, y, z'
loop_
 _atom_site_type_symbol
 _atom_site_label
 _atom_site_symmetry_multiplicity
 _atom_site_fract_x
 _atom_site_fract_y
 _atom_site_fract_z
 _atom_site_occupancy
  Dy  Dy0  1  0.584025  0.999393  0.000000  1
  Dy  Dy1  1  0.999393  0.584025  0.000000  1
  Tm  Tm2  1  0.414083  0.414083  0.000000  1
  Ga  Ga3  1  0.242499  0.000452  0.500000  1
  Ga  Ga4  1  0.000452  0.242499  0.500000  1
  Ga  Ga5  1  0.756872  0.756872  0.500000  1
  Ga  Ga6  1  0.334133  0.665584  0.500000  1
  Ga  Ga7  1  0.665584  0.334133  0.500000  1
  Pt  Pt8  1  0.002959  0.002959  0.000000  1
