# generated using pymatgen
data_Lu4Al4Ni3Ir
_symmetry_space_group_name_H-M   'P 1'
_cell_length_a   4.21046100
_cell_length_b   6.57529900
_cell_length_c   7.63456703
_cell_angle_alpha   90.04020436
_cell_angle_beta   90.00000000
_cell_angle_gamma   90.00000000
_symmetry_Int_Tables_number   1
_chemical_formula_structural   Lu4Al4Ni3Ir
_chemical_formula_sum   'Lu4 Al4 Ni3 Ir1'
_cell_volume   211.36324162
_cell_formula_units_Z   1
loop_
 _symmetry_equiv_pos_site_id
 _symmetry_equiv_pos_as_xyz
  1  'x, y, z'
loop_
 _atom_site_type_symbol
 _atom_site_label
 _atom_site_symmetry_multiplicity
 _atom_site_fract_x
 _atom_site_fract_y
 _atom_site_fract_z
 _atom_site_occupancy
  Lu  Lu0  1  0.250000  0.031234  0.679256  1
  Lu  Lu1  1  0.250000  0.534768  0.823583  1
  Lu  Lu2  1  0.750000  0.964486  0.324359  1
  Lu  Lu3  1  0.750000  0.465032  0.172859  1
  Al  Al4  1  0.250000  0.138578  0.052626  1
  Al  Al5  1  0.250000  0.644036  0.442343  1
  Al  Al6  1  0.750000  0.859945  0.942940  1
  Al  Al7  1  0.750000  0.365009  0.563894  1
  Ni  Ni8  1  0.250000  0.772626  0.122360  1
  Ni  Ni9  1  0.750000  0.734136  0.629608  1
  Ni  Ni10  1  0.750000  0.227343  0.871919  1
  Ir  Ir11  1  0.250000  0.262805  0.374252  1
