# generated using pymatgen
data_Ti13Al9(Ir3Ru)2
_symmetry_space_group_name_H-M   'P 1'
_cell_length_a   8.74920546
_cell_length_b   8.74920450
_cell_length_c   8.74920457
_cell_angle_alpha   59.67188803
_cell_angle_beta   59.67189288
_cell_angle_gamma   59.67189618
_symmetry_Int_Tables_number   1
_chemical_formula_structural   Ti13Al9(Ir3Ru)2
_chemical_formula_sum   'Ti13 Al9 Ir6 Ru2'
_cell_volume   470.04702003
_cell_formula_units_Z   1
loop_
 _symmetry_equiv_pos_site_id
 _symmetry_equiv_pos_as_xyz
  1  'x, y, z'
loop_
 _atom_site_type_symbol
 _atom_site_label
 _atom_site_symmetry_multiplicity
 _atom_site_fract_x
 _atom_site_fract_y
 _atom_site_fract_z
 _atom_site_occupancy
  Ti  Ti0  1  0.211617  0.211617  0.789713  1
  Ti  Ti1  1  0.789713  0.211617  0.211617  1
  Ti  Ti2  1  0.211617  0.789713  0.211617  1
  Ti  Ti3  1  0.797602  0.797602  0.187652  1
  Ti  Ti4  1  0.187652  0.797602  0.797602  1
  Ti  Ti5  1  0.797602  0.187652  0.797602  1
  Ti  Ti6  1  0.379090  0.379090  0.379090  1
  Ti  Ti7  1  0.380004  0.864152  0.380004  1
  Ti  Ti8  1  0.864152  0.380004  0.380004  1
  Ti  Ti9  1  0.380004  0.380004  0.864152  1
  Ti  Ti10  1  0.845698  0.465693  0.845698  1
  Ti  Ti11  1  0.465693  0.845698  0.845698  1
  Ti  Ti12  1  0.845698  0.845698  0.465693  1
  Al  Al13  1  0.154214  0.154214  0.154214  1
  Al  Al14  1  0.157922  0.530944  0.157922  1
  Al  Al15  1  0.530944  0.157922  0.157922  1
  Al  Al16  1  0.157922  0.157922  0.530944  1
  Al  Al17  1  0.619270  0.619270  0.619270  1
  Al  Al18  1  0.619499  0.143664  0.619499  1
  Al  Al19  1  0.143664  0.619499  0.619499  1
  Al  Al20  1  0.619499  0.619499  0.143664  1
  Al  Al21  1  0.830404  0.830404  0.830404  1
  Ir  Ir22  1  0.003563  0.003563  0.498696  1
  Ir  Ir23  1  0.498696  0.003563  0.003563  1
  Ir  Ir24  1  0.003563  0.498696  0.003563  1
  Ir  Ir25  1  0.499687  0.499687  0.001469  1
  Ir  Ir26  1  0.001469  0.499687  0.499687  1
  Ir  Ir27  1  0.499687  0.001469  0.499687  1
  Ru  Ru28  1  0.500489  0.500489  0.500489  1
  Ru  Ru29  1  0.003367  0.003367  0.003367  1
