# generated using pymatgen
data_ScNbFe12P7
_symmetry_space_group_name_H-M   'P 1'
_cell_length_a   8.84775200
_cell_length_b   8.84775237
_cell_length_c   3.56752500
_cell_angle_alpha   90.00000000
_cell_angle_beta   90.00000000
_cell_angle_gamma   119.99999115
_symmetry_Int_Tables_number   1
_chemical_formula_structural   ScNbFe12P7
_chemical_formula_sum   'Sc1 Nb1 Fe12 P7'
_cell_volume   241.85974776
_cell_formula_units_Z   1
loop_
 _symmetry_equiv_pos_site_id
 _symmetry_equiv_pos_as_xyz
  1  'x, y, z'
loop_
 _atom_site_type_symbol
 _atom_site_label
 _atom_site_symmetry_multiplicity
 _atom_site_fract_x
 _atom_site_fract_y
 _atom_site_fract_z
 _atom_site_occupancy
  Sc  Sc0  1  0.333333  0.666667  0.500000  1
  Nb  Nb1  1  0.000000  0.000000  0.000000  1
  Fe  Fe2  1  0.097695  0.391923  0.000000  1
  Fe  Fe3  1  0.294228  0.902305  0.000000  1
  Fe  Fe4  1  0.608077  0.705772  0.000000  1
  Fe  Fe5  1  0.823619  0.610861  0.000000  1
  Fe  Fe6  1  0.787242  0.176381  0.000000  1
  Fe  Fe7  1  0.389139  0.212758  0.000000  1
  Fe  Fe8  1  0.049272  0.774454  0.500000  1
  Fe  Fe9  1  0.725183  0.950728  0.500000  1
  Fe  Fe10  1  0.225546  0.274817  0.500000  1
  Fe  Fe11  1  0.890320  0.434372  0.500000  1
  Fe  Fe12  1  0.544051  0.109680  0.500000  1
  Fe  Fe13  1  0.565628  0.455949  0.500000  1
  P  P14  1  0.081332  0.630223  0.000000  1
  P  P15  1  0.548890  0.918668  0.000000  1
  P  P16  1  0.369777  0.451110  0.000000  1
  P  P17  1  0.782152  0.738999  0.500000  1
  P  P18  1  0.956846  0.217848  0.500000  1
  P  P19  1  0.261001  0.043154  0.500000  1
  P  P20  1  0.666667  0.333333  0.000000  1
