# generated using pymatgen
data_CePr4Ga2Ru3
_symmetry_space_group_name_H-M   'P 1'
_cell_length_a   8.64088696
_cell_length_b   8.64221778
_cell_length_c   8.48813400
_cell_angle_alpha   110.48410750
_cell_angle_beta   108.94877470
_cell_angle_gamma   109.68160187
_symmetry_Int_Tables_number   1
_chemical_formula_structural   CePr4Ga2Ru3
_chemical_formula_sum   'Ce2 Pr8 Ga4 Ru6'
_cell_volume   483.61704080
_cell_formula_units_Z   2
loop_
 _symmetry_equiv_pos_site_id
 _symmetry_equiv_pos_as_xyz
  1  'x, y, z'
loop_
 _atom_site_type_symbol
 _atom_site_label
 _atom_site_symmetry_multiplicity
 _atom_site_fract_x
 _atom_site_fract_y
 _atom_site_fract_z
 _atom_site_occupancy
  Ce  Ce0  1  0.196277  0.945658  0.249821  1
  Ce  Ce1  1  0.946315  0.249495  0.197583  1
  Pr  Pr2  1  0.782100  0.786777  0.779782  1
  Pr  Pr3  1  0.311025  0.559192  0.751322  1
  Pr  Pr4  1  0.751101  0.309396  0.560161  1
  Pr  Pr5  1  0.558849  0.749486  0.305214  1
  Pr  Pr6  1  0.728269  0.502028  0.997778  1
  Pr  Pr7  1  0.998883  0.721770  0.502634  1
  Pr  Pr8  1  0.499898  0.990286  0.719980  1
  Pr  Pr9  1  0.253373  0.197402  0.939476  1
  Ga  Ga10  1  0.414701  0.405864  0.407593  1
  Ga  Ga11  1  0.093353  0.493466  0.000601  1
  Ga  Ga12  1  0.999535  0.092136  0.500369  1
  Ga  Ga13  1  0.503634  0.013197  0.099074  1
  Ru  Ru14  1  0.869280  0.120816  0.742803  1
  Ru  Ru15  1  0.761819  0.921347  0.127716  1
  Ru  Ru16  1  0.133629  0.769238  0.924777  1
  Ru  Ru17  1  0.217197  0.575183  0.358729  1
  Ru  Ru18  1  0.351956  0.211582  0.584278  1
  Ru  Ru19  1  0.628806  0.385682  0.250311  1
