# generated using pymatgen
data_Ho2ThAl2GaNi3
_symmetry_space_group_name_H-M   'P 1'
_cell_length_a   7.02879433
_cell_length_b   7.09029510
_cell_length_c   3.82318900
_cell_angle_alpha   90.00000000
_cell_angle_beta   90.00000000
_cell_angle_gamma   120.45223842
_symmetry_Int_Tables_number   1
_chemical_formula_structural   Ho2ThAl2GaNi3
_chemical_formula_sum   'Ho2 Th1 Al2 Ga1 Ni3'
_cell_volume   164.24961097
_cell_formula_units_Z   1
loop_
 _symmetry_equiv_pos_site_id
 _symmetry_equiv_pos_as_xyz
  1  'x, y, z'
loop_
 _atom_site_type_symbol
 _atom_site_label
 _atom_site_symmetry_multiplicity
 _atom_site_fract_x
 _atom_site_fract_y
 _atom_site_fract_z
 _atom_site_occupancy
  Ho  Ho0  1  0.582301  0.001818  0.500000  1
  Ho  Ho1  1  0.413828  0.413541  0.500000  1
  Th  Th2  1  0.002157  0.581890  0.500000  1
  Al  Al3  1  0.752053  0.763545  0.000000  1
  Al  Al4  1  0.998502  0.224473  0.000000  1
  Ga  Ga5  1  0.251133  0.011801  0.000000  1
  Ni  Ni6  1  0.325886  0.662920  0.000000  1
  Ni  Ni7  1  0.680228  0.347280  0.000000  1
  Ni  Ni8  1  0.993913  0.992731  0.500000  1
