# generated using pymatgen
data_Sr3I2(Cl2O3)2
_symmetry_space_group_name_H-M   'P 1'
_cell_length_a   8.62601131
_cell_length_b   8.62601191
_cell_length_c   12.02401861
_cell_angle_alpha   65.11338897
_cell_angle_beta   65.11338716
_cell_angle_gamma   51.72242573
_symmetry_Int_Tables_number   1
_chemical_formula_structural   Sr3I2(Cl2O3)2
_chemical_formula_sum   'Sr6 I4 Cl8 O12'
_cell_volume   620.80834320
_cell_formula_units_Z   2
loop_
 _symmetry_equiv_pos_site_id
 _symmetry_equiv_pos_as_xyz
  1  'x, y, z'
loop_
 _atom_site_type_symbol
 _atom_site_label
 _atom_site_symmetry_multiplicity
 _atom_site_fract_x
 _atom_site_fract_y
 _atom_site_fract_z
 _atom_site_occupancy
  Sr  Sr0  1  0.186521  0.813479  0.750000  1
  Sr  Sr1  1  0.813479  0.186521  0.250000  1
  Sr  Sr2  1  0.048302  0.340886  0.830755  1
  Sr  Sr3  1  0.659114  0.951698  0.669245  1
  Sr  Sr4  1  0.951698  0.659114  0.169245  1
  Sr  Sr5  1  0.340886  0.048302  0.330755  1
  I  I6  1  0.664901  0.230665  0.971997  1
  I  I7  1  0.769335  0.335099  0.528003  1
  I  I8  1  0.335099  0.769335  0.028003  1
  I  I9  1  0.230665  0.664901  0.471997  1
  Cl  Cl10  1  0.663226  0.579673  0.731553  1
  Cl  Cl11  1  0.420327  0.336774  0.768447  1
  Cl  Cl12  1  0.336774  0.420327  0.268447  1
  Cl  Cl13  1  0.579673  0.663226  0.231553  1
  Cl  Cl14  1  0.267191  0.148109  0.604037  1
  Cl  Cl15  1  0.851891  0.732809  0.895963  1
  Cl  Cl16  1  0.732809  0.851891  0.395963  1
  Cl  Cl17  1  0.148109  0.267191  0.104037  1
  O  O18  1  0.918512  0.093382  0.876385  1
  O  O19  1  0.906618  0.081488  0.623615  1
  O  O20  1  0.081488  0.906618  0.123615  1
  O  O21  1  0.093382  0.918512  0.376385  1
  O  O22  1  0.334240  0.965241  0.884669  1
  O  O23  1  0.034759  0.665760  0.615331  1
  O  O24  1  0.665760  0.034759  0.115331  1
  O  O25  1  0.965241  0.334240  0.384669  1
  O  O26  1  0.271588  0.645323  0.975542  1
  O  O27  1  0.354677  0.728412  0.524458  1
  O  O28  1  0.728412  0.354677  0.024458  1
  O  O29  1  0.645323  0.271588  0.475542  1
