# generated using pymatgen
data_Lu8Ti2Nb5Si16Mo5
_symmetry_space_group_name_H-M   'P 1'
_cell_length_a   6.71998777
_cell_length_b   6.95799799
_cell_length_c   13.16008648
_cell_angle_alpha   90.04742974
_cell_angle_beta   89.97339594
_cell_angle_gamma   89.99530559
_symmetry_Int_Tables_number   1
_chemical_formula_structural   Lu8Ti2Nb5Si16Mo5
_chemical_formula_sum   'Lu8 Ti2 Nb5 Si16 Mo5'
_cell_volume   615.33458816
_cell_formula_units_Z   1
loop_
 _symmetry_equiv_pos_site_id
 _symmetry_equiv_pos_as_xyz
  1  'x, y, z'
loop_
 _atom_site_type_symbol
 _atom_site_label
 _atom_site_symmetry_multiplicity
 _atom_site_fract_x
 _atom_site_fract_y
 _atom_site_fract_z
 _atom_site_occupancy
  Lu  Lu0  1  0.501761  0.328712  0.094818  1
  Lu  Lu1  1  0.001191  0.173015  0.404174  1
  Lu  Lu2  1  0.498673  0.672752  0.595352  1
  Lu  Lu3  1  0.998787  0.829219  0.905054  1
  Lu  Lu4  1  0.497611  0.672454  0.904506  1
  Lu  Lu5  1  0.999186  0.829046  0.594814  1
  Lu  Lu6  1  0.501256  0.328181  0.405684  1
  Lu  Lu7  1  0.002472  0.173309  0.095111  1
  Ti  Ti8  1  0.667022  0.828530  0.125959  1
  Ti  Ti9  1  0.832045  0.328638  0.872941  1
  Nb  Nb10  1  0.835387  0.329029  0.625950  1
  Nb  Nb11  1  0.332278  0.171345  0.873488  1
  Nb  Nb12  1  0.168339  0.671050  0.125920  1
  Nb  Nb13  1  0.664844  0.830179  0.374715  1
  Nb  Nb14  1  0.168175  0.670109  0.376125  1
  Si  Si15  1  0.659469  0.037714  0.544267  1
  Si  Si16  1  0.162250  0.462108  0.957078  1
  Si  Si17  1  0.337194  0.962076  0.042406  1
  Si  Si18  1  0.835829  0.537176  0.457713  1
  Si  Si19  1  0.333336  0.963435  0.459624  1
  Si  Si20  1  0.834723  0.537445  0.041634  1
  Si  Si21  1  0.665144  0.037402  0.958119  1
  Si  Si22  1  0.168423  0.458141  0.543903  1
  Si  Si23  1  0.532162  0.376409  0.748414  1
  Si  Si24  1  0.035775  0.121583  0.749878  1
  Si  Si25  1  0.467173  0.621044  0.249430  1
  Si  Si26  1  0.964780  0.879383  0.249491  1
  Si  Si27  1  0.796804  0.632511  0.750652  1
  Si  Si28  1  0.299466  0.868242  0.749508  1
  Si  Si29  1  0.203144  0.366080  0.250042  1
  Si  Si30  1  0.702657  0.132884  0.248936  1
  Mo  Mo31  1  0.331846  0.168225  0.624968  1
  Mo  Mo32  1  0.664132  0.006050  0.749542  1
  Mo  Mo33  1  0.159497  0.494588  0.749293  1
  Mo  Mo34  1  0.339271  0.995613  0.250426  1
  Mo  Mo35  1  0.837898  0.506321  0.250062  1
