# generated using pymatgen
data_Hf8In2Cu7NiHg2
_symmetry_space_group_name_H-M   'P 1'
_cell_length_a   7.16888275
_cell_length_b   7.16790744
_cell_length_c   6.78817498
_cell_angle_alpha   90.05600692
_cell_angle_beta   90.02488956
_cell_angle_gamma   90.18740194
_symmetry_Int_Tables_number   1
_chemical_formula_structural   Hf8In2Cu7NiHg2
_chemical_formula_sum   'Hf8 In2 Cu7 Ni1 Hg2'
_cell_volume   348.81433344
_cell_formula_units_Z   1
loop_
 _symmetry_equiv_pos_site_id
 _symmetry_equiv_pos_as_xyz
  1  'x, y, z'
loop_
 _atom_site_type_symbol
 _atom_site_label
 _atom_site_symmetry_multiplicity
 _atom_site_fract_x
 _atom_site_fract_y
 _atom_site_fract_z
 _atom_site_occupancy
  Hf  Hf0  1  0.154187  0.153069  0.003862  1
  Hf  Hf1  1  0.852306  0.851616  0.998872  1
  Hf  Hf2  1  0.646328  0.349258  0.495295  1
  Hf  Hf3  1  0.349358  0.645764  0.495038  1
  Hf  Hf4  1  0.682733  0.304067  0.003699  1
  Hf  Hf5  1  0.311589  0.690542  0.003575  1
  Hf  Hf6  1  0.803437  0.810918  0.500664  1
  Hf  Hf7  1  0.199412  0.192046  0.495096  1
  In  In8  1  0.999666  0.500402  0.249012  1
  In  In9  1  0.998365  0.499302  0.749499  1
  Cu  Cu10  1  0.624972  0.621796  0.794956  1
  Cu  Cu11  1  0.626998  0.623352  0.203428  1
  Cu  Cu12  1  0.878450  0.126392  0.705009  1
  Cu  Cu13  1  0.878217  0.125253  0.295997  1
  Cu  Cu14  1  0.374620  0.378076  0.795210  1
  Cu  Cu15  1  0.121764  0.875282  0.296361  1
  Cu  Cu16  1  0.123370  0.875432  0.704432  1
  Ni  Ni17  1  0.374893  0.379060  0.210740  1
  Hg  Hg18  1  0.500107  0.999407  0.249833  1
  Hg  Hg19  1  0.499229  0.998966  0.749422  1
