# generated using pymatgen
data_Zr3Re3SiGeP
_symmetry_space_group_name_H-M   'P 1'
_cell_length_a   6.97772800
_cell_length_b   6.97772739
_cell_length_c   3.46945700
_cell_angle_alpha   90.00000000
_cell_angle_beta   90.00000000
_cell_angle_gamma   120.00000291
_symmetry_Int_Tables_number   1
_chemical_formula_structural   Zr3Re3SiGeP
_chemical_formula_sum   'Zr3 Re3 Si1 Ge1 P1'
_cell_volume   146.29186020
_cell_formula_units_Z   1
loop_
 _symmetry_equiv_pos_site_id
 _symmetry_equiv_pos_as_xyz
  1  'x, y, z'
loop_
 _atom_site_type_symbol
 _atom_site_label
 _atom_site_symmetry_multiplicity
 _atom_site_fract_x
 _atom_site_fract_y
 _atom_site_fract_z
 _atom_site_occupancy
  Zr  Zr0  1  0.400197  0.991274  0.500000  1
  Zr  Zr1  1  0.008726  0.408921  0.500000  1
  Zr  Zr2  1  0.591079  0.599803  0.500000  1
  Re  Re3  1  0.745595  0.994182  0.000000  1
  Re  Re4  1  0.005818  0.751413  0.000000  1
  Re  Re5  1  0.248587  0.254405  0.000000  1
  Si  Si6  1  0.000000  0.000000  0.500000  1
  Ge  Ge7  1  0.666667  0.333333  0.000000  1
  P  P8  1  0.333333  0.666667  0.000000  1
