# generated using pymatgen
data_Lu4As6Ir3Ru4
_symmetry_space_group_name_H-M   'P 1'
_cell_length_a   7.18765897
_cell_length_b   7.19321449
_cell_length_c   7.19321428
_cell_angle_alpha   109.48685455
_cell_angle_beta   109.45556947
_cell_angle_gamma   109.45558276
_symmetry_Int_Tables_number   1
_chemical_formula_structural   Lu4As6Ir3Ru4
_chemical_formula_sum   'Lu4 As6 Ir3 Ru4'
_cell_volume   286.34883982
_cell_formula_units_Z   1
loop_
 _symmetry_equiv_pos_site_id
 _symmetry_equiv_pos_as_xyz
  1  'x, y, z'
loop_
 _atom_site_type_symbol
 _atom_site_label
 _atom_site_symmetry_multiplicity
 _atom_site_fract_x
 _atom_site_fract_y
 _atom_site_fract_z
 _atom_site_occupancy
  Lu  Lu0  1  0.999749  0.999498  0.499749  1
  Lu  Lu1  1  0.500000  0.000000  0.000000  1
  Lu  Lu2  1  0.000251  0.500251  0.000502  1
  Lu  Lu3  1  0.500000  0.500251  0.499749  1
  As  As4  1  0.681007  0.681257  0.993690  1
  As  As5  1  0.312683  0.312432  0.993690  1
  As  As6  1  0.000251  0.681257  0.687568  1
  As  As7  1  0.999749  0.312432  0.318743  1
  As  As8  1  0.687317  0.006310  0.687568  1
  As  As9  1  0.318993  0.006310  0.318743  1
  Ir  Ir10  1  0.500000  0.751215  0.248785  1
  Ir  Ir11  1  0.748785  0.497570  0.248785  1
  Ir  Ir12  1  0.251215  0.751215  0.502430  1
  Ru  Ru13  1  0.000000  0.000000  0.000000  1
  Ru  Ru14  1  0.249530  0.499060  0.749530  1
  Ru  Ru15  1  0.750470  0.250470  0.500940  1
  Ru  Ru16  1  0.500000  0.250470  0.749530  1
