# generated using pymatgen
data_Pa5(AlCo4)3
_symmetry_space_group_name_H-M   'P 1'
_cell_length_a   5.22617000
_cell_length_b   7.01313218
_cell_length_c   8.15465311
_cell_angle_alpha   90.98482226
_cell_angle_beta   90.00000000
_cell_angle_gamma   90.00000000
_symmetry_Int_Tables_number   1
_chemical_formula_structural   Pa5(AlCo4)3
_chemical_formula_sum   'Pa5 Al3 Co12'
_cell_volume   298.83873632
_cell_formula_units_Z   1
loop_
 _symmetry_equiv_pos_site_id
 _symmetry_equiv_pos_as_xyz
  1  'x, y, z'
loop_
 _atom_site_type_symbol
 _atom_site_label
 _atom_site_symmetry_multiplicity
 _atom_site_fract_x
 _atom_site_fract_y
 _atom_site_fract_z
 _atom_site_occupancy
  Pa  Pa0  1  0.750000  0.893735  0.858734  1
  Pa  Pa1  1  0.750000  0.400474  0.659120  1
  Pa  Pa2  1  0.250000  0.112006  0.137734  1
  Pa  Pa3  1  0.250000  0.587748  0.340724  1
  Pa  Pa4  1  0.750000  0.936328  0.408931  1
  Al  Al5  1  0.750000  0.448124  0.080232  1
  Al  Al6  1  0.250000  0.070539  0.609609  1
  Al  Al7  1  0.250000  0.559149  0.910488  1
  Co  Co8  1  0.750000  0.576087  0.361248  1
  Co  Co9  1  0.750000  0.106194  0.132480  1
  Co  Co10  1  0.250000  0.412127  0.633438  1
  Co  Co11  1  0.250000  0.904185  0.867156  1
  Co  Co12  1  0.996915  0.251844  0.385912  1
  Co  Co13  1  0.503171  0.762185  0.122724  1
  Co  Co14  1  0.492794  0.741424  0.613927  1
  Co  Co15  1  0.006025  0.241198  0.877492  1
  Co  Co16  1  0.007206  0.741424  0.613927  1
  Co  Co17  1  0.493975  0.241198  0.877492  1
  Co  Co18  1  0.503085  0.251844  0.385912  1
  Co  Co19  1  0.996829  0.762185  0.122724  1
