# generated using pymatgen
data_Er16Cd4Os3Pd
_symmetry_space_group_name_H-M   'P 1'
_cell_length_a   9.48535691
_cell_length_b   9.67365224
_cell_length_c   9.67365300
_cell_angle_alpha   60.00000081
_cell_angle_beta   59.34112807
_cell_angle_gamma   59.34112480
_symmetry_Int_Tables_number   1
_chemical_formula_structural   Er16Cd4Os3Pd
_chemical_formula_sum   'Er16 Cd4 Os3 Pd1'
_cell_volume   621.32955258
_cell_formula_units_Z   1
loop_
 _symmetry_equiv_pos_site_id
 _symmetry_equiv_pos_as_xyz
  1  'x, y, z'
loop_
 _atom_site_type_symbol
 _atom_site_label
 _atom_site_symmetry_multiplicity
 _atom_site_fract_x
 _atom_site_fract_y
 _atom_site_fract_z
 _atom_site_occupancy
  Er  Er0  1  0.347127  0.352622  0.352622  1
  Er  Er1  1  0.347127  0.352622  0.947627  1
  Er  Er2  1  0.347127  0.947627  0.352622  1
  Er  Er3  1  0.972025  0.342658  0.342658  1
  Er  Er4  1  0.816148  0.189396  0.189396  1
  Er  Er5  1  0.183471  0.811516  0.811516  1
  Er  Er6  1  0.183471  0.811516  0.193496  1
  Er  Er7  1  0.816148  0.189396  0.805060  1
  Er  Er8  1  0.183471  0.193496  0.811516  1
  Er  Er9  1  0.816148  0.805060  0.189396  1
  Er  Er10  1  0.934080  0.563157  0.563157  1
  Er  Er11  1  0.552563  0.940424  0.940424  1
  Er  Er12  1  0.552563  0.940424  0.566589  1
  Er  Er13  1  0.934080  0.563157  0.939607  1
  Er  Er14  1  0.552563  0.566589  0.940424  1
  Er  Er15  1  0.934080  0.939607  0.563157  1
  Cd  Cd16  1  0.581157  0.578929  0.578929  1
  Cd  Cd17  1  0.581157  0.578929  0.260985  1
  Cd  Cd18  1  0.581157  0.260985  0.578929  1
  Cd  Cd19  1  0.254006  0.581998  0.581998  1
  Os  Os20  1  0.152490  0.135997  0.135997  1
  Os  Os21  1  0.152490  0.135997  0.575515  1
  Os  Os22  1  0.152490  0.575515  0.135997  1
  Pd  Pd23  1  0.572859  0.142380  0.142380  1
