# generated using pymatgen
data_K2Li14Hf2ZrO14
_symmetry_space_group_name_H-M   'P 1'
_cell_length_a   8.25642403
_cell_length_b   8.25642460
_cell_length_c   8.25642422
_cell_angle_alpha   127.37918220
_cell_angle_beta   123.15485779
_cell_angle_gamma   81.14172449
_symmetry_Int_Tables_number   1
_chemical_formula_structural   K2Li14Hf2ZrO14
_chemical_formula_sum   'K2 Li14 Hf2 Zr1 O14'
_cell_volume   360.77424255
_cell_formula_units_Z   1
loop_
 _symmetry_equiv_pos_site_id
 _symmetry_equiv_pos_as_xyz
  1  'x, y, z'
loop_
 _atom_site_type_symbol
 _atom_site_label
 _atom_site_symmetry_multiplicity
 _atom_site_fract_x
 _atom_site_fract_y
 _atom_site_fract_z
 _atom_site_occupancy
  K  K0  1  0.498792  0.759439  0.260646  1
  K  K1  1  0.498792  0.238146  0.739354  1
  Li  Li2  1  0.704872  0.136228  0.111902  1
  Li  Li3  1  0.977811  0.864442  0.571127  1
  Li  Li4  1  0.024326  0.592970  0.888098  1
  Li  Li5  1  0.293315  0.406684  0.428873  1
  Li  Li6  1  0.024326  0.136228  0.431356  1
  Li  Li7  1  0.844745  0.499216  0.345530  1
  Li  Li8  1  0.153686  0.499216  0.654470  1
  Li  Li9  1  0.414151  0.771951  0.642200  1
  Li  Li10  1  0.585043  0.228683  0.356360  1
  Li  Li11  1  0.872323  0.228683  0.643640  1
  Li  Li12  1  0.129752  0.771951  0.357800  1
  Li  Li13  1  0.704872  0.592970  0.568644  1
  Li  Li14  1  0.293315  0.864442  0.886631  1
  Li  Li15  1  0.977811  0.406684  0.113369  1
  Hf  Hf16  1  0.999761  0.999761  0.000000  1
  Hf  Hf17  1  0.270692  0.270692  0.000000  1
  Zr  Zr18  1  0.727664  0.727664  0.000000  1
  O  O19  1  0.053942  0.874588  0.179354  1
  O  O20  1  0.419196  0.629568  0.789627  1
  O  O21  1  0.839941  0.629568  0.210373  1
  O  O22  1  0.575953  0.369385  0.206568  1
  O  O23  1  0.162817  0.369385  0.793432  1
  O  O24  1  0.745181  0.032215  0.287034  1
  O  O25  1  0.255470  0.539992  0.284522  1
  O  O26  1  0.255470  0.970948  0.715478  1
  O  O27  1  0.745181  0.458145  0.712966  1
  O  O28  1  0.999687  0.714186  0.714499  1
  O  O29  1  0.999687  0.285188  0.285501  1
  O  O30  1  0.695234  0.874588  0.820646  1
  O  O31  1  0.304041  0.128096  0.175946  1
  O  O32  1  0.952150  0.128096  0.824054  1
