# generated using pymatgen
data_U4Al18Ir5Os
_symmetry_space_group_name_H-M   'P 1'
_cell_length_a   7.58010072
_cell_length_b   7.57793937
_cell_length_c   9.35916569
_cell_angle_alpha   89.73109779
_cell_angle_beta   89.73349465
_cell_angle_gamma   118.71866578
_symmetry_Int_Tables_number   1
_chemical_formula_structural   U4Al18Ir5Os
_chemical_formula_sum   'U4 Al18 Ir5 Os1'
_cell_volume   471.45415242
_cell_formula_units_Z   1
loop_
 _symmetry_equiv_pos_site_id
 _symmetry_equiv_pos_as_xyz
  1  'x, y, z'
loop_
 _atom_site_type_symbol
 _atom_site_label
 _atom_site_symmetry_multiplicity
 _atom_site_fract_x
 _atom_site_fract_y
 _atom_site_fract_z
 _atom_site_occupancy
  U  U0  1  0.996446  0.682443  0.746310  1
  U  U1  1  0.003554  0.317557  0.253690  1
  U  U2  1  0.682409  0.996436  0.746176  1
  U  U3  1  0.317591  0.003564  0.253824  1
  Al  Al4  1  0.136975  0.136955  0.750881  1
  Al  Al5  1  0.863025  0.863045  0.249119  1
  Al  Al6  1  0.004408  0.340352  0.578414  1
  Al  Al7  1  0.995592  0.659648  0.421586  1
  Al  Al8  1  0.997183  0.659257  0.076192  1
  Al  Al9  1  0.340628  0.002777  0.923767  1
  Al  Al10  1  0.002817  0.340743  0.923808  1
  Al  Al11  1  0.659372  0.997223  0.076233  1
  Al  Al12  1  0.659866  0.995693  0.421413  1
  Al  Al13  1  0.340134  0.004307  0.578587  1
  Al  Al14  1  0.333980  0.334040  0.051431  1
  Al  Al15  1  0.666020  0.665960  0.948569  1
  Al  Al16  1  0.664801  0.664714  0.550316  1
  Al  Al17  1  0.335199  0.335286  0.449684  1
  Al  Al18  1  0.343671  0.553568  0.750580  1
  Al  Al19  1  0.656329  0.446432  0.249420  1
  Al  Al20  1  0.553666  0.343961  0.750621  1
  Al  Al21  1  0.446334  0.656039  0.249379  1
  Ir  Ir22  1  0.673250  0.326616  0.499943  1
  Ir  Ir23  1  0.326750  0.673384  0.500057  1
  Ir  Ir24  1  0.327541  0.672576  0.999997  1
  Ir  Ir25  1  0.672459  0.327424  0.000003  1
  Ir  Ir26  1  0.000000  0.000000  0.000000  1
  Os  Os27  1  0.000000  0.000000  0.500000  1
