# generated using pymatgen
data_Al3Ni10MoPt2
_symmetry_space_group_name_H-M   'P 1'
_cell_length_a   3.63470200
_cell_length_b   3.63470200
_cell_length_c   14.63243900
_cell_angle_alpha   90.00000000
_cell_angle_beta   90.00000000
_cell_angle_gamma   90.00000000
_symmetry_Int_Tables_number   1
_chemical_formula_structural   Al3Ni10MoPt2
_chemical_formula_sum   'Al3 Ni10 Mo1 Pt2'
_cell_volume   193.31000951
_cell_formula_units_Z   1
loop_
 _symmetry_equiv_pos_site_id
 _symmetry_equiv_pos_as_xyz
  1  'x, y, z'
loop_
 _atom_site_type_symbol
 _atom_site_label
 _atom_site_symmetry_multiplicity
 _atom_site_fract_x
 _atom_site_fract_y
 _atom_site_fract_z
 _atom_site_occupancy
  Al  Al0  1  0.000000  0.000000  0.258987  1
  Al  Al1  1  0.000000  0.000000  0.500000  1
  Al  Al2  1  0.000000  0.000000  0.741013  1
  Ni  Ni3  1  0.500000  0.500000  0.000000  1
  Ni  Ni4  1  0.500000  0.500000  0.500000  1
  Ni  Ni5  1  0.500000  0.000000  0.119502  1
  Ni  Ni6  1  0.500000  0.000000  0.382031  1
  Ni  Ni7  1  0.500000  0.000000  0.617969  1
  Ni  Ni8  1  0.500000  0.000000  0.880498  1
  Ni  Ni9  1  0.000000  0.500000  0.119502  1
  Ni  Ni10  1  0.000000  0.500000  0.382031  1
  Ni  Ni11  1  0.000000  0.500000  0.617969  1
  Ni  Ni12  1  0.000000  0.500000  0.880498  1
  Mo  Mo13  1  0.000000  0.000000  0.000000  1
  Pt  Pt14  1  0.500000  0.500000  0.250162  1
  Pt  Pt15  1  0.500000  0.500000  0.749838  1
