# generated using pymatgen
data_YbDy3Ni13Pt
_symmetry_space_group_name_H-M   'P 1'
_cell_length_a   4.92629198
_cell_length_b   4.92629087
_cell_length_c   12.52247010
_cell_angle_alpha   78.65605879
_cell_angle_beta   78.65606293
_cell_angle_gamma   59.99999710
_symmetry_Int_Tables_number   1
_chemical_formula_structural   YbDy3Ni13Pt
_chemical_formula_sum   'Yb1 Dy3 Ni13 Pt1'
_cell_volume   256.30649071
_cell_formula_units_Z   1
loop_
 _symmetry_equiv_pos_site_id
 _symmetry_equiv_pos_as_xyz
  1  'x, y, z'
loop_
 _atom_site_type_symbol
 _atom_site_label
 _atom_site_symmetry_multiplicity
 _atom_site_fract_x
 _atom_site_fract_y
 _atom_site_fract_z
 _atom_site_occupancy
  Yb  Yb0  1  0.145112  0.145112  0.564666  1
  Dy  Dy1  1  0.949737  0.949737  0.150788  1
  Dy  Dy2  1  0.050988  0.050988  0.847035  1
  Dy  Dy3  1  0.852501  0.852501  0.442494  1
  Ni  Ni4  1  0.720895  0.720895  0.837313  1
  Ni  Ni5  1  0.279382  0.279382  0.161857  1
  Ni  Ni6  1  0.612909  0.612909  0.161273  1
  Ni  Ni7  1  0.387328  0.387328  0.838018  1
  Ni  Ni8  1  0.000114  0.500148  0.999590  1
  Ni  Ni9  1  0.500148  0.000114  0.999590  1
  Ni  Ni10  1  0.500148  0.500148  0.999590  1
  Ni  Ni11  1  0.391166  0.391166  0.322282  1
  Ni  Ni12  1  0.895386  0.391166  0.322282  1
  Ni  Ni13  1  0.391166  0.895386  0.322282  1
  Ni  Ni14  1  0.609218  0.609218  0.676796  1
  Ni  Ni15  1  0.104770  0.609218  0.676796  1
  Ni  Ni16  1  0.609218  0.104770  0.676796  1
  Pt  Pt17  1  0.499817  0.499817  0.500549  1
