# generated using pymatgen
data_Hf8Rh4CO
_symmetry_space_group_name_H-M   'P 1'
_cell_length_a   8.74001968
_cell_length_b   8.74002047
_cell_length_c   8.72308500
_cell_angle_alpha   60.06407390
_cell_angle_beta   60.06407092
_cell_angle_gamma   60.19556606
_symmetry_Int_Tables_number   1
_chemical_formula_structural   Hf8Rh4CO
_chemical_formula_sum   'Hf16 Rh8 C2 O2'
_cell_volume   472.32279148
_cell_formula_units_Z   2
loop_
 _symmetry_equiv_pos_site_id
 _symmetry_equiv_pos_as_xyz
  1  'x, y, z'
loop_
 _atom_site_type_symbol
 _atom_site_label
 _atom_site_symmetry_multiplicity
 _atom_site_fract_x
 _atom_site_fract_y
 _atom_site_fract_z
 _atom_site_occupancy
  Hf  Hf0  1  0.125000  0.625000  0.625000  1
  Hf  Hf1  1  0.625000  0.125000  0.625000  1
  Hf  Hf2  1  0.625000  0.625000  0.125000  1
  Hf  Hf3  1  0.625000  0.625000  0.625000  1
  Hf  Hf4  1  0.816403  0.816403  0.183597  1
  Hf  Hf5  1  0.185677  0.185677  0.814323  1
  Hf  Hf6  1  0.811900  0.184230  0.820288  1
  Hf  Hf7  1  0.184230  0.811900  0.183581  1
  Hf  Hf8  1  0.184230  0.811900  0.820288  1
  Hf  Hf9  1  0.811900  0.184230  0.183581  1
  Hf  Hf10  1  0.433597  0.433597  0.066403  1
  Hf  Hf11  1  0.064323  0.064323  0.435677  1
  Hf  Hf12  1  0.438100  0.065770  0.429712  1
  Hf  Hf13  1  0.065770  0.438100  0.066419  1
  Hf  Hf14  1  0.065770  0.438100  0.429712  1
  Hf  Hf15  1  0.438100  0.065770  0.066419  1
  Rh  Rh16  1  0.772002  0.405926  0.411035  1
  Rh  Rh17  1  0.405926  0.772002  0.411035  1
  Rh  Rh18  1  0.407818  0.407818  0.770387  1
  Rh  Rh19  1  0.407818  0.407818  0.413975  1
  Rh  Rh20  1  0.477998  0.844074  0.838965  1
  Rh  Rh21  1  0.844074  0.477998  0.838965  1
  Rh  Rh22  1  0.842182  0.842182  0.479613  1
  Rh  Rh23  1  0.842182  0.842182  0.836025  1
  C  C24  1  0.625000  0.125000  0.125000  1
  C  C25  1  0.125000  0.625000  0.125000  1
  O  O26  1  0.125000  0.125000  0.625000  1
  O  O27  1  0.125000  0.125000  0.125000  1
