# generated using pymatgen
data_Th5Sn2BiAs
_symmetry_space_group_name_H-M   'P 1'
_cell_length_a   9.57394800
_cell_length_b   9.55530874
_cell_length_c   6.69770800
_cell_angle_alpha   90.00000000
_cell_angle_beta   90.00000000
_cell_angle_gamma   120.06454173
_symmetry_Int_Tables_number   1
_chemical_formula_structural   Th5Sn2BiAs
_chemical_formula_sum   'Th10 Sn4 Bi2 As2'
_cell_volume   530.28557357
_cell_formula_units_Z   2
loop_
 _symmetry_equiv_pos_site_id
 _symmetry_equiv_pos_as_xyz
  1  'x, y, z'
loop_
 _atom_site_type_symbol
 _atom_site_label
 _atom_site_symmetry_multiplicity
 _atom_site_fract_x
 _atom_site_fract_y
 _atom_site_fract_z
 _atom_site_occupancy
  Th  Th0  1  0.003124  0.745125  0.750000  1
  Th  Th1  1  0.257999  0.254875  0.750000  1
  Th  Th2  1  0.334345  0.669373  0.495812  1
  Th  Th3  1  0.664973  0.330627  0.495812  1
  Th  Th4  1  0.743126  0.743091  0.250000  1
  Th  Th5  1  0.739552  0.000000  0.750000  1
  Th  Th6  1  0.000035  0.256909  0.250000  1
  Th  Th7  1  0.258358  0.000000  0.250000  1
  Th  Th8  1  0.334345  0.669373  0.004188  1
  Th  Th9  1  0.664973  0.330627  0.004188  1
  Sn  Sn10  1  0.390834  0.000000  0.750000  1
  Sn  Sn11  1  0.609995  0.000000  0.250000  1
  Sn  Sn12  1  0.389675  0.389225  0.250000  1
  Sn  Sn13  1  0.000450  0.610775  0.250000  1
  Bi  Bi14  1  0.609243  0.608818  0.750000  1
  Bi  Bi15  1  0.000425  0.391182  0.750000  1
  As  As16  1  0.999273  0.000000  0.999477  1
  As  As17  1  0.999273  0.000000  0.500523  1
