# generated using pymatgen
data_Dy8Ta3Nb9Si16
_symmetry_space_group_name_H-M   'P 1'
_cell_length_a   7.05723555
_cell_length_b   7.05723604
_cell_length_c   13.05411147
_cell_angle_alpha   90.01308044
_cell_angle_beta   89.98691833
_cell_angle_gamma   89.96313372
_symmetry_Int_Tables_number   1
_chemical_formula_structural   Dy8Ta3Nb9Si16
_chemical_formula_sum   'Dy8 Ta3 Nb9 Si16'
_cell_volume   650.15433281
_cell_formula_units_Z   1
loop_
 _symmetry_equiv_pos_site_id
 _symmetry_equiv_pos_as_xyz
  1  'x, y, z'
loop_
 _atom_site_type_symbol
 _atom_site_label
 _atom_site_symmetry_multiplicity
 _atom_site_fract_x
 _atom_site_fract_y
 _atom_site_fract_z
 _atom_site_occupancy
  Dy  Dy0  1  0.996552  0.657591  0.032691  1
  Dy  Dy1  1  0.003016  0.342493  0.532510  1
  Dy  Dy2  1  0.657591  0.996552  0.967309  1
  Dy  Dy3  1  0.157998  0.503249  0.782984  1
  Dy  Dy4  1  0.842067  0.497116  0.282683  1
  Dy  Dy5  1  0.503249  0.157998  0.217016  1
  Dy  Dy6  1  0.497116  0.842067  0.717317  1
  Dy  Dy7  1  0.342493  0.003016  0.467490  1
  Ta  Ta8  1  0.827859  0.172169  0.750240  1
  Ta  Ta9  1  0.172169  0.827859  0.249760  1
  Ta  Ta10  1  0.327482  0.327482  0.000000  1
  Nb  Nb11  1  0.346940  0.507235  0.375702  1
  Nb  Nb12  1  0.846868  0.993005  0.373919  1
  Nb  Nb13  1  0.007071  0.153357  0.125946  1
  Nb  Nb14  1  0.993005  0.846868  0.626081  1
  Nb  Nb15  1  0.507235  0.346940  0.624298  1
  Nb  Nb16  1  0.153357  0.007071  0.874054  1
  Nb  Nb17  1  0.672394  0.672394  0.500000  1
  Nb  Nb18  1  0.492594  0.653311  0.124011  1
  Nb  Nb19  1  0.653311  0.492594  0.875989  1
  Si  Si20  1  0.046907  0.707097  0.435999  1
  Si  Si21  1  0.953985  0.293054  0.936470  1
  Si  Si22  1  0.707097  0.046907  0.564001  1
  Si  Si23  1  0.206595  0.454017  0.186278  1
  Si  Si24  1  0.793885  0.545453  0.686867  1
  Si  Si25  1  0.454017  0.206595  0.813722  1
  Si  Si26  1  0.545453  0.793885  0.313133  1
  Si  Si27  1  0.293054  0.953985  0.063530  1
  Si  Si28  1  0.797430  0.865627  0.183111  1
  Si  Si29  1  0.296599  0.634134  0.566935  1
  Si  Si30  1  0.702216  0.365491  0.066576  1
  Si  Si31  1  0.634134  0.296599  0.433065  1
  Si  Si32  1  0.365491  0.702216  0.933424  1
  Si  Si33  1  0.134579  0.202564  0.316704  1
  Si  Si34  1  0.202564  0.134579  0.683296  1
  Si  Si35  1  0.865627  0.797430  0.816889  1
