# generated using pymatgen
data_TbHf7Ti9Si16Mo3
_symmetry_space_group_name_H-M   'P 1'
_cell_length_a   6.80202313
_cell_length_b   6.80260143
_cell_length_c   12.50641039
_cell_angle_alpha   89.93656165
_cell_angle_beta   90.00270583
_cell_angle_gamma   89.92153030
_symmetry_Int_Tables_number   1
_chemical_formula_structural   TbHf7Ti9Si16Mo3
_chemical_formula_sum   'Tb1 Hf7 Ti9 Si16 Mo3'
_cell_volume   578.68887323
_cell_formula_units_Z   1
loop_
 _symmetry_equiv_pos_site_id
 _symmetry_equiv_pos_as_xyz
  1  'x, y, z'
loop_
 _atom_site_type_symbol
 _atom_site_label
 _atom_site_symmetry_multiplicity
 _atom_site_fract_x
 _atom_site_fract_y
 _atom_site_fract_z
 _atom_site_occupancy
  Tb  Tb0  1  0.998238  0.660381  0.030753  1
  Hf  Hf1  1  0.341155  0.999059  0.469860  1
  Hf  Hf2  1  0.500301  0.842083  0.718540  1
  Hf  Hf3  1  0.497763  0.158367  0.222151  1
  Hf  Hf4  1  0.841441  0.500417  0.281547  1
  Hf  Hf5  1  0.158549  0.497765  0.779217  1
  Hf  Hf6  1  0.655869  0.003474  0.968967  1
  Hf  Hf7  1  0.999237  0.341944  0.530141  1
  Ti  Ti8  1  0.670777  0.670620  0.499937  1
  Ti  Ti9  1  0.154485  0.003348  0.870281  1
  Ti  Ti10  1  0.496606  0.651920  0.123252  1
  Ti  Ti11  1  0.503413  0.347968  0.622858  1
  Ti  Ti12  1  0.652124  0.492495  0.875697  1
  Ti  Ti13  1  0.347808  0.503399  0.378094  1
  Ti  Ti14  1  0.848341  0.996946  0.374189  1
  Ti  Ti15  1  0.005273  0.152094  0.128863  1
  Ti  Ti16  1  0.995704  0.849025  0.626028  1
  Si  Si17  1  0.206204  0.135002  0.675593  1
  Si  Si18  1  0.369896  0.706585  0.924875  1
  Si  Si19  1  0.635198  0.294398  0.427745  1
  Si  Si20  1  0.702342  0.360566  0.073426  1
  Si  Si21  1  0.293923  0.635470  0.572604  1
  Si  Si22  1  0.789216  0.869735  0.180941  1
  Si  Si23  1  0.134750  0.206632  0.324780  1
  Si  Si24  1  0.862898  0.796246  0.819114  1
  Si  Si25  1  0.298274  0.958126  0.064682  1
  Si  Si26  1  0.543674  0.794721  0.316305  1
  Si  Si27  1  0.454448  0.205262  0.812976  1
  Si  Si28  1  0.795061  0.544727  0.683994  1
  Si  Si29  1  0.208124  0.452869  0.188021  1
  Si  Si30  1  0.704054  0.045537  0.564027  1
  Si  Si31  1  0.955273  0.288746  0.934618  1
  Si  Si32  1  0.045387  0.704728  0.435862  1
  Mo  Mo33  1  0.332203  0.326621  0.999671  1
  Mo  Mo34  1  0.172874  0.831503  0.251412  1
  Mo  Mo35  1  0.829118  0.171224  0.748983  1
