# generated using pymatgen
data_Li2Cr(NiAs)3
_symmetry_space_group_name_H-M   'P 1'
_cell_length_a   6.08448907
_cell_length_b   6.24182970
_cell_length_c   3.73326800
_cell_angle_alpha   90.00000000
_cell_angle_beta   90.00000000
_cell_angle_gamma   120.85917540
_symmetry_Int_Tables_number   1
_chemical_formula_structural   Li2Cr(NiAs)3
_chemical_formula_sum   'Li2 Cr1 Ni3 As3'
_cell_volume   121.71115619
_cell_formula_units_Z   1
loop_
 _symmetry_equiv_pos_site_id
 _symmetry_equiv_pos_as_xyz
  1  'x, y, z'
loop_
 _atom_site_type_symbol
 _atom_site_label
 _atom_site_symmetry_multiplicity
 _atom_site_fract_x
 _atom_site_fract_y
 _atom_site_fract_z
 _atom_site_occupancy
  Li  Li0  1  0.417467  0.422502  0.500000  1
  Li  Li1  1  0.582533  0.005034  0.500000  1
  Cr  Cr2  1  0.000000  0.587372  0.500000  1
  Ni  Ni3  1  0.749805  0.750381  0.000000  1
  Ni  Ni4  1  0.000000  0.237990  0.000000  1
  Ni  Ni5  1  0.250195  0.000575  0.000000  1
  As  As6  1  0.678987  0.342969  0.000000  1
  As  As7  1  0.321013  0.663983  0.000000  1
  As  As8  1  0.000000  0.989194  0.500000  1
