# generated using pymatgen
data_Ac3Mg2ZnGe2Au
_symmetry_space_group_name_H-M   'P 1'
_cell_length_a   7.79821200
_cell_length_b   7.78444219
_cell_length_c   4.59064300
_cell_angle_alpha   90.00000000
_cell_angle_beta   90.00000000
_cell_angle_gamma   120.05853163
_symmetry_Int_Tables_number   1
_chemical_formula_structural   Ac3Mg2ZnGe2Au
_chemical_formula_sum   'Ac3 Mg2 Zn1 Ge2 Au1'
_cell_volume   241.19607533
_cell_formula_units_Z   1
loop_
 _symmetry_equiv_pos_site_id
 _symmetry_equiv_pos_as_xyz
  1  'x, y, z'
loop_
 _atom_site_type_symbol
 _atom_site_label
 _atom_site_symmetry_multiplicity
 _atom_site_fract_x
 _atom_site_fract_y
 _atom_site_fract_z
 _atom_site_occupancy
  Ac  Ac0  1  0.576343  0.000000  0.000000  1
  Ac  Ac1  1  0.006443  0.590742  0.000000  1
  Ac  Ac2  1  0.415702  0.409258  0.000000  1
  Mg  Mg3  1  0.001618  0.230725  0.500000  1
  Mg  Mg4  1  0.770892  0.769275  0.500000  1
  Zn  Zn5  1  0.231463  0.000000  0.500000  1
  Ge  Ge6  1  0.333717  0.662552  0.500000  1
  Ge  Ge7  1  0.671166  0.337448  0.500000  1
  Au  Au8  1  0.992657  0.000000  0.000000  1
