# generated using pymatgen
data_Zr10Sn3Ge2BiSb2
_symmetry_space_group_name_H-M   'P 1'
_cell_length_a   8.74313918
_cell_length_b   8.74313921
_cell_length_c   5.91597400
_cell_angle_alpha   90.00000000
_cell_angle_beta   90.00000000
_cell_angle_gamma   119.97687380
_symmetry_Int_Tables_number   1
_chemical_formula_structural   Zr10Sn3Ge2BiSb2
_chemical_formula_sum   'Zr10 Sn3 Ge2 Bi1 Sb2'
_cell_volume   391.73541161
_cell_formula_units_Z   1
loop_
 _symmetry_equiv_pos_site_id
 _symmetry_equiv_pos_as_xyz
  1  'x, y, z'
loop_
 _atom_site_type_symbol
 _atom_site_label
 _atom_site_symmetry_multiplicity
 _atom_site_fract_x
 _atom_site_fract_y
 _atom_site_fract_z
 _atom_site_occupancy
  Zr  Zr0  1  0.667231  0.330809  0.996791  1
  Zr  Zr1  1  0.330809  0.667231  0.996791  1
  Zr  Zr2  1  0.330809  0.667231  0.503209  1
  Zr  Zr3  1  0.667231  0.330809  0.503209  1
  Zr  Zr4  1  0.735060  0.735060  0.750000  1
  Zr  Zr5  1  0.266828  0.999824  0.750000  1
  Zr  Zr6  1  0.999824  0.266828  0.750000  1
  Zr  Zr7  1  0.257278  0.257278  0.250000  1
  Zr  Zr8  1  0.740931  0.004662  0.250000  1
  Zr  Zr9  1  0.004662  0.740931  0.250000  1
  Sn  Sn10  1  0.389931  0.389931  0.750000  1
  Sn  Sn11  1  0.609738  0.999074  0.750000  1
  Sn  Sn12  1  0.999074  0.609738  0.750000  1
  Ge  Ge13  1  0.999414  0.999414  0.995522  1
  Ge  Ge14  1  0.999414  0.999414  0.504478  1
  Bi  Bi15  1  0.604670  0.604670  0.250000  1
  Sb  Sb16  1  0.396948  0.000147  0.250000  1
  Sb  Sb17  1  0.000147  0.396948  0.250000  1
