# generated using pymatgen
data_Nd3(EuIr)2
_symmetry_space_group_name_H-M   'P 1'
_cell_length_a   9.01339185
_cell_length_b   9.01339209
_cell_length_c   7.36369000
_cell_angle_alpha   83.63060166
_cell_angle_beta   83.63060149
_cell_angle_gamma   43.89539535
_symmetry_Int_Tables_number   1
_chemical_formula_structural   Nd3(EuIr)2
_chemical_formula_sum   'Nd6 Eu4 Ir4'
_cell_volume   411.80521123
_cell_formula_units_Z   2
loop_
 _symmetry_equiv_pos_site_id
 _symmetry_equiv_pos_as_xyz
  1  'x, y, z'
loop_
 _atom_site_type_symbol
 _atom_site_label
 _atom_site_symmetry_multiplicity
 _atom_site_fract_x
 _atom_site_fract_y
 _atom_site_fract_z
 _atom_site_occupancy
  Nd  Nd0  1  0.351417  0.213807  0.816219  1
  Nd  Nd1  1  0.786193  0.648583  0.683781  1
  Nd  Nd2  1  0.648583  0.786193  0.183781  1
  Nd  Nd3  1  0.213807  0.351417  0.316219  1
  Nd  Nd4  1  0.566092  0.433908  0.750000  1
  Nd  Nd5  1  0.433908  0.566092  0.250000  1
  Eu  Eu6  1  0.016071  0.798595  0.919575  1
  Eu  Eu7  1  0.201405  0.983929  0.580425  1
  Eu  Eu8  1  0.983929  0.201405  0.080425  1
  Eu  Eu9  1  0.798595  0.016071  0.419575  1
  Ir  Ir10  1  0.185814  0.587763  0.572359  1
  Ir  Ir11  1  0.412237  0.814186  0.927641  1
  Ir  Ir12  1  0.814186  0.412237  0.427641  1
  Ir  Ir13  1  0.587763  0.185814  0.072359  1
