# generated using pymatgen
data_Pa6CoGe2
_symmetry_space_group_name_H-M   'P 1'
_cell_length_a   8.04339300
_cell_length_b   8.04339354
_cell_length_c   3.53318000
_cell_angle_alpha   90.00000000
_cell_angle_beta   90.00000000
_cell_angle_gamma   120.00000191
_symmetry_Int_Tables_number   1
_chemical_formula_structural   Pa6CoGe2
_chemical_formula_sum   'Pa6 Co1 Ge2'
_cell_volume   197.95888241
_cell_formula_units_Z   1
loop_
 _symmetry_equiv_pos_site_id
 _symmetry_equiv_pos_as_xyz
  1  'x, y, z'
loop_
 _atom_site_type_symbol
 _atom_site_label
 _atom_site_symmetry_multiplicity
 _atom_site_fract_x
 _atom_site_fract_y
 _atom_site_fract_z
 _atom_site_occupancy
  Pa  Pa0  1  0.422544  0.000000  0.000000  1
  Pa  Pa1  1  0.000000  0.422545  0.000000  1
  Pa  Pa2  1  0.577456  0.577455  0.000000  1
  Pa  Pa3  1  0.745737  0.000000  0.499999  1
  Pa  Pa4  1  0.254264  0.254264  0.499999  1
  Pa  Pa5  1  0.000000  0.745737  0.499999  1
  Co  Co6  1  0.000000  0.000000  0.000000  1
  Ge  Ge7  1  0.666667  0.333334  0.499999  1
  Ge  Ge8  1  0.333333  0.666666  0.499999  1
