# generated using pymatgen
data_Pr4Nd(In2Ir)2
_symmetry_space_group_name_H-M   'P 1'
_cell_length_a   3.84165600
_cell_length_b   8.30434964
_cell_length_c   18.66685897
_cell_angle_alpha   90.17520958
_cell_angle_beta   90.00000000
_cell_angle_gamma   90.00000000
_symmetry_Int_Tables_number   1
_chemical_formula_structural   Pr4Nd(In2Ir)2
_chemical_formula_sum   'Pr8 Nd2 In8 Ir4'
_cell_volume   595.51583681
_cell_formula_units_Z   2
loop_
 _symmetry_equiv_pos_site_id
 _symmetry_equiv_pos_as_xyz
  1  'x, y, z'
loop_
 _atom_site_type_symbol
 _atom_site_label
 _atom_site_symmetry_multiplicity
 _atom_site_fract_x
 _atom_site_fract_y
 _atom_site_fract_z
 _atom_site_occupancy
  Pr  Pr0  1  0.000000  0.113756  0.410848  1
  Pr  Pr1  1  0.000000  0.886244  0.589152  1
  Pr  Pr2  1  0.000000  0.386019  0.910814  1
  Pr  Pr3  1  0.000000  0.613981  0.089186  1
  Pr  Pr4  1  0.000000  0.242029  0.222228  1
  Pr  Pr5  1  0.000000  0.757971  0.777772  1
  Pr  Pr6  1  0.000000  0.000000  0.000000  1
  Pr  Pr7  1  0.000000  0.500000  0.500000  1
  Nd  Nd8  1  0.000000  0.257486  0.722180  1
  Nd  Nd9  1  0.000000  0.742514  0.277820  1
  In  In10  1  0.500000  0.435714  0.350298  1
  In  In11  1  0.500000  0.564286  0.649702  1
  In  In12  1  0.500000  0.065940  0.850174  1
  In  In13  1  0.500000  0.934060  0.149826  1
  In  In14  1  0.500000  0.289820  0.070316  1
  In  In15  1  0.500000  0.710180  0.929684  1
  In  In16  1  0.500000  0.210460  0.570778  1
  In  In17  1  0.500000  0.789540  0.429222  1
  Ir  Ir18  1  0.500000  0.006081  0.304150  1
  Ir  Ir19  1  0.500000  0.993919  0.695850  1
  Ir  Ir20  1  0.500000  0.490764  0.804014  1
  Ir  Ir21  1  0.500000  0.509236  0.195986  1
