# generated using pymatgen
data_Zr2Ni3BIr2Rh
_symmetry_space_group_name_H-M   'P 1'
_cell_length_a   5.65909886
_cell_length_b   5.65909838
_cell_length_c   5.53044451
_cell_angle_alpha   59.49010858
_cell_angle_beta   59.49010806
_cell_angle_gamma   59.94510141
_symmetry_Int_Tables_number   1
_chemical_formula_structural   Zr2Ni3BIr2Rh
_chemical_formula_sum   'Zr2 Ni3 B1 Ir2 Rh1'
_cell_volume   124.21425062
_cell_formula_units_Z   1
loop_
 _symmetry_equiv_pos_site_id
 _symmetry_equiv_pos_as_xyz
  1  'x, y, z'
loop_
 _atom_site_type_symbol
 _atom_site_label
 _atom_site_symmetry_multiplicity
 _atom_site_fract_x
 _atom_site_fract_y
 _atom_site_fract_z
 _atom_site_occupancy
  Zr  Zr0  1  0.756625  0.756625  0.732146  1
  Zr  Zr1  1  0.248390  0.248390  0.253679  1
  Ni  Ni2  1  0.737616  0.737616  0.248954  1
  Ni  Ni3  1  0.274314  0.738377  0.248595  1
  Ni  Ni4  1  0.738377  0.274314  0.248595  1
  B  B5  1  0.987360  0.987360  0.037596  1
  Ir  Ir6  1  0.744049  0.257169  0.743731  1
  Ir  Ir7  1  0.257169  0.744049  0.743731  1
  Rh  Rh8  1  0.256099  0.256099  0.742973  1
