# generated using pymatgen
data_Ho8Sc12Ga7Si9
_symmetry_space_group_name_H-M   'P 1'
_cell_length_a   7.15834401
_cell_length_b   7.40908458
_cell_length_c   14.24504903
_cell_angle_alpha   89.99614489
_cell_angle_beta   89.93663427
_cell_angle_gamma   90.02312926
_symmetry_Int_Tables_number   1
_chemical_formula_structural   Ho8Sc12Ga7Si9
_chemical_formula_sum   'Ho8 Sc12 Ga7 Si9'
_cell_volume   755.51095286
_cell_formula_units_Z   1
loop_
 _symmetry_equiv_pos_site_id
 _symmetry_equiv_pos_as_xyz
  1  'x, y, z'
loop_
 _atom_site_type_symbol
 _atom_site_label
 _atom_site_symmetry_multiplicity
 _atom_site_fract_x
 _atom_site_fract_y
 _atom_site_fract_z
 _atom_site_occupancy
  Ho  Ho0  1  0.012454  0.174036  0.098684  1
  Ho  Ho1  1  0.989731  0.823526  0.901488  1
  Ho  Ho2  1  0.488350  0.676531  0.901583  1
  Ho  Ho3  1  0.989441  0.823830  0.599543  1
  Ho  Ho4  1  0.510416  0.322776  0.098826  1
  Ho  Ho5  1  0.010312  0.175773  0.400457  1
  Ho  Ho6  1  0.510715  0.323641  0.400402  1
  Ho  Ho7  1  0.489436  0.676165  0.599440  1
  Sc  Sc8  1  0.163754  0.502995  0.749958  1
  Sc  Sc9  1  0.836965  0.497847  0.249854  1
  Sc  Sc10  1  0.336117  0.002857  0.248956  1
  Sc  Sc11  1  0.663344  0.997431  0.749730  1
  Sc  Sc12  1  0.330200  0.173778  0.625823  1
  Sc  Sc13  1  0.669475  0.826499  0.374015  1
  Sc  Sc14  1  0.169702  0.674057  0.373850  1
  Sc  Sc15  1  0.668204  0.825074  0.126110  1
  Sc  Sc16  1  0.829860  0.326226  0.626076  1
  Sc  Sc17  1  0.329622  0.174309  0.874946  1
  Sc  Sc18  1  0.829116  0.326199  0.874365  1
  Sc  Sc19  1  0.171994  0.675932  0.125056  1
  Ga  Ga20  1  0.160908  0.463789  0.539686  1
  Ga  Ga21  1  0.839128  0.536180  0.460226  1
  Ga  Ga22  1  0.338731  0.963476  0.460358  1
  Ga  Ga23  1  0.839056  0.537483  0.040164  1
  Ga  Ga24  1  0.661210  0.036385  0.539517  1
  Ga  Ga25  1  0.160435  0.463014  0.960570  1
  Ga  Ga26  1  0.659627  0.037016  0.960921  1
  Si  Si27  1  0.032052  0.113329  0.750744  1
  Si  Si28  1  0.967587  0.885877  0.249584  1
  Si  Si29  1  0.467303  0.613234  0.249518  1
  Si  Si30  1  0.532247  0.386245  0.750214  1
  Si  Si31  1  0.284316  0.874035  0.750543  1
  Si  Si32  1  0.716007  0.126179  0.249265  1
  Si  Si33  1  0.215348  0.373324  0.249586  1
  Si  Si34  1  0.784243  0.626468  0.750422  1
  Si  Si35  1  0.342595  0.964480  0.039514  1
