# generated using pymatgen
data_NaLi4(EuSb2)2
_symmetry_space_group_name_H-M   'P 1'
_cell_length_a   8.94948342
_cell_length_b   8.94948246
_cell_length_c   8.94948172
_cell_angle_alpha   149.26456709
_cell_angle_beta   131.21280866
_cell_angle_gamma   58.77541732
_symmetry_Int_Tables_number   1
_chemical_formula_structural   NaLi4(EuSb2)2
_chemical_formula_sum   'Na1 Li4 Eu2 Sb4'
_cell_volume   273.43289326
_cell_formula_units_Z   1
loop_
 _symmetry_equiv_pos_site_id
 _symmetry_equiv_pos_as_xyz
  1  'x, y, z'
loop_
 _atom_site_type_symbol
 _atom_site_label
 _atom_site_symmetry_multiplicity
 _atom_site_fract_x
 _atom_site_fract_y
 _atom_site_fract_z
 _atom_site_occupancy
  Na  Na0  1  0.368702  0.368702  0.000000  1
  Li  Li1  1  0.988863  0.178308  0.810556  1
  Li  Li2  1  0.367752  0.178308  0.189444  1
  Li  Li3  1  0.623391  0.826093  0.797298  1
  Li  Li4  1  0.028795  0.826093  0.202702  1
  Eu  Eu5  1  0.627790  0.627790  0.000000  1
  Eu  Eu6  1  0.996697  0.496697  0.500000  1
  Sb  Sb7  1  0.782670  0.282670  0.500000  1
  Sb  Sb8  1  0.207424  0.707424  0.500000  1
  Sb  Sb9  1  0.308540  0.003958  0.304582  1
  Sb  Sb10  1  0.699377  0.003958  0.695418  1
