# generated using pymatgen
data_Ti6GeBSe
_symmetry_space_group_name_H-M   'P 1'
_cell_length_a   6.76118200
_cell_length_b   6.76118218
_cell_length_c   3.40563700
_cell_angle_alpha   90.00000000
_cell_angle_beta   90.00000000
_cell_angle_gamma   120.00000891
_symmetry_Int_Tables_number   1
_chemical_formula_structural   Ti6GeBSe
_chemical_formula_sum   'Ti6 Ge1 B1 Se1'
_cell_volume   134.82617469
_cell_formula_units_Z   1
loop_
 _symmetry_equiv_pos_site_id
 _symmetry_equiv_pos_as_xyz
  1  'x, y, z'
loop_
 _atom_site_type_symbol
 _atom_site_label
 _atom_site_symmetry_multiplicity
 _atom_site_fract_x
 _atom_site_fract_y
 _atom_site_fract_z
 _atom_site_occupancy
  Ti  Ti0  1  0.997718  0.764303  0.000000  1
  Ti  Ti1  1  0.235697  0.233415  0.000000  1
  Ti  Ti2  1  0.766585  0.002282  0.000000  1
  Ti  Ti3  1  0.000576  0.393527  0.500000  1
  Ti  Ti4  1  0.606473  0.607050  0.500000  1
  Ti  Ti5  1  0.392950  0.999424  0.500000  1
  Ge  Ge6  1  0.666667  0.333333  0.000000  1
  B  B7  1  0.000000  0.000000  0.500000  1
  Se  Se8  1  0.333333  0.666667  0.000000  1
