# generated using pymatgen
data_Dy8Y2Cd3Tc
_symmetry_space_group_name_H-M   'P 1'
_cell_length_a   9.56931003
_cell_length_b   9.57066250
_cell_length_c   9.96393700
_cell_angle_alpha   90.00000000
_cell_angle_beta   90.00000000
_cell_angle_gamma   120.00467447
_symmetry_Int_Tables_number   1
_chemical_formula_structural   Dy8Y2Cd3Tc
_chemical_formula_sum   'Dy16 Y4 Cd6 Tc2'
_cell_volume   790.24866878
_cell_formula_units_Z   2
loop_
 _symmetry_equiv_pos_site_id
 _symmetry_equiv_pos_as_xyz
  1  'x, y, z'
loop_
 _atom_site_type_symbol
 _atom_site_label
 _atom_site_symmetry_multiplicity
 _atom_site_fract_x
 _atom_site_fract_y
 _atom_site_fract_z
 _atom_site_occupancy
  Dy  Dy0  1  0.000023  0.000011  0.500034  1
  Dy  Dy1  1  0.000023  0.000011  0.999966  1
  Dy  Dy2  1  0.210090  0.789981  0.440765  1
  Dy  Dy3  1  0.210090  0.420109  0.440765  1
  Dy  Dy4  1  0.579861  0.789930  0.440757  1
  Dy  Dy5  1  0.789937  0.210020  0.559211  1
  Dy  Dy6  1  0.789937  0.579918  0.559211  1
  Dy  Dy7  1  0.420138  0.210069  0.559177  1
  Dy  Dy8  1  0.789937  0.210020  0.940789  1
  Dy  Dy9  1  0.789937  0.579918  0.940789  1
  Dy  Dy10  1  0.420138  0.210069  0.940823  1
  Dy  Dy11  1  0.210090  0.789981  0.059235  1
  Dy  Dy12  1  0.210090  0.420109  0.059235  1
  Dy  Dy13  1  0.579861  0.789930  0.059243  1
  Dy  Dy14  1  0.539637  0.460317  0.250000  1
  Dy  Dy15  1  0.539637  0.079320  0.250000  1
  Y  Y16  1  0.920554  0.460277  0.250000  1
  Y  Y17  1  0.460318  0.539676  0.750000  1
  Y  Y18  1  0.460318  0.920641  0.750000  1
  Y  Y19  1  0.079371  0.539685  0.750000  1
  Cd  Cd20  1  0.885417  0.114556  0.250000  1
  Cd  Cd21  1  0.885417  0.770862  0.250000  1
  Cd  Cd22  1  0.229162  0.114581  0.250000  1
  Cd  Cd23  1  0.114542  0.885414  0.750000  1
  Cd  Cd24  1  0.114542  0.229127  0.750000  1
  Cd  Cd25  1  0.770887  0.885443  0.750000  1
  Tc  Tc26  1  0.333434  0.666718  0.250000  1
  Tc  Tc27  1  0.666612  0.333305  0.750000  1
