# generated using pymatgen
data_Zr4Al3Tc5
_symmetry_space_group_name_H-M   'P 1'
_cell_length_a   5.24479799
_cell_length_b   5.24479724
_cell_length_c   8.69039600
_cell_angle_alpha   90.00000000
_cell_angle_beta   90.00000000
_cell_angle_gamma   120.23458066
_symmetry_Int_Tables_number   1
_chemical_formula_structural   Zr4Al3Tc5
_chemical_formula_sum   'Zr4 Al3 Tc5'
_cell_volume   206.53622036
_cell_formula_units_Z   1
loop_
 _symmetry_equiv_pos_site_id
 _symmetry_equiv_pos_as_xyz
  1  'x, y, z'
loop_
 _atom_site_type_symbol
 _atom_site_label
 _atom_site_symmetry_multiplicity
 _atom_site_fract_x
 _atom_site_fract_y
 _atom_site_fract_z
 _atom_site_occupancy
  Zr  Zr0  1  0.336655  0.663345  0.433132  1
  Zr  Zr1  1  0.667227  0.332773  0.937323  1
  Zr  Zr2  1  0.667227  0.332773  0.562677  1
  Zr  Zr3  1  0.336655  0.663345  0.066868  1
  Al  Al4  1  0.998024  0.001976  0.997451  1
  Al  Al5  1  0.998024  0.001976  0.502549  1
  Al  Al6  1  0.169511  0.830489  0.750000  1
  Tc  Tc7  1  0.174259  0.341585  0.750000  1
  Tc  Tc8  1  0.825828  0.174172  0.250000  1
  Tc  Tc9  1  0.336115  0.167940  0.250000  1
  Tc  Tc10  1  0.658415  0.825741  0.750000  1
  Tc  Tc11  1  0.832060  0.663885  0.250000  1
