# generated using pymatgen
data_EuDyHo4(SbO7)2
_symmetry_space_group_name_H-M   'P 1'
_cell_length_a   6.45560523
_cell_length_b   6.45560628
_cell_length_c   7.51725708
_cell_angle_alpha   90.01351617
_cell_angle_beta   89.98648261
_cell_angle_gamma   109.04801900
_symmetry_Int_Tables_number   1
_chemical_formula_structural   EuDyHo4(SbO7)2
_chemical_formula_sum   'Eu1 Dy1 Ho4 Sb2 O14'
_cell_volume   296.12696252
_cell_formula_units_Z   1
loop_
 _symmetry_equiv_pos_site_id
 _symmetry_equiv_pos_as_xyz
  1  'x, y, z'
loop_
 _atom_site_type_symbol
 _atom_site_label
 _atom_site_symmetry_multiplicity
 _atom_site_fract_x
 _atom_site_fract_y
 _atom_site_fract_z
 _atom_site_occupancy
  Eu  Eu0  1  0.500268  0.500268  0.500000  1
  Dy  Dy1  1  0.487945  0.487945  0.000000  1
  Ho  Ho2  1  0.999054  0.469368  0.749656  1
  Ho  Ho3  1  0.999164  0.532418  0.247707  1
  Ho  Ho4  1  0.532418  0.999164  0.752293  1
  Ho  Ho5  1  0.469368  0.999054  0.250344  1
  Sb  Sb6  1  0.000288  0.000288  0.500000  1
  Sb  Sb7  1  0.000276  0.000276  0.000000  1
  O  O8  1  0.638228  0.360904  0.755192  1
  O  O9  1  0.360904  0.638228  0.244808  1
  O  O10  1  0.929701  0.071573  0.750024  1
  O  O11  1  0.071573  0.929701  0.249976  1
  O  O12  1  0.931791  0.678262  0.529370  1
  O  O13  1  0.075631  0.323825  0.029300  1
  O  O14  1  0.323825  0.075631  0.970700  1
  O  O15  1  0.678262  0.931791  0.470630  1
  O  O16  1  0.366347  0.632653  0.756834  1
  O  O17  1  0.632653  0.366347  0.243166  1
  O  O18  1  0.933803  0.680525  0.968457  1
  O  O19  1  0.066728  0.321247  0.468280  1
  O  O20  1  0.321247  0.066728  0.531720  1
  O  O21  1  0.680525  0.933803  0.031543  1
