# generated using pymatgen
data_K3BaZr6MnI18
_symmetry_space_group_name_H-M   'P 1'
_cell_length_a   11.27149706
_cell_length_b   11.43493640
_cell_length_c   11.52103826
_cell_angle_alpha   118.60139941
_cell_angle_beta   100.07586846
_cell_angle_gamma   103.82483722
_symmetry_Int_Tables_number   1
_chemical_formula_structural   K3BaZr6MnI18
_chemical_formula_sum   'K3 Ba1 Zr6 Mn1 I18'
_cell_volume   1190.82064675
_cell_formula_units_Z   1
loop_
 _symmetry_equiv_pos_site_id
 _symmetry_equiv_pos_as_xyz
  1  'x, y, z'
loop_
 _atom_site_type_symbol
 _atom_site_label
 _atom_site_symmetry_multiplicity
 _atom_site_fract_x
 _atom_site_fract_y
 _atom_site_fract_z
 _atom_site_occupancy
  K  K0  1  0.349186  0.461708  0.769948  1
  K  K1  1  0.681758  0.225631  0.564465  1
  K  K2  1  0.314672  0.776817  0.438444  1
  Ba  Ba3  1  0.644664  0.537002  0.225255  1
  Zr  Zr4  1  0.147174  0.054223  0.224654  1
  Zr  Zr5  1  0.855290  0.945323  0.776761  1
  Zr  Zr6  1  0.867810  0.123852  0.128879  1
  Zr  Zr7  1  0.134825  0.874727  0.869840  1
  Zr  Zr8  1  0.141891  0.230927  0.043170  1
  Zr  Zr9  1  0.859895  0.769039  0.957460  1
  Mn  Mn10  1  0.000594  0.999918  0.000098  1
  I  I11  1  0.009353  0.415693  0.199534  1
  I  I12  1  0.990322  0.584227  0.800206  1
  I  I13  1  0.333026  0.338276  0.315365  1
  I  I14  1  0.667693  0.662688  0.686114  1
  I  I15  1  0.336000  0.530343  0.103740  1
  I  I16  1  0.671920  0.471460  0.907932  1
  I  I17  1  0.003864  0.792660  0.212843  1
  I  I18  1  0.995627  0.206460  0.788189  1
  I  I19  1  0.696861  0.290004  0.293575  1
  I  I20  1  0.299078  0.718670  0.706473  1
  I  I21  1  0.320419  0.127315  0.900550  1
  I  I22  1  0.680420  0.874136  0.099439  1
  I  I23  1  0.014486  0.207283  0.412314  1
  I  I24  1  0.983635  0.791243  0.584368  1
  I  I25  1  0.323770  0.920755  0.110482  1
  I  I26  1  0.676232  0.077391  0.888141  1
  I  I27  1  0.338296  0.122192  0.508073  1
  I  I28  1  0.661241  0.870036  0.483686  1
