# generated using pymatgen
data_Tm12CoTc2Os
_symmetry_space_group_name_H-M   'P 1'
_cell_length_a   7.28015262
_cell_length_b   8.98066400
_cell_length_c   6.21198512
_cell_angle_alpha   90.00000000
_cell_angle_beta   90.14576960
_cell_angle_gamma   90.00000000
_symmetry_Int_Tables_number   1
_chemical_formula_structural   Tm12CoTc2Os
_chemical_formula_sum   'Tm12 Co1 Tc2 Os1'
_cell_volume   406.14202829
_cell_formula_units_Z   1
loop_
 _symmetry_equiv_pos_site_id
 _symmetry_equiv_pos_as_xyz
  1  'x, y, z'
loop_
 _atom_site_type_symbol
 _atom_site_label
 _atom_site_symmetry_multiplicity
 _atom_site_fract_x
 _atom_site_fract_y
 _atom_site_fract_z
 _atom_site_occupancy
  Tm  Tm0  1  0.040468  0.250000  0.628046  1
  Tm  Tm1  1  0.953744  0.750000  0.375877  1
  Tm  Tm2  1  0.460747  0.750000  0.139413  1
  Tm  Tm3  1  0.538458  0.250000  0.873487  1
  Tm  Tm4  1  0.174960  0.061404  0.163392  1
  Tm  Tm5  1  0.822118  0.937914  0.832846  1
  Tm  Tm6  1  0.327615  0.935737  0.663702  1
  Tm  Tm7  1  0.822118  0.562086  0.832846  1
  Tm  Tm8  1  0.677506  0.064152  0.330825  1
  Tm  Tm9  1  0.174960  0.438596  0.163392  1
  Tm  Tm10  1  0.677506  0.435848  0.330825  1
  Tm  Tm11  1  0.327615  0.564263  0.663702  1
  Co  Co12  1  0.618999  0.750000  0.537261  1
  Tc  Tc13  1  0.385887  0.250000  0.461325  1
  Tc  Tc14  1  0.114876  0.750000  0.964943  1
  Os  Os15  1  0.882425  0.250000  0.038115  1
