# generated using pymatgen
data_Y4AlB4Ir9
_symmetry_space_group_name_H-M   'P 1'
_cell_length_a   10.81821954
_cell_length_b   10.81821901
_cell_length_c   10.81822021
_cell_angle_alpha   29.59082889
_cell_angle_beta   29.59083649
_cell_angle_gamma   29.59083627
_symmetry_Int_Tables_number   1
_chemical_formula_structural   Y4AlB4Ir9
_chemical_formula_sum   'Y4 Al1 B4 Ir9'
_cell_volume   273.29991486
_cell_formula_units_Z   1
loop_
 _symmetry_equiv_pos_site_id
 _symmetry_equiv_pos_as_xyz
  1  'x, y, z'
loop_
 _atom_site_type_symbol
 _atom_site_label
 _atom_site_symmetry_multiplicity
 _atom_site_fract_x
 _atom_site_fract_y
 _atom_site_fract_z
 _atom_site_occupancy
  Y  Y0  1  0.150107  0.150107  0.150107  1
  Y  Y1  1  0.950327  0.950327  0.950327  1
  Y  Y2  1  0.849893  0.849893  0.849893  1
  Y  Y3  1  0.049673  0.049673  0.049673  1
  Al  Al4  1  0.500000  0.500000  0.500000  1
  B  B5  1  0.615783  0.615783  0.615783  1
  B  B6  1  0.717646  0.717646  0.717646  1
  B  B7  1  0.384217  0.384217  0.384217  1
  B  B8  1  0.282354  0.282354  0.282354  1
  Ir  Ir9  1  0.401805  0.902045  0.401805  1
  Ir  Ir10  1  0.902045  0.401805  0.401805  1
  Ir  Ir11  1  0.500000  0.500000  0.000000  1
  Ir  Ir12  1  0.500000  0.000000  0.500000  1
  Ir  Ir13  1  0.000000  0.500000  0.500000  1
  Ir  Ir14  1  0.598195  0.097955  0.598195  1
  Ir  Ir15  1  0.598195  0.598195  0.097955  1
  Ir  Ir16  1  0.097955  0.598195  0.598195  1
  Ir  Ir17  1  0.401805  0.401805  0.902045  1
