# generated using pymatgen
data_K4Zr6MnCl18
_symmetry_space_group_name_H-M   'P 1'
_cell_length_a   10.09391357
_cell_length_b   10.16988865
_cell_length_c   10.31533858
_cell_angle_alpha   118.29083026
_cell_angle_beta   99.92699349
_cell_angle_gamma   104.35650748
_symmetry_Int_Tables_number   1
_chemical_formula_structural   K4Zr6MnCl18
_chemical_formula_sum   'K4 Zr6 Mn1 Cl18'
_cell_volume   849.54372028
_cell_formula_units_Z   1
loop_
 _symmetry_equiv_pos_site_id
 _symmetry_equiv_pos_as_xyz
  1  'x, y, z'
loop_
 _atom_site_type_symbol
 _atom_site_label
 _atom_site_symmetry_multiplicity
 _atom_site_fract_x
 _atom_site_fract_y
 _atom_site_fract_z
 _atom_site_occupancy
  K  K0  1  0.650767  0.537097  0.224292  1
  K  K1  1  0.349233  0.462903  0.775708  1
  K  K2  1  0.686685  0.227712  0.566105  1
  K  K3  1  0.313315  0.772288  0.433895  1
  Zr  Zr4  1  0.162118  0.060607  0.248502  1
  Zr  Zr5  1  0.837882  0.939393  0.751498  1
  Zr  Zr6  1  0.850531  0.136392  0.142954  1
  Zr  Zr7  1  0.149469  0.863608  0.857046  1
  Zr  Zr8  1  0.151448  0.249122  0.046127  1
  Zr  Zr9  1  0.848552  0.750878  0.953873  1
  Mn  Mn10  1  0.000000  0.000000  0.000000  1
  Cl  Cl11  1  0.009670  0.412904  0.199063  1
  Cl  Cl12  1  0.990330  0.587096  0.800937  1
  Cl  Cl13  1  0.329948  0.335716  0.312667  1
  Cl  Cl14  1  0.670052  0.664284  0.687333  1
  Cl  Cl15  1  0.329917  0.526050  0.102323  1
  Cl  Cl16  1  0.670083  0.473950  0.897677  1
  Cl  Cl17  1  0.004754  0.794154  0.211243  1
  Cl  Cl18  1  0.995246  0.205846  0.788757  1
  Cl  Cl19  1  0.701298  0.284512  0.296977  1
  Cl  Cl20  1  0.298702  0.715488  0.703023  1
  Cl  Cl21  1  0.317753  0.127465  0.900880  1
  Cl  Cl22  1  0.682247  0.872535  0.099120  1
  Cl  Cl23  1  0.015105  0.205923  0.411507  1
  Cl  Cl24  1  0.984895  0.794077  0.588493  1
  Cl  Cl25  1  0.321777  0.919675  0.110203  1
  Cl  Cl26  1  0.678223  0.080325  0.889797  1
  Cl  Cl27  1  0.342125  0.123176  0.509223  1
  Cl  Cl28  1  0.657875  0.876824  0.490777  1
