# generated using pymatgen
data_Tb3DyAl18(AgRh2)2
_symmetry_space_group_name_H-M   'P 1'
_cell_length_a   7.64271741
_cell_length_b   7.64329495
_cell_length_c   9.46029400
_cell_angle_alpha   90.00000000
_cell_angle_beta   90.00000000
_cell_angle_gamma   119.29601141
_symmetry_Int_Tables_number   1
_chemical_formula_structural   Tb3DyAl18(AgRh2)2
_chemical_formula_sum   'Tb3 Dy1 Al18 Ag2 Rh4'
_cell_volume   481.94891114
_cell_formula_units_Z   1
loop_
 _symmetry_equiv_pos_site_id
 _symmetry_equiv_pos_as_xyz
  1  'x, y, z'
loop_
 _atom_site_type_symbol
 _atom_site_label
 _atom_site_symmetry_multiplicity
 _atom_site_fract_x
 _atom_site_fract_y
 _atom_site_fract_z
 _atom_site_occupancy
  Tb  Tb0  1  0.995856  0.680892  0.750000  1
  Tb  Tb1  1  0.004227  0.319093  0.250000  1
  Tb  Tb2  1  0.680727  0.995730  0.750000  1
  Dy  Dy3  1  0.318972  0.004085  0.250000  1
  Al  Al4  1  0.143833  0.143707  0.750000  1
  Al  Al5  1  0.856433  0.856302  0.250000  1
  Al  Al6  1  0.001057  0.347803  0.579290  1
  Al  Al7  1  0.999258  0.652511  0.420328  1
  Al  Al8  1  0.999258  0.652511  0.079672  1
  Al  Al9  1  0.347690  0.001044  0.920939  1
  Al  Al10  1  0.001057  0.347803  0.920710  1
  Al  Al11  1  0.652025  0.999017  0.079685  1
  Al  Al12  1  0.652025  0.999017  0.420315  1
  Al  Al13  1  0.347690  0.001044  0.579061  1
  Al  Al14  1  0.341162  0.340994  0.053924  1
  Al  Al15  1  0.658814  0.658804  0.946551  1
  Al  Al16  1  0.658814  0.658804  0.553449  1
  Al  Al17  1  0.341162  0.340994  0.446076  1
  Al  Al18  1  0.340895  0.555561  0.750000  1
  Al  Al19  1  0.659037  0.444170  0.250000  1
  Al  Al20  1  0.555577  0.340842  0.750000  1
  Al  Al21  1  0.444324  0.659278  0.250000  1
  Ag  Ag22  1  0.000132  0.000030  0.499856  1
  Ag  Ag23  1  0.000132  0.000030  0.000144  1
  Rh  Rh24  1  0.671812  0.328048  0.499827  1
  Rh  Rh25  1  0.328108  0.671919  0.499920  1
  Rh  Rh26  1  0.328108  0.671919  0.000080  1
  Rh  Rh27  1  0.671812  0.328048  0.000173  1
