# generated using pymatgen
data_Nd6Si(P3Rh5)4
_symmetry_space_group_name_H-M   'P 1'
_cell_length_a   13.49307600
_cell_length_b   13.49307412
_cell_length_c   3.96139000
_cell_angle_alpha   90.00000000
_cell_angle_beta   90.00000000
_cell_angle_gamma   119.99999970
_symmetry_Int_Tables_number   1
_chemical_formula_structural   Nd6Si(P3Rh5)4
_chemical_formula_sum   'Nd6 Si1 P12 Rh20'
_cell_volume   624.59730579
_cell_formula_units_Z   1
loop_
 _symmetry_equiv_pos_site_id
 _symmetry_equiv_pos_as_xyz
  1  'x, y, z'
loop_
 _atom_site_type_symbol
 _atom_site_label
 _atom_site_symmetry_multiplicity
 _atom_site_fract_x
 _atom_site_fract_y
 _atom_site_fract_z
 _atom_site_occupancy
  Nd  Nd0  1  0.530581  0.717598  0.247827  1
  Nd  Nd1  1  0.282402  0.812983  0.247827  1
  Nd  Nd2  1  0.187017  0.469419  0.247827  1
  Nd  Nd3  1  0.469419  0.282402  0.752173  1
  Nd  Nd4  1  0.717598  0.187017  0.752173  1
  Nd  Nd5  1  0.812983  0.530581  0.752173  1
  Si  Si6  1  0.000000  0.000000  0.000000  1
  P  P7  1  0.522796  0.136154  0.250776  1
  P  P8  1  0.863846  0.386643  0.250776  1
  P  P9  1  0.613357  0.477204  0.250776  1
  P  P10  1  0.947949  0.719181  0.253349  1
  P  P11  1  0.280819  0.228766  0.253349  1
  P  P12  1  0.771234  0.052051  0.253349  1
  P  P13  1  0.386643  0.522796  0.749224  1
  P  P14  1  0.477204  0.863846  0.749224  1
  P  P15  1  0.136154  0.613357  0.749224  1
  P  P16  1  0.719181  0.771234  0.746651  1
  P  P17  1  0.228766  0.947949  0.746651  1
  P  P18  1  0.052051  0.280819  0.746651  1
  Rh  Rh19  1  0.333333  0.666667  0.751919  1
  Rh  Rh20  1  0.923074  0.250075  0.255168  1
  Rh  Rh21  1  0.749925  0.673000  0.255168  1
  Rh  Rh22  1  0.327000  0.076926  0.255168  1
  Rh  Rh23  1  0.440434  0.024954  0.751756  1
  Rh  Rh24  1  0.975046  0.415481  0.751756  1
  Rh  Rh25  1  0.584519  0.559566  0.751756  1
  Rh  Rh26  1  0.666667  0.333333  0.248081  1
  Rh  Rh27  1  0.093988  0.189221  0.245236  1
  Rh  Rh28  1  0.810779  0.904768  0.245236  1
  Rh  Rh29  1  0.095232  0.906012  0.245236  1
  Rh  Rh30  1  0.024954  0.584519  0.248244  1
  Rh  Rh31  1  0.415481  0.440434  0.248244  1
  Rh  Rh32  1  0.559566  0.975046  0.248244  1
  Rh  Rh33  1  0.673000  0.923074  0.744832  1
  Rh  Rh34  1  0.076926  0.749925  0.744832  1
  Rh  Rh35  1  0.250075  0.327000  0.744832  1
  Rh  Rh36  1  0.906012  0.810779  0.754764  1
  Rh  Rh37  1  0.189221  0.095232  0.754764  1
  Rh  Rh38  1  0.904768  0.093988  0.754764  1
