# generated using pymatgen
data_UTa5(ZnRu2)6
_symmetry_space_group_name_H-M   'P 1'
_cell_length_a   4.39214600
_cell_length_b   6.26638200
_cell_length_c   13.16677200
_cell_angle_alpha   90.00000000
_cell_angle_beta   89.99916916
_cell_angle_gamma   90.00000000
_symmetry_Int_Tables_number   1
_chemical_formula_structural   UTa5(ZnRu2)6
_chemical_formula_sum   'U1 Ta5 Zn6 Ru12'
_cell_volume   362.38728343
_cell_formula_units_Z   1
loop_
 _symmetry_equiv_pos_site_id
 _symmetry_equiv_pos_as_xyz
  1  'x, y, z'
loop_
 _atom_site_type_symbol
 _atom_site_label
 _atom_site_symmetry_multiplicity
 _atom_site_fract_x
 _atom_site_fract_y
 _atom_site_fract_z
 _atom_site_occupancy
  U  U0  1  0.000000  0.500000  0.000000  1
  Ta  Ta1  1  0.499827  0.000000  0.172625  1
  Ta  Ta2  1  0.999873  0.500000  0.337336  1
  Ta  Ta3  1  0.499999  0.000000  0.500000  1
  Ta  Ta4  1  0.000128  0.500000  0.662665  1
  Ta  Ta5  1  0.500171  0.000000  0.827375  1
  Zn  Zn6  1  0.000000  0.000000  0.000000  1
  Zn  Zn7  1  0.499827  0.500000  0.172185  1
  Zn  Zn8  1  0.999839  0.000000  0.333902  1
  Zn  Zn9  1  0.499999  0.500000  0.500000  1
  Zn  Zn10  1  0.000161  0.000000  0.666097  1
  Zn  Zn11  1  0.500173  0.500000  0.827815  1
  Ru  Ru12  1  0.499999  0.247543  0.000000  1
  Ru  Ru13  1  0.499999  0.752456  0.000000  1
  Ru  Ru14  1  0.999842  0.251608  0.164349  1
  Ru  Ru15  1  0.999842  0.748391  0.164349  1
  Ru  Ru16  1  0.499842  0.249730  0.332993  1
  Ru  Ru17  1  0.499842  0.750271  0.332993  1
  Ru  Ru18  1  0.000000  0.251023  0.500000  1
  Ru  Ru19  1  0.000000  0.748978  0.500000  1
  Ru  Ru20  1  0.500156  0.249730  0.667008  1
  Ru  Ru21  1  0.500156  0.750271  0.667008  1
  Ru  Ru22  1  0.000159  0.251608  0.835651  1
  Ru  Ru23  1  0.000159  0.748391  0.835651  1
