# generated using pymatgen
data_Yb5PrDy2(Cu2Sn5)2
_symmetry_space_group_name_H-M   'P 1'
_cell_length_a   4.45765700
_cell_length_b   8.83461200
_cell_length_c   14.11260300
_cell_angle_alpha   90.00000000
_cell_angle_beta   90.00000000
_cell_angle_gamma   90.00000000
_symmetry_Int_Tables_number   1
_chemical_formula_structural   Yb5PrDy2(Cu2Sn5)2
_chemical_formula_sum   'Yb5 Pr1 Dy2 Cu4 Sn10'
_cell_volume   555.77787453
_cell_formula_units_Z   1
loop_
 _symmetry_equiv_pos_site_id
 _symmetry_equiv_pos_as_xyz
  1  'x, y, z'
loop_
 _atom_site_type_symbol
 _atom_site_label
 _atom_site_symmetry_multiplicity
 _atom_site_fract_x
 _atom_site_fract_y
 _atom_site_fract_z
 _atom_site_occupancy
  Yb  Yb0  1  0.500000  0.791664  0.741639  1
  Yb  Yb1  1  0.000000  0.205799  0.754405  1
  Yb  Yb2  1  0.000000  0.205799  0.245595  1
  Yb  Yb3  1  0.000000  0.865871  0.500000  1
  Yb  Yb4  1  0.500000  0.791664  0.258361  1
  Pr  Pr5  1  0.500000  0.138936  0.000000  1
  Dy  Dy6  1  0.500000  0.694980  0.000000  1
  Dy  Dy7  1  0.000000  0.297969  0.500000  1
  Cu  Cu8  1  0.500000  0.378472  0.643676  1
  Cu  Cu9  1  0.000000  0.623425  0.853807  1
  Cu  Cu10  1  0.000000  0.623425  0.146193  1
  Cu  Cu11  1  0.500000  0.378472  0.356324  1
  Sn  Sn12  1  0.500000  0.084722  0.395859  1
  Sn  Sn13  1  0.000000  0.553052  0.662847  1
  Sn  Sn14  1  0.000000  0.414361  0.000000  1
  Sn  Sn15  1  0.500000  0.445307  0.164564  1
  Sn  Sn16  1  0.500000  0.593974  0.500000  1
  Sn  Sn17  1  0.500000  0.445307  0.835436  1
  Sn  Sn18  1  0.000000  0.914513  0.895977  1
  Sn  Sn19  1  0.000000  0.553052  0.337153  1
  Sn  Sn20  1  0.500000  0.084722  0.604141  1
  Sn  Sn21  1  0.000000  0.914513  0.104023  1
