# generated using pymatgen
data_TmPa5(Al3Fe)8
_symmetry_space_group_name_H-M   'P 1'
_cell_length_a   8.65888413
_cell_length_b   8.65888403
_cell_length_c   9.12773000
_cell_angle_alpha   90.00013329
_cell_angle_beta   89.99986479
_cell_angle_gamma   119.96253006
_symmetry_Int_Tables_number   1
_chemical_formula_structural   TmPa5(Al3Fe)8
_chemical_formula_sum   'Tm1 Pa5 Al24 Fe8'
_cell_volume   592.89955070
_cell_formula_units_Z   1
loop_
 _symmetry_equiv_pos_site_id
 _symmetry_equiv_pos_as_xyz
  1  'x, y, z'
loop_
 _atom_site_type_symbol
 _atom_site_label
 _atom_site_symmetry_multiplicity
 _atom_site_fract_x
 _atom_site_fract_y
 _atom_site_fract_z
 _atom_site_occupancy
  Tm  Tm0  1  0.802688  0.197312  0.749997  1
  Pa  Pa1  1  0.196145  0.396217  0.250014  1
  Pa  Pa2  1  0.798187  0.605559  0.749993  1
  Pa  Pa3  1  0.603783  0.803855  0.250014  1
  Pa  Pa4  1  0.394441  0.201813  0.749993  1
  Pa  Pa5  1  0.199802  0.800198  0.250019  1
  Al  Al6  1  0.334482  0.665518  0.007210  1
  Al  Al7  1  0.669808  0.330192  0.987090  1
  Al  Al8  1  0.669822  0.330178  0.512905  1
  Al  Al9  1  0.334475  0.665525  0.492800  1
  Al  Al10  1  0.157912  0.320031  0.578013  1
  Al  Al11  1  0.840059  0.679303  0.421443  1
  Al  Al12  1  0.679969  0.842088  0.578013  1
  Al  Al13  1  0.840044  0.679293  0.078540  1
  Al  Al14  1  0.320697  0.159941  0.421443  1
  Al  Al15  1  0.157937  0.320041  0.922013  1
  Al  Al16  1  0.160061  0.839939  0.579155  1
  Al  Al17  1  0.320707  0.159956  0.078540  1
  Al  Al18  1  0.840023  0.159977  0.423041  1
  Al  Al19  1  0.679959  0.842063  0.922013  1
  Al  Al20  1  0.840023  0.159977  0.076954  1
  Al  Al21  1  0.160067  0.839933  0.920856  1
  Al  Al22  1  0.562282  0.124166  0.249989  1
  Al  Al23  1  0.442980  0.884818  0.750002  1
  Al  Al24  1  0.875834  0.437718  0.249989  1
  Al  Al25  1  0.115182  0.557020  0.750002  1
  Al  Al26  1  0.560265  0.439735  0.249972  1
  Al  Al27  1  0.436585  0.563415  0.750022  1
  Al  Al28  1  0.000399  0.999601  0.250036  1
  Al  Al29  1  0.999275  0.000725  0.749972  1
  Fe  Fe30  1  0.495863  0.994367  0.006319  1
  Fe  Fe31  1  0.005633  0.504137  0.006319  1
  Fe  Fe32  1  0.495857  0.994358  0.493662  1
  Fe  Fe33  1  0.501782  0.498218  0.997015  1
  Fe  Fe34  1  0.005642  0.504143  0.493662  1
  Fe  Fe35  1  0.501783  0.498217  0.502982  1
  Fe  Fe36  1  0.999775  0.000225  0.999972  1
  Fe  Fe37  1  0.999772  0.000228  0.500028  1
