# generated using pymatgen
data_Ca2Sn4IrRu
_symmetry_space_group_name_H-M   'P 1'
_cell_length_a   5.87809803
_cell_length_b   5.87809775
_cell_length_c   7.64846000
_cell_angle_alpha   90.00000000
_cell_angle_beta   90.00000000
_cell_angle_gamma   136.45756721
_symmetry_Int_Tables_number   1
_chemical_formula_structural   Ca2Sn4IrRu
_chemical_formula_sum   'Ca2 Sn4 Ir1 Ru1'
_cell_volume   182.05328229
_cell_formula_units_Z   1
loop_
 _symmetry_equiv_pos_site_id
 _symmetry_equiv_pos_as_xyz
  1  'x, y, z'
loop_
 _atom_site_type_symbol
 _atom_site_label
 _atom_site_symmetry_multiplicity
 _atom_site_fract_x
 _atom_site_fract_y
 _atom_site_fract_z
 _atom_site_occupancy
  Ca  Ca0  1  0.932910  0.067090  0.750000  1
  Ca  Ca1  1  0.068252  0.931748  0.250000  1
  Sn  Sn2  1  0.644864  0.355136  0.952241  1
  Sn  Sn3  1  0.644864  0.355136  0.547759  1
  Sn  Sn4  1  0.354746  0.645254  0.045750  1
  Sn  Sn5  1  0.354746  0.645254  0.454250  1
  Ir  Ir6  1  0.788446  0.211554  0.250000  1
  Ru  Ru7  1  0.211172  0.788828  0.750000  1
