# generated using pymatgen
data_Sr2In8PdAu
_symmetry_space_group_name_H-M   'P 1'
_cell_length_a   9.03479603
_cell_length_b   9.03479619
_cell_length_c   7.58777100
_cell_angle_alpha   90.00000000
_cell_angle_beta   90.00000000
_cell_angle_gamma   149.76107587
_symmetry_Int_Tables_number   1
_chemical_formula_structural   Sr2In8PdAu
_chemical_formula_sum   'Sr2 In8 Pd1 Au1'
_cell_volume   311.91960200
_cell_formula_units_Z   1
loop_
 _symmetry_equiv_pos_site_id
 _symmetry_equiv_pos_as_xyz
  1  'x, y, z'
loop_
 _atom_site_type_symbol
 _atom_site_label
 _atom_site_symmetry_multiplicity
 _atom_site_fract_x
 _atom_site_fract_y
 _atom_site_fract_z
 _atom_site_occupancy
  Sr  Sr0  1  0.124917  0.875083  0.750000  1
  Sr  Sr1  1  0.876559  0.123441  0.250000  1
  In  In2  1  0.317700  0.682300  0.956194  1
  In  In3  1  0.681687  0.318313  0.055877  1
  In  In4  1  0.317700  0.682300  0.543806  1
  In  In5  1  0.500361  0.499639  0.000830  1
  In  In6  1  0.681687  0.318313  0.444123  1
  In  In7  1  0.500361  0.499639  0.499170  1
  In  In8  1  0.069029  0.930971  0.250000  1
  In  In9  1  0.933116  0.066884  0.750000  1
  Pd  Pd10  1  0.224382  0.775618  0.250000  1
  Au  Au11  1  0.772503  0.227497  0.750000  1
