# generated using pymatgen
data_YHf3Nb2(B2Ru5)2
_symmetry_space_group_name_H-M   'P 1'
_cell_length_a   9.52021213
_cell_length_b   9.52021213
_cell_length_c   3.12016900
_cell_angle_alpha   90.00000000
_cell_angle_beta   90.00000000
_cell_angle_gamma   90.29304485
_symmetry_Int_Tables_number   1
_chemical_formula_structural   YHf3Nb2(B2Ru5)2
_chemical_formula_sum   'Y1 Hf3 Nb2 B4 Ru10'
_cell_volume   282.79106808
_cell_formula_units_Z   1
loop_
 _symmetry_equiv_pos_site_id
 _symmetry_equiv_pos_as_xyz
  1  'x, y, z'
loop_
 _atom_site_type_symbol
 _atom_site_label
 _atom_site_symmetry_multiplicity
 _atom_site_fract_x
 _atom_site_fract_y
 _atom_site_fract_z
 _atom_site_occupancy
  Y  Y0  1  0.824935  0.675065  0.000000  1
  Hf  Hf1  1  0.176550  0.323450  0.000000  1
  Hf  Hf2  1  0.324896  0.824696  0.000000  1
  Hf  Hf3  1  0.675304  0.175104  0.000000  1
  Nb  Nb4  1  0.500206  0.500279  0.000000  1
  Nb  Nb5  1  0.999721  0.999794  0.000000  1
  B  B6  1  0.619156  0.880844  0.000000  1
  B  B7  1  0.377537  0.122463  0.000000  1
  B  B8  1  0.123729  0.620248  0.000000  1
  B  B9  1  0.879752  0.376271  0.000000  1
  Ru  Ru10  1  0.562140  0.722456  0.500000  1
  Ru  Ru11  1  0.427288  0.282862  0.500000  1
  Ru  Ru12  1  0.079648  0.782728  0.500000  1
  Ru  Ru13  1  0.930118  0.216197  0.500000  1
  Ru  Ru14  1  0.283803  0.569882  0.500000  1
  Ru  Ru15  1  0.717272  0.420352  0.500000  1
  Ru  Ru16  1  0.217138  0.072712  0.500000  1
  Ru  Ru17  1  0.777544  0.937860  0.500000  1
  Ru  Ru18  1  0.497052  0.002948  0.500000  1
  Ru  Ru19  1  0.006210  0.493790  0.500000  1
