# generated using pymatgen
data_TaMnNb3(NiP)4
_symmetry_space_group_name_H-M   'P 1'
_cell_length_a   7.14849118
_cell_length_b   7.14849111
_cell_length_c   7.15483455
_cell_angle_alpha   93.74229511
_cell_angle_beta   93.36092162
_cell_angle_gamma   151.16303886
_symmetry_Int_Tables_number   1
_chemical_formula_structural   TaMnNb3(NiP)4
_chemical_formula_sum   'Ta1 Mn1 Nb3 Ni4 P4'
_cell_volume   170.79935718
_cell_formula_units_Z   1
loop_
 _symmetry_equiv_pos_site_id
 _symmetry_equiv_pos_as_xyz
  1  'x, y, z'
loop_
 _atom_site_type_symbol
 _atom_site_label
 _atom_site_symmetry_multiplicity
 _atom_site_fract_x
 _atom_site_fract_y
 _atom_site_fract_z
 _atom_site_occupancy
  Ta  Ta0  1  0.807559  0.125918  0.933477  1
  Mn  Mn1  1  0.498989  0.500740  0.999729  1
  Nb  Nb2  1  0.125976  0.192194  0.318169  1
  Nb  Nb3  1  0.873927  0.808040  0.681967  1
  Nb  Nb4  1  0.191973  0.873763  0.065735  1
  Ni  Ni5  1  0.913105  0.389493  0.302597  1
  Ni  Ni6  1  0.087614  0.609505  0.697120  1
  Ni  Ni7  1  0.609264  0.914857  0.524120  1
  Ni  Ni8  1  0.390995  0.085691  0.476687  1
  P  P9  1  0.557285  0.245216  0.802503  1
  P  P10  1  0.245285  0.442646  0.687929  1
  P  P11  1  0.755154  0.557369  0.312524  1
  P  P12  1  0.442873  0.754569  0.197441  1
