# generated using pymatgen
data_TbEr11Co4SnRh
_symmetry_space_group_name_H-M   'P 1'
_cell_length_a   8.22518664
_cell_length_b   8.22554459
_cell_length_c   8.22518706
_cell_angle_alpha   111.04749631
_cell_angle_beta   110.74020221
_cell_angle_gamma   106.66043947
_symmetry_Int_Tables_number   1
_chemical_formula_structural   TbEr11Co4SnRh
_chemical_formula_sum   'Tb1 Er11 Co4 Sn1 Rh1'
_cell_volume   427.62270921
_cell_formula_units_Z   1
loop_
 _symmetry_equiv_pos_site_id
 _symmetry_equiv_pos_as_xyz
  1  'x, y, z'
loop_
 _atom_site_type_symbol
 _atom_site_label
 _atom_site_symmetry_multiplicity
 _atom_site_fract_x
 _atom_site_fract_y
 _atom_site_fract_z
 _atom_site_occupancy
  Tb  Tb0  1  0.312168  0.616711  0.304543  1
  Er  Er1  1  0.687258  0.382117  0.694860  1
  Er  Er2  1  0.313255  0.008299  0.695044  1
  Er  Er3  1  0.687360  0.992688  0.305328  1
  Er  Er4  1  0.409059  0.212013  0.195956  1
  Er  Er5  1  0.591763  0.787804  0.804628  1
  Er  Er6  1  0.016057  0.212013  0.802954  1
  Er  Er7  1  0.983176  0.787804  0.196042  1
  Er  Er8  1  0.186226  0.289953  0.477302  1
  Er  Er9  1  0.814827  0.709656  0.523197  1
  Er  Er10  1  0.186459  0.709656  0.894829  1
  Er  Er11  1  0.812652  0.289953  0.103727  1
  Co  Co12  1  0.111028  0.611464  0.500436  1
  Co  Co13  1  0.887070  0.386510  0.499440  1
  Co  Co14  1  0.378473  0.001890  0.378855  1
  Co  Co15  1  0.623035  0.001890  0.623417  1
  Sn  Sn16  1  0.500383  0.499907  0.999524  1
  Rh  Rh17  1  0.999754  0.999673  0.999919  1
