# generated using pymatgen
data_Dy3Ho(ErAu)4
_symmetry_space_group_name_H-M   'P 1'
_cell_length_a   4.91941000
_cell_length_b   7.11833779
_cell_length_c   8.92445804
_cell_angle_alpha   90.02124245
_cell_angle_beta   90.00000000
_cell_angle_gamma   90.00000000
_symmetry_Int_Tables_number   1
_chemical_formula_structural   Dy3Ho(ErAu)4
_chemical_formula_sum   'Dy3 Ho1 Er4 Au4'
_cell_volume   312.51684762
_cell_formula_units_Z   1
loop_
 _symmetry_equiv_pos_site_id
 _symmetry_equiv_pos_as_xyz
  1  'x, y, z'
loop_
 _atom_site_type_symbol
 _atom_site_label
 _atom_site_symmetry_multiplicity
 _atom_site_fract_x
 _atom_site_fract_y
 _atom_site_fract_z
 _atom_site_occupancy
  Dy  Dy0  1  0.250000  0.486923  0.176546  1
  Dy  Dy1  1  0.750000  0.513530  0.822952  1
  Dy  Dy2  1  0.250000  0.986465  0.323634  1
  Ho  Ho3  1  0.750000  0.148182  0.079970  1
  Er  Er4  1  0.750000  0.013509  0.675791  1
  Er  Er5  1  0.750000  0.648546  0.420501  1
  Er  Er6  1  0.250000  0.351428  0.580153  1
  Er  Er7  1  0.250000  0.851884  0.918968  1
  Au  Au8  1  0.250000  0.255440  0.899475  1
  Au  Au9  1  0.750000  0.743592  0.099932  1
  Au  Au10  1  0.250000  0.756142  0.600004  1
  Au  Au11  1  0.750000  0.244360  0.402073  1
