# generated using pymatgen
data_YZr2ZnCo8
_symmetry_space_group_name_H-M   'P 1'
_cell_length_a   4.89358700
_cell_length_b   4.89358668
_cell_length_c   15.86159100
_cell_angle_alpha   90.00000000
_cell_angle_beta   90.00000000
_cell_angle_gamma   120.00000892
_symmetry_Int_Tables_number   1
_chemical_formula_structural   YZr2ZnCo8
_chemical_formula_sum   'Y2 Zr4 Zn2 Co16'
_cell_volume   328.95155144
_cell_formula_units_Z   2
loop_
 _symmetry_equiv_pos_site_id
 _symmetry_equiv_pos_as_xyz
  1  'x, y, z'
loop_
 _atom_site_type_symbol
 _atom_site_label
 _atom_site_symmetry_multiplicity
 _atom_site_fract_x
 _atom_site_fract_y
 _atom_site_fract_z
 _atom_site_occupancy
  Y  Y0  1  0.333333  0.666667  0.750000  1
  Y  Y1  1  0.666667  0.333333  0.250000  1
  Zr  Zr2  1  0.333333  0.666667  0.959428  1
  Zr  Zr3  1  0.666667  0.333333  0.040572  1
  Zr  Zr4  1  0.666667  0.333333  0.459428  1
  Zr  Zr5  1  0.333333  0.666667  0.540572  1
  Zn  Zn6  1  0.333333  0.666667  0.250000  1
  Zn  Zn7  1  0.666667  0.333333  0.750000  1
  Co  Co8  1  0.167256  0.832744  0.377978  1
  Co  Co9  1  0.167256  0.334511  0.377978  1
  Co  Co10  1  0.665489  0.832744  0.377978  1
  Co  Co11  1  0.832744  0.167256  0.622022  1
  Co  Co12  1  0.832744  0.665489  0.622022  1
  Co  Co13  1  0.334511  0.167256  0.622022  1
  Co  Co14  1  0.832744  0.167256  0.877978  1
  Co  Co15  1  0.832744  0.665489  0.877978  1
  Co  Co16  1  0.334511  0.167256  0.877978  1
  Co  Co17  1  0.167256  0.832744  0.122022  1
  Co  Co18  1  0.167256  0.334511  0.122022  1
  Co  Co19  1  0.665489  0.832744  0.122022  1
  Co  Co20  1  0.000000  0.000000  0.250000  1
  Co  Co21  1  0.000000  0.000000  0.750000  1
  Co  Co22  1  0.000000  0.000000  0.500000  1
  Co  Co23  1  0.000000  0.000000  0.000000  1
