# generated using pymatgen
data_Dy3Th(HgPd2)2
_symmetry_space_group_name_H-M   'P 1'
_cell_length_a   3.76144400
_cell_length_b   7.79655707
_cell_length_c   7.79655600
_cell_angle_alpha   90.55975661
_cell_angle_beta   90.00000000
_cell_angle_gamma   90.00000000
_symmetry_Int_Tables_number   1
_chemical_formula_structural   Dy3Th(HgPd2)2
_chemical_formula_sum   'Dy3 Th1 Hg2 Pd4'
_cell_volume   228.63332867
_cell_formula_units_Z   1
loop_
 _symmetry_equiv_pos_site_id
 _symmetry_equiv_pos_as_xyz
  1  'x, y, z'
loop_
 _atom_site_type_symbol
 _atom_site_label
 _atom_site_symmetry_multiplicity
 _atom_site_fract_x
 _atom_site_fract_y
 _atom_site_fract_z
 _atom_site_occupancy
  Dy  Dy0  1  0.500000  0.824391  0.324391  1
  Dy  Dy1  1  0.500000  0.329324  0.174274  1
  Dy  Dy2  1  0.500000  0.674274  0.829324  1
  Th  Th3  1  0.500000  0.172132  0.672132  1
  Hg  Hg4  1  0.000000  0.996826  0.006270  1
  Hg  Hg5  1  0.000000  0.506270  0.496826  1
  Pd  Pd6  1  0.000000  0.624555  0.124555  1
  Pd  Pd7  1  0.000000  0.369754  0.869754  1
  Pd  Pd8  1  0.000000  0.874077  0.628397  1
  Pd  Pd9  1  0.000000  0.128397  0.374077  1
