# generated using pymatgen
data_Dy3Lu(Pd2Pb)2
_symmetry_space_group_name_H-M   'P 1'
_cell_length_a   7.87017816
_cell_length_b   7.87017816
_cell_length_c   3.63541700
_cell_angle_alpha   90.00000000
_cell_angle_beta   90.00000000
_cell_angle_gamma   90.60905705
_symmetry_Int_Tables_number   1
_chemical_formula_structural   Dy3Lu(Pd2Pb)2
_chemical_formula_sum   'Dy3 Lu1 Pd4 Pb2'
_cell_volume   225.16393197
_cell_formula_units_Z   1
loop_
 _symmetry_equiv_pos_site_id
 _symmetry_equiv_pos_as_xyz
  1  'x, y, z'
loop_
 _atom_site_type_symbol
 _atom_site_label
 _atom_site_symmetry_multiplicity
 _atom_site_fract_x
 _atom_site_fract_y
 _atom_site_fract_z
 _atom_site_occupancy
  Dy  Dy0  1  0.170968  0.328633  0.500000  1
  Dy  Dy1  1  0.828633  0.670968  0.500000  1
  Dy  Dy2  1  0.328834  0.828834  0.500000  1
  Lu  Lu3  1  0.670925  0.170925  0.500000  1
  Pd  Pd4  1  0.377104  0.126571  0.000000  1
  Pd  Pd5  1  0.125383  0.625383  0.000000  1
  Pd  Pd6  1  0.626571  0.877104  0.000000  1
  Pd  Pd7  1  0.871829  0.371829  0.000000  1
  Pb  Pb8  1  0.999125  0.000627  0.000000  1
  Pb  Pb9  1  0.500627  0.499125  0.000000  1
