# generated using pymatgen
data_YbSm4Hf3(B6Ru)4
_symmetry_space_group_name_H-M   'P 1'
_cell_length_a   3.61748700
_cell_length_b   9.06301769
_cell_length_c   11.46115106
_cell_angle_alpha   90.06856310
_cell_angle_beta   90.00000000
_cell_angle_gamma   90.00000000
_symmetry_Int_Tables_number   1
_chemical_formula_structural   YbSm4Hf3(B6Ru)4
_chemical_formula_sum   'Yb1 Sm4 Hf3 B24 Ru4'
_cell_volume   375.75756503
_cell_formula_units_Z   1
loop_
 _symmetry_equiv_pos_site_id
 _symmetry_equiv_pos_as_xyz
  1  'x, y, z'
loop_
 _atom_site_type_symbol
 _atom_site_label
 _atom_site_symmetry_multiplicity
 _atom_site_fract_x
 _atom_site_fract_y
 _atom_site_fract_z
 _atom_site_occupancy
  Yb  Yb0  1  0.000000  0.556170  0.871990  1
  Sm  Sm1  1  0.000000  0.321289  0.413888  1
  Sm  Sm2  1  0.000000  0.677155  0.586409  1
  Sm  Sm3  1  0.000000  0.820913  0.085757  1
  Sm  Sm4  1  0.000000  0.179628  0.914247  1
  Hf  Hf5  1  0.000000  0.943887  0.374404  1
  Hf  Hf6  1  0.000000  0.054486  0.624767  1
  Hf  Hf7  1  0.000000  0.444604  0.126757  1
  B  B8  1  0.500000  0.555895  0.431967  1
  B  B9  1  0.500000  0.443344  0.568397  1
  B  B10  1  0.500000  0.056433  0.068922  1
  B  B11  1  0.500000  0.946655  0.930649  1
  B  B12  1  0.500000  0.752941  0.417680  1
  B  B13  1  0.500000  0.245968  0.581907  1
  B  B14  1  0.500000  0.253296  0.083292  1
  B  B15  1  0.500000  0.750989  0.915872  1
  B  B16  1  0.500000  0.794221  0.264958  1
  B  B17  1  0.500000  0.206041  0.733808  1
  B  B18  1  0.500000  0.294372  0.235387  1
  B  B19  1  0.500000  0.709058  0.765436  1
  B  B20  1  0.500000  0.629025  0.182840  1
  B  B21  1  0.500000  0.369034  0.815115  1
  B  B22  1  0.500000  0.128477  0.317019  1
  B  B23  1  0.500000  0.871975  0.683295  1
  B  B24  1  0.500000  0.981791  0.214327  1
  B  B25  1  0.500000  0.018432  0.784977  1
  B  B26  1  0.500000  0.483052  0.285815  1
  B  B27  1  0.500000  0.513490  0.713612  1
  B  B28  1  0.500000  0.599074  0.030799  1
  B  B29  1  0.500000  0.398032  0.976840  1
  B  B30  1  0.500000  0.098616  0.473063  1
  B  B31  1  0.500000  0.900621  0.526226  1
  Ru  Ru32  1  0.000000  0.641877  0.319518  1
  Ru  Ru33  1  0.000000  0.355008  0.679562  1
  Ru  Ru34  1  0.000000  0.140711  0.184812  1
  Ru  Ru35  1  0.000000  0.863443  0.815687  1
