# generated using pymatgen
data_LaThMn4Ni8P7
_symmetry_space_group_name_H-M   'P 1'
_cell_length_a   9.24562622
_cell_length_b   9.23664597
_cell_length_c   3.76932400
_cell_angle_alpha   90.00000000
_cell_angle_beta   90.00000000
_cell_angle_gamma   119.97417470
_symmetry_Int_Tables_number   1
_chemical_formula_structural   LaThMn4Ni8P7
_chemical_formula_sum   'La1 Th1 Mn4 Ni8 P7'
_cell_volume   278.84167969
_cell_formula_units_Z   1
loop_
 _symmetry_equiv_pos_site_id
 _symmetry_equiv_pos_as_xyz
  1  'x, y, z'
loop_
 _atom_site_type_symbol
 _atom_site_label
 _atom_site_symmetry_multiplicity
 _atom_site_fract_x
 _atom_site_fract_y
 _atom_site_fract_z
 _atom_site_occupancy
  La  La0  1  0.999113  0.999203  0.500000  1
  Th  Th1  1  0.334026  0.666895  0.000000  1
  Mn  Mn2  1  0.515895  0.456117  0.000000  1
  Mn  Mn3  1  0.780498  0.233245  0.500000  1
  Mn  Mn4  1  0.768411  0.550909  0.500000  1
  Mn  Mn5  1  0.447769  0.216897  0.500000  1
  Ni  Ni6  1  0.040504  0.275458  0.000000  1
  Ni  Ni7  1  0.727855  0.766336  0.000000  1
  Ni  Ni8  1  0.236214  0.962065  0.000000  1
  Ni  Ni9  1  0.541710  0.058427  0.000000  1
  Ni  Ni10  1  0.943043  0.482862  0.000000  1
  Ni  Ni11  1  0.611759  0.897881  0.500000  1
  Ni  Ni12  1  0.101260  0.715418  0.500000  1
  Ni  Ni13  1  0.286490  0.386250  0.500000  1
  P  P14  1  0.771610  0.036330  0.000000  1
  P  P15  1  0.963423  0.734241  0.000000  1
  P  P16  1  0.264753  0.229937  0.000000  1
  P  P17  1  0.373268  0.934557  0.500000  1
  P  P18  1  0.064089  0.437938  0.500000  1
  P  P19  1  0.561353  0.622919  0.500000  1
  P  P20  1  0.666958  0.336110  0.000000  1
