# generated using pymatgen
data_CaLaPdRuO7
_symmetry_space_group_name_H-M   'P 1'
_cell_length_a   7.31376109
_cell_length_b   7.37653935
_cell_length_c   7.37653914
_cell_angle_alpha   60.87977103
_cell_angle_beta   60.28113496
_cell_angle_gamma   60.28112492
_symmetry_Int_Tables_number   1
_chemical_formula_structural   CaLaPdRuO7
_chemical_formula_sum   'Ca2 La2 Pd2 Ru2 O14'
_cell_volume   284.44139736
_cell_formula_units_Z   2
loop_
 _symmetry_equiv_pos_site_id
 _symmetry_equiv_pos_as_xyz
  1  'x, y, z'
loop_
 _atom_site_type_symbol
 _atom_site_label
 _atom_site_symmetry_multiplicity
 _atom_site_fract_x
 _atom_site_fract_y
 _atom_site_fract_z
 _atom_site_occupancy
  Ca  Ca0  1  0.125000  0.625000  0.625000  1
  Ca  Ca1  1  0.625000  0.625000  0.625000  1
  La  La2  1  0.625000  0.125000  0.625000  1
  La  La3  1  0.625000  0.625000  0.125000  1
  Pd  Pd4  1  0.625000  0.125000  0.125000  1
  Pd  Pd5  1  0.125000  0.125000  0.125000  1
  Ru  Ru6  1  0.125000  0.625000  0.125000  1
  Ru  Ru7  1  0.125000  0.125000  0.625000  1
  O  O8  1  0.193394  0.211222  0.791795  1
  O  O9  1  0.193394  0.791795  0.211222  1
  O  O10  1  0.461739  0.038261  0.038261  1
  O  O11  1  0.182485  0.817515  0.817515  1
  O  O12  1  0.067515  0.432485  0.432485  1
  O  O13  1  0.803588  0.791795  0.211222  1
  O  O14  1  0.446412  0.458205  0.038778  1
  O  O15  1  0.496469  0.503531  0.503531  1
  O  O16  1  0.056606  0.038778  0.458205  1
  O  O17  1  0.446412  0.038778  0.458205  1
  O  O18  1  0.056606  0.458205  0.038778  1
  O  O19  1  0.753531  0.746469  0.746469  1
  O  O20  1  0.803588  0.211222  0.791795  1
  O  O21  1  0.788261  0.211739  0.211739  1
