# generated using pymatgen
data_Tb14Ho2MgAg3Ir4
_symmetry_space_group_name_H-M   'P 1'
_cell_length_a   9.56396621
_cell_length_b   9.59524728
_cell_length_c   9.59524694
_cell_angle_alpha   60.41120888
_cell_angle_beta   60.43402313
_cell_angle_gamma   60.43402935
_symmetry_Int_Tables_number   1
_chemical_formula_structural   Tb14Ho2MgAg3Ir4
_chemical_formula_sum   'Tb14 Ho2 Mg1 Ag3 Ir4'
_cell_volume   628.64083270
_cell_formula_units_Z   1
loop_
 _symmetry_equiv_pos_site_id
 _symmetry_equiv_pos_as_xyz
  1  'x, y, z'
loop_
 _atom_site_type_symbol
 _atom_site_label
 _atom_site_symmetry_multiplicity
 _atom_site_fract_x
 _atom_site_fract_y
 _atom_site_fract_z
 _atom_site_occupancy
  Tb  Tb0  1  0.064072  0.436999  0.061581  1
  Tb  Tb1  1  0.060049  0.646484  0.646484  1
  Tb  Tb2  1  0.649878  0.651515  0.651515  1
  Tb  Tb3  1  0.064072  0.061581  0.436999  1
  Tb  Tb4  1  0.190519  0.811272  0.189141  1
  Tb  Tb5  1  0.813931  0.812935  0.186993  1
  Tb  Tb6  1  0.813931  0.186993  0.812935  1
  Tb  Tb7  1  0.437787  0.062483  0.437164  1
  Tb  Tb8  1  0.437787  0.437164  0.062483  1
  Tb  Tb9  1  0.436586  0.062877  0.062877  1
  Tb  Tb10  1  0.065189  0.437192  0.437192  1
  Tb  Tb11  1  0.190519  0.189141  0.811272  1
  Tb  Tb12  1  0.650076  0.650393  0.047948  1
  Tb  Tb13  1  0.650076  0.047948  0.650393  1
  Ho  Ho14  1  0.190124  0.811028  0.811028  1
  Ho  Ho15  1  0.814425  0.187022  0.187022  1
  Mg  Mg16  1  0.712999  0.428868  0.428868  1
  Ag  Ag17  1  0.417695  0.415449  0.750462  1
  Ag  Ag18  1  0.417695  0.750462  0.415449  1
  Ag  Ag19  1  0.417674  0.415573  0.415573  1
  Ir  Ir20  1  0.858884  0.857001  0.426271  1
  Ir  Ir21  1  0.858884  0.426271  0.857001  1
  Ir  Ir22  1  0.861369  0.856556  0.856556  1
  Ir  Ir23  1  0.425785  0.856796  0.856796  1
