# generated using pymatgen
data_Ba5(ZnAu2)2
_symmetry_space_group_name_H-M   'P 1'
_cell_length_a   17.41509800
_cell_length_b   17.41509677
_cell_length_c   4.69554000
_cell_angle_alpha   90.00000000
_cell_angle_beta   90.00000000
_cell_angle_gamma   164.81210571
_symmetry_Int_Tables_number   1
_chemical_formula_structural   Ba5(ZnAu2)2
_chemical_formula_sum   'Ba5 Zn2 Au4'
_cell_volume   373.09055049
_cell_formula_units_Z   1
loop_
 _symmetry_equiv_pos_site_id
 _symmetry_equiv_pos_as_xyz
  1  'x, y, z'
loop_
 _atom_site_type_symbol
 _atom_site_label
 _atom_site_symmetry_multiplicity
 _atom_site_fract_x
 _atom_site_fract_y
 _atom_site_fract_z
 _atom_site_occupancy
  Ba  Ba0  1  0.000253  0.999747  0.000000  1
  Ba  Ba1  1  0.616211  0.383789  0.000000  1
  Ba  Ba2  1  0.384507  0.615493  0.000000  1
  Ba  Ba3  1  0.798994  0.201005  0.500000  1
  Ba  Ba4  1  0.200229  0.799770  0.500000  1
  Zn  Zn5  1  0.915278  0.084722  0.500000  1
  Zn  Zn6  1  0.540622  0.459377  0.500000  1
  Au  Au7  1  0.718352  0.281648  0.000000  1
  Au  Au8  1  0.280261  0.719739  0.000000  1
  Au  Au9  1  0.460429  0.539570  0.500000  1
  Au  Au10  1  0.084861  0.915139  0.500000  1
