# generated using pymatgen
data_Tb12Pr7NdSn16
_symmetry_space_group_name_H-M   'P 1'
_cell_length_a   8.11733260
_cell_length_b   8.33924020
_cell_length_c   15.70258100
_cell_angle_alpha   90.02481669
_cell_angle_beta   90.22680974
_cell_angle_gamma   89.66154485
_symmetry_Int_Tables_number   1
_chemical_formula_structural   Tb12Pr7NdSn16
_chemical_formula_sum   'Tb12 Pr7 Nd1 Sn16'
_cell_volume   1062.91821628
_cell_formula_units_Z   1
loop_
 _symmetry_equiv_pos_site_id
 _symmetry_equiv_pos_as_xyz
  1  'x, y, z'
loop_
 _atom_site_type_symbol
 _atom_site_label
 _atom_site_symmetry_multiplicity
 _atom_site_fract_x
 _atom_site_fract_y
 _atom_site_fract_z
 _atom_site_occupancy
  Tb  Tb0  1  0.352856  0.834011  0.875746  1
  Tb  Tb1  1  0.850832  0.665857  0.623838  1
  Tb  Tb2  1  0.648567  0.165997  0.375679  1
  Tb  Tb3  1  0.146349  0.335600  0.122552  1
  Tb  Tb4  1  0.646549  0.165539  0.124249  1
  Tb  Tb5  1  0.148337  0.333993  0.376565  1
  Tb  Tb6  1  0.351947  0.834156  0.624923  1
  Tb  Tb7  1  0.853717  0.664799  0.877298  1
  Tb  Tb8  1  0.185450  0.500287  0.750477  1
  Tb  Tb9  1  0.685035  0.998902  0.750313  1
  Tb  Tb10  1  0.813878  0.499492  0.249341  1
  Tb  Tb11  1  0.314832  0.000902  0.249762  1
  Pr  Pr12  1  0.008457  0.178492  0.597144  1
  Pr  Pr13  1  0.492069  0.677590  0.403724  1
  Pr  Pr14  1  0.991910  0.820970  0.095711  1
  Pr  Pr15  1  0.490059  0.677269  0.096338  1
  Pr  Pr16  1  0.991959  0.822131  0.403871  1
  Pr  Pr17  1  0.507394  0.322693  0.596281  1
  Pr  Pr18  1  0.008644  0.179130  0.903451  1
  Nd  Nd19  1  0.511464  0.322287  0.902996  1
  Sn  Sn20  1  0.311524  0.040661  0.040930  1
  Sn  Sn21  1  0.811558  0.458901  0.458681  1
  Sn  Sn22  1  0.687599  0.960539  0.541535  1
  Sn  Sn23  1  0.194140  0.539216  0.957526  1
  Sn  Sn24  1  0.688458  0.960828  0.958338  1
  Sn  Sn25  1  0.187956  0.541893  0.541488  1
  Sn  Sn26  1  0.312626  0.039758  0.458934  1
  Sn  Sn27  1  0.806488  0.458098  0.041107  1
  Sn  Sn28  1  0.551556  0.620560  0.750391  1
  Sn  Sn29  1  0.050164  0.877427  0.750356  1
  Sn  Sn30  1  0.447799  0.378480  0.250104  1
  Sn  Sn31  1  0.949767  0.122913  0.249475  1
  Sn  Sn32  1  0.316924  0.143530  0.750577  1
  Sn  Sn33  1  0.814971  0.357554  0.750144  1
  Sn  Sn34  1  0.684372  0.857064  0.250030  1
  Sn  Sn35  1  0.183792  0.642478  0.250124  1
