# generated using pymatgen
data_LaMgInRh
_symmetry_space_group_name_H-M   'P 1'
_cell_length_a   5.52274471
_cell_length_b   5.52274474
_cell_length_c   8.22835500
_cell_angle_alpha   90.00000000
_cell_angle_beta   90.00000000
_cell_angle_gamma   47.77585402
_symmetry_Int_Tables_number   1
_chemical_formula_structural   LaMgInRh
_chemical_formula_sum   'La2 Mg2 In2 Rh2'
_cell_volume   185.84915983
_cell_formula_units_Z   2
loop_
 _symmetry_equiv_pos_site_id
 _symmetry_equiv_pos_as_xyz
  1  'x, y, z'
loop_
 _atom_site_type_symbol
 _atom_site_label
 _atom_site_symmetry_multiplicity
 _atom_site_fract_x
 _atom_site_fract_y
 _atom_site_fract_z
 _atom_site_occupancy
  La  La0  1  0.942526  0.942526  0.752794  1
  La  La1  1  0.057473  0.057473  0.252794  1
  Mg  Mg2  1  0.343636  0.343636  0.447399  1
  Mg  Mg3  1  0.656365  0.656365  0.947399  1
  In  In4  1  0.648898  0.648898  0.548951  1
  In  In5  1  0.351103  0.351103  0.048951  1
  Rh  Rh6  1  0.793210  0.793210  0.250855  1
  Rh  Rh7  1  0.206792  0.206792  0.750855  1
