# generated using pymatgen
data_Yb3AgSn3Au2
_symmetry_space_group_name_H-M   'P 1'
_cell_length_a   4.78396900
_cell_length_b   4.78396952
_cell_length_c   10.84324100
_cell_angle_alpha   90.00000000
_cell_angle_beta   90.00000000
_cell_angle_gamma   120.00000330
_symmetry_Int_Tables_number   1
_chemical_formula_structural   Yb3AgSn3Au2
_chemical_formula_sum   'Yb3 Ag1 Sn3 Au2'
_cell_volume   214.91488151
_cell_formula_units_Z   1
loop_
 _symmetry_equiv_pos_site_id
 _symmetry_equiv_pos_as_xyz
  1  'x, y, z'
loop_
 _atom_site_type_symbol
 _atom_site_label
 _atom_site_symmetry_multiplicity
 _atom_site_fract_x
 _atom_site_fract_y
 _atom_site_fract_z
 _atom_site_occupancy
  Yb  Yb0  1  0.666667  0.333333  0.999572  1
  Yb  Yb1  1  0.666667  0.333333  0.667453  1
  Yb  Yb2  1  0.666667  0.333333  0.333284  1
  Ag  Ag3  1  0.000000  0.000000  0.193615  1
  Sn  Sn4  1  0.333333  0.666667  0.853506  1
  Sn  Sn5  1  0.000000  0.000000  0.500175  1
  Sn  Sn6  1  0.333333  0.666667  0.146612  1
  Au  Au7  1  0.000000  0.000000  0.806135  1
  Au  Au8  1  0.333333  0.666667  0.499650  1
