# generated using pymatgen
data_Hf6Al16FePd6
_symmetry_space_group_name_H-M   'P 1'
_cell_length_a   8.73267315
_cell_length_b   8.73267307
_cell_length_c   8.76119800
_cell_angle_alpha   59.89189498
_cell_angle_beta   59.89189530
_cell_angle_gamma   60.07986230
_symmetry_Int_Tables_number   1
_chemical_formula_structural   Hf6Al16FePd6
_chemical_formula_sum   'Hf6 Al16 Fe1 Pd6'
_cell_volume   471.94555999
_cell_formula_units_Z   1
loop_
 _symmetry_equiv_pos_site_id
 _symmetry_equiv_pos_as_xyz
  1  'x, y, z'
loop_
 _atom_site_type_symbol
 _atom_site_label
 _atom_site_symmetry_multiplicity
 _atom_site_fract_x
 _atom_site_fract_y
 _atom_site_fract_z
 _atom_site_occupancy
  Hf  Hf0  1  0.684521  0.684521  0.315479  1
  Hf  Hf1  1  0.315878  0.684122  0.320434  1
  Hf  Hf2  1  0.684122  0.315878  0.320434  1
  Hf  Hf3  1  0.315479  0.315479  0.684521  1
  Hf  Hf4  1  0.684122  0.315878  0.679566  1
  Hf  Hf5  1  0.315878  0.684122  0.679566  1
  Al  Al6  1  0.885948  0.885948  0.362861  1
  Al  Al7  1  0.881122  0.361558  0.878660  1
  Al  Al8  1  0.361558  0.881122  0.878660  1
  Al  Al9  1  0.885948  0.885948  0.865245  1
  Al  Al10  1  0.114052  0.114052  0.637139  1
  Al  Al11  1  0.118878  0.638442  0.121340  1
  Al  Al12  1  0.638442  0.118878  0.121340  1
  Al  Al13  1  0.114052  0.114052  0.134755  1
  Al  Al14  1  0.664060  0.664060  0.008943  1
  Al  Al15  1  0.673423  0.007048  0.659765  1
  Al  Al16  1  0.007048  0.673423  0.659765  1
  Al  Al17  1  0.664060  0.664060  0.662937  1
  Al  Al18  1  0.335940  0.335940  0.991057  1
  Al  Al19  1  0.326577  0.992952  0.340235  1
  Al  Al20  1  0.992952  0.326577  0.340235  1
  Al  Al21  1  0.335940  0.335940  0.337063  1
  Fe  Fe22  1  0.000000  0.000000  0.500000  1
  Pd  Pd23  1  0.000000  0.000000  0.000000  1
  Pd  Pd24  1  0.500000  0.000000  0.500000  1
  Pd  Pd25  1  0.000000  0.500000  0.500000  1
  Pd  Pd26  1  0.500000  0.500000  0.000000  1
  Pd  Pd27  1  0.000000  0.500000  0.000000  1
  Pd  Pd28  1  0.500000  0.000000  0.000000  1
