# generated using pymatgen
data_Mg2Ga3Rh2
_symmetry_space_group_name_H-M   'P 1'
_cell_length_a   5.15185021
_cell_length_b   5.15184889
_cell_length_c   6.87182934
_cell_angle_alpha   109.42234194
_cell_angle_beta   109.42233679
_cell_angle_gamma   44.70728554
_symmetry_Int_Tables_number   1
_chemical_formula_structural   Mg2Ga3Rh2
_chemical_formula_sum   'Mg2 Ga3 Rh2'
_cell_volume   119.72759924
_cell_formula_units_Z   1
loop_
 _symmetry_equiv_pos_site_id
 _symmetry_equiv_pos_as_xyz
  1  'x, y, z'
loop_
 _atom_site_type_symbol
 _atom_site_label
 _atom_site_symmetry_multiplicity
 _atom_site_fract_x
 _atom_site_fract_y
 _atom_site_fract_z
 _atom_site_occupancy
  Mg  Mg0  1  0.851336  0.851336  0.206352  1
  Mg  Mg1  1  0.148664  0.148664  0.793647  1
  Ga  Ga2  1  0.500000  0.500000  0.000000  1
  Ga  Ga3  1  0.632411  0.632411  0.453264  1
  Ga  Ga4  1  0.367589  0.367589  0.546737  1
  Rh  Rh5  1  0.138519  0.138519  0.204693  1
  Rh  Rh6  1  0.861481  0.861481  0.795308  1
