# generated using pymatgen
data_TbY2Al9Si3Os4
_symmetry_space_group_name_H-M   'P 1'
_cell_length_a   8.71442801
_cell_length_b   8.68917213
_cell_length_c   9.55603900
_cell_angle_alpha   90.00000000
_cell_angle_beta   90.00000000
_cell_angle_gamma   120.10164534
_symmetry_Int_Tables_number   1
_chemical_formula_structural   TbY2Al9Si3Os4
_chemical_formula_sum   'Tb2 Y4 Al18 Si6 Os8'
_cell_volume   626.00830722
_cell_formula_units_Z   2
loop_
 _symmetry_equiv_pos_site_id
 _symmetry_equiv_pos_as_xyz
  1  'x, y, z'
loop_
 _atom_site_type_symbol
 _atom_site_label
 _atom_site_symmetry_multiplicity
 _atom_site_fract_x
 _atom_site_fract_y
 _atom_site_fract_z
 _atom_site_occupancy
  Tb  Tb0  1  0.196905  0.808273  0.250000  1
  Tb  Tb1  1  0.803095  0.191727  0.750000  1
  Y  Y2  1  0.192943  0.385829  0.250000  1
  Y  Y3  1  0.807057  0.614171  0.750000  1
  Y  Y4  1  0.610900  0.807973  0.250000  1
  Y  Y5  1  0.389100  0.192027  0.750000  1
  Al  Al6  1  0.165103  0.330184  0.578093  1
  Al  Al7  1  0.834897  0.669816  0.421907  1
  Al  Al8  1  0.670276  0.834473  0.576399  1
  Al  Al9  1  0.834897  0.669816  0.078093  1
  Al  Al10  1  0.329724  0.165527  0.423601  1
  Al  Al11  1  0.165103  0.330184  0.921907  1
  Al  Al12  1  0.164200  0.834505  0.576402  1
  Al  Al13  1  0.329724  0.165527  0.076399  1
  Al  Al14  1  0.835800  0.165495  0.423598  1
  Al  Al15  1  0.670276  0.834473  0.923601  1
  Al  Al16  1  0.835800  0.165495  0.076402  1
  Al  Al17  1  0.164200  0.834505  0.923598  1
  Al  Al18  1  0.872330  0.432824  0.250000  1
  Al  Al19  1  0.127670  0.567176  0.750000  1
  Al  Al20  1  0.560461  0.432942  0.250000  1
  Al  Al21  1  0.439539  0.567058  0.750000  1
  Al  Al22  1  0.999430  0.998835  0.250000  1
  Al  Al23  1  0.000570  0.001165  0.750000  1
  Si  Si24  1  0.332028  0.663894  0.038616  1
  Si  Si25  1  0.667972  0.336106  0.961384  1
  Si  Si26  1  0.667972  0.336106  0.538616  1
  Si  Si27  1  0.332028  0.663894  0.461384  1
  Si  Si28  1  0.563575  0.127088  0.250000  1
  Si  Si29  1  0.436425  0.872912  0.750000  1
  Os  Os30  1  0.500000  0.000000  0.000000  1
  Os  Os31  1  0.000000  0.500000  0.000000  1
  Os  Os32  1  0.500000  0.000000  0.500000  1
  Os  Os33  1  0.500000  0.500000  0.000000  1
  Os  Os34  1  0.000000  0.500000  0.500000  1
  Os  Os35  1  0.500000  0.500000  0.500000  1
  Os  Os36  1  0.000000  0.000000  0.000000  1
  Os  Os37  1  0.000000  0.000000  0.500000  1
