# generated using pymatgen
data_Tb14Er2InHg3Rh4
_symmetry_space_group_name_H-M   'P 1'
_cell_length_a   9.63454327
_cell_length_b   9.63612605
_cell_length_c   9.63612496
_cell_angle_alpha   59.97036913
_cell_angle_beta   59.90466535
_cell_angle_gamma   59.90466221
_symmetry_Int_Tables_number   1
_chemical_formula_structural   Tb14Er2InHg3Rh4
_chemical_formula_sum   'Tb14 Er2 In1 Hg3 Rh4'
_cell_volume   631.53385306
_cell_formula_units_Z   1
loop_
 _symmetry_equiv_pos_site_id
 _symmetry_equiv_pos_as_xyz
  1  'x, y, z'
loop_
 _atom_site_type_symbol
 _atom_site_label
 _atom_site_symmetry_multiplicity
 _atom_site_fract_x
 _atom_site_fract_y
 _atom_site_fract_z
 _atom_site_occupancy
  Tb  Tb0  1  0.188890  0.189741  0.811969  1
  Tb  Tb1  1  0.648884  0.053254  0.648145  1
  Tb  Tb2  1  0.064727  0.060931  0.437920  1
  Tb  Tb3  1  0.439073  0.436659  0.060689  1
  Tb  Tb4  1  0.650937  0.648915  0.648915  1
  Tb  Tb5  1  0.811595  0.189937  0.189937  1
  Tb  Tb6  1  0.188513  0.811244  0.811244  1
  Tb  Tb7  1  0.053637  0.647787  0.647787  1
  Tb  Tb8  1  0.440286  0.061826  0.061826  1
  Tb  Tb9  1  0.439073  0.060689  0.436659  1
  Tb  Tb10  1  0.064727  0.437920  0.060931  1
  Tb  Tb11  1  0.648884  0.648145  0.053254  1
  Tb  Tb12  1  0.188890  0.811969  0.189741  1
  Tb  Tb13  1  0.063901  0.436154  0.436154  1
  Er  Er14  1  0.810633  0.809275  0.190290  1
  Er  Er15  1  0.810633  0.190290  0.809275  1
  In  In16  1  0.743253  0.419887  0.419887  1
  Hg  Hg17  1  0.414702  0.415522  0.415522  1
  Hg  Hg18  1  0.414742  0.414500  0.756700  1
  Hg  Hg19  1  0.414742  0.756700  0.414500  1
  Rh  Rh20  1  0.856861  0.426427  0.856904  1
  Rh  Rh21  1  0.856985  0.858493  0.858493  1
  Rh  Rh22  1  0.856861  0.856904  0.426427  1
  Rh  Rh23  1  0.428571  0.856830  0.856830  1
