# generated using pymatgen
data_Tb4Al4IrPdPt2
_symmetry_space_group_name_H-M   'P 1'
_cell_length_a   4.42406100
_cell_length_b   6.85721376
_cell_length_c   7.84269551
_cell_angle_alpha   90.12373413
_cell_angle_beta   90.00000000
_cell_angle_gamma   90.00000000
_symmetry_Int_Tables_number   1
_chemical_formula_structural   Tb4Al4IrPdPt2
_chemical_formula_sum   'Tb4 Al4 Ir1 Pd1 Pt2'
_cell_volume   237.92119678
_cell_formula_units_Z   1
loop_
 _symmetry_equiv_pos_site_id
 _symmetry_equiv_pos_as_xyz
  1  'x, y, z'
loop_
 _atom_site_type_symbol
 _atom_site_label
 _atom_site_symmetry_multiplicity
 _atom_site_fract_x
 _atom_site_fract_y
 _atom_site_fract_z
 _atom_site_occupancy
  Tb  Tb0  1  0.250000  0.531732  0.819986  1
  Tb  Tb1  1  0.750000  0.461758  0.182645  1
  Tb  Tb2  1  0.250000  0.035642  0.677842  1
  Tb  Tb3  1  0.750000  0.973555  0.321132  1
  Al  Al4  1  0.250000  0.636564  0.439485  1
  Al  Al5  1  0.750000  0.357082  0.560503  1
  Al  Al6  1  0.250000  0.144877  0.063126  1
  Al  Al7  1  0.750000  0.858757  0.938214  1
  Ir  Ir8  1  0.250000  0.268172  0.380119  1
  Pd  Pd9  1  0.250000  0.772061  0.118262  1
  Pt  Pt10  1  0.750000  0.729991  0.619600  1
  Pt  Pt11  1  0.750000  0.229806  0.879085  1
