# generated using pymatgen
data_Lu16Tl2CdInRh4
_symmetry_space_group_name_H-M   'P 1'
_cell_length_a   9.47086085
_cell_length_b   9.45764420
_cell_length_c   9.45491480
_cell_angle_alpha   59.91172849
_cell_angle_beta   59.97658239
_cell_angle_gamma   60.00529401
_symmetry_Int_Tables_number   1
_chemical_formula_structural   Lu16Tl2CdInRh4
_chemical_formula_sum   'Lu16 Tl2 Cd1 In1 Rh4'
_cell_volume   598.36339111
_cell_formula_units_Z   1
loop_
 _symmetry_equiv_pos_site_id
 _symmetry_equiv_pos_as_xyz
  1  'x, y, z'
loop_
 _atom_site_type_symbol
 _atom_site_label
 _atom_site_symmetry_multiplicity
 _atom_site_fract_x
 _atom_site_fract_y
 _atom_site_fract_z
 _atom_site_occupancy
  Lu  Lu0  1  0.597879  0.598782  0.599175  1
  Lu  Lu1  1  0.600518  0.600874  0.200660  1
  Lu  Lu2  1  0.600462  0.200526  0.601057  1
  Lu  Lu3  1  0.199411  0.602018  0.601347  1
  Lu  Lu4  1  0.058642  0.440597  0.440744  1
  Lu  Lu5  1  0.439638  0.060329  0.059979  1
  Lu  Lu6  1  0.439486  0.059023  0.441057  1
  Lu  Lu7  1  0.060882  0.439802  0.061377  1
  Lu  Lu8  1  0.439371  0.440872  0.058821  1
  Lu  Lu9  1  0.061381  0.060963  0.439841  1
  Lu  Lu10  1  0.185958  0.812895  0.813275  1
  Lu  Lu11  1  0.811118  0.189324  0.189460  1
  Lu  Lu12  1  0.812869  0.184399  0.812909  1
  Lu  Lu13  1  0.189938  0.811270  0.187792  1
  Lu  Lu14  1  0.812263  0.813062  0.184823  1
  Lu  Lu15  1  0.189799  0.188167  0.811510  1
  Tl  Tl16  1  0.835911  0.836515  0.493174  1
  Tl  Tl17  1  0.835667  0.493110  0.836645  1
  Cd  Cd18  1  0.833709  0.833502  0.833454  1
  In  In19  1  0.499526  0.834836  0.833563  1
  Rh  Rh20  1  0.390675  0.392626  0.392457  1
  Rh  Rh21  1  0.389925  0.392282  0.823030  1
  Rh  Rh22  1  0.391046  0.823679  0.391833  1
  Rh  Rh23  1  0.823926  0.390546  0.392012  1
