# generated using pymatgen
data_Hf12ReTc6Ir5
_symmetry_space_group_name_H-M   'P 1'
_cell_length_a   4.61759901
_cell_length_b   6.51571201
_cell_length_c   13.87481700
_cell_angle_alpha   90.00144367
_cell_angle_beta   90.00206221
_cell_angle_gamma   90.00624852
_symmetry_Int_Tables_number   1
_chemical_formula_structural   Hf12ReTc6Ir5
_chemical_formula_sum   'Hf12 Re1 Tc6 Ir5'
_cell_volume   417.45085751
_cell_formula_units_Z   1
loop_
 _symmetry_equiv_pos_site_id
 _symmetry_equiv_pos_as_xyz
  1  'x, y, z'
loop_
 _atom_site_type_symbol
 _atom_site_label
 _atom_site_symmetry_multiplicity
 _atom_site_fract_x
 _atom_site_fract_y
 _atom_site_fract_z
 _atom_site_occupancy
  Hf  Hf0  1  0.499916  0.253607  0.000000  1
  Hf  Hf1  1  0.500086  0.746393  0.000000  1
  Hf  Hf2  1  0.000035  0.251625  0.164643  1
  Hf  Hf3  1  0.999943  0.748376  0.164642  1
  Hf  Hf4  1  0.499955  0.250440  0.332718  1
  Hf  Hf5  1  0.500024  0.749562  0.332720  1
  Hf  Hf6  1  0.000054  0.249927  0.500001  1
  Hf  Hf7  1  0.999946  0.750073  0.499999  1
  Hf  Hf8  1  0.499975  0.250438  0.667280  1
  Hf  Hf9  1  0.500044  0.749560  0.667282  1
  Hf  Hf10  1  0.000057  0.251625  0.835358  1
  Hf  Hf11  1  0.999965  0.748376  0.835357  1
  Re  Re12  1  0.000000  0.499999  0.000000  1
  Tc  Tc13  1  0.000000  0.000000  0.000000  1
  Tc  Tc14  1  0.499988  0.500000  0.168974  1
  Tc  Tc15  1  0.000001  0.999995  0.334237  1
  Tc  Tc16  1  0.500001  0.499999  0.500000  1
  Tc  Tc17  1  0.999999  0.000005  0.665763  1
  Tc  Tc18  1  0.500012  0.499998  0.831025  1
  Ir  Ir19  1  0.500003  0.999994  0.167599  1
  Ir  Ir20  1  0.999991  0.500004  0.334204  1
  Ir  Ir21  1  0.500001  0.000000  0.500000  1
  Ir  Ir22  1  0.000009  0.499994  0.665797  1
  Ir  Ir23  1  0.499996  0.000006  0.832401  1
