# generated using pymatgen
data_V2Ni20SnB6
_symmetry_space_group_name_H-M   'P 1'
_cell_length_a   7.44374092
_cell_length_b   7.44374071
_cell_length_c   7.44374100
_cell_angle_alpha   60.00000314
_cell_angle_beta   60.00000408
_cell_angle_gamma   60.00000178
_symmetry_Int_Tables_number   1
_chemical_formula_structural   V2Ni20SnB6
_chemical_formula_sum   'V2 Ni20 Sn1 B6'
_cell_volume   291.64784455
_cell_formula_units_Z   1
loop_
 _symmetry_equiv_pos_site_id
 _symmetry_equiv_pos_as_xyz
  1  'x, y, z'
loop_
 _atom_site_type_symbol
 _atom_site_label
 _atom_site_symmetry_multiplicity
 _atom_site_fract_x
 _atom_site_fract_y
 _atom_site_fract_z
 _atom_site_occupancy
  V  V0  1  0.000000  0.000000  0.000000  1
  V  V1  1  0.250000  0.250000  0.250000  1
  Ni  Ni2  1  0.612778  0.612778  0.161664  1
  Ni  Ni3  1  0.612778  0.161664  0.612778  1
  Ni  Ni4  1  0.161664  0.612778  0.612778  1
  Ni  Ni5  1  0.612778  0.612778  0.612778  1
  Ni  Ni6  1  0.379793  0.379793  0.860622  1
  Ni  Ni7  1  0.379793  0.860622  0.379793  1
  Ni  Ni8  1  0.860622  0.379793  0.379793  1
  Ni  Ni9  1  0.379793  0.379793  0.379793  1
  Ni  Ni10  1  0.002601  0.002601  0.336404  1
  Ni  Ni11  1  0.658394  0.002601  0.336404  1
  Ni  Ni12  1  0.002601  0.658394  0.336404  1
  Ni  Ni13  1  0.658394  0.336404  0.002601  1
  Ni  Ni14  1  0.002601  0.336404  0.002601  1
  Ni  Ni15  1  0.002601  0.336404  0.658394  1
  Ni  Ni16  1  0.336404  0.658394  0.002601  1
  Ni  Ni17  1  0.336404  0.002601  0.658394  1
  Ni  Ni18  1  0.336404  0.002601  0.002601  1
  Ni  Ni19  1  0.002601  0.002601  0.658394  1
  Ni  Ni20  1  0.002601  0.658394  0.002601  1
  Ni  Ni21  1  0.658394  0.002601  0.002601  1
  Sn  Sn22  1  0.750000  0.750000  0.750000  1
  B  B23  1  0.730177  0.730177  0.269823  1
  B  B24  1  0.269823  0.730177  0.269823  1
  B  B25  1  0.730177  0.269823  0.269823  1
  B  B26  1  0.269823  0.269823  0.730177  1
  B  B27  1  0.730177  0.269823  0.730177  1
  B  B28  1  0.269823  0.730177  0.730177  1
