# generated using pymatgen
data_La14Pr2Cd4Pd3Ru
_symmetry_space_group_name_H-M   'P 1'
_cell_length_a   10.20080584
_cell_length_b   10.20080693
_cell_length_c   10.20693226
_cell_angle_alpha   59.54082008
_cell_angle_beta   59.54081479
_cell_angle_gamma   59.56379450
_symmetry_Int_Tables_number   1
_chemical_formula_structural   La14Pr2Cd4Pd3Ru
_chemical_formula_sum   'La14 Pr2 Cd4 Pd3 Ru1'
_cell_volume   743.30620798
_cell_formula_units_Z   1
loop_
 _symmetry_equiv_pos_site_id
 _symmetry_equiv_pos_as_xyz
  1  'x, y, z'
loop_
 _atom_site_type_symbol
 _atom_site_label
 _atom_site_symmetry_multiplicity
 _atom_site_fract_x
 _atom_site_fract_y
 _atom_site_fract_z
 _atom_site_occupancy
  La  La0  1  0.352247  0.352247  0.351691  1
  La  La1  1  0.346625  0.346625  0.952830  1
  La  La2  1  0.346205  0.952608  0.346570  1
  La  La3  1  0.952608  0.346205  0.346570  1
  La  La4  1  0.818396  0.189142  0.188979  1
  La  La5  1  0.191465  0.806641  0.806681  1
  La  La6  1  0.189142  0.818396  0.188979  1
  La  La7  1  0.806641  0.191465  0.806681  1
  La  La8  1  0.188899  0.188899  0.818657  1
  La  La9  1  0.806974  0.806974  0.191145  1
  La  La10  1  0.935260  0.564848  0.564825  1
  La  La11  1  0.558157  0.937186  0.936799  1
  La  La12  1  0.564848  0.935260  0.564825  1
  La  La13  1  0.937186  0.558157  0.936799  1
  Pr  Pr14  1  0.563846  0.563846  0.936326  1
  Pr  Pr15  1  0.937392  0.937392  0.558296  1
  Cd  Cd16  1  0.579460  0.579460  0.580044  1
  Cd  Cd17  1  0.579797  0.579797  0.259287  1
  Cd  Cd18  1  0.580383  0.259440  0.579741  1
  Cd  Cd19  1  0.259440  0.580383  0.579741  1
  Pd  Pd20  1  0.145085  0.145085  0.571985  1
  Pd  Pd21  1  0.145263  0.572127  0.145110  1
  Pd  Pd22  1  0.572127  0.145263  0.145110  1
  Ru  Ru23  1  0.142556  0.142556  0.142331  1
