# generated using pymatgen
data_Ir2PbF12
_symmetry_space_group_name_H-M   'P 1'
_cell_length_a   10.70702165
_cell_length_b   10.70702235
_cell_length_c   10.70702300
_cell_angle_alpha   131.70967435
_cell_angle_beta   131.70967769
_cell_angle_gamma   70.68794989
_symmetry_Int_Tables_number   1
_chemical_formula_structural   Ir2PbF12
_chemical_formula_sum   'Ir4 Pb2 F24'
_cell_volume   670.10950826
_cell_formula_units_Z   2
loop_
 _symmetry_equiv_pos_site_id
 _symmetry_equiv_pos_as_xyz
  1  'x, y, z'
loop_
 _atom_site_type_symbol
 _atom_site_label
 _atom_site_symmetry_multiplicity
 _atom_site_fract_x
 _atom_site_fract_y
 _atom_site_fract_z
 _atom_site_occupancy
  Ir  Ir0  1  0.780396  0.780396  0.000000  1
  Ir  Ir1  1  0.219604  0.219604  0.000000  1
  Ir  Ir2  1  0.969604  0.469604  0.500000  1
  Ir  Ir3  1  0.530396  0.030396  0.500000  1
  Pb  Pb4  1  0.750000  0.250000  0.500000  1
  Pb  Pb5  1  0.000000  0.000000  0.000000  1
  F  F6  1  0.854146  0.745326  0.188887  1
  F  F7  1  0.556438  0.665261  0.811113  1
  F  F8  1  0.415261  0.806438  0.311113  1
  F  F9  1  0.334739  0.145854  0.891180  1
  F  F10  1  0.254674  0.443562  0.108820  1
  F  F11  1  0.193562  0.504674  0.608820  1
  F  F12  1  0.650847  0.255137  0.679063  1
  F  F13  1  0.744863  0.423925  0.395710  1
  F  F14  1  0.028218  0.349153  0.604290  1
  F  F15  1  0.099153  0.278218  0.104290  1
  F  F16  1  0.173925  0.994863  0.895710  1
  F  F17  1  0.576075  0.971782  0.320937  1
  F  F18  1  0.721782  0.826075  0.820937  1
  F  F19  1  0.005137  0.900847  0.179063  1
  F  F20  1  0.313724  0.084181  0.336593  1
  F  F21  1  0.915819  0.252411  0.229543  1
  F  F22  1  0.022868  0.686276  0.770457  1
  F  F23  1  0.436276  0.272868  0.270457  1
  F  F24  1  0.002411  0.165819  0.729543  1
  F  F25  1  0.747589  0.977132  0.663407  1
  F  F26  1  0.727132  0.997589  0.163407  1
  F  F27  1  0.834181  0.563724  0.836593  1
  F  F28  1  0.495326  0.104146  0.688887  1
  F  F29  1  0.895854  0.584739  0.391180  1
