# generated using pymatgen
data_Ce3Y(PPt)4
_symmetry_space_group_name_H-M   'P 1'
_cell_length_a   4.17307000
_cell_length_b   4.17306982
_cell_length_c   15.80141800
_cell_angle_alpha   90.00000000
_cell_angle_beta   90.00000000
_cell_angle_gamma   119.99998558
_symmetry_Int_Tables_number   1
_chemical_formula_structural   Ce3Y(PPt)4
_chemical_formula_sum   'Ce3 Y1 P4 Pt4'
_cell_volume   238.30770111
_cell_formula_units_Z   1
loop_
 _symmetry_equiv_pos_site_id
 _symmetry_equiv_pos_as_xyz
  1  'x, y, z'
loop_
 _atom_site_type_symbol
 _atom_site_label
 _atom_site_symmetry_multiplicity
 _atom_site_fract_x
 _atom_site_fract_y
 _atom_site_fract_z
 _atom_site_occupancy
  Ce  Ce0  1  0.000000  0.000000  0.996686  1
  Ce  Ce1  1  0.000000  0.000000  0.503314  1
  Ce  Ce2  1  0.000000  0.000000  0.250000  1
  Y  Y3  1  0.000000  0.000000  0.750000  1
  P  P4  1  0.333333  0.666667  0.880412  1
  P  P5  1  0.666667  0.333333  0.377043  1
  P  P6  1  0.666667  0.333333  0.122957  1
  P  P7  1  0.333333  0.666667  0.619588  1
  Pt  Pt8  1  0.333333  0.666667  0.375261  1
  Pt  Pt9  1  0.666667  0.333333  0.862679  1
  Pt  Pt10  1  0.666667  0.333333  0.637321  1
  Pt  Pt11  1  0.333333  0.666667  0.124739  1
