# generated using pymatgen
data_Tb4Al18RuPt2Rh3
_symmetry_space_group_name_H-M   'P 1'
_cell_length_a   7.58598631
_cell_length_b   7.58598634
_cell_length_c   9.48264415
_cell_angle_alpha   89.92608170
_cell_angle_beta   89.92608327
_cell_angle_gamma   119.51399996
_symmetry_Int_Tables_number   1
_chemical_formula_structural   Tb4Al18RuPt2Rh3
_chemical_formula_sum   'Tb4 Al18 Ru1 Pt2 Rh3'
_cell_volume   474.88544640
_cell_formula_units_Z   1
loop_
 _symmetry_equiv_pos_site_id
 _symmetry_equiv_pos_as_xyz
  1  'x, y, z'
loop_
 _atom_site_type_symbol
 _atom_site_label
 _atom_site_symmetry_multiplicity
 _atom_site_fract_x
 _atom_site_fract_y
 _atom_site_fract_z
 _atom_site_occupancy
  Tb  Tb0  1  0.994738  0.670523  0.249502  1
  Tb  Tb1  1  0.005262  0.329477  0.750498  1
  Tb  Tb2  1  0.670523  0.994738  0.249502  1
  Tb  Tb3  1  0.329477  0.005262  0.750498  1
  Al  Al4  1  0.126345  0.126345  0.249960  1
  Al  Al5  1  0.873655  0.873655  0.750040  1
  Al  Al6  1  0.001328  0.329981  0.076911  1
  Al  Al7  1  0.998672  0.670019  0.923089  1
  Al  Al8  1  0.000136  0.665062  0.574597  1
  Al  Al9  1  0.334938  0.999864  0.425403  1
  Al  Al10  1  0.999864  0.334938  0.425403  1
  Al  Al11  1  0.665062  0.000136  0.574597  1
  Al  Al12  1  0.670019  0.998672  0.923089  1
  Al  Al13  1  0.329981  0.001328  0.076911  1
  Al  Al14  1  0.332352  0.332352  0.549597  1
  Al  Al15  1  0.667648  0.667648  0.450403  1
  Al  Al16  1  0.670837  0.670837  0.054163  1
  Al  Al17  1  0.329163  0.329163  0.945837  1
  Al  Al18  1  0.340987  0.547616  0.253680  1
  Al  Al19  1  0.659013  0.452384  0.746320  1
  Al  Al20  1  0.547616  0.340987  0.253680  1
  Al  Al21  1  0.452384  0.659013  0.746320  1
  Ru  Ru22  1  0.000000  0.000000  0.000000  1
  Pt  Pt23  1  0.672166  0.327834  0.000000  1
  Pt  Pt24  1  0.327834  0.672166  0.000000  1
  Rh  Rh25  1  0.328087  0.671913  0.500000  1
  Rh  Rh26  1  0.671913  0.328087  0.500000  1
  Rh  Rh27  1  0.000000  0.000000  0.500000  1
