# generated using pymatgen
data_Th2InPtRh4
_symmetry_space_group_name_H-M   'P 1'
_cell_length_a   5.80387600
_cell_length_b   5.80387576
_cell_length_c   8.57429100
_cell_angle_alpha   90.00000000
_cell_angle_beta   90.00000000
_cell_angle_gamma   97.00287913
_symmetry_Int_Tables_number   1
_chemical_formula_structural   Th2InPtRh4
_chemical_formula_sum   'Th4 In2 Pt2 Rh8'
_cell_volume   286.67015472
_cell_formula_units_Z   2
loop_
 _symmetry_equiv_pos_site_id
 _symmetry_equiv_pos_as_xyz
  1  'x, y, z'
loop_
 _atom_site_type_symbol
 _atom_site_label
 _atom_site_symmetry_multiplicity
 _atom_site_fract_x
 _atom_site_fract_y
 _atom_site_fract_z
 _atom_site_occupancy
  Th  Th0  1  0.774747  0.225253  0.500000  1
  Th  Th1  1  0.225253  0.774747  0.000000  1
  Th  Th2  1  0.225253  0.774747  0.500000  1
  Th  Th3  1  0.774747  0.225253  0.000000  1
  In  In4  1  0.501293  0.501293  0.750000  1
  In  In5  1  0.498707  0.498707  0.250000  1
  Pt  Pt6  1  0.000266  0.000266  0.250000  1
  Pt  Pt7  1  0.999734  0.999734  0.750000  1
  Rh  Rh8  1  0.731085  0.731085  0.000463  1
  Rh  Rh9  1  0.731085  0.731085  0.499537  1
  Rh  Rh10  1  0.268915  0.268915  0.999537  1
  Rh  Rh11  1  0.268915  0.268915  0.500463  1
  Rh  Rh12  1  0.499828  0.000446  0.750000  1
  Rh  Rh13  1  0.500172  0.999554  0.250000  1
  Rh  Rh14  1  0.000446  0.499828  0.750000  1
  Rh  Rh15  1  0.999554  0.500172  0.250000  1
