# generated using pymatgen
data_SrIrRh3Pb3O14
_symmetry_space_group_name_H-M   'P 1'
_cell_length_a   7.35382675
_cell_length_b   7.34097352
_cell_length_c   7.33491480
_cell_angle_alpha   60.06150672
_cell_angle_beta   59.91466828
_cell_angle_gamma   59.94206627
_symmetry_Int_Tables_number   1
_chemical_formula_structural   SrIrRh3Pb3O14
_chemical_formula_sum   'Sr1 Ir1 Rh3 Pb3 O14'
_cell_volume   279.81889430
_cell_formula_units_Z   1
loop_
 _symmetry_equiv_pos_site_id
 _symmetry_equiv_pos_as_xyz
  1  'x, y, z'
loop_
 _atom_site_type_symbol
 _atom_site_label
 _atom_site_symmetry_multiplicity
 _atom_site_fract_x
 _atom_site_fract_y
 _atom_site_fract_z
 _atom_site_occupancy
  Sr  Sr0  1  0.125000  0.125000  0.625000  1
  Ir  Ir1  1  0.625000  0.125000  0.625000  1
  Rh  Rh2  1  0.125000  0.625000  0.625000  1
  Rh  Rh3  1  0.625000  0.625000  0.125000  1
  Rh  Rh4  1  0.625000  0.625000  0.625000  1
  Pb  Pb5  1  0.625000  0.125000  0.125000  1
  Pb  Pb6  1  0.125000  0.625000  0.125000  1
  Pb  Pb7  1  0.125000  0.125000  0.125000  1
  O  O8  1  0.704222  0.708719  0.292031  1
  O  O9  1  0.303455  0.296228  0.710984  1
  O  O10  1  0.689332  0.296228  0.710984  1
  O  O11  1  0.295027  0.708719  0.292031  1
  O  O12  1  0.294711  0.697076  0.713502  1
  O  O13  1  0.704795  0.294671  0.295739  1
  O  O14  1  0.545778  0.541281  0.957969  1
  O  O15  1  0.946545  0.953772  0.539016  1
  O  O16  1  0.560668  0.953772  0.539016  1
  O  O17  1  0.954973  0.541281  0.957969  1
  O  O18  1  0.955289  0.552924  0.536498  1
  O  O19  1  0.545205  0.955329  0.954261  1
  O  O20  1  0.256649  0.254933  0.231768  1
  O  O21  1  0.993351  0.995067  0.018232  1
