# generated using pymatgen
data_Cr2B6MoW7
_symmetry_space_group_name_H-M   'P 1'
_cell_length_a   6.84844232
_cell_length_b   6.84844157
_cell_length_c   6.85250092
_cell_angle_alpha   130.31356150
_cell_angle_beta   130.31355301
_cell_angle_gamma   72.96765661
_symmetry_Int_Tables_number   1
_chemical_formula_structural   Cr2B6MoW7
_chemical_formula_sum   'Cr2 B6 Mo1 W7'
_cell_volume   182.44950106
_cell_formula_units_Z   1
loop_
 _symmetry_equiv_pos_site_id
 _symmetry_equiv_pos_as_xyz
  1  'x, y, z'
loop_
 _atom_site_type_symbol
 _atom_site_label
 _atom_site_symmetry_multiplicity
 _atom_site_fract_x
 _atom_site_fract_y
 _atom_site_fract_z
 _atom_site_occupancy
  Cr  Cr0  1  0.500263  0.499698  0.000109  1
  Cr  Cr1  1  0.999698  0.000263  0.000109  1
  B  B2  1  0.378447  0.878447  0.256610  1
  B  B3  1  0.878051  0.621484  0.499693  1
  B  B4  1  0.121484  0.378051  0.499693  1
  B  B5  1  0.622094  0.122094  0.744147  1
  B  B6  1  0.249773  0.250528  0.999923  1
  B  B7  1  0.750528  0.749773  0.999923  1
  Mo  Mo8  1  0.314162  0.814162  0.840898  1
  W  W9  1  0.685028  0.185028  0.158833  1
  W  W10  1  0.974047  0.474047  0.159675  1
  W  W11  1  0.026773  0.526773  0.840811  1
  W  W12  1  0.526251  0.685805  0.499866  1
  W  W13  1  0.185805  0.026251  0.499866  1
  W  W14  1  0.473267  0.314330  0.499921  1
  W  W15  1  0.814330  0.973267  0.499921  1
