# generated using pymatgen
data_Nd11Zn2In9Ru2
_symmetry_space_group_name_H-M   'P 1'
_cell_length_a   13.49563352
_cell_length_b   13.57078085
_cell_length_c   3.81434800
_cell_angle_alpha   90.00000000
_cell_angle_beta   90.00000000
_cell_angle_gamma   111.28329557
_symmetry_Int_Tables_number   1
_chemical_formula_structural   Nd11Zn2In9Ru2
_chemical_formula_sum   'Nd11 Zn2 In9 Ru2'
_cell_volume   650.93822888
_cell_formula_units_Z   1
loop_
 _symmetry_equiv_pos_site_id
 _symmetry_equiv_pos_as_xyz
  1  'x, y, z'
loop_
 _atom_site_type_symbol
 _atom_site_label
 _atom_site_symmetry_multiplicity
 _atom_site_fract_x
 _atom_site_fract_y
 _atom_site_fract_z
 _atom_site_occupancy
  Nd  Nd0  1  0.072776  0.416848  0.000000  1
  Nd  Nd1  1  0.927224  0.583152  0.000000  1
  Nd  Nd2  1  0.418490  0.068966  0.000000  1
  Nd  Nd3  1  0.581510  0.931034  0.000000  1
  Nd  Nd4  1  0.640706  0.386313  0.000000  1
  Nd  Nd5  1  0.359294  0.613687  0.000000  1
  Nd  Nd6  1  0.840367  0.159447  0.000000  1
  Nd  Nd7  1  0.159633  0.840553  0.000000  1
  Nd  Nd8  1  0.000000  0.000000  0.000000  1
  Nd  Nd9  1  0.302106  0.316763  0.000000  1
  Nd  Nd10  1  0.697894  0.683237  0.000000  1
  Zn  Zn11  1  0.452494  0.251292  0.500000  1
  Zn  Zn12  1  0.547506  0.748708  0.500000  1
  In  In13  1  0.836547  0.366710  0.500000  1
  In  In14  1  0.163453  0.633290  0.500000  1
  In  In15  1  0.367585  0.837146  0.500000  1
  In  In16  1  0.632415  0.162854  0.500000  1
  In  In17  1  0.079216  0.221457  0.500000  1
  In  In18  1  0.920784  0.778543  0.500000  1
  In  In19  1  0.219248  0.073884  0.500000  1
  In  In20  1  0.780752  0.926116  0.500000  1
  In  In21  1  0.500000  0.500000  0.500000  1
  Ru  Ru22  1  0.237738  0.446293  0.500000  1
  Ru  Ru23  1  0.762262  0.553707  0.500000  1
