# generated using pymatgen
data_Tm2Tc2B4Ru3
_symmetry_space_group_name_H-M   'P 1'
_cell_length_a   3.08373500
_cell_length_b   8.72530303
_cell_length_c   10.14121401
_cell_angle_alpha   89.99312954
_cell_angle_beta   90.00000000
_cell_angle_gamma   90.00000000
_symmetry_Int_Tables_number   1
_chemical_formula_structural   Tm2Tc2B4Ru3
_chemical_formula_sum   'Tm4 Tc4 B8 Ru6'
_cell_volume   272.86479924
_cell_formula_units_Z   2
loop_
 _symmetry_equiv_pos_site_id
 _symmetry_equiv_pos_as_xyz
  1  'x, y, z'
loop_
 _atom_site_type_symbol
 _atom_site_label
 _atom_site_symmetry_multiplicity
 _atom_site_fract_x
 _atom_site_fract_y
 _atom_site_fract_z
 _atom_site_occupancy
  Tm  Tm0  1  0.500000  0.839131  0.182164  1
  Tm  Tm1  1  0.500000  0.160869  0.817836  1
  Tm  Tm2  1  0.500000  0.660547  0.682427  1
  Tm  Tm3  1  0.500000  0.339453  0.317573  1
  Tc  Tc4  1  0.000000  0.658987  0.953698  1
  Tc  Tc5  1  0.000000  0.341013  0.046302  1
  Tc  Tc6  1  0.000000  0.840894  0.453732  1
  Tc  Tc7  1  0.000000  0.159106  0.546268  1
  B  B8  1  0.500000  0.966873  0.586939  1
  B  B9  1  0.500000  0.033127  0.413061  1
  B  B10  1  0.500000  0.848884  0.901973  1
  B  B11  1  0.500000  0.151116  0.098027  1
  B  B12  1  0.500000  0.650950  0.401976  1
  B  B13  1  0.500000  0.349050  0.598024  1
  B  B14  1  0.500000  0.466876  0.913079  1
  B  B15  1  0.500000  0.533124  0.086921  1
  Ru  Ru16  1  0.000000  0.000000  0.000000  1
  Ru  Ru17  1  0.000000  0.407741  0.760440  1
  Ru  Ru18  1  0.000000  0.592259  0.239560  1
  Ru  Ru19  1  0.000000  0.500000  0.500000  1
  Ru  Ru20  1  0.000000  0.907787  0.739568  1
  Ru  Ru21  1  0.000000  0.092213  0.260432  1
