# generated using pymatgen
data_Sr6NbV3S16
_symmetry_space_group_name_H-M   'P 1'
_cell_length_a   10.68094353
_cell_length_b   10.68094309
_cell_length_c   10.68094400
_cell_angle_alpha   51.64257020
_cell_angle_beta   51.64256521
_cell_angle_gamma   51.64257112
_symmetry_Int_Tables_number   1
_chemical_formula_structural   Sr6NbV3S16
_chemical_formula_sum   'Sr6 Nb1 V3 S16'
_cell_volume   692.14874829
_cell_formula_units_Z   1
loop_
 _symmetry_equiv_pos_site_id
 _symmetry_equiv_pos_as_xyz
  1  'x, y, z'
loop_
 _atom_site_type_symbol
 _atom_site_label
 _atom_site_symmetry_multiplicity
 _atom_site_fract_x
 _atom_site_fract_y
 _atom_site_fract_z
 _atom_site_occupancy
  Sr  Sr0  1  0.744245  0.433747  0.070265  1
  Sr  Sr1  1  0.576208  0.926605  0.249367  1
  Sr  Sr2  1  0.070265  0.744245  0.433748  1
  Sr  Sr3  1  0.926606  0.249367  0.576208  1
  Sr  Sr4  1  0.433748  0.070266  0.744244  1
  Sr  Sr5  1  0.249367  0.576208  0.926606  1
  Nb  Nb6  1  0.159644  0.159644  0.159644  1
  V  V7  1  0.340213  0.340213  0.340213  1
  V  V8  1  0.659958  0.659958  0.659958  1
  V  V9  1  0.839933  0.839933  0.839933  1
  S  S10  1  0.610847  0.786573  0.043751  1
  S  S11  1  0.076557  0.076557  0.076557  1
  S  S12  1  0.546314  0.281544  0.114480  1
  S  S13  1  0.939563  0.397237  0.225301  1
  S  S14  1  0.114480  0.546313  0.281544  1
  S  S15  1  0.225300  0.939564  0.397237  1
  S  S16  1  0.418813  0.418813  0.418813  1
  S  S17  1  0.717849  0.886414  0.454332  1
  S  S18  1  0.281544  0.114480  0.546314  1
  S  S19  1  0.581608  0.581608  0.581608  1
  S  S20  1  0.786573  0.043751  0.610847  1
  S  S21  1  0.886414  0.454333  0.717849  1
  S  S22  1  0.043751  0.610847  0.786573  1
  S  S23  1  0.454333  0.717849  0.886414  1
  S  S24  1  0.918624  0.918624  0.918624  1
  S  S25  1  0.397238  0.225300  0.939563  1
