# generated using pymatgen
data_Lu2GaCu2Ru
_symmetry_space_group_name_H-M   'P 1'
_cell_length_a   5.38568866
_cell_length_b   5.10511970
_cell_length_c   5.10511905
_cell_angle_alpha   118.57240097
_cell_angle_beta   120.60044940
_cell_angle_gamma   89.16937188
_symmetry_Int_Tables_number   1
_chemical_formula_structural   Lu2GaCu2Ru
_chemical_formula_sum   'Lu2 Ga1 Cu2 Ru1'
_cell_volume   101.11772682
_cell_formula_units_Z   1
loop_
 _symmetry_equiv_pos_site_id
 _symmetry_equiv_pos_as_xyz
  1  'x, y, z'
loop_
 _atom_site_type_symbol
 _atom_site_label
 _atom_site_symmetry_multiplicity
 _atom_site_fract_x
 _atom_site_fract_y
 _atom_site_fract_z
 _atom_site_occupancy
  Lu  Lu0  1  0.120374  0.870842  0.249533  1
  Lu  Lu1  1  0.879626  0.129158  0.750467  1
  Ga  Ga2  1  0.500000  0.500000  0.000000  1
  Cu  Cu3  1  0.500000  0.000000  0.000000  1
  Cu  Cu4  1  0.500000  0.500000  0.500000  1
  Ru  Ru5  1  0.000000  0.500000  0.500000  1
