# generated using pymatgen
data_Tb2SiNi12AsP5
_symmetry_space_group_name_H-M   'P 1'
_cell_length_a   9.09341284
_cell_length_b   9.07251899
_cell_length_c   3.69371000
_cell_angle_alpha   90.00000000
_cell_angle_beta   90.00000000
_cell_angle_gamma   119.81388434
_symmetry_Int_Tables_number   1
_chemical_formula_structural   Tb2SiNi12AsP5
_chemical_formula_sum   'Tb2 Si1 Ni12 As1 P5'
_cell_volume   264.39890783
_cell_formula_units_Z   1
loop_
 _symmetry_equiv_pos_site_id
 _symmetry_equiv_pos_as_xyz
  1  'x, y, z'
loop_
 _atom_site_type_symbol
 _atom_site_label
 _atom_site_symmetry_multiplicity
 _atom_site_fract_x
 _atom_site_fract_y
 _atom_site_fract_z
 _atom_site_occupancy
  Tb  Tb0  1  0.666803  0.333257  0.000000  1
  Tb  Tb1  1  0.994845  0.994036  0.500000  1
  Si  Si2  1  0.333477  0.668292  0.000000  1
  Ni  Ni3  1  0.712360  0.094084  0.500000  1
  Ni  Ni4  1  0.904688  0.616831  0.500000  1
  Ni  Ni5  1  0.392879  0.290628  0.500000  1
  Ni  Ni6  1  0.771950  0.727358  0.000000  1
  Ni  Ni7  1  0.271728  0.032366  0.000000  1
  Ni  Ni8  1  0.942286  0.226757  0.000000  1
  Ni  Ni9  1  0.545186  0.758608  0.500000  1
  Ni  Ni10  1  0.242732  0.787627  0.500000  1
  Ni  Ni11  1  0.216646  0.467540  0.500000  1
  Ni  Ni12  1  0.490685  0.948220  0.000000  1
  Ni  Ni13  1  0.051427  0.539207  0.000000  1
  Ni  Ni14  1  0.467067  0.519659  0.000000  1
  As  As15  1  0.216380  0.262906  0.000000  1
  P  P16  1  0.442410  0.070716  0.500000  1
  P  P17  1  0.929023  0.370417  0.500000  1
  P  P18  1  0.631410  0.559885  0.500000  1
  P  P19  1  0.734781  0.954363  0.000000  1
  P  P20  1  0.041237  0.777246  0.000000  1
