# generated using pymatgen
data_NaB9O
_symmetry_space_group_name_H-M   'P 1'
_cell_length_a   5.48106848
_cell_length_b   5.48106851
_cell_length_c   7.53456384
_cell_angle_alpha   111.32958598
_cell_angle_beta   68.67039458
_cell_angle_gamma   120.00163750
_symmetry_Int_Tables_number   1
_chemical_formula_structural   NaB9O
_chemical_formula_sum   'Na2 B18 O2'
_cell_volume   177.89777834
_cell_formula_units_Z   2
loop_
 _symmetry_equiv_pos_site_id
 _symmetry_equiv_pos_as_xyz
  1  'x, y, z'
loop_
 _atom_site_type_symbol
 _atom_site_label
 _atom_site_symmetry_multiplicity
 _atom_site_fract_x
 _atom_site_fract_y
 _atom_site_fract_z
 _atom_site_occupancy
  Na  Na0  1  0.303157  0.696842  0.090520  1
  Na  Na1  1  0.696842  0.303158  0.909480  1
  B  B2  1  0.174261  0.140315  0.106398  1
  B  B3  1  0.859682  0.140319  0.106381  1
  B  B4  1  0.859685  0.825740  0.106398  1
  B  B5  1  0.349490  0.321972  0.294454  1
  B  B6  1  0.678027  0.321973  0.294448  1
  B  B7  1  0.678028  0.650510  0.294455  1
  B  B8  1  0.341653  0.138392  0.455080  1
  B  B9  1  0.341659  0.658341  0.455086  1
  B  B10  1  0.861609  0.658347  0.455080  1
  B  B11  1  0.138391  0.341653  0.544921  1
  B  B12  1  0.658341  0.341658  0.544914  1
  B  B13  1  0.658347  0.861608  0.544921  1
  B  B14  1  0.321972  0.349490  0.705546  1
  B  B15  1  0.321973  0.678027  0.705552  1
  B  B16  1  0.650510  0.678028  0.705546  1
  B  B17  1  0.140315  0.174261  0.893602  1
  B  B18  1  0.140318  0.859682  0.893619  1
  B  B19  1  0.825739  0.859685  0.893602  1
  O  O20  1  0.191828  0.808172  0.424541  1
  O  O21  1  0.808172  0.191828  0.575459  1
