# generated using pymatgen
data_Tb3DyBeCo3I2
_symmetry_space_group_name_H-M   'P 1'
_cell_length_a   3.94603300
_cell_length_b   3.94603340
_cell_length_c   17.02661400
_cell_angle_alpha   90.00000000
_cell_angle_beta   90.00000000
_cell_angle_gamma   120.00000500
_symmetry_Int_Tables_number   1
_chemical_formula_structural   Tb3DyBeCo3I2
_chemical_formula_sum   'Tb3 Dy1 Be1 Co3 I2'
_cell_volume   229.60448679
_cell_formula_units_Z   1
loop_
 _symmetry_equiv_pos_site_id
 _symmetry_equiv_pos_as_xyz
  1  'x, y, z'
loop_
 _atom_site_type_symbol
 _atom_site_label
 _atom_site_symmetry_multiplicity
 _atom_site_fract_x
 _atom_site_fract_y
 _atom_site_fract_z
 _atom_site_occupancy
  Tb  Tb0  1  0.000000  0.000000  0.103914  1
  Tb  Tb1  1  0.000000  0.000000  0.896077  1
  Tb  Tb2  1  0.000000  0.000000  0.601045  1
  Dy  Dy3  1  0.000000  0.000000  0.399616  1
  Be  Be4  1  0.333333  0.666667  0.500104  1
  Co  Co5  1  0.666667  0.333333  0.498551  1
  Co  Co6  1  0.666667  0.333333  0.001866  1
  Co  Co7  1  0.333333  0.666667  0.998410  1
  I  I8  1  0.333333  0.666667  0.250619  1
  I  I9  1  0.666667  0.333333  0.749798  1
