# generated using pymatgen
data_Ce3BeCdS7
_symmetry_space_group_name_H-M   'P 1'
_cell_length_a   9.96897936
_cell_length_b   9.96688951
_cell_length_c   5.99133862
_cell_angle_alpha   90.04285775
_cell_angle_beta   90.00403437
_cell_angle_gamma   119.97590541
_symmetry_Int_Tables_number   1
_chemical_formula_structural   Ce3BeCdS7
_chemical_formula_sum   'Ce6 Be2 Cd2 S14'
_cell_volume   515.66784590
_cell_formula_units_Z   2
loop_
 _symmetry_equiv_pos_site_id
 _symmetry_equiv_pos_as_xyz
  1  'x, y, z'
loop_
 _atom_site_type_symbol
 _atom_site_label
 _atom_site_symmetry_multiplicity
 _atom_site_fract_x
 _atom_site_fract_y
 _atom_site_fract_z
 _atom_site_occupancy
  Ce  Ce0  1  0.146242  0.385186  0.231670  1
  Ce  Ce1  1  0.239070  0.854007  0.231637  1
  Ce  Ce2  1  0.614482  0.761388  0.231220  1
  Ce  Ce3  1  0.854304  0.614961  0.731476  1
  Ce  Ce4  1  0.760377  0.145507  0.731385  1
  Ce  Ce5  1  0.384705  0.238058  0.731745  1
  Be  Be6  1  0.666613  0.333004  0.138914  1
  Be  Be7  1  0.333606  0.667121  0.638903  1
  Cd  Cd8  1  0.000074  0.999813  0.010593  1
  Cd  Cd9  1  0.000179  0.999790  0.510595  1
  S  S10  1  0.582862  0.475443  0.005499  1
  S  S11  1  0.892394  0.416832  0.005285  1
  S  S12  1  0.524725  0.106689  0.005590  1
  S  S13  1  0.333429  0.667106  0.995946  1
  S  S14  1  0.258501  0.157340  0.275115  1
  S  S15  1  0.842399  0.101051  0.275639  1
  S  S16  1  0.899412  0.741892  0.274593  1
  S  S17  1  0.417004  0.524950  0.505366  1
  S  S18  1  0.107622  0.583343  0.505467  1
  S  S19  1  0.475508  0.893262  0.506266  1
  S  S20  1  0.666630  0.332909  0.496009  1
  S  S21  1  0.741318  0.842953  0.774984  1
  S  S22  1  0.100654  0.258287  0.775222  1
  S  S23  1  0.157888  0.899111  0.774875  1
