# generated using pymatgen
data_CaLaTh2(InRh)4
_symmetry_space_group_name_H-M   'P 1'
_cell_length_a   4.26761600
_cell_length_b   7.41612042
_cell_length_c   8.76069934
_cell_angle_alpha   89.12305021
_cell_angle_beta   90.00000000
_cell_angle_gamma   90.00000000
_symmetry_Int_Tables_number   1
_chemical_formula_structural   CaLaTh2(InRh)4
_chemical_formula_sum   'Ca1 La1 Th2 In4 Rh4'
_cell_volume   277.23624739
_cell_formula_units_Z   1
loop_
 _symmetry_equiv_pos_site_id
 _symmetry_equiv_pos_as_xyz
  1  'x, y, z'
loop_
 _atom_site_type_symbol
 _atom_site_label
 _atom_site_symmetry_multiplicity
 _atom_site_fract_x
 _atom_site_fract_y
 _atom_site_fract_z
 _atom_site_occupancy
  Ca  Ca0  1  0.250000  0.538939  0.181885  1
  La  La1  1  0.750000  0.464344  0.825238  1
  Th  Th2  1  0.750000  0.961191  0.678334  1
  Th  Th3  1  0.250000  0.043528  0.319795  1
  In  In4  1  0.750000  0.850573  0.060596  1
  In  In5  1  0.250000  0.138943  0.943844  1
  In  In6  1  0.750000  0.370343  0.437141  1
  In  In7  1  0.250000  0.633473  0.553064  1
  Rh  Rh8  1  0.750000  0.777634  0.381698  1
  Rh  Rh9  1  0.250000  0.228210  0.625307  1
  Rh  Rh10  1  0.750000  0.230004  0.142579  1
  Rh  Rh11  1  0.250000  0.762818  0.850519  1
