# generated using pymatgen
data_TbDy11InCo4Cu
_symmetry_space_group_name_H-M   'P 1'
_cell_length_a   8.31764952
_cell_length_b   8.31154299
_cell_length_c   8.31155044
_cell_angle_alpha   111.12981086
_cell_angle_beta   110.59628792
_cell_angle_gamma   106.69448467
_symmetry_Int_Tables_number   1
_chemical_formula_structural   TbDy11InCo4Cu
_chemical_formula_sum   'Tb1 Dy11 In1 Co4 Cu1'
_cell_volume   441.70210732
_cell_formula_units_Z   1
loop_
 _symmetry_equiv_pos_site_id
 _symmetry_equiv_pos_as_xyz
  1  'x, y, z'
loop_
 _atom_site_type_symbol
 _atom_site_label
 _atom_site_symmetry_multiplicity
 _atom_site_fract_x
 _atom_site_fract_y
 _atom_site_fract_z
 _atom_site_occupancy
  Tb  Tb0  1  0.415772  0.217386  0.198386  1
  Dy  Dy1  1  0.583429  0.782418  0.801011  1
  Dy  Dy2  1  0.018583  0.217702  0.800881  1
  Dy  Dy3  1  0.981100  0.782426  0.198675  1
  Dy  Dy4  1  0.185187  0.291230  0.476603  1
  Dy  Dy5  1  0.815129  0.709281  0.523980  1
  Dy  Dy6  1  0.185187  0.708584  0.893957  1
  Dy  Dy7  1  0.815130  0.291149  0.105848  1
  Dy  Dy8  1  0.316232  0.621842  0.305031  1
  Dy  Dy9  1  0.683967  0.378768  0.695062  1
  Dy  Dy10  1  0.316232  0.011201  0.694390  1
  Dy  Dy11  1  0.683967  0.988905  0.305200  1
  In  In12  1  0.500234  0.500368  0.999865  1
  Co  Co13  1  0.375336  0.999853  0.375484  1
  Co  Co14  1  0.625362  0.000231  0.625130  1
  Co  Co15  1  0.112347  0.612517  0.499830  1
  Co  Co16  1  0.888362  0.387626  0.500735  1
  Cu  Cu17  1  0.998445  0.998513  0.999933  1
