# generated using pymatgen
data_Tm3Pa(GaCu5)4
_symmetry_space_group_name_H-M   'P 1'
_cell_length_a   4.97962900
_cell_length_b   8.01152462
_cell_length_c   10.15609649
_cell_angle_alpha   89.99373975
_cell_angle_beta   90.00000000
_cell_angle_gamma   90.00000000
_symmetry_Int_Tables_number   1
_chemical_formula_structural   Tm3Pa(GaCu5)4
_chemical_formula_sum   'Tm3 Pa1 Ga4 Cu20'
_cell_volume   405.17158003
_cell_formula_units_Z   1
loop_
 _symmetry_equiv_pos_site_id
 _symmetry_equiv_pos_as_xyz
  1  'x, y, z'
loop_
 _atom_site_type_symbol
 _atom_site_label
 _atom_site_symmetry_multiplicity
 _atom_site_fract_x
 _atom_site_fract_y
 _atom_site_fract_z
 _atom_site_occupancy
  Tm  Tm0  1  0.750000  0.243937  0.936515  1
  Tm  Tm1  1  0.750000  0.744141  0.560852  1
  Tm  Tm2  1  0.250000  0.255635  0.440381  1
  Pa  Pa3  1  0.250000  0.756204  0.060979  1
  Ga  Ga4  1  0.250000  0.643492  0.357366  1
  Ga  Ga5  1  0.750000  0.356321  0.644216  1
  Ga  Ga6  1  0.750000  0.855445  0.854547  1
  Ga  Ga7  1  0.250000  0.146598  0.144009  1
  Cu  Cu8  1  0.250000  0.818393  0.755331  1
  Cu  Cu9  1  0.750000  0.182030  0.247984  1
  Cu  Cu10  1  0.750000  0.683585  0.251694  1
  Cu  Cu11  1  0.250000  0.318303  0.745704  1
  Cu  Cu12  1  0.505815  0.565985  0.807395  1
  Cu  Cu13  1  0.494297  0.432560  0.194419  1
  Cu  Cu14  1  0.494374  0.934279  0.305722  1
  Cu  Cu15  1  0.005703  0.432560  0.194419  1
  Cu  Cu16  1  0.504971  0.066154  0.692777  1
  Cu  Cu17  1  0.994185  0.565985  0.807395  1
  Cu  Cu18  1  0.995029  0.066154  0.692777  1
  Cu  Cu19  1  0.005626  0.934279  0.305722  1
  Cu  Cu20  1  0.250000  0.906688  0.515923  1
  Cu  Cu21  1  0.750000  0.091891  0.483926  1
  Cu  Cu22  1  0.750000  0.587765  0.017237  1
  Cu  Cu23  1  0.250000  0.406373  0.983124  1
  Cu  Cu24  1  0.250000  0.564865  0.590374  1
  Cu  Cu25  1  0.750000  0.437392  0.410564  1
  Cu  Cu26  1  0.750000  0.937477  0.089101  1
  Cu  Cu27  1  0.250000  0.065509  0.909547  1
