# generated using pymatgen
data_Dy2HoHf(Al8Pt3)3
_symmetry_space_group_name_H-M   'P 1'
_cell_length_a   7.51726729
_cell_length_b   7.52472682
_cell_length_c   13.09136404
_cell_angle_alpha   84.55478570
_cell_angle_beta   79.04167145
_cell_angle_gamma   59.89544928
_symmetry_Int_Tables_number   1
_chemical_formula_structural   Dy2HoHf(Al8Pt3)3
_chemical_formula_sum   'Dy2 Ho1 Hf1 Al24 Pt9'
_cell_volume   628.94917383
_cell_formula_units_Z   1
loop_
 _symmetry_equiv_pos_site_id
 _symmetry_equiv_pos_as_xyz
  1  'x, y, z'
loop_
 _atom_site_type_symbol
 _atom_site_label
 _atom_site_symmetry_multiplicity
 _atom_site_fract_x
 _atom_site_fract_y
 _atom_site_fract_z
 _atom_site_occupancy
  Dy  Dy0  1  0.606428  0.831887  0.191877  1
  Dy  Dy1  1  0.733897  0.498631  0.807707  1
  Ho  Ho2  1  0.266595  0.501187  0.192113  1
  Hf  Hf3  1  0.393757  0.168409  0.807503  1
  Al  Al4  1  0.681406  0.836919  0.941244  1
  Al  Al5  1  0.316659  0.166477  0.053970  1
  Al  Al6  1  0.146319  0.832805  0.562659  1
  Al  Al7  1  0.853237  0.167171  0.438165  1
  Al  Al8  1  0.479910  0.166755  0.560525  1
  Al  Al9  1  0.519415  0.833911  0.441247  1
  Al  Al10  1  0.217384  0.165480  0.329708  1
  Al  Al11  1  0.779684  0.836432  0.673441  1
  Al  Al12  1  0.435763  0.504884  0.673749  1
  Al  Al13  1  0.562627  0.493556  0.329120  1
  Al  Al14  1  0.110543  0.159565  0.672674  1
  Al  Al15  1  0.890465  0.839849  0.330340  1
  Al  Al16  1  0.354190  0.495889  0.941305  1
  Al  Al17  1  0.647480  0.500282  0.055532  1
  Al  Al18  1  0.019557  0.168097  0.949566  1
  Al  Al19  1  0.984566  0.832475  0.046903  1
  Al  Al20  1  0.186876  0.499174  0.441342  1
  Al  Al21  1  0.813617  0.500330  0.559224  1
  Al  Al22  1  0.733902  0.163974  0.183397  1
  Al  Al23  1  0.265648  0.841981  0.816556  1
  Al  Al24  1  0.066673  0.626205  0.815243  1
  Al  Al25  1  0.939174  0.368404  0.184425  1
  Al  Al26  1  0.850278  0.041239  0.815802  1
  Al  Al27  1  0.144676  0.958626  0.183783  1
  Pt  Pt28  1  0.120545  0.489872  0.639864  1
  Pt  Pt29  1  0.879359  0.508589  0.361448  1
  Pt  Pt30  1  0.657230  0.171802  0.998790  1
  Pt  Pt31  1  0.343684  0.828025  0.999309  1
  Pt  Pt32  1  0.537485  0.166742  0.361517  1
  Pt  Pt33  1  0.462959  0.833632  0.639703  1
  Pt  Pt34  1  0.776976  0.176188  0.638316  1
  Pt  Pt35  1  0.221052  0.824554  0.363024  1
  Pt  Pt36  1  0.999980  0.500007  0.998910  1
