# generated using pymatgen
data_CrOs4RhO12
_symmetry_space_group_name_H-M   'P 1'
_cell_length_a   6.45096174
_cell_length_b   6.45187021
_cell_length_c   10.52454937
_cell_angle_alpha   72.14926451
_cell_angle_beta   72.15258423
_cell_angle_gamma   90.00018812
_symmetry_Int_Tables_number   1
_chemical_formula_structural   CrOs4RhO12
_chemical_formula_sum   'Cr2 Os8 Rh2 O24'
_cell_volume   394.74698188
_cell_formula_units_Z   2
loop_
 _symmetry_equiv_pos_site_id
 _symmetry_equiv_pos_as_xyz
  1  'x, y, z'
loop_
 _atom_site_type_symbol
 _atom_site_label
 _atom_site_symmetry_multiplicity
 _atom_site_fract_x
 _atom_site_fract_y
 _atom_site_fract_z
 _atom_site_occupancy
  Cr  Cr0  1  0.916757  0.416610  0.166723  1
  Cr  Cr1  1  0.666727  0.666466  0.666580  1
  Os  Os2  1  0.249916  0.749908  0.500224  1
  Os  Os3  1  0.750927  0.250934  0.498211  1
  Os  Os4  1  0.082362  0.582351  0.835344  1
  Os  Os5  1  0.583573  0.083509  0.832912  1
  Os  Os6  1  0.500946  0.500915  0.998211  1
  Os  Os7  1  0.999867  0.999853  0.000241  1
  Os  Os8  1  0.333616  0.333615  0.332838  1
  Os  Os9  1  0.832166  0.832313  0.335425  1
  Rh  Rh10  1  0.416584  0.916704  0.166749  1
  Rh  Rh11  1  0.166587  0.166682  0.666717  1
  O  O12  1  0.732452  0.916242  0.167544  1
  O  O13  1  0.230144  0.417086  0.165909  1
  O  O14  1  0.100037  0.916223  0.167539  1
  O  O15  1  0.604013  0.417087  0.165905  1
  O  O16  1  0.166210  0.850095  0.667495  1
  O  O17  1  0.667061  0.354003  0.665883  1
  O  O18  1  0.166240  0.482441  0.667485  1
  O  O19  1  0.667073  0.980138  0.665864  1
  O  O20  1  0.554395  0.751269  0.497446  1
  O  O21  1  0.053847  0.252558  0.494937  1
  O  O22  1  0.384112  0.581908  0.836069  1
  O  O23  1  0.882975  0.080942  0.838067  1
  O  O24  1  0.948041  0.751243  0.497471  1
  O  O25  1  0.451139  0.252556  0.494948  1
  O  O26  1  0.779847  0.581920  0.836038  1
  O  O27  1  0.278973  0.080926  0.838082  1
  O  O28  1  0.330938  0.028891  0.338057  1
  O  O29  1  0.831965  0.529937  0.336020  1
  O  O30  1  0.001247  0.698090  0.997505  1
  O  O31  1  0.502549  0.201144  0.994988  1
  O  O32  1  0.001231  0.304382  0.997560  1
  O  O33  1  0.502541  0.803795  0.994994  1
  O  O34  1  0.330945  0.633113  0.338060  1
  O  O35  1  0.831998  0.134160  0.335961  1
