# generated using pymatgen
data_Yb3Th(PbAu2)2
_symmetry_space_group_name_H-M   'P 1'
_cell_length_a   8.22432365
_cell_length_b   8.22432365
_cell_length_c   3.72682200
_cell_angle_alpha   90.00000000
_cell_angle_beta   90.00000000
_cell_angle_gamma   89.70287311
_symmetry_Int_Tables_number   1
_chemical_formula_structural   Yb3Th(PbAu2)2
_chemical_formula_sum   'Yb3 Th1 Pb2 Au4'
_cell_volume   252.07698504
_cell_formula_units_Z   1
loop_
 _symmetry_equiv_pos_site_id
 _symmetry_equiv_pos_as_xyz
  1  'x, y, z'
loop_
 _atom_site_type_symbol
 _atom_site_label
 _atom_site_symmetry_multiplicity
 _atom_site_fract_x
 _atom_site_fract_y
 _atom_site_fract_z
 _atom_site_occupancy
  Yb  Yb0  1  0.673292  0.173292  0.000000  1
  Yb  Yb1  1  0.827164  0.670270  0.000000  1
  Yb  Yb2  1  0.170270  0.327164  0.000000  1
  Th  Th3  1  0.328186  0.828186  0.000000  1
  Pb  Pb4  1  0.993811  0.003082  0.500000  1
  Pb  Pb5  1  0.503082  0.493811  0.500000  1
  Au  Au6  1  0.377549  0.129478  0.500000  1
  Au  Au7  1  0.629478  0.877549  0.500000  1
  Au  Au8  1  0.876042  0.376042  0.500000  1
  Au  Au9  1  0.121126  0.621126  0.500000  1
