# generated using pymatgen
data_Ce2Al9OsRh2
_symmetry_space_group_name_H-M   'P 1'
_cell_length_a   7.60003241
_cell_length_b   7.60003302
_cell_length_c   9.45816100
_cell_angle_alpha   90.00000000
_cell_angle_beta   90.00000000
_cell_angle_gamma   118.70552329
_symmetry_Int_Tables_number   1
_chemical_formula_structural   Ce2Al9OsRh2
_chemical_formula_sum   'Ce4 Al18 Os2 Rh4'
_cell_volume   479.16674578
_cell_formula_units_Z   2
loop_
 _symmetry_equiv_pos_site_id
 _symmetry_equiv_pos_as_xyz
  1  'x, y, z'
loop_
 _atom_site_type_symbol
 _atom_site_label
 _atom_site_symmetry_multiplicity
 _atom_site_fract_x
 _atom_site_fract_y
 _atom_site_fract_z
 _atom_site_occupancy
  Ce  Ce0  1  0.995428  0.681912  0.250000  1
  Ce  Ce1  1  0.004572  0.318088  0.750000  1
  Ce  Ce2  1  0.681912  0.995428  0.250000  1
  Ce  Ce3  1  0.318088  0.004572  0.750000  1
  Al  Al4  1  0.003682  0.339515  0.077559  1
  Al  Al5  1  0.996318  0.660485  0.922441  1
  Al  Al6  1  0.996318  0.660485  0.577559  1
  Al  Al7  1  0.339515  0.003682  0.422441  1
  Al  Al8  1  0.003682  0.339515  0.422441  1
  Al  Al9  1  0.660485  0.996318  0.577559  1
  Al  Al10  1  0.660485  0.996318  0.922441  1
  Al  Al11  1  0.339515  0.003682  0.077559  1
  Al  Al12  1  0.333244  0.333244  0.544498  1
  Al  Al13  1  0.666756  0.666756  0.455502  1
  Al  Al14  1  0.666756  0.666756  0.044498  1
  Al  Al15  1  0.333244  0.333244  0.955502  1
  Al  Al16  1  0.137100  0.137100  0.250000  1
  Al  Al17  1  0.862900  0.862900  0.750000  1
  Al  Al18  1  0.344777  0.554804  0.250000  1
  Al  Al19  1  0.655223  0.445196  0.750000  1
  Al  Al20  1  0.554804  0.344777  0.250000  1
  Al  Al21  1  0.445196  0.655223  0.750000  1
  Os  Os22  1  0.000000  0.000000  0.000000  1
  Os  Os23  1  0.000000  0.000000  0.500000  1
  Rh  Rh24  1  0.671624  0.328376  0.000000  1
  Rh  Rh25  1  0.328376  0.671624  0.000000  1
  Rh  Rh26  1  0.328376  0.671624  0.500000  1
  Rh  Rh27  1  0.671624  0.328376  0.500000  1
