# generated using pymatgen
data_Tm6Co16Si11PRu2
_symmetry_space_group_name_H-M   'P 1'
_cell_length_a   3.77256400
_cell_length_b   10.63547429
_cell_length_c   12.34533035
_cell_angle_alpha   89.97296527
_cell_angle_beta   90.00000000
_cell_angle_gamma   90.00000000
_symmetry_Int_Tables_number   1
_chemical_formula_structural   Tm6Co16Si11PRu2
_chemical_formula_sum   'Tm6 Co16 Si11 P1 Ru2'
_cell_volume   495.33172623
_cell_formula_units_Z   1
loop_
 _symmetry_equiv_pos_site_id
 _symmetry_equiv_pos_as_xyz
  1  'x, y, z'
loop_
 _atom_site_type_symbol
 _atom_site_label
 _atom_site_symmetry_multiplicity
 _atom_site_fract_x
 _atom_site_fract_y
 _atom_site_fract_z
 _atom_site_occupancy
  Tm  Tm0  1  0.000000  0.499745  0.526718  1
  Tm  Tm1  1  0.500000  0.000248  0.472613  1
  Tm  Tm2  1  0.500000  0.817617  0.205014  1
  Tm  Tm3  1  0.500000  0.184483  0.203751  1
  Tm  Tm4  1  0.000000  0.682426  0.795897  1
  Tm  Tm5  1  0.000000  0.317585  0.793880  1
  Co  Co6  1  0.500000  0.499705  0.696673  1
  Co  Co7  1  0.000000  0.000241  0.304152  1
  Co  Co8  1  0.000000  0.495692  0.984947  1
  Co  Co9  1  0.500000  0.001311  0.019273  1
  Co  Co10  1  0.500000  0.329939  0.994939  1
  Co  Co11  1  0.500000  0.668645  0.992101  1
  Co  Co12  1  0.000000  0.171895  0.009865  1
  Co  Co13  1  0.000000  0.830661  0.008267  1
  Co  Co14  1  0.500000  0.301413  0.428980  1
  Co  Co15  1  0.500000  0.698990  0.430567  1
  Co  Co16  1  0.000000  0.199351  0.568552  1
  Co  Co17  1  0.000000  0.800889  0.569557  1
  Co  Co18  1  0.500000  0.881637  0.706562  1
  Co  Co19  1  0.500000  0.119099  0.706124  1
  Co  Co20  1  0.000000  0.618009  0.293447  1
  Co  Co21  1  0.000000  0.380333  0.287661  1
  Si  Si22  1  0.500000  0.499126  0.882061  1
  Si  Si23  1  0.000000  0.000053  0.119301  1
  Si  Si24  1  0.500000  0.500077  0.343525  1
  Si  Si25  1  0.000000  0.000174  0.656904  1
  Si  Si26  1  0.500000  0.305201  0.613460  1
  Si  Si27  1  0.500000  0.695016  0.614702  1
  Si  Si28  1  0.000000  0.195745  0.384271  1
  Si  Si29  1  0.000000  0.804645  0.385397  1
  Si  Si30  1  0.500000  0.850930  0.894099  1
  Si  Si31  1  0.500000  0.150238  0.893475  1
  Si  Si32  1  0.000000  0.650024  0.106728  1
  P  P33  1  0.000000  0.347449  0.105261  1
  Ru  Ru34  1  0.500000  0.499966  0.152519  1
  Ru  Ru35  1  0.000000  0.001444  0.848757  1
