# generated using pymatgen
data_Zr(NbBr3)6
_symmetry_space_group_name_H-M   'P 1'
_cell_length_a   10.64400358
_cell_length_b   10.64400388
_cell_length_c   10.64400300
_cell_angle_alpha   56.08040166
_cell_angle_beta   56.08039840
_cell_angle_gamma   56.08040284
_symmetry_Int_Tables_number   1
_chemical_formula_structural   Zr(NbBr3)6
_chemical_formula_sum   'Zr1 Nb6 Br18'
_cell_volume   775.30499988
_cell_formula_units_Z   1
loop_
 _symmetry_equiv_pos_site_id
 _symmetry_equiv_pos_as_xyz
  1  'x, y, z'
loop_
 _atom_site_type_symbol
 _atom_site_label
 _atom_site_symmetry_multiplicity
 _atom_site_fract_x
 _atom_site_fract_y
 _atom_site_fract_z
 _atom_site_occupancy
  Zr  Zr0  1  0.000000  0.000000  0.000000  1
  Nb  Nb1  1  0.411620  0.311428  0.642549  1
  Nb  Nb2  1  0.357451  0.588380  0.688572  1
  Nb  Nb3  1  0.688572  0.357451  0.588380  1
  Nb  Nb4  1  0.311428  0.642549  0.411620  1
  Nb  Nb5  1  0.642549  0.411620  0.311428  1
  Nb  Nb6  1  0.588380  0.688572  0.357451  1
  Br  Br7  1  0.567827  0.158571  0.442781  1
  Br  Br8  1  0.221104  0.371257  0.911492  1
  Br  Br9  1  0.911492  0.221104  0.371257  1
  Br  Br10  1  0.371257  0.911492  0.221104  1
  Br  Br11  1  0.778896  0.628743  0.088508  1
  Br  Br12  1  0.088508  0.778896  0.628743  1
  Br  Br13  1  0.714904  0.965139  0.150648  1
  Br  Br14  1  0.965139  0.150648  0.714904  1
  Br  Br15  1  0.150648  0.714904  0.965139  1
  Br  Br16  1  0.285096  0.034861  0.849352  1
  Br  Br17  1  0.034861  0.849352  0.285096  1
  Br  Br18  1  0.849352  0.285096  0.034861  1
  Br  Br19  1  0.557219  0.432173  0.841429  1
  Br  Br20  1  0.158571  0.442781  0.567827  1
  Br  Br21  1  0.442781  0.567827  0.158571  1
  Br  Br22  1  0.432173  0.841429  0.557219  1
  Br  Br23  1  0.841429  0.557219  0.432173  1
  Br  Br24  1  0.628743  0.088508  0.778896  1
