# generated using pymatgen
data_Hf5Zr5Ga2(SnSb2)2
_symmetry_space_group_name_H-M   'P 1'
_cell_length_a   8.65676500
_cell_length_b   8.65232901
_cell_length_c   5.84659400
_cell_angle_alpha   90.00000000
_cell_angle_beta   90.00000000
_cell_angle_gamma   119.93146289
_symmetry_Int_Tables_number   1
_chemical_formula_structural   Hf5Zr5Ga2(SnSb2)2
_chemical_formula_sum   'Hf5 Zr5 Ga2 Sn2 Sb4'
_cell_volume   379.50870564
_cell_formula_units_Z   1
loop_
 _symmetry_equiv_pos_site_id
 _symmetry_equiv_pos_as_xyz
  1  'x, y, z'
loop_
 _atom_site_type_symbol
 _atom_site_label
 _atom_site_symmetry_multiplicity
 _atom_site_fract_x
 _atom_site_fract_y
 _atom_site_fract_z
 _atom_site_occupancy
  Hf  Hf0  1  0.999983  0.730924  0.250000  1
  Hf  Hf1  1  0.666893  0.334270  0.001285  1
  Hf  Hf2  1  0.333390  0.666802  0.001219  1
  Hf  Hf3  1  0.333390  0.666802  0.498781  1
  Hf  Hf4  1  0.666893  0.334270  0.498715  1
  Zr  Zr5  1  0.733922  0.733396  0.750000  1
  Zr  Zr6  1  0.265162  0.999032  0.750000  1
  Zr  Zr7  1  0.999570  0.265539  0.750000  1
  Zr  Zr8  1  0.270587  0.270753  0.250000  1
  Zr  Zr9  1  0.730866  0.999802  0.250000  1
  Ga  Ga10  1  0.000755  0.999938  0.004474  1
  Ga  Ga11  1  0.000755  0.999938  0.495526  1
  Sn  Sn12  1  0.386531  0.999567  0.250000  1
  Sn  Sn13  1  0.000134  0.388376  0.250000  1
  Sb  Sb14  1  0.389627  0.389704  0.750000  1
  Sb  Sb15  1  0.608722  0.000528  0.750000  1
  Sb  Sb16  1  0.000408  0.608569  0.750000  1
  Sb  Sb17  1  0.612412  0.611789  0.250000  1
