# generated using pymatgen
data_La7Ho(SeO6)4
_symmetry_space_group_name_H-M   'P 1'
_cell_length_a   10.31470975
_cell_length_b   10.30554991
_cell_length_c   5.53744100
_cell_angle_alpha   72.77508338
_cell_angle_beta   72.69965391
_cell_angle_gamma   68.65801016
_symmetry_Int_Tables_number   1
_chemical_formula_structural   La7Ho(SeO6)4
_chemical_formula_sum   'La7 Ho1 Se4 O24'
_cell_volume   511.63666143
_cell_formula_units_Z   1
loop_
 _symmetry_equiv_pos_site_id
 _symmetry_equiv_pos_as_xyz
  1  'x, y, z'
loop_
 _atom_site_type_symbol
 _atom_site_label
 _atom_site_symmetry_multiplicity
 _atom_site_fract_x
 _atom_site_fract_y
 _atom_site_fract_z
 _atom_site_occupancy
  La  La0  1  0.636547  0.364166  0.747514  1
  La  La1  1  0.361407  0.635727  0.253958  1
  La  La2  1  0.111119  0.882988  0.751296  1
  La  La3  1  0.887218  0.110166  0.247595  1
  La  La4  1  0.714084  0.944423  0.886351  1
  La  La5  1  0.285227  0.048969  0.111194  1
  La  La6  1  0.048952  0.287667  0.607225  1
  Ho  Ho7  1  0.947103  0.721356  0.378974  1
  Se  Se8  1  0.536474  0.788465  0.568235  1
  Se  Se9  1  0.466883  0.209278  0.429165  1
  Se  Se10  1  0.204860  0.471215  0.937002  1
  Se  Se11  1  0.795058  0.534222  0.061648  1
  O  O12  1  0.717396  0.159813  0.621833  1
  O  O13  1  0.289042  0.836525  0.385939  1
  O  O14  1  0.837105  0.289082  0.880442  1
  O  O15  1  0.153817  0.718814  0.137904  1
  O  O16  1  0.404554  0.827509  0.825974  1
  O  O17  1  0.601007  0.169872  0.175615  1
  O  O18  1  0.166922  0.604450  0.682313  1
  O  O19  1  0.835897  0.395836  0.309563  1
  O  O20  1  0.688592  0.782414  0.629408  1
  O  O21  1  0.317319  0.215938  0.359057  1
  O  O22  1  0.208869  0.321449  0.870212  1
  O  O23  1  0.792410  0.678451  0.147849  1
  O  O24  1  0.480038  0.084940  0.702302  1
  O  O25  1  0.521141  0.914461  0.297137  1
  O  O26  1  0.914058  0.529958  0.777490  1
  O  O27  1  0.080139  0.488185  0.210734  1
  O  O28  1  0.544432  0.630432  0.528910  1
  O  O29  1  0.457008  0.367328  0.471828  1
  O  O30  1  0.364953  0.460051  0.973211  1
  O  O31  1  0.633955  0.546846  0.029092  1
  O  O32  1  0.883300  0.915789  0.095819  1
  O  O33  1  0.113570  0.075479  0.908825  1
  O  O34  1  0.075091  0.111919  0.411400  1
  O  O35  1  0.924452  0.875822  0.586987  1
