# generated using pymatgen
data_Zr6Mn5Si12Pt
_symmetry_space_group_name_H-M   'P 1'
_cell_length_a   9.92141685
_cell_length_b   9.92141658
_cell_length_c   9.92141593
_cell_angle_alpha   149.62447083
_cell_angle_beta   133.07105818
_cell_angle_gamma   56.93196261
_symmetry_Int_Tables_number   1
_chemical_formula_structural   Zr6Mn5Si12Pt
_chemical_formula_sum   'Zr6 Mn5 Si12 Pt1'
_cell_volume   358.23870423
_cell_formula_units_Z   1
loop_
 _symmetry_equiv_pos_site_id
 _symmetry_equiv_pos_as_xyz
  1  'x, y, z'
loop_
 _atom_site_type_symbol
 _atom_site_label
 _atom_site_symmetry_multiplicity
 _atom_site_fract_x
 _atom_site_fract_y
 _atom_site_fract_z
 _atom_site_occupancy
  Zr  Zr0  1  0.354647  0.095492  0.259155  1
  Zr  Zr1  1  0.646492  0.904138  0.742353  1
  Zr  Zr2  1  0.163665  0.904508  0.259155  1
  Zr  Zr3  1  0.838214  0.095862  0.742353  1
  Zr  Zr4  1  0.642892  0.641201  0.001692  1
  Zr  Zr5  1  0.360491  0.358799  0.001692  1
  Mn  Mn6  1  0.502087  0.003797  0.003576  1
  Mn  Mn7  1  0.502087  0.498511  0.498290  1
  Mn  Mn8  1  0.999779  0.996203  0.498290  1
  Mn  Mn9  1  0.999779  0.501489  0.003576  1
  Mn  Mn10  1  0.752658  0.500000  0.252658  1
  Si  Si11  1  0.989279  0.770003  0.759282  1
  Si  Si12  1  0.989279  0.229997  0.219275  1
  Si  Si13  1  0.506676  0.236087  0.742763  1
  Si  Si14  1  0.506676  0.763913  0.270589  1
  Si  Si15  1  0.203473  0.203365  0.000108  1
  Si  Si16  1  0.796743  0.796635  0.000108  1
  Si  Si17  1  0.288890  0.788070  0.500819  1
  Si  Si18  1  0.712749  0.211930  0.500819  1
  Si  Si19  1  0.715925  0.363837  0.352086  1
  Si  Si20  1  0.292448  0.643983  0.648466  1
  Si  Si21  1  0.988249  0.636163  0.352086  1
  Si  Si22  1  0.004482  0.356017  0.648466  1
  Pt  Pt23  1  0.242343  0.500000  0.742343  1
