# generated using pymatgen
data_Li3(SiNi)2
_symmetry_space_group_name_H-M   'P 1'
_cell_length_a   6.41383338
_cell_length_b   6.41383394
_cell_length_c   6.41383381
_cell_angle_alpha   36.20540078
_cell_angle_beta   36.20539501
_cell_angle_gamma   36.20540379
_symmetry_Int_Tables_number   1
_chemical_formula_structural   Li3(SiNi)2
_chemical_formula_sum   'Li3 Si2 Ni2'
_cell_volume   82.36863332
_cell_formula_units_Z   1
loop_
 _symmetry_equiv_pos_site_id
 _symmetry_equiv_pos_as_xyz
  1  'x, y, z'
loop_
 _atom_site_type_symbol
 _atom_site_label
 _atom_site_symmetry_multiplicity
 _atom_site_fract_x
 _atom_site_fract_y
 _atom_site_fract_z
 _atom_site_occupancy
  Li  Li0  1  0.644426  0.644426  0.644426  1
  Li  Li1  1  0.355574  0.355574  0.355574  1
  Li  Li2  1  0.500000  0.500000  0.500000  1
  Si  Si3  1  0.914642  0.914642  0.914642  1
  Si  Si4  1  0.085358  0.085358  0.085358  1
  Ni  Ni5  1  0.784657  0.784657  0.784657  1
  Ni  Ni6  1  0.215344  0.215344  0.215344  1
