# generated using pymatgen
data_Li4Ac2TbSn4
_symmetry_space_group_name_H-M   'P 1'
_cell_length_a   4.88890755
_cell_length_b   7.14201157
_cell_length_c   9.06271299
_cell_angle_alpha   113.20566312
_cell_angle_beta   105.64799958
_cell_angle_gamma   90.00000024
_symmetry_Int_Tables_number   1
_chemical_formula_structural   Li4Ac2TbSn4
_chemical_formula_sum   'Li4 Ac2 Tb1 Sn4'
_cell_volume   278.03229172
_cell_formula_units_Z   1
loop_
 _symmetry_equiv_pos_site_id
 _symmetry_equiv_pos_as_xyz
  1  'x, y, z'
loop_
 _atom_site_type_symbol
 _atom_site_label
 _atom_site_symmetry_multiplicity
 _atom_site_fract_x
 _atom_site_fract_y
 _atom_site_fract_z
 _atom_site_occupancy
  Li  Li0  1  0.329569  0.017587  0.659135  1
  Li  Li1  1  0.670431  0.982413  0.340865  1
  Li  Li2  1  0.329569  0.641548  0.659135  1
  Li  Li3  1  0.670431  0.358452  0.340865  1
  Ac  Ac4  1  0.867495  0.367495  0.734989  1
  Ac  Ac5  1  0.132505  0.632505  0.265011  1
  Tb  Tb6  1  0.000000  0.000000  0.000000  1
  Sn  Sn7  1  0.206466  0.206466  0.412931  1
  Sn  Sn8  1  0.793534  0.793534  0.587069  1
  Sn  Sn9  1  0.500000  0.290534  0.000000  1
  Sn  Sn10  1  0.500000  0.709466  0.000000  1
