# generated using pymatgen
data_HoTm3Si4TcRh3
_symmetry_space_group_name_H-M   'P 1'
_cell_length_a   4.29709600
_cell_length_b   6.89064868
_cell_length_c   7.21693260
_cell_angle_alpha   90.09680035
_cell_angle_beta   90.00000000
_cell_angle_gamma   90.00000000
_symmetry_Int_Tables_number   1
_chemical_formula_structural   HoTm3Si4TcRh3
_chemical_formula_sum   'Ho1 Tm3 Si4 Tc1 Rh3'
_cell_volume   213.69147339
_cell_formula_units_Z   1
loop_
 _symmetry_equiv_pos_site_id
 _symmetry_equiv_pos_as_xyz
  1  'x, y, z'
loop_
 _atom_site_type_symbol
 _atom_site_label
 _atom_site_symmetry_multiplicity
 _atom_site_fract_x
 _atom_site_fract_y
 _atom_site_fract_z
 _atom_site_occupancy
  Ho  Ho0  1  0.750000  0.005447  0.185239  1
  Tm  Tm1  1  0.250000  0.491370  0.690629  1
  Tm  Tm2  1  0.750000  0.513283  0.310218  1
  Tm  Tm3  1  0.250000  0.995562  0.813017  1
  Si  Si4  1  0.250000  0.298555  0.109844  1
  Si  Si5  1  0.750000  0.701022  0.884884  1
  Si  Si6  1  0.250000  0.796117  0.401418  1
  Si  Si7  1  0.750000  0.201319  0.604060  1
  Tc  Tc8  1  0.750000  0.844445  0.568061  1
  Rh  Rh9  1  0.250000  0.156449  0.432762  1
  Rh  Rh10  1  0.750000  0.343575  0.933303  1
  Rh  Rh11  1  0.250000  0.652854  0.066563  1
