# generated using pymatgen
data_Ta3GaNi2N
_symmetry_space_group_name_H-M   'P 1'
_cell_length_a   8.07228176
_cell_length_b   8.07228226
_cell_length_c   8.07228100
_cell_angle_alpha   60.00000105
_cell_angle_beta   59.99999901
_cell_angle_gamma   60.00000138
_symmetry_Int_Tables_number   1
_chemical_formula_structural   Ta3GaNi2N
_chemical_formula_sum   'Ta12 Ga4 Ni8 N4'
_cell_volume   371.94089330
_cell_formula_units_Z   4
loop_
 _symmetry_equiv_pos_site_id
 _symmetry_equiv_pos_as_xyz
  1  'x, y, z'
loop_
 _atom_site_type_symbol
 _atom_site_label
 _atom_site_symmetry_multiplicity
 _atom_site_fract_x
 _atom_site_fract_y
 _atom_site_fract_z
 _atom_site_occupancy
  Ta  Ta0  1  0.808749  0.808749  0.191251  1
  Ta  Ta1  1  0.191251  0.191251  0.808749  1
  Ta  Ta2  1  0.808749  0.191251  0.808749  1
  Ta  Ta3  1  0.191251  0.808749  0.191251  1
  Ta  Ta4  1  0.191251  0.808749  0.808749  1
  Ta  Ta5  1  0.808749  0.191251  0.191251  1
  Ta  Ta6  1  0.441251  0.441251  0.058749  1
  Ta  Ta7  1  0.058749  0.058749  0.441251  1
  Ta  Ta8  1  0.441251  0.058749  0.441251  1
  Ta  Ta9  1  0.058749  0.441251  0.058749  1
  Ta  Ta10  1  0.058749  0.441251  0.441251  1
  Ta  Ta11  1  0.441251  0.058749  0.058749  1
  Ga  Ga12  1  0.125000  0.625000  0.625000  1
  Ga  Ga13  1  0.625000  0.125000  0.625000  1
  Ga  Ga14  1  0.625000  0.625000  0.125000  1
  Ga  Ga15  1  0.625000  0.625000  0.625000  1
  Ni  Ni16  1  0.755119  0.414960  0.414960  1
  Ni  Ni17  1  0.414960  0.755119  0.414960  1
  Ni  Ni18  1  0.414960  0.414960  0.755119  1
  Ni  Ni19  1  0.414960  0.414960  0.414960  1
  Ni  Ni20  1  0.494881  0.835040  0.835040  1
  Ni  Ni21  1  0.835040  0.494881  0.835040  1
  Ni  Ni22  1  0.835040  0.835040  0.494881  1
  Ni  Ni23  1  0.835040  0.835040  0.835040  1
  N  N24  1  0.625000  0.125000  0.125000  1
  N  N25  1  0.125000  0.625000  0.125000  1
  N  N26  1  0.125000  0.125000  0.625000  1
  N  N27  1  0.125000  0.125000  0.125000  1
