# generated using pymatgen
data_LaNp3(Al3Rh)6
_symmetry_space_group_name_H-M   'P 1'
_cell_length_a   7.61123081
_cell_length_b   7.61247509
_cell_length_c   9.50439300
_cell_angle_alpha   90.00000000
_cell_angle_beta   90.00000000
_cell_angle_gamma   119.59520074
_symmetry_Int_Tables_number   1
_chemical_formula_structural   LaNp3(Al3Rh)6
_chemical_formula_sum   'La1 Np3 Al18 Rh6'
_cell_volume   478.84270926
_cell_formula_units_Z   1
loop_
 _symmetry_equiv_pos_site_id
 _symmetry_equiv_pos_as_xyz
  1  'x, y, z'
loop_
 _atom_site_type_symbol
 _atom_site_label
 _atom_site_symmetry_multiplicity
 _atom_site_fract_x
 _atom_site_fract_y
 _atom_site_fract_z
 _atom_site_occupancy
  La  La0  1  0.329847  0.004902  0.750000  1
  Np  Np1  1  0.995042  0.671027  0.250000  1
  Np  Np2  1  0.003257  0.328752  0.750000  1
  Np  Np3  1  0.672346  0.996064  0.250000  1
  Al  Al4  1  0.128093  0.129204  0.250000  1
  Al  Al5  1  0.867805  0.871297  0.750000  1
  Al  Al6  1  0.000440  0.336127  0.076061  1
  Al  Al7  1  0.996330  0.662244  0.928110  1
  Al  Al8  1  0.996330  0.662244  0.571890  1
  Al  Al9  1  0.335698  0.000386  0.419295  1
  Al  Al10  1  0.000440  0.336127  0.423939  1
  Al  Al11  1  0.667085  0.998234  0.572056  1
  Al  Al12  1  0.667085  0.998234  0.927944  1
  Al  Al13  1  0.335698  0.000386  0.080705  1
  Al  Al14  1  0.333099  0.335101  0.547762  1
  Al  Al15  1  0.667005  0.666659  0.445742  1
  Al  Al16  1  0.667005  0.666659  0.054258  1
  Al  Al17  1  0.333099  0.335101  0.952238  1
  Al  Al18  1  0.340615  0.550528  0.250000  1
  Al  Al19  1  0.664144  0.455265  0.750000  1
  Al  Al20  1  0.550513  0.342856  0.250000  1
  Al  Al21  1  0.449806  0.654120  0.750000  1
  Rh  Rh22  1  0.671297  0.328642  0.001011  1
  Rh  Rh23  1  0.328709  0.671098  0.001234  1
  Rh  Rh24  1  0.328709  0.671098  0.498766  1
  Rh  Rh25  1  0.671297  0.328642  0.498989  1
  Rh  Rh26  1  0.999602  0.999504  0.001544  1
  Rh  Rh27  1  0.999602  0.999504  0.498456  1
