# generated using pymatgen
data_YbY3Sb6Rh7
_symmetry_space_group_name_H-M   'P 1'
_cell_length_a   7.61707909
_cell_length_b   7.61708019
_cell_length_c   7.61708010
_cell_angle_alpha   109.44041857
_cell_angle_beta   109.44042295
_cell_angle_gamma   109.44041870
_symmetry_Int_Tables_number   1
_chemical_formula_structural   YbY3Sb6Rh7
_chemical_formula_sum   'Yb1 Y3 Sb6 Rh7'
_cell_volume   340.59470341
_cell_formula_units_Z   1
loop_
 _symmetry_equiv_pos_site_id
 _symmetry_equiv_pos_as_xyz
  1  'x, y, z'
loop_
 _atom_site_type_symbol
 _atom_site_label
 _atom_site_symmetry_multiplicity
 _atom_site_fract_x
 _atom_site_fract_y
 _atom_site_fract_z
 _atom_site_occupancy
  Yb  Yb0  1  0.500000  0.500000  0.500000  1
  Y  Y1  1  0.500000  0.000000  0.000000  1
  Y  Y2  1  0.000000  0.500000  0.000000  1
  Y  Y3  1  0.000000  0.000000  0.500000  1
  Sb  Sb4  1  0.319199  0.002121  0.319199  1
  Sb  Sb5  1  0.997879  0.680801  0.680801  1
  Sb  Sb6  1  0.680801  0.680801  0.997879  1
  Sb  Sb7  1  0.680801  0.997879  0.680801  1
  Sb  Sb8  1  0.002121  0.319199  0.319199  1
  Sb  Sb9  1  0.319199  0.319199  0.002121  1
  Rh  Rh10  1  0.248193  0.500000  0.751807  1
  Rh  Rh11  1  0.500000  0.248193  0.751807  1
  Rh  Rh12  1  0.751807  0.248193  0.500000  1
  Rh  Rh13  1  0.500000  0.751807  0.248193  1
  Rh  Rh14  1  0.000000  0.000000  0.000000  1
  Rh  Rh15  1  0.248193  0.751807  0.500000  1
  Rh  Rh16  1  0.751807  0.500000  0.248193  1
