# generated using pymatgen
data_TbDy19Cd6CoRu
_symmetry_space_group_name_H-M   'P 1'
_cell_length_a   9.60079700
_cell_length_b   9.59921093
_cell_length_c   9.81047200
_cell_angle_alpha   90.00000000
_cell_angle_beta   90.00000000
_cell_angle_gamma   119.99453834
_symmetry_Int_Tables_number   1
_chemical_formula_structural   TbDy19Cd6CoRu
_chemical_formula_sum   'Tb1 Dy19 Cd6 Co1 Ru1'
_cell_volume   783.04596317
_cell_formula_units_Z   1
loop_
 _symmetry_equiv_pos_site_id
 _symmetry_equiv_pos_as_xyz
  1  'x, y, z'
loop_
 _atom_site_type_symbol
 _atom_site_label
 _atom_site_symmetry_multiplicity
 _atom_site_fract_x
 _atom_site_fract_y
 _atom_site_fract_z
 _atom_site_occupancy
  Tb  Tb0  1  0.083527  0.541764  0.750000  1
  Dy  Dy1  1  0.999973  0.999987  0.499931  1
  Dy  Dy2  1  0.999973  0.999987  0.000069  1
  Dy  Dy3  1  0.212272  0.787886  0.436041  1
  Dy  Dy4  1  0.212272  0.424386  0.436041  1
  Dy  Dy5  1  0.575539  0.787770  0.436113  1
  Dy  Dy6  1  0.790470  0.209328  0.560030  1
  Dy  Dy7  1  0.790470  0.581142  0.560030  1
  Dy  Dy8  1  0.418867  0.209434  0.560094  1
  Dy  Dy9  1  0.790470  0.209328  0.939970  1
  Dy  Dy10  1  0.790470  0.581142  0.939970  1
  Dy  Dy11  1  0.418867  0.209434  0.939906  1
  Dy  Dy12  1  0.212272  0.787886  0.063959  1
  Dy  Dy13  1  0.212272  0.424386  0.063959  1
  Dy  Dy14  1  0.575539  0.787770  0.063887  1
  Dy  Dy15  1  0.541653  0.458384  0.250000  1
  Dy  Dy16  1  0.541653  0.083269  0.250000  1
  Dy  Dy17  1  0.916703  0.458352  0.250000  1
  Dy  Dy18  1  0.458406  0.541644  0.750000  1
  Dy  Dy19  1  0.458406  0.916763  0.750000  1
  Cd  Cd20  1  0.885293  0.114749  0.250000  1
  Cd  Cd21  1  0.885293  0.770545  0.250000  1
  Cd  Cd22  1  0.229461  0.114731  0.250000  1
  Cd  Cd23  1  0.114751  0.885374  0.750000  1
  Cd  Cd24  1  0.114751  0.229378  0.750000  1
  Cd  Cd25  1  0.770503  0.885252  0.750000  1
  Co  Co26  1  0.333344  0.666673  0.250000  1
  Ru  Ru27  1  0.666527  0.333263  0.750000  1
