# generated using pymatgen
data_Dy2Ga10OsRu2
_symmetry_space_group_name_H-M   'P 1'
_cell_length_a   8.91978500
_cell_length_b   8.91978500
_cell_length_c   6.43442700
_cell_angle_alpha   90.00000000
_cell_angle_beta   90.00000000
_cell_angle_gamma   90.00000000
_symmetry_Int_Tables_number   1
_chemical_formula_structural   Dy2Ga10OsRu2
_chemical_formula_sum   'Dy4 Ga20 Os2 Ru4'
_cell_volume   511.93951286
_cell_formula_units_Z   2
loop_
 _symmetry_equiv_pos_site_id
 _symmetry_equiv_pos_as_xyz
  1  'x, y, z'
loop_
 _atom_site_type_symbol
 _atom_site_label
 _atom_site_symmetry_multiplicity
 _atom_site_fract_x
 _atom_site_fract_y
 _atom_site_fract_z
 _atom_site_occupancy
  Dy  Dy0  1  0.183142  0.683142  0.000000  1
  Dy  Dy1  1  0.816858  0.316858  0.000000  1
  Dy  Dy2  1  0.683142  0.816858  0.000000  1
  Dy  Dy3  1  0.316858  0.183142  0.000000  1
  Ga  Ga4  1  0.060796  0.206415  0.706047  1
  Ga  Ga5  1  0.939204  0.793585  0.706047  1
  Ga  Ga6  1  0.560796  0.293585  0.706047  1
  Ga  Ga7  1  0.439204  0.706415  0.706047  1
  Ga  Ga8  1  0.793585  0.060796  0.706047  1
  Ga  Ga9  1  0.206415  0.939204  0.706047  1
  Ga  Ga10  1  0.706415  0.560796  0.706047  1
  Ga  Ga11  1  0.293585  0.439204  0.706047  1
  Ga  Ga12  1  0.939204  0.793585  0.293953  1
  Ga  Ga13  1  0.060796  0.206415  0.293953  1
  Ga  Ga14  1  0.439204  0.706415  0.293953  1
  Ga  Ga15  1  0.560796  0.293585  0.293953  1
  Ga  Ga16  1  0.206415  0.939204  0.293953  1
  Ga  Ga17  1  0.793585  0.060796  0.293953  1
  Ga  Ga18  1  0.293585  0.439204  0.293953  1
  Ga  Ga19  1  0.706415  0.560796  0.293953  1
  Ga  Ga20  1  0.000000  0.500000  0.711311  1
  Ga  Ga21  1  0.500000  0.000000  0.711311  1
  Ga  Ga22  1  0.000000  0.500000  0.288689  1
  Ga  Ga23  1  0.500000  0.000000  0.288689  1
  Os  Os24  1  0.000000  0.000000  0.000000  1
  Os  Os25  1  0.500000  0.500000  0.000000  1
  Ru  Ru26  1  0.178489  0.678489  0.500000  1
  Ru  Ru27  1  0.821511  0.321511  0.500000  1
  Ru  Ru28  1  0.678489  0.821511  0.500000  1
  Ru  Ru29  1  0.321511  0.178489  0.500000  1
