# generated using pymatgen
data_Nd4CdIn(CuPd)2
_symmetry_space_group_name_H-M   'P 1'
_cell_length_a   7.82773900
_cell_length_b   7.82145300
_cell_length_c   3.85649400
_cell_angle_alpha   90.00000000
_cell_angle_beta   90.00000000
_cell_angle_gamma   89.99664628
_symmetry_Int_Tables_number   1
_chemical_formula_structural   Nd4CdIn(CuPd)2
_chemical_formula_sum   'Nd4 Cd1 In1 Cu2 Pd2'
_cell_volume   236.11111719
_cell_formula_units_Z   1
loop_
 _symmetry_equiv_pos_site_id
 _symmetry_equiv_pos_as_xyz
  1  'x, y, z'
loop_
 _atom_site_type_symbol
 _atom_site_label
 _atom_site_symmetry_multiplicity
 _atom_site_fract_x
 _atom_site_fract_y
 _atom_site_fract_z
 _atom_site_occupancy
  Nd  Nd0  1  0.325554  0.820920  0.500000  1
  Nd  Nd1  1  0.824931  0.677826  0.500000  1
  Nd  Nd2  1  0.177454  0.327115  0.500000  1
  Nd  Nd3  1  0.677377  0.172402  0.500000  1
  Cd  Cd4  1  0.000955  0.005411  0.000000  1
  In  In5  1  0.501838  0.496447  0.000000  1
  Cu  Cu6  1  0.378040  0.123027  0.000000  1
  Cu  Cu7  1  0.877282  0.377981  0.000000  1
  Pd  Pd8  1  0.119038  0.617366  0.000000  1
  Pd  Pd9  1  0.617532  0.881504  0.000000  1
