# generated using pymatgen
data_DyHo7Lu8(Ga3Co)2
_symmetry_space_group_name_H-M   'P 1'
_cell_length_a   9.85476201
_cell_length_b   9.85476161
_cell_length_c   6.91839101
_cell_angle_alpha   90.00605584
_cell_angle_beta   89.99394719
_cell_angle_gamma   120.00144072
_symmetry_Int_Tables_number   1
_chemical_formula_structural   DyHo7Lu8(Ga3Co)2
_chemical_formula_sum   'Dy1 Ho7 Lu8 Ga6 Co2'
_cell_volume   581.86427190
_cell_formula_units_Z   1
loop_
 _symmetry_equiv_pos_site_id
 _symmetry_equiv_pos_as_xyz
  1  'x, y, z'
loop_
 _atom_site_type_symbol
 _atom_site_label
 _atom_site_symmetry_multiplicity
 _atom_site_fract_x
 _atom_site_fract_y
 _atom_site_fract_z
 _atom_site_occupancy
  Dy  Dy0  1  0.464467  0.535533  0.208210  1
  Ho  Ho1  1  0.071438  0.535820  0.208046  1
  Ho  Ho2  1  0.464180  0.928562  0.208046  1
  Ho  Ho3  1  0.535886  0.464114  0.708237  1
  Ho  Ho4  1  0.928441  0.464252  0.708088  1
  Ho  Ho5  1  0.535748  0.071559  0.708088  1
  Ho  Ho6  1  0.000027  0.999973  0.231334  1
  Ho  Ho7  1  0.999940  0.000060  0.731557  1
  Lu  Lu8  1  0.173996  0.826004  0.512512  1
  Lu  Lu9  1  0.652226  0.826228  0.512805  1
  Lu  Lu10  1  0.173772  0.347774  0.512805  1
  Lu  Lu11  1  0.826001  0.173999  0.012633  1
  Lu  Lu12  1  0.347830  0.173622  0.012194  1
  Lu  Lu13  1  0.826378  0.652170  0.012194  1
  Lu  Lu14  1  0.333168  0.666832  0.826129  1
  Lu  Lu15  1  0.666794  0.333206  0.326322  1
  Ga  Ga16  1  0.163569  0.836431  0.956997  1
  Ga  Ga17  1  0.673070  0.836671  0.956628  1
  Ga  Ga18  1  0.163329  0.326930  0.956628  1
  Ga  Ga19  1  0.836384  0.163616  0.456735  1
  Ga  Ga20  1  0.327183  0.163554  0.456994  1
  Ga  Ga21  1  0.836446  0.672817  0.456994  1
  Co  Co22  1  0.333067  0.666933  0.447151  1
  Co  Co23  1  0.666660  0.333340  0.946706  1
