# generated using pymatgen
data_BaB2IrRh
_symmetry_space_group_name_H-M   'P 1'
_cell_length_a   6.41020152
_cell_length_b   6.41020123
_cell_length_c   6.41020161
_cell_angle_alpha   144.15020019
_cell_angle_beta   144.15020029
_cell_angle_gamma   51.60275308
_symmetry_Int_Tables_number   1
_chemical_formula_structural   BaB2IrRh
_chemical_formula_sum   'Ba1 B2 Ir1 Rh1'
_cell_volume   89.85024049
_cell_formula_units_Z   1
loop_
 _symmetry_equiv_pos_site_id
 _symmetry_equiv_pos_as_xyz
  1  'x, y, z'
loop_
 _atom_site_type_symbol
 _atom_site_label
 _atom_site_symmetry_multiplicity
 _atom_site_fract_x
 _atom_site_fract_y
 _atom_site_fract_z
 _atom_site_occupancy
  Ba  Ba0  1  0.000000  0.000000  0.000000  1
  B  B1  1  0.681725  0.681725  0.000000  1
  B  B2  1  0.318275  0.318275  0.000000  1
  Ir  Ir3  1  0.750000  0.250000  0.500000  1
  Rh  Rh4  1  0.250000  0.750000  0.500000  1
