# generated using pymatgen
data_PmNi4Pt
_symmetry_space_group_name_H-M   'P 1'
_cell_length_a   5.14196230
_cell_length_b   5.13972847
_cell_length_c   4.01970400
_cell_angle_alpha   90.00000000
_cell_angle_beta   90.00000000
_cell_angle_gamma   56.55472741
_symmetry_Int_Tables_number   1
_chemical_formula_structural   PmNi4Pt
_chemical_formula_sum   'Pm1 Ni4 Pt1'
_cell_volume   88.64291130
_cell_formula_units_Z   1
loop_
 _symmetry_equiv_pos_site_id
 _symmetry_equiv_pos_as_xyz
  1  'x, y, z'
loop_
 _atom_site_type_symbol
 _atom_site_label
 _atom_site_symmetry_multiplicity
 _atom_site_fract_x
 _atom_site_fract_y
 _atom_site_fract_z
 _atom_site_occupancy
  Pm  Pm0  1  0.999939  0.999974  0.000000  1
  Ni  Ni1  1  0.317536  0.317593  0.000000  1
  Ni  Ni2  1  0.682455  0.682443  0.000000  1
  Ni  Ni3  1  0.500005  0.000113  0.499999  1
  Ni  Ni4  1  0.000138  0.499888  0.499999  1
  Pt  Pt5  1  0.499922  0.499991  0.499999  1
