# generated using pymatgen
data_YEr2Sn3HgRh2
_symmetry_space_group_name_H-M   'P 1'
_cell_length_a   7.69995905
_cell_length_b   7.71438902
_cell_length_c   3.89204700
_cell_angle_alpha   90.00000000
_cell_angle_beta   90.00000000
_cell_angle_gamma   120.12305394
_symmetry_Int_Tables_number   1
_chemical_formula_structural   YEr2Sn3HgRh2
_chemical_formula_sum   'Y1 Er2 Sn3 Hg1 Rh2'
_cell_volume   199.96722004
_cell_formula_units_Z   1
loop_
 _symmetry_equiv_pos_site_id
 _symmetry_equiv_pos_as_xyz
  1  'x, y, z'
loop_
 _atom_site_type_symbol
 _atom_site_label
 _atom_site_symmetry_multiplicity
 _atom_site_fract_x
 _atom_site_fract_y
 _atom_site_fract_z
 _atom_site_occupancy
  Y  Y0  1  0.390309  0.410352  0.000000  1
  Er  Er1  1  0.022358  0.611453  0.000000  1
  Er  Er2  1  0.588997  0.977716  0.000000  1
  Sn  Sn3  1  0.742120  0.748857  0.500000  1
  Sn  Sn4  1  0.006075  0.257346  0.500000  1
  Sn  Sn5  1  0.250730  0.992437  0.500000  1
  Hg  Hg6  1  0.668212  0.333160  0.500000  1
  Rh  Rh7  1  0.998595  0.998641  0.000000  1
  Rh  Rh8  1  0.332603  0.670040  0.500000  1
