# generated using pymatgen
data_HfTa6MnS12
_symmetry_space_group_name_H-M   'P 1'
_cell_length_a   5.77679100
_cell_length_b   5.77679233
_cell_length_c   12.85170100
_cell_angle_alpha   90.00000000
_cell_angle_beta   90.00000000
_cell_angle_gamma   119.99999814
_symmetry_Int_Tables_number   1
_chemical_formula_structural   HfTa6MnS12
_chemical_formula_sum   'Hf1 Ta6 Mn1 S12'
_cell_volume   371.41946765
_cell_formula_units_Z   1
loop_
 _symmetry_equiv_pos_site_id
 _symmetry_equiv_pos_as_xyz
  1  'x, y, z'
loop_
 _atom_site_type_symbol
 _atom_site_label
 _atom_site_symmetry_multiplicity
 _atom_site_fract_x
 _atom_site_fract_y
 _atom_site_fract_z
 _atom_site_occupancy
  Hf  Hf0  1  0.666667  0.333333  0.750000  1
  Ta  Ta1  1  0.000000  0.000000  0.499532  1
  Ta  Ta2  1  0.000000  0.000000  0.000468  1
  Ta  Ta3  1  0.333333  0.666667  0.000015  1
  Ta  Ta4  1  0.666667  0.333333  0.000835  1
  Ta  Ta5  1  0.666667  0.333333  0.499165  1
  Ta  Ta6  1  0.333333  0.666667  0.499985  1
  Mn  Mn7  1  0.333333  0.666667  0.250000  1
  S  S8  1  0.332345  0.330177  0.376777  1
  S  S9  1  0.669823  0.002168  0.376777  1
  S  S10  1  0.997832  0.667655  0.376777  1
  S  S11  1  0.329573  0.333257  0.623819  1
  S  S12  1  0.003683  0.670427  0.623819  1
  S  S13  1  0.666743  0.996317  0.623819  1
  S  S14  1  0.666743  0.670427  0.876181  1
  S  S15  1  0.329573  0.996317  0.876181  1
  S  S16  1  0.003683  0.333257  0.876181  1
  S  S17  1  0.669823  0.667655  0.123223  1
  S  S18  1  0.997832  0.330177  0.123223  1
  S  S19  1  0.332345  0.002168  0.123223  1
