# generated using pymatgen
data_La4Pr4Te3WO24
_symmetry_space_group_name_H-M   'P 1'
_cell_length_a   5.53208466
_cell_length_b   9.51634154
_cell_length_c   10.42501562
_cell_angle_alpha   90.00516511
_cell_angle_beta   89.88097525
_cell_angle_gamma   90.11211569
_symmetry_Int_Tables_number   1
_chemical_formula_structural   La4Pr4Te3WO24
_chemical_formula_sum   'La4 Pr4 Te3 W1 O24'
_cell_volume   548.82486816
_cell_formula_units_Z   1
loop_
 _symmetry_equiv_pos_site_id
 _symmetry_equiv_pos_as_xyz
  1  'x, y, z'
loop_
 _atom_site_type_symbol
 _atom_site_label
 _atom_site_symmetry_multiplicity
 _atom_site_fract_x
 _atom_site_fract_y
 _atom_site_fract_z
 _atom_site_occupancy
  La  La0  1  0.029728  0.219028  0.140080  1
  La  La1  1  0.469117  0.783448  0.639662  1
  La  La2  1  0.966183  0.719489  0.361318  1
  La  La3  1  0.530852  0.282495  0.858480  1
  Pr  Pr4  1  0.024661  0.101133  0.541009  1
  Pr  Pr5  1  0.478173  0.895457  0.042588  1
  Pr  Pr6  1  0.977468  0.604073  0.957546  1
  Pr  Pr7  1  0.522945  0.396613  0.458429  1
  Te  Te8  1  0.961812  0.995198  0.858164  1
  Te  Te9  1  0.460532  0.505481  0.142390  1
  Te  Te10  1  0.038168  0.494726  0.642044  1
  W  W11  1  0.538871  0.004401  0.355948  1
  O  O12  1  0.420468  0.153166  0.470765  1
  O  O13  1  0.078162  0.849701  0.974657  1
  O  O14  1  0.575523  0.649786  0.023813  1
  O  O15  1  0.922797  0.347867  0.526363  1
  O  O16  1  0.722753  0.390394  0.066529  1
  O  O17  1  0.774698  0.608100  0.565818  1
  O  O18  1  0.278365  0.890750  0.437179  1
  O  O19  1  0.221897  0.111537  0.934345  1
  O  O20  1  0.255571  0.416489  0.008548  1
  O  O21  1  0.241229  0.583368  0.506984  1
  O  O22  1  0.743994  0.913033  0.490999  1
  O  O23  1  0.756927  0.083710  0.992757  1
  O  O24  1  0.195799  0.637965  0.174955  1
  O  O25  1  0.305855  0.364557  0.674894  1
  O  O26  1  0.806916  0.135611  0.327768  1
  O  O27  1  0.695056  0.862774  0.827492  1
  O  O28  1  0.333266  0.049547  0.214716  1
  O  O29  1  0.167691  0.947534  0.714785  1
  O  O30  1  0.662308  0.555739  0.286665  1
  O  O31  1  0.835851  0.446226  0.786924  1
  O  O32  1  0.326004  0.362915  0.254327  1
  O  O33  1  0.174690  0.636624  0.753893  1
  O  O34  1  0.683355  0.867109  0.242715  1
  O  O35  1  0.822312  0.133956  0.744449  1
