# generated using pymatgen
data_DyY4Ta3(P3Ir4)4
_symmetry_space_group_name_H-M   'P 1'
_cell_length_a   12.76067000
_cell_length_b   12.76082505
_cell_length_c   3.99479700
_cell_angle_alpha   90.00000000
_cell_angle_beta   90.00000000
_cell_angle_gamma   119.99959289
_symmetry_Int_Tables_number   1
_chemical_formula_structural   DyY4Ta3(P3Ir4)4
_chemical_formula_sum   'Dy1 Y4 Ta3 P12 Ir16'
_cell_volume   563.35137739
_cell_formula_units_Z   1
loop_
 _symmetry_equiv_pos_site_id
 _symmetry_equiv_pos_as_xyz
  1  'x, y, z'
loop_
 _atom_site_type_symbol
 _atom_site_label
 _atom_site_symmetry_multiplicity
 _atom_site_fract_x
 _atom_site_fract_y
 _atom_site_fract_z
 _atom_site_occupancy
  Dy  Dy0  1  0.813713  0.000000  0.000000  1
  Y  Y1  1  0.333346  0.666683  0.500000  1
  Y  Y2  1  0.666664  0.333317  0.500000  1
  Y  Y3  1  0.999994  0.813722  0.000000  1
  Y  Y4  1  0.186273  0.186278  0.000000  1
  Ta  Ta5  1  0.999991  0.453050  0.500000  1
  Ta  Ta6  1  0.546941  0.546950  0.500000  1
  Ta  Ta7  1  0.453047  0.000000  0.500000  1
  P  P8  1  0.000002  0.643072  0.500000  1
  P  P9  1  0.356930  0.356928  0.500000  1
  P  P10  1  0.643207  0.000000  0.500000  1
  P  P11  1  0.517372  0.684972  0.000000  1
  P  P12  1  0.315018  0.832393  0.000000  1
  P  P13  1  0.167615  0.482639  0.000000  1
  P  P14  1  0.482626  0.167607  0.000000  1
  P  P15  1  0.684976  0.517361  0.000000  1
  P  P16  1  0.832400  0.315028  0.000000  1
  P  P17  1  0.999899  0.176234  0.500000  1
  P  P18  1  0.823665  0.823766  0.500000  1
  P  P19  1  0.176343  0.000000  0.500000  1
  Ir  Ir20  1  0.506878  0.864017  0.000000  1
  Ir  Ir21  1  0.136078  0.642913  0.000000  1
  Ir  Ir22  1  0.357102  0.493179  0.000000  1
  Ir  Ir23  1  0.493167  0.357087  0.000000  1
  Ir  Ir24  1  0.863925  0.506821  0.000000  1
  Ir  Ir25  1  0.642863  0.135983  0.000000  1
  Ir  Ir26  1  0.999955  0.283747  0.000000  1
  Ir  Ir27  1  0.716208  0.716253  0.000000  1
  Ir  Ir28  1  0.283850  0.000000  0.000000  1
  Ir  Ir29  1  0.626971  0.804609  0.500000  1
  Ir  Ir30  1  0.195529  0.822433  0.500000  1
  Ir  Ir31  1  0.177594  0.373086  0.500000  1
  Ir  Ir32  1  0.373096  0.177567  0.500000  1
  Ir  Ir33  1  0.804509  0.626914  0.500000  1
  Ir  Ir34  1  0.822362  0.195391  0.500000  1
  Ir  Ir35  1  0.999891  0.000000  0.500000  1
