# generated using pymatgen
data_Er2Ga9Co2Ni
_symmetry_space_group_name_H-M   'P 1'
_cell_length_a   7.36749458
_cell_length_b   7.36749359
_cell_length_c   9.34961294
_cell_angle_alpha   89.92532560
_cell_angle_beta   89.92532565
_cell_angle_gamma   119.78557459
_symmetry_Int_Tables_number   1
_chemical_formula_structural   Er2Ga9Co2Ni
_chemical_formula_sum   'Er4 Ga18 Co4 Ni2'
_cell_volume   440.45010401
_cell_formula_units_Z   2
loop_
 _symmetry_equiv_pos_site_id
 _symmetry_equiv_pos_as_xyz
  1  'x, y, z'
loop_
 _atom_site_type_symbol
 _atom_site_label
 _atom_site_symmetry_multiplicity
 _atom_site_fract_x
 _atom_site_fract_y
 _atom_site_fract_z
 _atom_site_occupancy
  Er  Er0  1  0.503348  0.831644  0.750071  1
  Er  Er1  1  0.497345  0.168906  0.249918  1
  Er  Er2  1  0.168356  0.496652  0.249929  1
  Er  Er3  1  0.831094  0.502655  0.750082  1
  Ga  Ga4  1  0.163377  0.949195  0.748464  1
  Ga  Ga5  1  0.836841  0.051460  0.249987  1
  Ga  Ga6  1  0.050805  0.836623  0.251536  1
  Ga  Ga7  1  0.948540  0.163159  0.750013  1
  Ga  Ga8  1  0.621459  0.621025  0.248685  1
  Ga  Ga9  1  0.378975  0.378541  0.751315  1
  Ga  Ga10  1  0.167234  0.169108  0.059760  1
  Ga  Ga11  1  0.834559  0.834405  0.559580  1
  Ga  Ga12  1  0.830892  0.832766  0.940240  1
  Ga  Ga13  1  0.165595  0.165441  0.440420  1
  Ga  Ga14  1  0.500371  0.833999  0.073179  1
  Ga  Ga15  1  0.500968  0.163831  0.573258  1
  Ga  Ga16  1  0.166001  0.499629  0.926821  1
  Ga  Ga17  1  0.836169  0.499032  0.426742  1
  Ga  Ga18  1  0.503112  0.167844  0.926955  1
  Ga  Ga19  1  0.498755  0.835993  0.426697  1
  Ga  Ga20  1  0.832156  0.496888  0.073045  1
  Ga  Ga21  1  0.164007  0.501245  0.573303  1
  Co  Co22  1  0.500103  0.499897  0.000000  1
  Co  Co23  1  0.828810  0.171190  0.500000  1
  Co  Co24  1  0.829033  0.170967  0.000000  1
  Co  Co25  1  0.171290  0.828710  0.500000  1
  Ni  Ni26  1  0.170848  0.829152  0.000000  1
  Ni  Ni27  1  0.499955  0.500045  0.500000  1
