# generated using pymatgen
data_Dy4Er(ReO6)2
_symmetry_space_group_name_H-M   'P 1'
_cell_length_a   6.83562188
_cell_length_b   6.83562257
_cell_length_c   7.53557230
_cell_angle_alpha   73.72733963
_cell_angle_beta   73.72734092
_cell_angle_gamma   49.03566963
_symmetry_Int_Tables_number   1
_chemical_formula_structural   Dy4Er(ReO6)2
_chemical_formula_sum   'Dy4 Er1 Re2 O12'
_cell_volume   252.95728894
_cell_formula_units_Z   1
loop_
 _symmetry_equiv_pos_site_id
 _symmetry_equiv_pos_as_xyz
  1  'x, y, z'
loop_
 _atom_site_type_symbol
 _atom_site_label
 _atom_site_symmetry_multiplicity
 _atom_site_fract_x
 _atom_site_fract_y
 _atom_site_fract_z
 _atom_site_occupancy
  Dy  Dy0  1  0.696819  0.696819  0.641495  1
  Dy  Dy1  1  0.303181  0.303181  0.358505  1
  Dy  Dy2  1  0.685112  0.685112  0.176359  1
  Dy  Dy3  1  0.314888  0.314888  0.823641  1
  Er  Er4  1  0.000000  0.000000  0.500000  1
  Re  Re5  1  0.786008  0.213992  0.000000  1
  Re  Re6  1  0.213992  0.786008  0.000000  1
  O  O7  1  0.001550  0.001550  0.207014  1
  O  O8  1  0.998450  0.998450  0.792986  1
  O  O9  1  0.582090  0.087136  0.085201  1
  O  O10  1  0.417910  0.912864  0.914799  1
  O  O11  1  0.912864  0.417910  0.914799  1
  O  O12  1  0.087136  0.582090  0.085201  1
  O  O13  1  0.498969  0.498969  0.177427  1
  O  O14  1  0.501031  0.501031  0.822573  1
  O  O15  1  0.403752  0.901803  0.427344  1
  O  O16  1  0.596248  0.098197  0.572656  1
  O  O17  1  0.098197  0.596248  0.572656  1
  O  O18  1  0.901803  0.403752  0.427344  1
