# generated using pymatgen
data_La2BeCo8NiP6
_symmetry_space_group_name_H-M   'P 1'
_cell_length_a   6.03891776
_cell_length_b   6.03891731
_cell_length_c   11.32367868
_cell_angle_alpha   90.80916059
_cell_angle_beta   89.19083901
_cell_angle_gamma   145.13352708
_symmetry_Int_Tables_number   1
_chemical_formula_structural   La2BeCo8NiP6
_chemical_formula_sum   'La2 Be1 Co8 Ni1 P6'
_cell_volume   236.04804552
_cell_formula_units_Z   1
loop_
 _symmetry_equiv_pos_site_id
 _symmetry_equiv_pos_as_xyz
  1  'x, y, z'
loop_
 _atom_site_type_symbol
 _atom_site_label
 _atom_site_symmetry_multiplicity
 _atom_site_fract_x
 _atom_site_fract_y
 _atom_site_fract_z
 _atom_site_occupancy
  La  La0  1  0.333476  0.666524  0.248384  1
  La  La1  1  0.666524  0.333476  0.751616  1
  Be  Be2  1  0.500000  0.500000  0.500000  1
  Co  Co3  1  0.049829  0.950171  0.144973  1
  Co  Co4  1  0.047092  0.952908  0.365525  1
  Co  Co5  1  0.688429  0.311571  0.439254  1
  Co  Co6  1  0.311571  0.688429  0.560746  1
  Co  Co7  1  0.303382  0.696618  0.931619  1
  Co  Co8  1  0.696618  0.303382  0.068381  1
  Co  Co9  1  0.952908  0.047092  0.634475  1
  Co  Co10  1  0.950171  0.049829  0.855027  1
  Ni  Ni11  1  0.500000  0.500000  0.000000  1
  P  P12  1  0.606631  0.393369  0.251865  1
  P  P13  1  0.393369  0.606631  0.748135  1
  P  P14  1  0.123893  0.876107  0.540988  1
  P  P15  1  0.876107  0.123893  0.459012  1
  P  P16  1  0.880346  0.119654  0.036668  1
  P  P17  1  0.119654  0.880346  0.963332  1
