# generated using pymatgen
data_TaTi17(Si8Tc)2
_symmetry_space_group_name_H-M   'P 1'
_cell_length_a   6.66647263
_cell_length_b   6.66647221
_cell_length_c   12.17161721
_cell_angle_alpha   90.05224095
_cell_angle_beta   89.94775976
_cell_angle_gamma   90.09102900
_symmetry_Int_Tables_number   1
_chemical_formula_structural   TaTi17(Si8Tc)2
_chemical_formula_sum   'Ta1 Ti17 Si16 Tc2'
_cell_volume   540.92811057
_cell_formula_units_Z   1
loop_
 _symmetry_equiv_pos_site_id
 _symmetry_equiv_pos_as_xyz
  1  'x, y, z'
loop_
 _atom_site_type_symbol
 _atom_site_label
 _atom_site_symmetry_multiplicity
 _atom_site_fract_x
 _atom_site_fract_y
 _atom_site_fract_z
 _atom_site_occupancy
  Ta  Ta0  1  0.171750  0.171750  0.000000  1
  Ti  Ti1  1  0.998527  0.148093  0.620965  1
  Ti  Ti2  1  0.350047  0.495228  0.872210  1
  Ti  Ti3  1  0.650263  0.504349  0.373129  1
  Ti  Ti4  1  0.495228  0.350047  0.127790  1
  Ti  Ti5  1  0.504349  0.650263  0.626871  1
  Ti  Ti6  1  0.002008  0.851728  0.121469  1
  Ti  Ti7  1  0.148093  0.998527  0.379035  1
  Ti  Ti8  1  0.851728  0.002008  0.878531  1
  Ti  Ti9  1  0.998262  0.339867  0.221790  1
  Ti  Ti10  1  0.156440  0.500572  0.472140  1
  Ti  Ti11  1  0.842047  0.500108  0.973263  1
  Ti  Ti12  1  0.500572  0.156440  0.527860  1
  Ti  Ti13  1  0.500108  0.842047  0.026737  1
  Ti  Ti14  1  0.001460  0.661563  0.720716  1
  Ti  Ti15  1  0.339867  0.998262  0.778210  1
  Ti  Ti16  1  0.661563  0.001460  0.279284  1
  Ti  Ti17  1  0.828391  0.828391  0.500000  1
  Si  Si18  1  0.038296  0.304553  0.812137  1
  Si  Si19  1  0.198975  0.547749  0.066787  1
  Si  Si20  1  0.801766  0.454769  0.566455  1
  Si  Si21  1  0.547749  0.198975  0.933213  1
  Si  Si22  1  0.454769  0.801766  0.433545  1
  Si  Si23  1  0.959549  0.697931  0.314734  1
  Si  Si24  1  0.304553  0.038296  0.187863  1
  Si  Si25  1  0.697931  0.959549  0.685266  1
  Si  Si26  1  0.295453  0.358654  0.672433  1
  Si  Si27  1  0.141497  0.792005  0.922829  1
  Si  Si28  1  0.856861  0.205710  0.424681  1
  Si  Si29  1  0.792005  0.141497  0.077171  1
  Si  Si30  1  0.205710  0.856861  0.575319  1
  Si  Si31  1  0.704888  0.641552  0.173699  1
  Si  Si32  1  0.358654  0.295453  0.327567  1
  Si  Si33  1  0.641552  0.704888  0.826301  1
  Tc  Tc34  1  0.328570  0.670521  0.250181  1
  Tc  Tc35  1  0.670521  0.328570  0.749819  1
