# generated using pymatgen
data_Lu12Al9Rh3C4
_symmetry_space_group_name_H-M   'P 1'
_cell_length_a   8.95168580
_cell_length_b   8.95168669
_cell_length_c   8.95168600
_cell_angle_alpha   60.01284682
_cell_angle_beta   60.01285089
_cell_angle_gamma   60.01284534
_symmetry_Int_Tables_number   1
_chemical_formula_structural   Lu12Al9Rh3C4
_chemical_formula_sum   'Lu12 Al9 Rh3 C4'
_cell_volume   507.37144620
_cell_formula_units_Z   1
loop_
 _symmetry_equiv_pos_site_id
 _symmetry_equiv_pos_as_xyz
  1  'x, y, z'
loop_
 _atom_site_type_symbol
 _atom_site_label
 _atom_site_symmetry_multiplicity
 _atom_site_fract_x
 _atom_site_fract_y
 _atom_site_fract_z
 _atom_site_occupancy
  Lu  Lu0  1  0.195439  0.803663  0.195439  1
  Lu  Lu1  1  0.804134  0.194522  0.804134  1
  Lu  Lu2  1  0.054561  0.446337  0.054561  1
  Lu  Lu3  1  0.055478  0.445866  0.445866  1
  Lu  Lu4  1  0.446337  0.054561  0.054561  1
  Lu  Lu5  1  0.445866  0.055478  0.445866  1
  Lu  Lu6  1  0.804134  0.804134  0.194522  1
  Lu  Lu7  1  0.054561  0.054561  0.446337  1
  Lu  Lu8  1  0.195439  0.195439  0.803663  1
  Lu  Lu9  1  0.194522  0.804134  0.804134  1
  Lu  Lu10  1  0.445866  0.445866  0.055478  1
  Lu  Lu11  1  0.803663  0.195439  0.195439  1
  Al  Al12  1  0.625000  0.625000  0.625000  1
  Al  Al13  1  0.832092  0.832092  0.520596  1
  Al  Al14  1  0.520596  0.832092  0.832092  1
  Al  Al15  1  0.417908  0.729404  0.417908  1
  Al  Al16  1  0.729404  0.417908  0.417908  1
  Al  Al17  1  0.423031  0.423031  0.423031  1
  Al  Al18  1  0.417908  0.417908  0.729404  1
  Al  Al19  1  0.832092  0.520596  0.832092  1
  Al  Al20  1  0.826969  0.826969  0.826969  1
  Rh  Rh21  1  0.125000  0.625000  0.625000  1
  Rh  Rh22  1  0.625000  0.625000  0.125000  1
  Rh  Rh23  1  0.625000  0.125000  0.625000  1
  C  C24  1  0.125000  0.125000  0.125000  1
  C  C25  1  0.125000  0.125000  0.625000  1
  C  C26  1  0.625000  0.125000  0.125000  1
  C  C27  1  0.125000  0.625000  0.125000  1
