# generated using pymatgen
data_LaPr3MgIr
_symmetry_space_group_name_H-M   'P 1'
_cell_length_a   10.13405159
_cell_length_b   10.13405192
_cell_length_c   10.13405200
_cell_angle_alpha   59.99999973
_cell_angle_beta   59.99999866
_cell_angle_gamma   60.00000395
_symmetry_Int_Tables_number   1
_chemical_formula_structural   LaPr3MgIr
_chemical_formula_sum   'La4 Pr12 Mg4 Ir4'
_cell_volume   735.92638511
_cell_formula_units_Z   4
loop_
 _symmetry_equiv_pos_site_id
 _symmetry_equiv_pos_as_xyz
  1  'x, y, z'
loop_
 _atom_site_type_symbol
 _atom_site_label
 _atom_site_symmetry_multiplicity
 _atom_site_fract_x
 _atom_site_fract_y
 _atom_site_fract_z
 _atom_site_occupancy
  La  La0  1  0.345467  0.345467  0.345467  1
  La  La1  1  0.345467  0.345467  0.963599  1
  La  La2  1  0.345467  0.963599  0.345467  1
  La  La3  1  0.963599  0.345467  0.345467  1
  Pr  Pr4  1  0.811927  0.188073  0.188073  1
  Pr  Pr5  1  0.188073  0.811927  0.811927  1
  Pr  Pr6  1  0.188073  0.811927  0.188073  1
  Pr  Pr7  1  0.811927  0.188073  0.811927  1
  Pr  Pr8  1  0.188073  0.188073  0.811927  1
  Pr  Pr9  1  0.811927  0.811927  0.188073  1
  Pr  Pr10  1  0.937455  0.562545  0.562545  1
  Pr  Pr11  1  0.562545  0.937455  0.937455  1
  Pr  Pr12  1  0.562545  0.937455  0.562545  1
  Pr  Pr13  1  0.937455  0.562545  0.937455  1
  Pr  Pr14  1  0.562545  0.562545  0.937455  1
  Pr  Pr15  1  0.937455  0.937455  0.562545  1
  Mg  Mg16  1  0.578899  0.578899  0.578899  1
  Mg  Mg17  1  0.578899  0.578899  0.263304  1
  Mg  Mg18  1  0.578899  0.263304  0.578899  1
  Mg  Mg19  1  0.263304  0.578899  0.578899  1
  Ir  Ir20  1  0.141821  0.141821  0.141821  1
  Ir  Ir21  1  0.141821  0.141821  0.574537  1
  Ir  Ir22  1  0.141821  0.574537  0.141821  1
  Ir  Ir23  1  0.574537  0.141821  0.141821  1
