# generated using pymatgen
data_Tb5Y12Lu3Pb16
_symmetry_space_group_name_H-M   'P 1'
_cell_length_a   8.19532908
_cell_length_b   8.28243992
_cell_length_c   15.66689217
_cell_angle_alpha   90.00625152
_cell_angle_beta   89.98417878
_cell_angle_gamma   89.93297514
_symmetry_Int_Tables_number   1
_chemical_formula_structural   Tb5Y12Lu3Pb16
_chemical_formula_sum   'Tb5 Y12 Lu3 Pb16'
_cell_volume   1063.42588986
_cell_formula_units_Z   1
loop_
 _symmetry_equiv_pos_site_id
 _symmetry_equiv_pos_as_xyz
  1  'x, y, z'
loop_
 _atom_site_type_symbol
 _atom_site_label
 _atom_site_symmetry_multiplicity
 _atom_site_fract_x
 _atom_site_fract_y
 _atom_site_fract_z
 _atom_site_occupancy
  Tb  Tb0  1  0.965617  0.822897  0.099911  1
  Tb  Tb1  1  0.466306  0.676171  0.099854  1
  Tb  Tb2  1  0.965649  0.822851  0.400136  1
  Tb  Tb3  1  0.534043  0.323238  0.599865  1
  Tb  Tb4  1  0.034073  0.176751  0.899897  1
  Y  Y5  1  0.376747  0.841338  0.879098  1
  Y  Y6  1  0.876659  0.658601  0.620637  1
  Y  Y7  1  0.623898  0.159199  0.379587  1
  Y  Y8  1  0.122857  0.341552  0.120473  1
  Y  Y9  1  0.623971  0.159137  0.120426  1
  Y  Y10  1  0.122893  0.341652  0.379495  1
  Y  Y11  1  0.376661  0.841424  0.620964  1
  Y  Y12  1  0.876557  0.658487  0.879360  1
  Y  Y13  1  0.534193  0.323356  0.900038  1
  Y  Y14  1  0.034244  0.176578  0.600219  1
  Y  Y15  1  0.466126  0.676050  0.400055  1
  Y  Y16  1  0.291582  0.003749  0.249974  1
  Lu  Lu17  1  0.208732  0.504019  0.750037  1
  Lu  Lu18  1  0.708720  0.995793  0.749936  1
  Lu  Lu19  1  0.791213  0.495781  0.250085  1
  Pb  Pb20  1  0.281697  0.033427  0.042776  1
  Pb  Pb21  1  0.781605  0.467400  0.456308  1
  Pb  Pb22  1  0.718410  0.967389  0.543970  1
  Pb  Pb23  1  0.218496  0.532898  0.956114  1
  Pb  Pb24  1  0.718121  0.967282  0.956154  1
  Pb  Pb25  1  0.218476  0.533146  0.543701  1
  Pb  Pb26  1  0.281535  0.033456  0.457377  1
  Pb  Pb27  1  0.781606  0.466847  0.043432  1
  Pb  Pb28  1  0.571187  0.626022  0.749974  1
  Pb  Pb29  1  0.071004  0.873595  0.750065  1
  Pb  Pb30  1  0.429299  0.374694  0.249933  1
  Pb  Pb31  1  0.927177  0.127299  0.250010  1
  Pb  Pb32  1  0.346394  0.154322  0.750114  1
  Pb  Pb33  1  0.846109  0.346193  0.749915  1
  Pb  Pb34  1  0.654654  0.845718  0.250107  1
  Pb  Pb35  1  0.153489  0.651688  0.250003  1
