# generated using pymatgen
data_Tb4Tm(In2Pt)2
_symmetry_space_group_name_H-M   'P 1'
_cell_length_a   3.64255600
_cell_length_b   8.17530980
_cell_length_c   18.27196379
_cell_angle_alpha   89.94926016
_cell_angle_beta   90.00000000
_cell_angle_gamma   90.00000000
_symmetry_Int_Tables_number   1
_chemical_formula_structural   Tb4Tm(In2Pt)2
_chemical_formula_sum   'Tb8 Tm2 In8 Pt4'
_cell_volume   544.12103068
_cell_formula_units_Z   2
loop_
 _symmetry_equiv_pos_site_id
 _symmetry_equiv_pos_as_xyz
  1  'x, y, z'
loop_
 _atom_site_type_symbol
 _atom_site_label
 _atom_site_symmetry_multiplicity
 _atom_site_fract_x
 _atom_site_fract_y
 _atom_site_fract_z
 _atom_site_occupancy
  Tb  Tb0  1  0.000000  0.383060  0.915211  1
  Tb  Tb1  1  0.000000  0.616940  0.084789  1
  Tb  Tb2  1  0.000000  0.242718  0.220103  1
  Tb  Tb3  1  0.000000  0.757282  0.779897  1
  Tb  Tb4  1  0.000000  0.257025  0.719448  1
  Tb  Tb5  1  0.000000  0.742975  0.280552  1
  Tb  Tb6  1  0.000000  0.000000  0.000000  1
  Tb  Tb7  1  0.000000  0.500000  0.500000  1
  Tm  Tm8  1  0.000000  0.116017  0.414277  1
  Tm  Tm9  1  0.000000  0.883983  0.585723  1
  In  In10  1  0.500000  0.421221  0.351598  1
  In  In11  1  0.500000  0.578779  0.648402  1
  In  In12  1  0.500000  0.076168  0.850802  1
  In  In13  1  0.500000  0.923832  0.149198  1
  In  In14  1  0.500000  0.292029  0.066889  1
  In  In15  1  0.500000  0.707971  0.933111  1
  In  In16  1  0.500000  0.204747  0.565591  1
  In  In17  1  0.500000  0.795253  0.434409  1
  Pt  Pt18  1  0.500000  0.026140  0.305066  1
  Pt  Pt19  1  0.500000  0.973860  0.694934  1
  Pt  Pt20  1  0.500000  0.474906  0.803085  1
  Pt  Pt21  1  0.500000  0.525094  0.196915  1
