# generated using pymatgen
data_Tb3YCoB14
_symmetry_space_group_name_H-M   'P 1'
_cell_length_a   7.22877673
_cell_length_b   7.22989073
_cell_length_c   7.52709100
_cell_angle_alpha   90.00000000
_cell_angle_beta   90.00000000
_cell_angle_gamma   90.05136489
_symmetry_Int_Tables_number   1
_chemical_formula_structural   Tb3YCoB14
_chemical_formula_sum   'Tb6 Y2 Co2 B28'
_cell_volume   393.39019967
_cell_formula_units_Z   2
loop_
 _symmetry_equiv_pos_site_id
 _symmetry_equiv_pos_as_xyz
  1  'x, y, z'
loop_
 _atom_site_type_symbol
 _atom_site_label
 _atom_site_symmetry_multiplicity
 _atom_site_fract_x
 _atom_site_fract_y
 _atom_site_fract_z
 _atom_site_occupancy
  Tb  Tb0  1  0.193012  0.329857  0.000000  1
  Tb  Tb1  1  0.670236  0.193128  0.000000  1
  Tb  Tb2  1  0.329764  0.806872  0.000000  1
  Tb  Tb3  1  0.693168  0.170169  0.500000  1
  Tb  Tb4  1  0.306832  0.829831  0.500000  1
  Tb  Tb5  1  0.806988  0.670143  0.000000  1
  Y  Y6  1  0.830117  0.692997  0.500000  1
  Y  Y7  1  0.169883  0.307003  0.500000  1
  Co  Co8  1  0.000000  0.000000  0.000000  1
  Co  Co9  1  0.500000  0.500000  0.500000  1
  B  B10  1  0.173889  0.038841  0.231161  1
  B  B11  1  0.961226  0.173839  0.231279  1
  B  B12  1  0.038774  0.826161  0.231279  1
  B  B13  1  0.673914  0.461267  0.269158  1
  B  B14  1  0.326086  0.538733  0.269158  1
  B  B15  1  0.826111  0.961159  0.231161  1
  B  B16  1  0.538927  0.673906  0.269076  1
  B  B17  1  0.461073  0.326094  0.269076  1
  B  B18  1  0.826111  0.961159  0.768839  1
  B  B19  1  0.038774  0.826161  0.768721  1
  B  B20  1  0.961226  0.173839  0.768721  1
  B  B21  1  0.326086  0.538733  0.730842  1
  B  B22  1  0.673914  0.461267  0.730842  1
  B  B23  1  0.173889  0.038841  0.768839  1
  B  B24  1  0.461073  0.326094  0.730924  1
  B  B25  1  0.538927  0.673906  0.730924  1
  B  B26  1  0.088452  0.588546  0.250013  1
  B  B27  1  0.411600  0.088400  0.249972  1
  B  B28  1  0.588400  0.911600  0.249972  1
  B  B29  1  0.911548  0.411454  0.250013  1
  B  B30  1  0.911548  0.411454  0.749987  1
  B  B31  1  0.588400  0.911600  0.750028  1
  B  B32  1  0.411600  0.088400  0.750028  1
  B  B33  1  0.088452  0.588546  0.749987  1
  B  B34  1  0.000000  0.000000  0.388356  1
  B  B35  1  0.500000  0.500000  0.111880  1
  B  B36  1  0.000000  0.000000  0.611644  1
  B  B37  1  0.500000  0.500000  0.888120  1
