# generated using pymatgen
data_Hf3ZrSc2Si2(Tc3As2)2
_symmetry_space_group_name_H-M   'P 1'
_cell_length_a   7.78529577
_cell_length_b   7.80218595
_cell_length_c   7.78529692
_cell_angle_alpha   126.89098409
_cell_angle_beta   127.03176280
_cell_angle_gamma   78.26338963
_symmetry_Int_Tables_number   1
_chemical_formula_structural   Hf3ZrSc2Si2(Tc3As2)2
_chemical_formula_sum   'Hf3 Zr1 Sc2 Si2 Tc6 As4'
_cell_volume   292.52268197
_cell_formula_units_Z   1
loop_
 _symmetry_equiv_pos_site_id
 _symmetry_equiv_pos_as_xyz
  1  'x, y, z'
loop_
 _atom_site_type_symbol
 _atom_site_label
 _atom_site_symmetry_multiplicity
 _atom_site_fract_x
 _atom_site_fract_y
 _atom_site_fract_z
 _atom_site_occupancy
  Hf  Hf0  1  0.249237  0.854883  0.105645  1
  Hf  Hf1  1  0.051390  0.253379  0.701989  1
  Hf  Hf2  1  0.948809  0.649957  0.201148  1
  Zr  Zr3  1  0.450927  0.656074  0.705147  1
  Sc  Sc4  1  0.549118  0.251263  0.202144  1
  Sc  Sc5  1  0.749354  0.852577  0.603222  1
  Si  Si6  1  0.252255  0.256304  0.504050  1
  Si  Si7  1  0.747397  0.249280  0.001883  1
  Tc  Tc8  1  0.499627  0.503393  0.002160  1
  Tc  Tc9  1  0.001234  0.503393  0.503766  1
  Tc  Tc10  1  0.120772  0.254052  0.124681  1
  Tc  Tc11  1  0.881611  0.003298  0.134851  1
  Tc  Tc12  1  0.368447  0.003298  0.621687  1
  Tc  Tc13  1  0.629370  0.254052  0.633278  1
  As  As14  1  0.335324  0.585759  0.252839  1
  As  As15  1  0.667316  0.921441  0.256548  1
  As  As16  1  0.164893  0.921441  0.754126  1
  As  As17  1  0.832919  0.585759  0.750434  1
