# generated using pymatgen
data_Ho2Er3(TcO6)2
_symmetry_space_group_name_H-M   'P 1'
_cell_length_a   6.78280402
_cell_length_b   6.78280588
_cell_length_c   7.48209259
_cell_angle_alpha   73.80882191
_cell_angle_beta   73.80881535
_cell_angle_gamma   49.20248433
_symmetry_Int_Tables_number   1
_chemical_formula_structural   Ho2Er3(TcO6)2
_chemical_formula_sum   'Ho2 Er3 Tc2 O12'
_cell_volume   248.02888956
_cell_formula_units_Z   1
loop_
 _symmetry_equiv_pos_site_id
 _symmetry_equiv_pos_as_xyz
  1  'x, y, z'
loop_
 _atom_site_type_symbol
 _atom_site_label
 _atom_site_symmetry_multiplicity
 _atom_site_fract_x
 _atom_site_fract_y
 _atom_site_fract_z
 _atom_site_occupancy
  Ho  Ho0  1  0.695816  0.695816  0.641856  1
  Ho  Ho1  1  0.304184  0.304184  0.358144  1
  Er  Er2  1  0.684445  0.684445  0.176334  1
  Er  Er3  1  0.315555  0.315555  0.823666  1
  Er  Er4  1  0.000000  0.000000  0.500000  1
  Tc  Tc5  1  0.785513  0.214487  0.000000  1
  Tc  Tc6  1  0.214487  0.785513  0.000000  1
  O  O7  1  0.001118  0.001118  0.205622  1
  O  O8  1  0.998882  0.998882  0.794378  1
  O  O9  1  0.582539  0.086234  0.084510  1
  O  O10  1  0.417461  0.913766  0.915490  1
  O  O11  1  0.913766  0.417461  0.915490  1
  O  O12  1  0.086234  0.582539  0.084510  1
  O  O13  1  0.499225  0.499225  0.179371  1
  O  O14  1  0.500775  0.500775  0.820629  1
  O  O15  1  0.405418  0.901447  0.425694  1
  O  O16  1  0.594582  0.098553  0.574306  1
  O  O17  1  0.098553  0.594582  0.574306  1
  O  O18  1  0.901447  0.405418  0.425694  1
