# generated using pymatgen
data_Tb4ErRh5
_symmetry_space_group_name_H-M   'P 1'
_cell_length_a   3.43847800
_cell_length_b   3.43847800
_cell_length_c   17.18816900
_cell_angle_alpha   90.00000000
_cell_angle_beta   90.00000000
_cell_angle_gamma   90.00000000
_symmetry_Int_Tables_number   1
_chemical_formula_structural   Tb4ErRh5
_chemical_formula_sum   'Tb4 Er1 Rh5'
_cell_volume   203.21797299
_cell_formula_units_Z   1
loop_
 _symmetry_equiv_pos_site_id
 _symmetry_equiv_pos_as_xyz
  1  'x, y, z'
loop_
 _atom_site_type_symbol
 _atom_site_label
 _atom_site_symmetry_multiplicity
 _atom_site_fract_x
 _atom_site_fract_y
 _atom_site_fract_z
 _atom_site_occupancy
  Tb  Tb0  1  0.000000  0.000000  0.199003  1
  Tb  Tb1  1  0.000000  0.000000  0.399755  1
  Tb  Tb2  1  0.000000  0.000000  0.600245  1
  Tb  Tb3  1  0.000000  0.000000  0.800997  1
  Er  Er4  1  0.000000  0.000000  0.000000  1
  Rh  Rh5  1  0.500000  0.500000  0.097249  1
  Rh  Rh6  1  0.500000  0.500000  0.299214  1
  Rh  Rh7  1  0.500000  0.500000  0.500000  1
  Rh  Rh8  1  0.500000  0.500000  0.700786  1
  Rh  Rh9  1  0.500000  0.500000  0.902751  1
