# generated using pymatgen
data_Er3Th2Si12Ir19
_symmetry_space_group_name_H-M   'P 1'
_cell_length_a   12.89637343
_cell_length_b   12.90213467
_cell_length_c   3.99456100
_cell_angle_alpha   90.00000000
_cell_angle_beta   90.00000000
_cell_angle_gamma   120.01478455
_symmetry_Int_Tables_number   1
_chemical_formula_structural   Er3Th2Si12Ir19
_chemical_formula_sum   'Er3 Th2 Si12 Ir19'
_cell_volume   575.52492898
_cell_formula_units_Z   1
loop_
 _symmetry_equiv_pos_site_id
 _symmetry_equiv_pos_as_xyz
  1  'x, y, z'
loop_
 _atom_site_type_symbol
 _atom_site_label
 _atom_site_symmetry_multiplicity
 _atom_site_fract_x
 _atom_site_fract_y
 _atom_site_fract_z
 _atom_site_occupancy
  Er  Er0  1  0.666212  0.333057  0.000000  1
  Er  Er1  1  0.333788  0.666846  0.000000  1
  Er  Er2  1  0.000000  0.189193  0.500000  1
  Th  Th3  1  0.813346  0.814871  0.500000  1
  Th  Th4  1  0.186654  0.001525  0.500000  1
  Si  Si5  1  0.688887  0.170895  0.500000  1
  Si  Si6  1  0.829638  0.516738  0.500000  1
  Si  Si7  1  0.481411  0.311560  0.500000  1
  Si  Si8  1  0.170362  0.687101  0.500000  1
  Si  Si9  1  0.518589  0.830150  0.500000  1
  Si  Si10  1  0.311113  0.482009  0.500000  1
  Si  Si11  1  0.627884  0.627924  0.000000  1
  Si  Si12  1  0.372116  0.000040  0.000000  1
  Si  Si13  1  0.000000  0.368548  0.000000  1
  Si  Si14  1  0.179815  0.184860  0.000000  1
  Si  Si15  1  0.820185  0.005046  0.000000  1
  Si  Si16  1  0.000000  0.815468  0.000000  1
  Ir  Ir17  1  0.805821  0.183718  0.000000  1
  Ir  Ir18  1  0.817286  0.622370  0.000000  1
  Ir  Ir19  1  0.376246  0.194506  0.000000  1
  Ir  Ir20  1  0.182714  0.805085  0.000000  1
  Ir  Ir21  1  0.623754  0.818260  0.000000  1
  Ir  Ir22  1  0.194179  0.377897  0.000000  1
  Ir  Ir23  1  0.446307  0.445340  0.000000  1
  Ir  Ir24  1  0.553693  0.999033  0.000000  1
  Ir  Ir25  1  0.000000  0.552322  0.000000  1
  Ir  Ir26  1  0.283398  0.284203  0.500000  1
  Ir  Ir27  1  0.716602  0.000805  0.500000  1
  Ir  Ir28  1  0.000000  0.714357  0.500000  1
  Ir  Ir29  1  0.873387  0.361564  0.500000  1
  Ir  Ir30  1  0.638171  0.510524  0.500000  1
  Ir  Ir31  1  0.488988  0.126818  0.500000  1
  Ir  Ir32  1  0.361829  0.872352  0.500000  1
  Ir  Ir33  1  0.511012  0.637828  0.500000  1
  Ir  Ir34  1  0.126613  0.488175  0.500000  1
  Ir  Ir35  1  0.000000  0.999011  0.000000  1
