# generated using pymatgen
data_Ho4MnCo4(P4Ir5)3
_symmetry_space_group_name_H-M   'P 1'
_cell_length_a   3.91642900
_cell_length_b   10.70593950
_cell_length_c   12.37282680
_cell_angle_alpha   90.13616941
_cell_angle_beta   90.00000000
_cell_angle_gamma   90.00000000
_symmetry_Int_Tables_number   1
_chemical_formula_structural   Ho4MnCo4(P4Ir5)3
_chemical_formula_sum   'Ho4 Mn1 Co4 P12 Ir15'
_cell_volume   518.77943247
_cell_formula_units_Z   1
loop_
 _symmetry_equiv_pos_site_id
 _symmetry_equiv_pos_as_xyz
  1  'x, y, z'
loop_
 _atom_site_type_symbol
 _atom_site_label
 _atom_site_symmetry_multiplicity
 _atom_site_fract_x
 _atom_site_fract_y
 _atom_site_fract_z
 _atom_site_occupancy
  Ho  Ho0  1  0.250000  0.585238  0.709879  1
  Ho  Ho1  1  0.250000  0.912619  0.208681  1
  Ho  Ho2  1  0.750000  0.416615  0.289988  1
  Ho  Ho3  1  0.750000  0.083068  0.793189  1
  Mn  Mn4  1  0.250000  0.714914  0.977536  1
  Co  Co5  1  0.250000  0.465004  0.934109  1
  Co  Co6  1  0.250000  0.037092  0.433445  1
  Co  Co7  1  0.750000  0.535835  0.064264  1
  Co  Co8  1  0.750000  0.963814  0.564972  1
  P  P9  1  0.250000  0.426514  0.105879  1
  P  P10  1  0.250000  0.074736  0.605665  1
  P  P11  1  0.750000  0.575484  0.894007  1
  P  P12  1  0.750000  0.925791  0.393342  1
  P  P13  1  0.250000  0.270556  0.870798  1
  P  P14  1  0.250000  0.229513  0.373425  1
  P  P15  1  0.750000  0.728434  0.126831  1
  P  P16  1  0.750000  0.772497  0.628690  1
  P  P17  1  0.250000  0.595779  0.382212  1
  P  P18  1  0.250000  0.899924  0.889401  1
  P  P19  1  0.750000  0.405027  0.617265  1
  P  P20  1  0.750000  0.092015  0.112848  1
  Ir  Ir21  1  0.250000  0.776969  0.484759  1
  Ir  Ir22  1  0.750000  0.282201  0.024661  1
  Ir  Ir23  1  0.750000  0.224584  0.513530  1
  Ir  Ir24  1  0.250000  0.410664  0.478099  1
  Ir  Ir25  1  0.250000  0.094983  0.981036  1
  Ir  Ir26  1  0.750000  0.591767  0.523584  1
  Ir  Ir27  1  0.750000  0.904303  0.018569  1
  Ir  Ir28  1  0.250000  0.233623  0.183107  1
  Ir  Ir29  1  0.250000  0.269690  0.677279  1
  Ir  Ir30  1  0.750000  0.767444  0.819155  1
  Ir  Ir31  1  0.750000  0.730495  0.322156  1
  Ir  Ir32  1  0.250000  0.889658  0.699680  1
  Ir  Ir33  1  0.250000  0.617907  0.195241  1
  Ir  Ir34  1  0.750000  0.111573  0.298813  1
  Ir  Ir35  1  0.750000  0.383671  0.803906  1
