# generated using pymatgen
data_Dy(AlB14)2
_symmetry_space_group_name_H-M   'P 1'
_cell_length_a   7.22170311
_cell_length_b   7.22170315
_cell_length_c   5.82877500
_cell_angle_alpha   66.43311292
_cell_angle_beta   66.43311361
_cell_angle_gamma   92.27911120
_symmetry_Int_Tables_number   1
_chemical_formula_structural   Dy(AlB14)2
_chemical_formula_sum   'Dy1 Al2 B28'
_cell_volume   248.07986183
_cell_formula_units_Z   1
loop_
 _symmetry_equiv_pos_site_id
 _symmetry_equiv_pos_as_xyz
  1  'x, y, z'
loop_
 _atom_site_type_symbol
 _atom_site_label
 _atom_site_symmetry_multiplicity
 _atom_site_fract_x
 _atom_site_fract_y
 _atom_site_fract_z
 _atom_site_occupancy
  Dy  Dy0  1  0.891144  0.891143  0.356933  1
  Al  Al1  1  0.498147  0.498147  0.505172  1
  Al  Al2  1  0.158451  0.158452  0.496312  1
  B  B3  1  0.417218  0.736533  0.171618  1
  B  B4  1  0.583907  0.258283  0.834396  1
  B  B5  1  0.258283  0.583907  0.834396  1
  B  B6  1  0.736533  0.417218  0.171618  1
  B  B7  1  0.694582  0.860854  0.972974  1
  B  B8  1  0.305287  0.134863  0.035336  1
  B  B9  1  0.134863  0.305287  0.035336  1
  B  B10  1  0.860854  0.694581  0.972974  1
  B  B11  1  0.534046  0.872244  0.299514  1
  B  B12  1  0.469986  0.124000  0.205269  1
  B  B13  1  0.124000  0.469986  0.205269  1
  B  B14  1  0.872243  0.534046  0.299514  1
  B  B15  1  0.462489  0.121679  0.711754  1
  B  B16  1  0.532139  0.870436  0.801034  1
  B  B17  1  0.870435  0.532138  0.801034  1
  B  B18  1  0.121678  0.462488  0.711755  1
  B  B19  1  0.723218  0.100065  0.999690  1
  B  B20  1  0.279652  0.893301  0.325841  1
  B  B21  1  0.893301  0.279652  0.325841  1
  B  B22  1  0.100064  0.723217  0.999690  1
  B  B23  1  0.276998  0.895807  0.008410  1
  B  B24  1  0.720163  0.100900  0.684864  1
  B  B25  1  0.100900  0.720163  0.684864  1
  B  B26  1  0.895806  0.276997  0.008411  1
  B  B27  1  0.271503  0.473362  0.379554  1
  B  B28  1  0.716662  0.522087  0.640537  1
  B  B29  1  0.522087  0.716662  0.640536  1
  B  B30  1  0.473363  0.271503  0.379554  1
