# generated using pymatgen
data_Ca6Nd2Cu3Si12Pd
_symmetry_space_group_name_H-M   'P 1'
_cell_length_a   8.15393200
_cell_length_b   8.15393265
_cell_length_c   8.52742600
_cell_angle_alpha   90.00000000
_cell_angle_beta   90.00000000
_cell_angle_gamma   119.99999737
_symmetry_Int_Tables_number   1
_chemical_formula_structural   Ca6Nd2Cu3Si12Pd
_chemical_formula_sum   'Ca6 Nd2 Cu3 Si12 Pd1'
_cell_volume   491.00148727
_cell_formula_units_Z   1
loop_
 _symmetry_equiv_pos_site_id
 _symmetry_equiv_pos_as_xyz
  1  'x, y, z'
loop_
 _atom_site_type_symbol
 _atom_site_label
 _atom_site_symmetry_multiplicity
 _atom_site_fract_x
 _atom_site_fract_y
 _atom_site_fract_z
 _atom_site_occupancy
  Ca  Ca0  1  0.500306  0.499694  0.748186  1
  Ca  Ca1  1  0.500443  0.499557  0.251853  1
  Ca  Ca2  1  0.999388  0.499694  0.748186  1
  Ca  Ca3  1  0.999114  0.499557  0.251853  1
  Ca  Ca4  1  0.500306  0.000612  0.748186  1
  Ca  Ca5  1  0.500443  0.000886  0.251853  1
  Nd  Nd6  1  0.000000  0.000000  0.749318  1
  Nd  Nd7  1  0.000000  0.000000  0.250747  1
  Cu  Cu8  1  0.666667  0.333333  0.999551  1
  Cu  Cu9  1  0.333333  0.666667  0.000755  1
  Cu  Cu10  1  0.333333  0.666667  0.499045  1
  Si  Si11  1  0.831705  0.168295  0.000097  1
  Si  Si12  1  0.167981  0.832019  0.999982  1
  Si  Si13  1  0.336591  0.168295  0.000097  1
  Si  Si14  1  0.167400  0.832600  0.500005  1
  Si  Si15  1  0.664039  0.832019  0.999982  1
  Si  Si16  1  0.834111  0.165889  0.500021  1
  Si  Si17  1  0.831705  0.663409  0.000097  1
  Si  Si18  1  0.665199  0.832600  0.500005  1
  Si  Si19  1  0.167981  0.335961  0.999982  1
  Si  Si20  1  0.331779  0.165889  0.500021  1
  Si  Si21  1  0.167400  0.334801  0.500005  1
  Si  Si22  1  0.834111  0.668221  0.500021  1
  Pd  Pd23  1  0.666667  0.333333  0.500150  1
