# generated using pymatgen
data_Li4La3PrSn3Bi
_symmetry_space_group_name_H-M   'P 1'
_cell_length_a   9.69692106
_cell_length_b   9.69046291
_cell_length_c   7.83572902
_cell_angle_alpha   89.99907116
_cell_angle_beta   90.07083964
_cell_angle_gamma   119.98139409
_symmetry_Int_Tables_number   1
_chemical_formula_structural   Li4La3PrSn3Bi
_chemical_formula_sum   'Li8 La6 Pr2 Sn6 Bi2'
_cell_volume   637.77777415
_cell_formula_units_Z   2
loop_
 _symmetry_equiv_pos_site_id
 _symmetry_equiv_pos_as_xyz
  1  'x, y, z'
loop_
 _atom_site_type_symbol
 _atom_site_label
 _atom_site_symmetry_multiplicity
 _atom_site_fract_x
 _atom_site_fract_y
 _atom_site_fract_z
 _atom_site_occupancy
  Li  Li0  1  0.832698  0.165689  0.719906  1
  Li  Li1  1  0.832697  0.667030  0.719907  1
  Li  Li2  1  0.333917  0.166969  0.714987  1
  Li  Li3  1  0.169826  0.835592  0.214241  1
  Li  Li4  1  0.169834  0.334224  0.214252  1
  Li  Li5  1  0.663802  0.831891  0.208682  1
  Li  Li6  1  0.663071  0.331529  0.331937  1
  Li  Li7  1  0.334368  0.667188  0.826417  1
  La  La8  1  0.484450  0.508662  0.507270  1
  La  La9  1  0.484468  0.975780  0.507260  1
  La  La10  1  0.026407  0.513198  0.509523  1
  La  La11  1  0.506441  0.486679  0.001737  1
  La  La12  1  0.506460  0.019781  0.001747  1
  La  La13  1  0.983348  0.491681  0.999810  1
  Pr  Pr14  1  0.004807  0.002391  0.506391  1
  Pr  Pr15  1  0.004883  0.002447  0.996196  1
  Sn  Sn16  1  0.331023  0.165515  0.270036  1
  Sn  Sn17  1  0.164827  0.834219  0.768666  1
  Sn  Sn18  1  0.164834  0.330613  0.768649  1
  Sn  Sn19  1  0.668796  0.834393  0.770395  1
  Sn  Sn20  1  0.667614  0.333807  0.733296  1
  Sn  Sn21  1  0.332703  0.666352  0.233071  1
  Bi  Bi22  1  0.834363  0.166174  0.266831  1
  Bi  Bi23  1  0.834364  0.668196  0.266801  1
