# generated using pymatgen
data_Ca8GaSi12Pt2Rh
_symmetry_space_group_name_H-M   'P 1'
_cell_length_a   8.20534500
_cell_length_b   8.20534233
_cell_length_c   8.63983800
_cell_angle_alpha   90.00017457
_cell_angle_beta   89.99985336
_cell_angle_gamma   119.99999867
_symmetry_Int_Tables_number   1
_chemical_formula_structural   Ca8GaSi12Pt2Rh
_chemical_formula_sum   'Ca8 Ga1 Si12 Pt2 Rh1'
_cell_volume   503.76708425
_cell_formula_units_Z   1
loop_
 _symmetry_equiv_pos_site_id
 _symmetry_equiv_pos_as_xyz
  1  'x, y, z'
loop_
 _atom_site_type_symbol
 _atom_site_label
 _atom_site_symmetry_multiplicity
 _atom_site_fract_x
 _atom_site_fract_y
 _atom_site_fract_z
 _atom_site_occupancy
  Ca  Ca0  1  0.000000  0.000000  0.745352  1
  Ca  Ca1  1  0.000000  0.000001  0.255182  1
  Ca  Ca2  1  0.496134  0.503868  0.743016  1
  Ca  Ca3  1  0.496133  0.992266  0.743015  1
  Ca  Ca4  1  0.007734  0.503868  0.743016  1
  Ca  Ca5  1  0.497346  0.502653  0.256891  1
  Ca  Ca6  1  0.005307  0.502651  0.256891  1
  Ca  Ca7  1  0.497349  0.994694  0.256890  1
  Ga  Ga8  1  0.666667  0.333333  0.996423  1
  Si  Si9  1  0.842022  0.157978  0.000328  1
  Si  Si10  1  0.842021  0.684042  0.000329  1
  Si  Si11  1  0.315958  0.157979  0.000329  1
  Si  Si12  1  0.833787  0.166213  0.500426  1
  Si  Si13  1  0.833786  0.667572  0.500426  1
  Si  Si14  1  0.332427  0.166213  0.500426  1
  Si  Si15  1  0.165638  0.834361  0.499628  1
  Si  Si16  1  0.668722  0.834361  0.499629  1
  Si  Si17  1  0.165639  0.331278  0.499629  1
  Si  Si18  1  0.171679  0.828321  0.000289  1
  Si  Si19  1  0.656642  0.828321  0.000290  1
  Si  Si20  1  0.171679  0.343357  0.000289  1
  Pt  Pt21  1  0.666666  0.333333  0.501065  1
  Pt  Pt22  1  0.333333  0.666667  0.498883  1
  Rh  Rh23  1  0.333333  0.666668  0.001357  1
