# generated using pymatgen
data_Li3CaEuCd
_symmetry_space_group_name_H-M   'P 1'
_cell_length_a   6.14542900
_cell_length_b   6.14542870
_cell_length_c   9.78801500
_cell_angle_alpha   90.00000000
_cell_angle_beta   90.00000000
_cell_angle_gamma   120.00000698
_symmetry_Int_Tables_number   1
_chemical_formula_structural   Li3CaEuCd
_chemical_formula_sum   'Li6 Ca2 Eu2 Cd2'
_cell_volume   320.13239036
_cell_formula_units_Z   2
loop_
 _symmetry_equiv_pos_site_id
 _symmetry_equiv_pos_as_xyz
  1  'x, y, z'
loop_
 _atom_site_type_symbol
 _atom_site_label
 _atom_site_symmetry_multiplicity
 _atom_site_fract_x
 _atom_site_fract_y
 _atom_site_fract_z
 _atom_site_occupancy
  Li  Li0  1  0.161653  0.323305  0.753454  1
  Li  Li1  1  0.161653  0.838347  0.753454  1
  Li  Li2  1  0.323305  0.161653  0.246546  1
  Li  Li3  1  0.838347  0.676695  0.246546  1
  Li  Li4  1  0.676695  0.838347  0.753454  1
  Li  Li5  1  0.838347  0.161653  0.246546  1
  Ca  Ca6  1  0.666667  0.333333  0.944799  1
  Ca  Ca7  1  0.333333  0.666667  0.055201  1
  Eu  Eu8  1  0.333333  0.666667  0.441838  1
  Eu  Eu9  1  0.666667  0.333333  0.558162  1
  Cd  Cd10  1  0.000000  0.000000  0.000000  1
  Cd  Cd11  1  0.000000  0.000000  0.500000  1
