# generated using pymatgen
data_Pu2TiO5
_symmetry_space_group_name_H-M   'P 1'
_cell_length_a   3.81017400
_cell_length_b   10.59820500
_cell_length_c   11.43775100
_cell_angle_alpha   90.00000000
_cell_angle_beta   90.00000000
_cell_angle_gamma   90.00000000
_symmetry_Int_Tables_number   1
_chemical_formula_structural   Pu2TiO5
_chemical_formula_sum   'Pu8 Ti4 O20'
_cell_volume   461.86788189
_cell_formula_units_Z   4
loop_
 _symmetry_equiv_pos_site_id
 _symmetry_equiv_pos_as_xyz
  1  'x, y, z'
loop_
 _atom_site_type_symbol
 _atom_site_label
 _atom_site_symmetry_multiplicity
 _atom_site_fract_x
 _atom_site_fract_y
 _atom_site_fract_z
 _atom_site_occupancy
  Pu  Pu0  1  0.750000  0.365003  0.440886  1
  Pu  Pu1  1  0.250000  0.634997  0.559114  1
  Pu  Pu2  1  0.750000  0.890754  0.720229  1
  Pu  Pu3  1  0.750000  0.390754  0.779771  1
  Pu  Pu4  1  0.250000  0.109246  0.279771  1
  Pu  Pu5  1  0.250000  0.609246  0.220229  1
  Pu  Pu6  1  0.750000  0.865003  0.059114  1
  Pu  Pu7  1  0.250000  0.134997  0.940886  1
  Ti  Ti8  1  0.250000  0.179423  0.620553  1
  Ti  Ti9  1  0.750000  0.320577  0.120553  1
  Ti  Ti10  1  0.750000  0.820577  0.379447  1
  Ti  Ti11  1  0.250000  0.679423  0.879447  1
  O  O12  1  0.750000  0.239328  0.271644  1
  O  O13  1  0.250000  0.260672  0.771644  1
  O  O14  1  0.250000  0.225055  0.455801  1
  O  O15  1  0.750000  0.006533  0.898216  1
  O  O16  1  0.750000  0.986866  0.343121  1
  O  O17  1  0.250000  0.493467  0.398216  1
  O  O18  1  0.750000  0.506533  0.601784  1
  O  O19  1  0.750000  0.774945  0.544199  1
  O  O20  1  0.250000  0.766683  0.383006  1
  O  O21  1  0.750000  0.733317  0.883006  1
  O  O22  1  0.750000  0.274945  0.955801  1
  O  O23  1  0.750000  0.486866  0.156879  1
  O  O24  1  0.250000  0.266683  0.116994  1
  O  O25  1  0.250000  0.013134  0.656879  1
  O  O26  1  0.750000  0.233317  0.616994  1
  O  O27  1  0.250000  0.993467  0.101784  1
  O  O28  1  0.750000  0.739328  0.228356  1
  O  O29  1  0.250000  0.725055  0.044199  1
  O  O30  1  0.250000  0.513134  0.843121  1
  O  O31  1  0.250000  0.760672  0.728356  1
