# generated using pymatgen
data_InHgBPt6
_symmetry_space_group_name_H-M   'P 1'
_cell_length_a   5.87717128
_cell_length_b   5.87717098
_cell_length_c   5.87717100
_cell_angle_alpha   60.00000551
_cell_angle_beta   60.00000720
_cell_angle_gamma   59.99999661
_symmetry_Int_Tables_number   1
_chemical_formula_structural   InHgBPt6
_chemical_formula_sum   'In1 Hg1 B1 Pt6'
_cell_volume   143.54564888
_cell_formula_units_Z   1
loop_
 _symmetry_equiv_pos_site_id
 _symmetry_equiv_pos_as_xyz
  1  'x, y, z'
loop_
 _atom_site_type_symbol
 _atom_site_label
 _atom_site_symmetry_multiplicity
 _atom_site_fract_x
 _atom_site_fract_y
 _atom_site_fract_z
 _atom_site_occupancy
  In  In0  1  0.750000  0.750000  0.750000  1
  Hg  Hg1  1  0.250000  0.250000  0.250000  1
  B  B2  1  0.499999  0.499999  0.499999  1
  Pt  Pt3  1  0.244019  0.755980  0.244019  1
  Pt  Pt4  1  0.755980  0.755980  0.244019  1
  Pt  Pt5  1  0.755980  0.244019  0.244019  1
  Pt  Pt6  1  0.244019  0.244019  0.755980  1
  Pt  Pt7  1  0.755980  0.244019  0.755980  1
  Pt  Pt8  1  0.244019  0.755980  0.755980  1
