# generated using pymatgen
data_SbOsOF10
_symmetry_space_group_name_H-M   'P 1'
_cell_length_a   6.67978900
_cell_length_b   8.21682808
_cell_length_c   8.23201202
_cell_angle_alpha   85.31036480
_cell_angle_beta   90.00000000
_cell_angle_gamma   90.00000000
_symmetry_Int_Tables_number   1
_chemical_formula_structural   SbOsOF10
_chemical_formula_sum   'Sb2 Os2 O2 F20'
_cell_volume   450.31515925
_cell_formula_units_Z   2
loop_
 _symmetry_equiv_pos_site_id
 _symmetry_equiv_pos_as_xyz
  1  'x, y, z'
loop_
 _atom_site_type_symbol
 _atom_site_label
 _atom_site_symmetry_multiplicity
 _atom_site_fract_x
 _atom_site_fract_y
 _atom_site_fract_z
 _atom_site_occupancy
  Sb  Sb0  1  0.514714  0.330850  0.327445  1
  Sb  Sb1  1  0.514714  0.669150  0.672555  1
  Os  Os2  1  0.010154  0.810058  0.188563  1
  Os  Os3  1  0.010154  0.189942  0.811437  1
  O  O4  1  0.020769  0.340251  0.662176  1
  O  O5  1  0.020769  0.659749  0.337824  1
  F  F6  1  0.286982  0.761309  0.559815  1
  F  F7  1  0.998582  0.010785  0.687306  1
  F  F8  1  0.994646  0.000000  0.000000  1
  F  F9  1  0.343577  0.481390  0.206577  1
  F  F10  1  0.018846  0.312734  0.991580  1
  F  F11  1  0.282233  0.149256  0.840456  1
  F  F12  1  0.508246  0.500000  0.500000  1
  F  F13  1  0.734252  0.825173  0.162241  1
  F  F14  1  0.998582  0.989215  0.312694  1
  F  F15  1  0.519957  0.176353  0.169378  1
  F  F16  1  0.741713  0.550012  0.757619  1
  F  F17  1  0.282233  0.850744  0.159544  1
  F  F18  1  0.685576  0.210479  0.478336  1
  F  F19  1  0.018846  0.687266  0.008420  1
  F  F20  1  0.734252  0.174827  0.837759  1
  F  F21  1  0.519957  0.823647  0.830622  1
  F  F22  1  0.685576  0.789521  0.521664  1
  F  F23  1  0.343577  0.518610  0.793423  1
  F  F24  1  0.741713  0.449988  0.242381  1
  F  F25  1  0.286982  0.238691  0.440185  1
