# generated using pymatgen
data_Dy3ErAl4RuPt3
_symmetry_space_group_name_H-M   'P 1'
_cell_length_a   4.34653900
_cell_length_b   6.84015733
_cell_length_c   7.88677710
_cell_angle_alpha   89.87692569
_cell_angle_beta   90.00000000
_cell_angle_gamma   90.00000000
_symmetry_Int_Tables_number   1
_chemical_formula_structural   Dy3ErAl4RuPt3
_chemical_formula_sum   'Dy3 Er1 Al4 Ru1 Pt3'
_cell_volume   234.48131258
_cell_formula_units_Z   1
loop_
 _symmetry_equiv_pos_site_id
 _symmetry_equiv_pos_as_xyz
  1  'x, y, z'
loop_
 _atom_site_type_symbol
 _atom_site_label
 _atom_site_symmetry_multiplicity
 _atom_site_fract_x
 _atom_site_fract_y
 _atom_site_fract_z
 _atom_site_occupancy
  Dy  Dy0  1  0.250000  0.468444  0.180204  1
  Dy  Dy1  1  0.750000  0.534081  0.815752  1
  Dy  Dy2  1  0.250000  0.965664  0.323464  1
  Er  Er3  1  0.750000  0.025163  0.678217  1
  Al  Al4  1  0.250000  0.857394  0.937904  1
  Al  Al5  1  0.750000  0.139842  0.060861  1
  Al  Al6  1  0.750000  0.643387  0.441281  1
  Al  Al7  1  0.250000  0.363401  0.562690  1
  Ru  Ru8  1  0.250000  0.738132  0.620129  1
  Pt  Pt9  1  0.750000  0.268385  0.378695  1
  Pt  Pt10  1  0.750000  0.767581  0.121260  1
  Pt  Pt11  1  0.250000  0.228527  0.879543  1
