# generated using pymatgen
data_DyLuReC2
_symmetry_space_group_name_H-M   'P 1'
_cell_length_a   5.05663500
_cell_length_b   6.55274100
_cell_length_c   9.74938400
_cell_angle_alpha   90.00000000
_cell_angle_beta   90.00000000
_cell_angle_gamma   90.00000000
_symmetry_Int_Tables_number   1
_chemical_formula_structural   DyLuReC2
_chemical_formula_sum   'Dy4 Lu4 Re4 C8'
_cell_volume   323.04407894
_cell_formula_units_Z   4
loop_
 _symmetry_equiv_pos_site_id
 _symmetry_equiv_pos_as_xyz
  1  'x, y, z'
loop_
 _atom_site_type_symbol
 _atom_site_label
 _atom_site_symmetry_multiplicity
 _atom_site_fract_x
 _atom_site_fract_y
 _atom_site_fract_z
 _atom_site_occupancy
  Dy  Dy0  1  0.250000  0.466091  0.215216  1
  Dy  Dy1  1  0.250000  0.966091  0.284784  1
  Dy  Dy2  1  0.750000  0.533909  0.784784  1
  Dy  Dy3  1  0.750000  0.033909  0.715216  1
  Lu  Lu4  1  0.250000  0.825275  0.941605  1
  Lu  Lu5  1  0.250000  0.325275  0.558395  1
  Lu  Lu6  1  0.750000  0.174725  0.058395  1
  Lu  Lu7  1  0.750000  0.674725  0.441605  1
  Re  Re8  1  0.250000  0.278942  0.867565  1
  Re  Re9  1  0.250000  0.778942  0.632435  1
  Re  Re10  1  0.750000  0.721058  0.132435  1
  Re  Re11  1  0.750000  0.221058  0.367565  1
  C  C12  1  0.250000  0.047613  0.739860  1
  C  C13  1  0.250000  0.547613  0.760140  1
  C  C14  1  0.750000  0.952387  0.260140  1
  C  C15  1  0.750000  0.452387  0.239860  1
  C  C16  1  0.250000  0.670556  0.448728  1
  C  C17  1  0.250000  0.170556  0.051272  1
  C  C18  1  0.750000  0.329444  0.551272  1
  C  C19  1  0.750000  0.829444  0.948728  1
