# generated using pymatgen
data_YHo(MgPb2)2
_symmetry_space_group_name_H-M   'P 1'
_cell_length_a   4.86707800
_cell_length_b   4.90844400
_cell_length_c   9.02936000
_cell_angle_alpha   90.00000000
_cell_angle_beta   90.00000000
_cell_angle_gamma   90.00000000
_symmetry_Int_Tables_number   1
_chemical_formula_structural   YHo(MgPb2)2
_chemical_formula_sum   'Y1 Ho1 Mg2 Pb4'
_cell_volume   215.70942219
_cell_formula_units_Z   1
loop_
 _symmetry_equiv_pos_site_id
 _symmetry_equiv_pos_as_xyz
  1  'x, y, z'
loop_
 _atom_site_type_symbol
 _atom_site_label
 _atom_site_symmetry_multiplicity
 _atom_site_fract_x
 _atom_site_fract_y
 _atom_site_fract_z
 _atom_site_occupancy
  Y  Y0  1  0.000000  0.000000  0.750178  1
  Ho  Ho1  1  0.000000  0.000000  0.249818  1
  Mg  Mg2  1  0.500000  0.500000  0.252965  1
  Mg  Mg3  1  0.500000  0.500000  0.746976  1
  Pb  Pb4  1  0.000000  0.500000  0.498629  1
  Pb  Pb5  1  0.000000  0.500000  0.001362  1
  Pb  Pb6  1  0.500000  0.000000  0.498481  1
  Pb  Pb7  1  0.500000  0.000000  0.001590  1
