# generated using pymatgen
data_Bi2RuO6
_symmetry_space_group_name_H-M   'P 1'
_cell_length_a   8.34375242
_cell_length_b   8.34375150
_cell_length_c   8.17978362
_cell_angle_alpha   77.94068271
_cell_angle_beta   77.94068367
_cell_angle_gamma   26.21284917
_symmetry_Int_Tables_number   1
_chemical_formula_structural   Bi2RuO6
_chemical_formula_sum   'Bi4 Ru2 O12'
_cell_volume   245.67988171
_cell_formula_units_Z   2
loop_
 _symmetry_equiv_pos_site_id
 _symmetry_equiv_pos_as_xyz
  1  'x, y, z'
loop_
 _atom_site_type_symbol
 _atom_site_label
 _atom_site_symmetry_multiplicity
 _atom_site_fract_x
 _atom_site_fract_y
 _atom_site_fract_z
 _atom_site_occupancy
  Bi  Bi0  1  0.321690  0.321690  0.602763  1
  Bi  Bi1  1  0.678310  0.678310  0.397237  1
  Bi  Bi2  1  0.661450  0.661450  0.926397  1
  Bi  Bi3  1  0.338550  0.338550  0.073603  1
  Ru  Ru4  1  0.998545  0.998545  0.700920  1
  Ru  Ru5  1  0.001455  0.001455  0.299080  1
  O  O6  1  0.252576  0.252576  0.878003  1
  O  O7  1  0.266346  0.266346  0.366582  1
  O  O8  1  0.079268  0.079268  0.470499  1
  O  O9  1  0.733654  0.733654  0.633418  1
  O  O10  1  0.910552  0.910552  0.195708  1
  O  O11  1  0.098485  0.098485  0.128010  1
  O  O12  1  0.920732  0.920732  0.529501  1
  O  O13  1  0.901515  0.901515  0.871990  1
  O  O14  1  0.747424  0.747424  0.121997  1
  O  O15  1  0.089448  0.089448  0.804292  1
  O  O16  1  0.497515  0.497515  0.697620  1
  O  O17  1  0.502485  0.502485  0.302380  1
