# generated using pymatgen
data_Yb(ZnAu2)2
_symmetry_space_group_name_H-M   'P 1'
_cell_length_a   5.61713353
_cell_length_b   5.61713228
_cell_length_c   5.61713256
_cell_angle_alpha   103.37316305
_cell_angle_beta   103.37316203
_cell_angle_gamma   122.50787660
_symmetry_Int_Tables_number   1
_chemical_formula_structural   Yb(ZnAu2)2
_chemical_formula_sum   'Yb1 Zn2 Au4'
_cell_volume   131.04361318
_cell_formula_units_Z   1
loop_
 _symmetry_equiv_pos_site_id
 _symmetry_equiv_pos_as_xyz
  1  'x, y, z'
loop_
 _atom_site_type_symbol
 _atom_site_label
 _atom_site_symmetry_multiplicity
 _atom_site_fract_x
 _atom_site_fract_y
 _atom_site_fract_z
 _atom_site_occupancy
  Yb  Yb0  1  0.000000  0.000000  0.000000  1
  Zn  Zn1  1  0.250000  0.750000  0.500000  1
  Zn  Zn2  1  0.750000  0.250000  0.500000  1
  Au  Au3  1  0.297232  0.297232  0.594463  1
  Au  Au4  1  0.702768  0.702768  0.405537  1
  Au  Au5  1  0.702768  0.297232  0.000000  1
  Au  Au6  1  0.297232  0.702768  0.000000  1
