# generated using pymatgen
data_Gd9Y3Co5Hg
_symmetry_space_group_name_H-M   'P 1'
_cell_length_a   8.34355946
_cell_length_b   8.34356073
_cell_length_c   8.33315700
_cell_angle_alpha   110.66962739
_cell_angle_beta   109.82483178
_cell_angle_gamma   107.98322011
_symmetry_Int_Tables_number   1
_chemical_formula_structural   Gd9Y3Co5Hg
_chemical_formula_sum   'Gd9 Y3 Co5 Hg1'
_cell_volume   446.02620469
_cell_formula_units_Z   1
loop_
 _symmetry_equiv_pos_site_id
 _symmetry_equiv_pos_as_xyz
  1  'x, y, z'
loop_
 _atom_site_type_symbol
 _atom_site_label
 _atom_site_symmetry_multiplicity
 _atom_site_fract_x
 _atom_site_fract_y
 _atom_site_fract_z
 _atom_site_occupancy
  Gd  Gd0  1  0.818162  0.292383  0.110543  1
  Gd  Gd1  1  0.679628  0.370200  0.691447  1
  Gd  Gd2  1  0.321380  0.630069  0.310235  1
  Gd  Gd3  1  0.680166  0.988855  0.310235  1
  Gd  Gd4  1  0.321247  0.011820  0.691447  1
  Gd  Gd5  1  0.605559  0.793478  0.812659  1
  Gd  Gd6  1  0.404465  0.212944  0.190679  1
  Gd  Gd7  1  0.977735  0.786216  0.190679  1
  Gd  Gd8  1  0.019181  0.207099  0.812659  1
  Y  Y9  1  0.819208  0.709839  0.529046  1
  Y  Y10  1  0.184244  0.290028  0.474272  1
  Y  Y11  1  0.181946  0.708704  0.890652  1
  Co  Co12  1  0.630947  0.000138  0.631085  1
  Co  Co13  1  0.359168  0.000775  0.359943  1
  Co  Co14  1  0.111095  0.613782  0.495925  1
  Co  Co15  1  0.882144  0.384831  0.495925  1
  Co  Co16  1  0.007679  0.997554  0.005232  1
  Hg  Hg17  1  0.496049  0.501286  0.997335  1
