# generated using pymatgen
data_Ho5GaSb2
_symmetry_space_group_name_H-M   'P 1'
_cell_length_a   8.80861353
_cell_length_b   8.80333633
_cell_length_c   6.36987000
_cell_angle_alpha   90.00000000
_cell_angle_beta   90.00000000
_cell_angle_gamma   119.98018598
_symmetry_Int_Tables_number   1
_chemical_formula_structural   Ho5GaSb2
_chemical_formula_sum   'Ho10 Ga2 Sb4'
_cell_volume   427.86102528
_cell_formula_units_Z   2
loop_
 _symmetry_equiv_pos_site_id
 _symmetry_equiv_pos_as_xyz
  1  'x, y, z'
loop_
 _atom_site_type_symbol
 _atom_site_label
 _atom_site_symmetry_multiplicity
 _atom_site_fract_x
 _atom_site_fract_y
 _atom_site_fract_z
 _atom_site_occupancy
  Ho  Ho0  1  0.336555  0.668278  0.000000  1
  Ho  Ho1  1  0.654746  0.327373  0.500000  1
  Ho  Ho2  1  0.654746  0.327373  0.000000  1
  Ho  Ho3  1  0.336555  0.668278  0.500000  1
  Ho  Ho4  1  0.752465  0.999241  0.750000  1
  Ho  Ho5  1  0.752465  0.753224  0.250000  1
  Ho  Ho6  1  0.010240  0.244342  0.250000  1
  Ho  Ho7  1  0.010240  0.765898  0.750000  1
  Ho  Ho8  1  0.244813  0.234008  0.750000  1
  Ho  Ho9  1  0.244813  0.010806  0.250000  1
  Ga  Ga10  1  0.393524  0.998168  0.750000  1
  Ga  Ga11  1  0.393524  0.395356  0.250000  1
  Sb  Sb12  1  0.999171  0.607522  0.250000  1
  Sb  Sb13  1  0.999171  0.391649  0.750000  1
  Sb  Sb14  1  0.608485  0.607368  0.750000  1
  Sb  Sb15  1  0.608485  0.001117  0.250000  1
