# generated using pymatgen
data_Sr4TcRuO8
_symmetry_space_group_name_H-M   'P 1'
_cell_length_a   7.01912256
_cell_length_b   7.01912240
_cell_length_c   5.54737300
_cell_angle_alpha   90.00000000
_cell_angle_beta   90.00000000
_cell_angle_gamma   133.45264327
_symmetry_Int_Tables_number   1
_chemical_formula_structural   Sr4TcRuO8
_chemical_formula_sum   'Sr4 Tc1 Ru1 O8'
_cell_volume   198.40635253
_cell_formula_units_Z   1
loop_
 _symmetry_equiv_pos_site_id
 _symmetry_equiv_pos_as_xyz
  1  'x, y, z'
loop_
 _atom_site_type_symbol
 _atom_site_label
 _atom_site_symmetry_multiplicity
 _atom_site_fract_x
 _atom_site_fract_y
 _atom_site_fract_z
 _atom_site_occupancy
  Sr  Sr0  1  0.646885  0.353115  0.000000  1
  Sr  Sr1  1  0.147565  0.852435  0.500000  1
  Sr  Sr2  1  0.852435  0.147565  0.500000  1
  Sr  Sr3  1  0.353115  0.646885  0.000000  1
  Tc  Tc4  1  0.000000  0.000000  0.000000  1
  Ru  Ru5  1  0.500000  0.500000  0.500000  1
  O  O6  1  0.751397  0.751397  0.248138  1
  O  O7  1  0.248603  0.248603  0.751862  1
  O  O8  1  0.248603  0.248603  0.248138  1
  O  O9  1  0.751397  0.751397  0.751862  1
  O  O10  1  0.838528  0.161472  0.000000  1
  O  O11  1  0.335674  0.664326  0.500000  1
  O  O12  1  0.664326  0.335674  0.500000  1
  O  O13  1  0.161472  0.838528  0.000000  1
