# generated using pymatgen
data_DyTh3(Pt2Pb)2
_symmetry_space_group_name_H-M   'P 1'
_cell_length_a   8.05270435
_cell_length_b   8.05270418
_cell_length_c   7.51314700
_cell_angle_alpha   90.00000000
_cell_angle_beta   90.00000000
_cell_angle_gamma   90.36073399
_symmetry_Int_Tables_number   1
_chemical_formula_structural   DyTh3(Pt2Pb)2
_chemical_formula_sum   'Dy2 Th6 Pt8 Pb4'
_cell_volume   487.18821937
_cell_formula_units_Z   2
loop_
 _symmetry_equiv_pos_site_id
 _symmetry_equiv_pos_as_xyz
  1  'x, y, z'
loop_
 _atom_site_type_symbol
 _atom_site_label
 _atom_site_symmetry_multiplicity
 _atom_site_fract_x
 _atom_site_fract_y
 _atom_site_fract_z
 _atom_site_occupancy
  Dy  Dy0  1  0.833564  0.166436  0.000000  1
  Dy  Dy1  1  0.166436  0.833564  0.000000  1
  Th  Th2  1  0.673495  0.673495  0.000000  1
  Th  Th3  1  0.330528  0.330528  0.500000  1
  Th  Th4  1  0.827408  0.172592  0.500000  1
  Th  Th5  1  0.669472  0.669472  0.500000  1
  Th  Th6  1  0.326505  0.326505  0.000000  1
  Th  Th7  1  0.172592  0.827408  0.500000  1
  Pt  Pt8  1  0.872707  0.872707  0.745279  1
  Pt  Pt9  1  0.127293  0.127293  0.745279  1
  Pt  Pt10  1  0.627543  0.372457  0.755542  1
  Pt  Pt11  1  0.627543  0.372457  0.244458  1
  Pt  Pt12  1  0.372457  0.627543  0.244458  1
  Pt  Pt13  1  0.127293  0.127293  0.254721  1
  Pt  Pt14  1  0.872707  0.872707  0.254721  1
  Pt  Pt15  1  0.372457  0.627543  0.755542  1
  Pb  Pb16  1  0.500000  0.000000  0.757480  1
  Pb  Pb17  1  0.500000  0.000000  0.242520  1
  Pb  Pb18  1  0.000000  0.500000  0.757480  1
  Pb  Pb19  1  0.000000  0.500000  0.242520  1
