# generated using pymatgen
data_Pm5Ir4
_symmetry_space_group_name_H-M   'P 1'
_cell_length_a   6.12741232
_cell_length_b   4.92370922
_cell_length_c   7.86980453
_cell_angle_alpha   108.35741564
_cell_angle_beta   74.51344234
_cell_angle_gamma   90.07044960
_symmetry_Int_Tables_number   1
_chemical_formula_structural   Pm5Ir4
_chemical_formula_sum   'Pm5 Ir4'
_cell_volume   216.27149151
_cell_formula_units_Z   1
loop_
 _symmetry_equiv_pos_site_id
 _symmetry_equiv_pos_as_xyz
  1  'x, y, z'
loop_
 _atom_site_type_symbol
 _atom_site_label
 _atom_site_symmetry_multiplicity
 _atom_site_fract_x
 _atom_site_fract_y
 _atom_site_fract_z
 _atom_site_occupancy
  Pm  Pm0  1  0.829262  0.091844  0.352507  1
  Pm  Pm1  1  0.230844  0.490494  0.153330  1
  Pm  Pm2  1  0.031019  0.291046  0.754198  1
  Pm  Pm3  1  0.632920  0.890243  0.954798  1
  Pm  Pm4  1  0.431520  0.691112  0.552546  1
  Ir  Ir5  1  0.132358  0.889787  0.952432  1
  Ir  Ir6  1  0.537637  0.292010  0.758369  1
  Ir  Ir7  1  0.329372  0.091372  0.354360  1
  Ir  Ir8  1  0.925129  0.690816  0.548678  1
