# generated using pymatgen
data_Pa2Te3O11
_symmetry_space_group_name_H-M   'P 1'
_cell_length_a   4.24489600
_cell_length_b   8.57788800
_cell_length_c   16.89362200
_cell_angle_alpha   90.00000000
_cell_angle_beta   90.00000000
_cell_angle_gamma   90.00000000
_symmetry_Int_Tables_number   1
_chemical_formula_structural   Pa2Te3O11
_chemical_formula_sum   'Pa4 Te6 O22'
_cell_volume   615.13466029
_cell_formula_units_Z   2
loop_
 _symmetry_equiv_pos_site_id
 _symmetry_equiv_pos_as_xyz
  1  'x, y, z'
loop_
 _atom_site_type_symbol
 _atom_site_label
 _atom_site_symmetry_multiplicity
 _atom_site_fract_x
 _atom_site_fract_y
 _atom_site_fract_z
 _atom_site_occupancy
  Pa  Pa0  1  0.793049  0.127275  0.606481  1
  Pa  Pa1  1  0.793049  0.872725  0.393519  1
  Pa  Pa2  1  0.206951  0.627275  0.893519  1
  Pa  Pa3  1  0.206951  0.372725  0.106481  1
  Te  Te4  1  0.892815  0.000000  0.000000  1
  Te  Te5  1  0.107185  0.500000  0.500000  1
  Te  Te6  1  0.131900  0.188393  0.807970  1
  Te  Te7  1  0.131900  0.811607  0.192030  1
  Te  Te8  1  0.868100  0.688393  0.692030  1
  Te  Te9  1  0.868100  0.311607  0.307970  1
  O  O10  1  0.855725  0.135983  0.893418  1
  O  O11  1  0.855725  0.864017  0.106582  1
  O  O12  1  0.144275  0.635983  0.606582  1
  O  O13  1  0.144275  0.364017  0.393418  1
  O  O14  1  0.801404  0.900226  0.668911  1
  O  O15  1  0.801404  0.099774  0.331089  1
  O  O16  1  0.198596  0.400226  0.831089  1
  O  O17  1  0.198596  0.599774  0.168911  1
  O  O18  1  0.806956  0.363058  0.545850  1
  O  O19  1  0.806956  0.636942  0.454150  1
  O  O20  1  0.708155  0.356150  0.112133  1
  O  O21  1  0.708155  0.643850  0.887867  1
  O  O22  1  0.291845  0.856150  0.387867  1
  O  O23  1  0.291845  0.143850  0.612133  1
  O  O24  1  0.190552  0.274382  0.231760  1
  O  O25  1  0.190552  0.725618  0.768240  1
  O  O26  1  0.809448  0.774382  0.268240  1
  O  O27  1  0.809448  0.225618  0.731760  1
  O  O28  1  0.210608  0.500000  0.000000  1
  O  O29  1  0.789392  0.000000  0.500000  1
  O  O30  1  0.193044  0.136942  0.045850  1
  O  O31  1  0.193044  0.863058  0.954150  1
