# generated using pymatgen
data_HoU(FeB)8
_symmetry_space_group_name_H-M   'P 1'
_cell_length_a   5.03698000
_cell_length_b   5.03698000
_cell_length_c   6.87315900
_cell_angle_alpha   90.00000000
_cell_angle_beta   90.00000000
_cell_angle_gamma   90.00000000
_symmetry_Int_Tables_number   1
_chemical_formula_structural   HoU(FeB)8
_chemical_formula_sum   'Ho1 U1 Fe8 B8'
_cell_volume   174.38006838
_cell_formula_units_Z   1
loop_
 _symmetry_equiv_pos_site_id
 _symmetry_equiv_pos_as_xyz
  1  'x, y, z'
loop_
 _atom_site_type_symbol
 _atom_site_label
 _atom_site_symmetry_multiplicity
 _atom_site_fract_x
 _atom_site_fract_y
 _atom_site_fract_z
 _atom_site_occupancy
  Ho  Ho0  1  0.000000  0.000000  0.000000  1
  U  U1  1  0.500000  0.500000  0.500000  1
  Fe  Fe2  1  0.500000  0.739193  0.138087  1
  Fe  Fe3  1  0.755321  0.000000  0.630593  1
  Fe  Fe4  1  0.244679  0.000000  0.630593  1
  Fe  Fe5  1  0.000000  0.755321  0.369407  1
  Fe  Fe6  1  0.000000  0.244679  0.369407  1
  Fe  Fe7  1  0.500000  0.260807  0.138087  1
  Fe  Fe8  1  0.739193  0.500000  0.861913  1
  Fe  Fe9  1  0.260807  0.500000  0.861913  1
  B  B10  1  0.500000  0.826806  0.842873  1
  B  B11  1  0.674488  0.000000  0.340416  1
  B  B12  1  0.325512  0.000000  0.340416  1
  B  B13  1  0.000000  0.674488  0.659584  1
  B  B14  1  0.000000  0.325512  0.659584  1
  B  B15  1  0.500000  0.173194  0.842873  1
  B  B16  1  0.826806  0.500000  0.157127  1
  B  B17  1  0.173194  0.500000  0.157127  1
