# generated using pymatgen
data_Pr12Co2I17
_symmetry_space_group_name_H-M   'P 1'
_cell_length_a   10.08087813
_cell_length_b   12.08056433
_cell_length_c   12.08507378
_cell_angle_alpha   93.13702004
_cell_angle_beta   104.74890482
_cell_angle_gamma   114.81272265
_symmetry_Int_Tables_number   1
_chemical_formula_structural   Pr12Co2I17
_chemical_formula_sum   'Pr12 Co2 I17'
_cell_volume   1269.79976199
_cell_formula_units_Z   1
loop_
 _symmetry_equiv_pos_site_id
 _symmetry_equiv_pos_as_xyz
  1  'x, y, z'
loop_
 _atom_site_type_symbol
 _atom_site_label
 _atom_site_symmetry_multiplicity
 _atom_site_fract_x
 _atom_site_fract_y
 _atom_site_fract_z
 _atom_site_occupancy
  Pr  Pr0  1  0.056395  0.508832  0.321855  1
  Pr  Pr1  1  0.990771  0.810758  0.583366  1
  Pr  Pr2  1  0.646367  0.240279  0.282343  1
  Pr  Pr3  1  0.009229  0.189242  0.416634  1
  Pr  Pr4  1  0.218293  0.668023  0.987274  1
  Pr  Pr5  1  0.261405  0.984024  0.892691  1
  Pr  Pr6  1  0.353633  0.759721  0.717657  1
  Pr  Pr7  1  0.943605  0.491168  0.678145  1
  Pr  Pr8  1  0.738595  0.015976  0.107309  1
  Pr  Pr9  1  0.149151  0.287624  0.150805  1
  Pr  Pr10  1  0.781707  0.331977  0.012726  1
  Pr  Pr11  1  0.850849  0.712376  0.849195  1
  Co  Co12  1  0.103288  0.738524  0.784528  1
  Co  Co13  1  0.896712  0.261476  0.215472  1
  I  I14  1  0.782803  0.528743  0.416949  1
  I  I15  1  0.639648  0.417501  0.758693  1
  I  I16  1  0.842449  0.893688  0.324356  1
  I  I17  1  0.326195  0.212115  0.369885  1
  I  I18  1  0.157551  0.106312  0.675644  1
  I  I19  1  0.589260  0.054036  0.839843  1
  I  I20  1  0.754197  0.182961  0.538311  1
  I  I21  1  0.550215  0.706916  0.953755  1
  I  I22  1  0.360352  0.582499  0.241307  1
  I  I23  1  0.217197  0.471257  0.583051  1
  I  I24  1  0.055932  0.363970  0.894142  1
  I  I25  1  0.449785  0.293084  0.046245  1
  I  I26  1  0.000000  0.000000  0.000000  1
  I  I27  1  0.245803  0.817039  0.461689  1
  I  I28  1  0.410740  0.945964  0.160157  1
  I  I29  1  0.673805  0.787885  0.630115  1
  I  I30  1  0.944068  0.636030  0.105858  1
