# generated using pymatgen
data_Y3Sn2BiRh3
_symmetry_space_group_name_H-M   'P 1'
_cell_length_a   7.70597600
_cell_length_b   7.61985933
_cell_length_c   3.87327500
_cell_angle_alpha   90.00000000
_cell_angle_beta   90.00000000
_cell_angle_gamma   120.37456374
_symmetry_Int_Tables_number   1
_chemical_formula_structural   Y3Sn2BiRh3
_chemical_formula_sum   'Y3 Sn2 Bi1 Rh3'
_cell_volume   196.21490074
_cell_formula_units_Z   1
loop_
 _symmetry_equiv_pos_site_id
 _symmetry_equiv_pos_as_xyz
  1  'x, y, z'
loop_
 _atom_site_type_symbol
 _atom_site_label
 _atom_site_symmetry_multiplicity
 _atom_site_fract_x
 _atom_site_fract_y
 _atom_site_fract_z
 _atom_site_occupancy
  Y  Y0  1  0.398023  0.000000  0.500000  1
  Y  Y1  1  0.007802  0.410670  0.500000  1
  Y  Y2  1  0.597133  0.589330  0.500000  1
  Sn  Sn3  1  0.002144  0.737563  0.000000  1
  Sn  Sn4  1  0.264581  0.262437  0.000000  1
  Bi  Bi5  1  0.736131  0.000000  0.000000  1
  Rh  Rh6  1  0.324105  0.661304  0.000000  1
  Rh  Rh7  1  0.662803  0.338696  0.000000  1
  Rh  Rh8  1  0.007278  0.000000  0.500000  1
