# generated using pymatgen
data_Pr2Tm(TaSn)18
_symmetry_space_group_name_H-M   'P 1'
_cell_length_a   5.80488191
_cell_length_b   9.64481305
_cell_length_c   16.03209100
_cell_angle_alpha   107.50240300
_cell_angle_beta   100.32142149
_cell_angle_gamma   90.05196037
_symmetry_Int_Tables_number   1
_chemical_formula_structural   Pr2Tm(TaSn)18
_chemical_formula_sum   'Pr2 Tm1 Ta18 Sn18'
_cell_volume   840.74478775
_cell_formula_units_Z   1
loop_
 _symmetry_equiv_pos_site_id
 _symmetry_equiv_pos_as_xyz
  1  'x, y, z'
loop_
 _atom_site_type_symbol
 _atom_site_label
 _atom_site_symmetry_multiplicity
 _atom_site_fract_x
 _atom_site_fract_y
 _atom_site_fract_z
 _atom_site_occupancy
  Pr  Pr0  1  0.331805  0.831107  0.665274  1
  Pr  Pr1  1  0.667408  0.167113  0.335358  1
  Tm  Tm2  1  0.999573  0.999072  0.000305  1
  Ta  Ta3  1  0.165802  0.415545  0.333391  1
  Ta  Ta4  1  0.332290  0.832756  0.166587  1
  Ta  Ta5  1  0.667177  0.667310  0.834795  1
  Ta  Ta6  1  0.500093  0.750285  0.000232  1
  Ta  Ta7  1  0.166378  0.166012  0.834374  1
  Ta  Ta8  1  0.833776  0.331412  0.166337  1
  Ta  Ta9  1  0.832928  0.083163  0.667368  1
  Ta  Ta10  1  0.165477  0.666917  0.834284  1
  Ta  Ta11  1  0.499587  0.999045  0.500323  1
  Ta  Ta12  1  0.499171  0.248097  0.000375  1
  Ta  Ta13  1  0.999597  0.999063  0.500308  1
  Ta  Ta14  1  0.999668  0.499057  0.500308  1
  Ta  Ta15  1  0.832840  0.832340  0.166258  1
  Ta  Ta16  1  0.833607  0.582658  0.667255  1
  Ta  Ta17  1  0.332154  0.331022  0.165846  1
  Ta  Ta18  1  0.166203  0.915071  0.333263  1
  Ta  Ta19  1  0.666927  0.165630  0.834051  1
  Ta  Ta20  1  0.499688  0.499084  0.500304  1
  Sn  Sn21  1  0.998882  0.325615  0.999972  1
  Sn  Sn22  1  0.888656  0.888500  0.778735  1
  Sn  Sn23  1  0.110474  0.109828  0.221858  1
  Sn  Sn24  1  0.222800  0.221852  0.445857  1
  Sn  Sn25  1  0.443566  0.443904  0.889434  1
  Sn  Sn26  1  0.109419  0.608866  0.220354  1
  Sn  Sn27  1  0.778750  0.278639  0.558830  1
  Sn  Sn28  1  0.889844  0.389417  0.780294  1
  Sn  Sn29  1  0.220551  0.719479  0.441701  1
  Sn  Sn30  1  0.334358  0.494952  0.667722  1
  Sn  Sn31  1  0.555735  0.054447  0.111059  1
  Sn  Sn32  1  0.664986  0.503175  0.332852  1
  Sn  Sn33  1  0.443313  0.943964  0.889605  1
  Sn  Sn34  1  0.332270  0.170678  0.667563  1
  Sn  Sn35  1  0.776789  0.776360  0.554806  1
  Sn  Sn36  1  0.667055  0.827504  0.333135  1
  Sn  Sn37  1  0.555373  0.554579  0.111288  1
  Sn  Sn38  1  0.000284  0.672532  0.000704  1
