# generated using pymatgen
data_La7ZnCuNi
_symmetry_space_group_name_H-M   'P 1'
_cell_length_a   3.83448900
_cell_length_b   12.45120524
_cell_length_c   12.45120524
_cell_angle_alpha   90.81282868
_cell_angle_beta   90.00000000
_cell_angle_gamma   90.00000000
_symmetry_Int_Tables_number   1
_chemical_formula_structural   La7ZnCuNi
_chemical_formula_sum   'La14 Zn2 Cu2 Ni2'
_cell_volume   594.41064139
_cell_formula_units_Z   2
loop_
 _symmetry_equiv_pos_site_id
 _symmetry_equiv_pos_as_xyz
  1  'x, y, z'
loop_
 _atom_site_type_symbol
 _atom_site_label
 _atom_site_symmetry_multiplicity
 _atom_site_fract_x
 _atom_site_fract_y
 _atom_site_fract_z
 _atom_site_occupancy
  La  La0  1  0.500000  0.000000  0.500000  1
  La  La1  1  0.500000  0.500000  0.000000  1
  La  La2  1  0.000000  0.321501  0.821501  1
  La  La3  1  0.000000  0.678499  0.178499  1
  La  La4  1  0.000000  0.179149  0.320851  1
  La  La5  1  0.000000  0.820851  0.679149  1
  La  La6  1  0.500000  0.561081  0.706720  1
  La  La7  1  0.500000  0.438919  0.293280  1
  La  La8  1  0.500000  0.943131  0.197318  1
  La  La9  1  0.500000  0.056869  0.802682  1
  La  La10  1  0.500000  0.697318  0.443131  1
  La  La11  1  0.500000  0.302682  0.556869  1
  La  La12  1  0.500000  0.206720  0.061081  1
  La  La13  1  0.500000  0.793280  0.938919  1
  Zn  Zn14  1  0.000000  0.500000  0.500000  1
  Zn  Zn15  1  0.000000  0.000000  0.000000  1
  Cu  Cu16  1  0.000000  0.129260  0.629260  1
  Cu  Cu17  1  0.000000  0.870740  0.370740  1
  Ni  Ni18  1  0.000000  0.371192  0.128808  1
  Ni  Ni19  1  0.000000  0.628808  0.871192  1
