# generated using pymatgen
data_Pr11Th5(CdOs)4
_symmetry_space_group_name_H-M   'P 1'
_cell_length_a   9.91671738
_cell_length_b   10.04789385
_cell_length_c   10.04789268
_cell_angle_alpha   60.00975916
_cell_angle_beta   60.43092107
_cell_angle_gamma   60.43092277
_symmetry_Int_Tables_number   1
_chemical_formula_structural   Pr11Th5(CdOs)4
_chemical_formula_sum   'Pr11 Th5 Cd4 Os4'
_cell_volume   712.57999478
_cell_formula_units_Z   1
loop_
 _symmetry_equiv_pos_site_id
 _symmetry_equiv_pos_as_xyz
  1  'x, y, z'
loop_
 _atom_site_type_symbol
 _atom_site_label
 _atom_site_symmetry_multiplicity
 _atom_site_fract_x
 _atom_site_fract_y
 _atom_site_fract_z
 _atom_site_occupancy
  Pr  Pr0  1  0.190881  0.809119  0.809119  1
  Pr  Pr1  1  0.193244  0.806750  0.189920  1
  Pr  Pr2  1  0.810087  0.189920  0.806750  1
  Pr  Pr3  1  0.193244  0.189920  0.806750  1
  Pr  Pr4  1  0.810087  0.806750  0.189920  1
  Pr  Pr5  1  0.939245  0.560755  0.560755  1
  Pr  Pr6  1  0.558817  0.941183  0.941183  1
  Pr  Pr7  1  0.560635  0.943094  0.556929  1
  Pr  Pr8  1  0.939342  0.556929  0.943094  1
  Pr  Pr9  1  0.560635  0.556929  0.943094  1
  Pr  Pr10  1  0.939342  0.943094  0.556929  1
  Th  Th11  1  0.342958  0.346898  0.346898  1
  Th  Th12  1  0.344871  0.344977  0.965281  1
  Th  Th13  1  0.344871  0.965281  0.344977  1
  Th  Th14  1  0.963246  0.346898  0.346898  1
  Th  Th15  1  0.813361  0.186639  0.186639  1
  Cd  Cd16  1  0.578943  0.579922  0.579922  1
  Cd  Cd17  1  0.579827  0.580430  0.259914  1
  Cd  Cd18  1  0.579827  0.259914  0.580430  1
  Cd  Cd19  1  0.261212  0.579922  0.579922  1
  Os  Os20  1  0.129293  0.148875  0.148875  1
  Os  Os21  1  0.146538  0.142675  0.564247  1
  Os  Os22  1  0.146538  0.564247  0.142675  1
  Os  Os23  1  0.572955  0.148875  0.148875  1
