# generated using pymatgen
data_Ba10Al3GaSi14
_symmetry_space_group_name_H-M   'P 1'
_cell_length_a   6.71292189
_cell_length_b   6.71292207
_cell_length_c   18.32759611
_cell_angle_alpha   81.66198452
_cell_angle_beta   81.66199537
_cell_angle_gamma   101.01893434
_symmetry_Int_Tables_number   1
_chemical_formula_structural   Ba10Al3GaSi14
_chemical_formula_sum   'Ba10 Al3 Ga1 Si14'
_cell_volume   789.31905750
_cell_formula_units_Z   1
loop_
 _symmetry_equiv_pos_site_id
 _symmetry_equiv_pos_as_xyz
  1  'x, y, z'
loop_
 _atom_site_type_symbol
 _atom_site_label
 _atom_site_symmetry_multiplicity
 _atom_site_fract_x
 _atom_site_fract_y
 _atom_site_fract_z
 _atom_site_occupancy
  Ba  Ba0  1  0.749631  0.249898  0.000272  1
  Ba  Ba1  1  0.119853  0.572419  0.788185  1
  Ba  Ba2  1  0.290795  0.709087  0.499983  1
  Ba  Ba3  1  0.761443  0.761443  0.644083  1
  Ba  Ba4  1  0.238485  0.238485  0.355970  1
  Ba  Ba5  1  0.572419  0.119853  0.788185  1
  Ba  Ba6  1  0.249898  0.749631  0.000272  1
  Ba  Ba7  1  0.709087  0.290795  0.499983  1
  Ba  Ba8  1  0.427287  0.880424  0.211621  1
  Ba  Ba9  1  0.880424  0.427287  0.211621  1
  Al  Al10  1  0.925643  0.925643  0.263256  1
  Al  Al11  1  0.074020  0.074020  0.736949  1
  Al  Al12  1  0.776402  0.776402  0.930172  1
  Ga  Ga13  1  0.224281  0.224281  0.069286  1
  Si  Si14  1  0.351834  0.351834  0.642034  1
  Si  Si15  1  0.296898  0.296898  0.930688  1
  Si  Si16  1  0.934550  0.934550  0.129019  1
  Si  Si17  1  0.648262  0.648262  0.357812  1
  Si  Si18  1  0.422997  0.422997  0.148878  1
  Si  Si19  1  0.066870  0.066870  0.871042  1
  Si  Si20  1  0.819071  0.819071  0.449187  1
  Si  Si21  1  0.329308  0.974609  0.641370  1
  Si  Si22  1  0.670583  0.025540  0.358715  1
  Si  Si23  1  0.180998  0.180998  0.550784  1
  Si  Si24  1  0.974609  0.329308  0.641370  1
  Si  Si25  1  0.025540  0.670583  0.358715  1
  Si  Si26  1  0.703148  0.703148  0.069402  1
  Si  Si27  1  0.575664  0.575664  0.851145  1
