# generated using pymatgen
data_Ba2NdTcO6
_symmetry_space_group_name_H-M   'P 1'
_cell_length_a   6.06303559
_cell_length_b   6.06293326
_cell_length_c   6.09601435
_cell_angle_alpha   119.79095203
_cell_angle_beta   60.13302135
_cell_angle_gamma   90.07726950
_symmetry_Int_Tables_number   1
_chemical_formula_structural   Ba2NdTcO6
_chemical_formula_sum   'Ba2 Nd1 Tc1 O6'
_cell_volume   159.37480999
_cell_formula_units_Z   1
loop_
 _symmetry_equiv_pos_site_id
 _symmetry_equiv_pos_as_xyz
  1  'x, y, z'
loop_
 _atom_site_type_symbol
 _atom_site_label
 _atom_site_symmetry_multiplicity
 _atom_site_fract_x
 _atom_site_fract_y
 _atom_site_fract_z
 _atom_site_occupancy
  Ba  Ba0  1  0.250470  0.250532  0.499728  1
  Ba  Ba1  1  0.749531  0.749468  0.500272  1
  Nd  Nd2  1  0.000000  0.000000  0.000000  1
  Tc  Tc3  1  0.499999  0.500000  0.000000  1
  O  O4  1  0.234136  0.308445  0.001412  1
  O  O5  1  0.305301  0.767629  0.004026  1
  O  O6  1  0.272051  0.728515  0.461432  1
  O  O7  1  0.727949  0.271484  0.538568  1
  O  O8  1  0.694700  0.232371  0.995975  1
  O  O9  1  0.765866  0.691554  0.998586  1
