# generated using pymatgen
data_NaTbNb3P7Rh9
_symmetry_space_group_name_H-M   'P 1'
_cell_length_a   3.91869700
_cell_length_b   9.66643004
_cell_length_c   9.66654063
_cell_angle_alpha   120.01257626
_cell_angle_beta   89.99995309
_cell_angle_gamma   90.00019870
_symmetry_Int_Tables_number   1
_chemical_formula_structural   NaTbNb3P7Rh9
_chemical_formula_sum   'Na1 Tb1 Nb3 P7 Rh9'
_cell_volume   317.06949305
_cell_formula_units_Z   1
loop_
 _symmetry_equiv_pos_site_id
 _symmetry_equiv_pos_as_xyz
  1  'x, y, z'
loop_
 _atom_site_type_symbol
 _atom_site_label
 _atom_site_symmetry_multiplicity
 _atom_site_fract_x
 _atom_site_fract_y
 _atom_site_fract_z
 _atom_site_occupancy
  Na  Na0  1  0.261133  0.666702  0.333420  1
  Tb  Tb1  1  0.761985  0.333341  0.666677  1
  Nb  Nb2  1  0.761986  0.094050  0.873107  1
  Nb  Nb3  1  0.761982  0.126970  0.221004  1
  Nb  Nb4  1  0.761986  0.779060  0.905976  1
  P  P5  1  0.262094  0.999965  0.999970  1
  P  P6  1  0.761803  0.874009  0.587362  1
  P  P7  1  0.761799  0.412586  0.286657  1
  P  P8  1  0.761799  0.713353  0.125871  1
  P  P9  1  0.261959  0.113957  0.415148  1
  P  P10  1  0.261963  0.584772  0.698692  1
  P  P11  1  0.261962  0.301191  0.886073  1
  Rh  Rh12  1  0.261911  0.884346  0.159230  1
  Rh  Rh13  1  0.261922  0.840874  0.725241  1
  Rh  Rh14  1  0.261915  0.274780  0.115554  1
  Rh  Rh15  1  0.761945  0.607094  0.560202  1
  Rh  Rh16  1  0.761937  0.439885  0.046999  1
  Rh  Rh17  1  0.761936  0.953097  0.392922  1
  Rh  Rh18  1  0.261993  0.365705  0.437996  1
  Rh  Rh19  1  0.261996  0.561937  0.927651  1
  Rh  Rh20  1  0.261992  0.072330  0.634243  1
