# generated using pymatgen
data_TbYbB4Ir5
_symmetry_space_group_name_H-M   'P 1'
_cell_length_a   7.51270267
_cell_length_b   6.33472757
_cell_length_c   5.61444607
_cell_angle_alpha   77.65315932
_cell_angle_beta   55.45691121
_cell_angle_gamma   46.88992239
_symmetry_Int_Tables_number   1
_chemical_formula_structural   TbYbB4Ir5
_chemical_formula_sum   'Tb1 Yb1 B4 Ir5'
_cell_volume   153.82748817
_cell_formula_units_Z   1
loop_
 _symmetry_equiv_pos_site_id
 _symmetry_equiv_pos_as_xyz
  1  'x, y, z'
loop_
 _atom_site_type_symbol
 _atom_site_label
 _atom_site_symmetry_multiplicity
 _atom_site_fract_x
 _atom_site_fract_y
 _atom_site_fract_z
 _atom_site_occupancy
  Tb  Tb0  1  0.636534  0.636535  0.363466  1
  Yb  Yb1  1  0.358282  0.358283  0.641718  1
  B  B2  1  0.290197  0.975779  0.024221  1
  B  B3  1  0.025238  0.712093  0.287907  1
  B  B4  1  0.975779  0.290197  0.709803  1
  B  B5  1  0.712093  0.025238  0.974762  1
  Ir  Ir6  1  0.001916  0.001916  0.998084  1
  Ir  Ir7  1  0.499532  0.499532  0.000468  1
  Ir  Ir8  1  0.250447  0.250447  0.249554  1
  Ir  Ir9  1  0.999532  0.999532  0.500468  1
  Ir  Ir10  1  0.750446  0.750447  0.749554  1
