# generated using pymatgen
data_Sm3Y(GaRu)4
_symmetry_space_group_name_H-M   'P 1'
_cell_length_a   4.56651000
_cell_length_b   7.31332467
_cell_length_c   7.14599665
_cell_angle_alpha   90.15218769
_cell_angle_beta   90.00000000
_cell_angle_gamma   90.00000000
_symmetry_Int_Tables_number   1
_chemical_formula_structural   Sm3Y(GaRu)4
_chemical_formula_sum   'Sm3 Y1 Ga4 Ru4'
_cell_volume   238.64950775
_cell_formula_units_Z   1
loop_
 _symmetry_equiv_pos_site_id
 _symmetry_equiv_pos_as_xyz
  1  'x, y, z'
loop_
 _atom_site_type_symbol
 _atom_site_label
 _atom_site_symmetry_multiplicity
 _atom_site_fract_x
 _atom_site_fract_y
 _atom_site_fract_z
 _atom_site_occupancy
  Sm  Sm0  1  0.250000  0.022086  0.804263  1
  Sm  Sm1  1  0.250000  0.520600  0.694678  1
  Sm  Sm2  1  0.750000  0.978191  0.195537  1
  Y  Y3  1  0.750000  0.478550  0.302503  1
  Ga  Ga4  1  0.250000  0.197301  0.392310  1
  Ga  Ga5  1  0.250000  0.692208  0.109935  1
  Ga  Ga6  1  0.750000  0.803828  0.606190  1
  Ga  Ga7  1  0.750000  0.306400  0.893123  1
  Ru  Ru8  1  0.250000  0.843821  0.438301  1
  Ru  Ru9  1  0.250000  0.343142  0.063218  1
  Ru  Ru10  1  0.750000  0.156674  0.561335  1
  Ru  Ru11  1  0.750000  0.657200  0.938607  1
