# generated using pymatgen
data_AcAl3Cu
_symmetry_space_group_name_H-M   'P 1'
_cell_length_a   4.40340384
_cell_length_b   4.40388623
_cell_length_c   6.28584292
_cell_angle_alpha   69.49421010
_cell_angle_beta   69.49657036
_cell_angle_gamma   89.99999190
_symmetry_Int_Tables_number   1
_chemical_formula_structural   AcAl3Cu
_chemical_formula_sum   'Ac1 Al3 Cu1'
_cell_volume   105.88823121
_cell_formula_units_Z   1
loop_
 _symmetry_equiv_pos_site_id
 _symmetry_equiv_pos_as_xyz
  1  'x, y, z'
loop_
 _atom_site_type_symbol
 _atom_site_label
 _atom_site_symmetry_multiplicity
 _atom_site_fract_x
 _atom_site_fract_y
 _atom_site_fract_z
 _atom_site_occupancy
  Ac  Ac0  1  0.995336  0.995336  0.009328  1
  Al  Al1  1  0.394300  0.394300  0.211400  1
  Al  Al2  1  0.742283  0.242283  0.515434  1
  Al  Al3  1  0.242276  0.742276  0.515449  1
  Cu  Cu4  1  0.625806  0.625806  0.748388  1
