# generated using pymatgen
data_Dy19Er(SnPb7)2
_symmetry_space_group_name_H-M   'P 1'
_cell_length_a   8.20032604
_cell_length_b   8.26084220
_cell_length_c   15.65061800
_cell_angle_alpha   90.00000000
_cell_angle_beta   90.00000000
_cell_angle_gamma   90.00694970
_symmetry_Int_Tables_number   1
_chemical_formula_structural   Dy19Er(SnPb7)2
_chemical_formula_sum   'Dy19 Er1 Sn2 Pb14'
_cell_volume   1060.19788733
_cell_formula_units_Z   1
loop_
 _symmetry_equiv_pos_site_id
 _symmetry_equiv_pos_as_xyz
  1  'x, y, z'
loop_
 _atom_site_type_symbol
 _atom_site_label
 _atom_site_symmetry_multiplicity
 _atom_site_fract_x
 _atom_site_fract_y
 _atom_site_fract_z
 _atom_site_occupancy
  Dy  Dy0  1  0.377538  0.839448  0.877801  1
  Dy  Dy1  1  0.877546  0.660528  0.622345  1
  Dy  Dy2  1  0.622108  0.158761  0.379313  1
  Dy  Dy3  1  0.122490  0.340963  0.120679  1
  Dy  Dy4  1  0.622108  0.158761  0.120687  1
  Dy  Dy5  1  0.122490  0.340963  0.379321  1
  Dy  Dy6  1  0.377538  0.839448  0.622199  1
  Dy  Dy7  1  0.877546  0.660528  0.877655  1
  Dy  Dy8  1  0.535143  0.325340  0.899019  1
  Dy  Dy9  1  0.035121  0.174624  0.600847  1
  Dy  Dy10  1  0.464711  0.676586  0.400063  1
  Dy  Dy11  1  0.964956  0.823733  0.099931  1
  Dy  Dy12  1  0.464711  0.676586  0.099937  1
  Dy  Dy13  1  0.964956  0.823733  0.400069  1
  Dy  Dy14  1  0.535143  0.325340  0.600981  1
  Dy  Dy15  1  0.035121  0.174624  0.899153  1
  Dy  Dy16  1  0.210681  0.506837  0.750000  1
  Dy  Dy17  1  0.710672  0.993178  0.750000  1
  Dy  Dy18  1  0.790957  0.495960  0.250000  1
  Er  Er19  1  0.290574  0.004576  0.250000  1
  Sn  Sn20  1  0.573923  0.624810  0.750000  1
  Sn  Sn21  1  0.074063  0.875273  0.750000  1
  Pb  Pb22  1  0.281267  0.032771  0.042822  1
  Pb  Pb23  1  0.781194  0.466977  0.457532  1
  Pb  Pb24  1  0.718585  0.966668  0.542538  1
  Pb  Pb25  1  0.218522  0.533219  0.957460  1
  Pb  Pb26  1  0.718585  0.966668  0.957462  1
  Pb  Pb27  1  0.218522  0.533219  0.542540  1
  Pb  Pb28  1  0.281267  0.032771  0.457178  1
  Pb  Pb29  1  0.781194  0.466977  0.042468  1
  Pb  Pb30  1  0.427006  0.374481  0.250000  1
  Pb  Pb31  1  0.927684  0.124870  0.250000  1
  Pb  Pb32  1  0.345160  0.151608  0.750000  1
  Pb  Pb33  1  0.845188  0.348161  0.750000  1
  Pb  Pb34  1  0.652518  0.847175  0.250000  1
  Pb  Pb35  1  0.153212  0.653832  0.250000  1
