# generated using pymatgen
data_Tb3Dy5Re2(B12Ru)2
_symmetry_space_group_name_H-M   'P 1'
_cell_length_a   3.68325800
_cell_length_b   9.17792785
_cell_length_c   11.57172105
_cell_angle_alpha   90.21007241
_cell_angle_beta   90.00000000
_cell_angle_gamma   90.00000000
_symmetry_Int_Tables_number   1
_chemical_formula_structural   Tb3Dy5Re2(B12Ru)2
_chemical_formula_sum   'Tb3 Dy5 Re2 B24 Ru2'
_cell_volume   391.17565382
_cell_formula_units_Z   1
loop_
 _symmetry_equiv_pos_site_id
 _symmetry_equiv_pos_as_xyz
  1  'x, y, z'
loop_
 _atom_site_type_symbol
 _atom_site_label
 _atom_site_symmetry_multiplicity
 _atom_site_fract_x
 _atom_site_fract_y
 _atom_site_fract_z
 _atom_site_occupancy
  Tb  Tb0  1  0.000000  0.321435  0.412465  1
  Tb  Tb1  1  0.000000  0.678555  0.587535  1
  Tb  Tb2  1  0.000000  0.824975  0.084589  1
  Dy  Dy3  1  0.000000  0.174968  0.915481  1
  Dy  Dy4  1  0.000000  0.942887  0.370357  1
  Dy  Dy5  1  0.000000  0.057156  0.629671  1
  Dy  Dy6  1  0.000000  0.442910  0.129375  1
  Dy  Dy7  1  0.000000  0.556960  0.870574  1
  Re  Re8  1  0.000000  0.138815  0.179593  1
  Re  Re9  1  0.000000  0.861461  0.820297  1
  B  B10  1  0.500000  0.554220  0.432638  1
  B  B11  1  0.500000  0.445765  0.567370  1
  B  B12  1  0.500000  0.053518  0.066977  1
  B  B13  1  0.500000  0.946725  0.932892  1
  B  B14  1  0.500000  0.748355  0.418634  1
  B  B15  1  0.500000  0.251642  0.581382  1
  B  B16  1  0.500000  0.248720  0.081124  1
  B  B17  1  0.500000  0.751268  0.918660  1
  B  B18  1  0.500000  0.790428  0.266186  1
  B  B19  1  0.500000  0.209474  0.733967  1
  B  B20  1  0.500000  0.291503  0.234414  1
  B  B21  1  0.500000  0.708491  0.765555  1
  B  B22  1  0.500000  0.631202  0.186419  1
  B  B23  1  0.500000  0.368636  0.813700  1
  B  B24  1  0.500000  0.131540  0.314457  1
  B  B25  1  0.500000  0.868489  0.685552  1
  B  B26  1  0.500000  0.983506  0.212384  1
  B  B27  1  0.500000  0.016746  0.787689  1
  B  B28  1  0.500000  0.484068  0.288135  1
  B  B29  1  0.500000  0.515911  0.711873  1
  B  B30  1  0.500000  0.603467  0.028767  1
  B  B31  1  0.500000  0.396277  0.971158  1
  B  B32  1  0.500000  0.104073  0.471290  1
  B  B33  1  0.500000  0.895934  0.528719  1
  Ru  Ru34  1  0.000000  0.637997  0.321537  1
  Ru  Ru35  1  0.000000  0.361922  0.678582  1
