# generated using pymatgen
data_Y5Mn3(Ni4As3)4
_symmetry_space_group_name_H-M   'P 1'
_cell_length_a   12.59563700
_cell_length_b   12.59563671
_cell_length_c   3.89035500
_cell_angle_alpha   90.00000000
_cell_angle_beta   90.00000000
_cell_angle_gamma   120.00000338
_symmetry_Int_Tables_number   1
_chemical_formula_structural   Y5Mn3(Ni4As3)4
_chemical_formula_sum   'Y5 Mn3 Ni16 As12'
_cell_volume   534.51526446
_cell_formula_units_Z   1
loop_
 _symmetry_equiv_pos_site_id
 _symmetry_equiv_pos_as_xyz
  1  'x, y, z'
loop_
 _atom_site_type_symbol
 _atom_site_label
 _atom_site_symmetry_multiplicity
 _atom_site_fract_x
 _atom_site_fract_y
 _atom_site_fract_z
 _atom_site_occupancy
  Y  Y0  1  0.187198  0.187198  0.500000  1
  Y  Y1  1  0.812802  0.000000  0.500000  1
  Y  Y2  1  0.000000  0.812802  0.500000  1
  Y  Y3  1  0.333333  0.666667  0.000000  1
  Y  Y4  1  0.666667  0.333333  0.000000  1
  Mn  Mn5  1  0.562047  0.562047  0.000000  1
  Mn  Mn6  1  0.437953  0.000000  0.000000  1
  Mn  Mn7  1  0.000000  0.437953  0.000000  1
  Ni  Ni8  1  0.718190  0.718190  0.500000  1
  Ni  Ni9  1  0.281810  0.000000  0.500000  1
  Ni  Ni10  1  0.000000  0.281810  0.500000  1
  Ni  Ni11  1  0.182267  0.378721  0.000000  1
  Ni  Ni12  1  0.621279  0.803546  0.000000  1
  Ni  Ni13  1  0.196454  0.817733  0.000000  1
  Ni  Ni14  1  0.803546  0.621279  0.000000  1
  Ni  Ni15  1  0.817733  0.196454  0.000000  1
  Ni  Ni16  1  0.378721  0.182267  0.000000  1
  Ni  Ni17  1  0.361608  0.483301  0.500000  1
  Ni  Ni18  1  0.516699  0.878309  0.500000  1
  Ni  Ni19  1  0.121691  0.638392  0.500000  1
  Ni  Ni20  1  0.878309  0.516699  0.500000  1
  Ni  Ni21  1  0.638392  0.121691  0.500000  1
  Ni  Ni22  1  0.483301  0.361608  0.500000  1
  Ni  Ni23  1  0.000000  0.000000  0.000000  1
  As  As24  1  0.821955  0.821955  0.000000  1
  As  As25  1  0.178045  0.000000  0.000000  1
  As  As26  1  0.000000  0.178045  0.000000  1
  As  As27  1  0.168581  0.479786  0.500000  1
  As  As28  1  0.520214  0.688795  0.500000  1
  As  As29  1  0.311205  0.831419  0.500000  1
  As  As30  1  0.688795  0.520214  0.500000  1
  As  As31  1  0.831419  0.311205  0.500000  1
  As  As32  1  0.479786  0.168581  0.500000  1
  As  As33  1  0.364537  0.364537  0.000000  1
  As  As34  1  0.635463  0.000000  0.000000  1
  As  As35  1  0.000000  0.635463  0.000000  1
