# generated using pymatgen
data_Tb8Ti11Si16Tc
_symmetry_space_group_name_H-M   'P 1'
_cell_length_a   7.04830491
_cell_length_b   7.04830467
_cell_length_c   12.94094122
_cell_angle_alpha   90.01593211
_cell_angle_beta   89.98406574
_cell_angle_gamma   89.91564661
_symmetry_Int_Tables_number   1
_chemical_formula_structural   Tb8Ti11Si16Tc
_chemical_formula_sum   'Tb8 Ti11 Si16 Tc1'
_cell_volume   642.88710140
_cell_formula_units_Z   1
loop_
 _symmetry_equiv_pos_site_id
 _symmetry_equiv_pos_as_xyz
  1  'x, y, z'
loop_
 _atom_site_type_symbol
 _atom_site_label
 _atom_site_symmetry_multiplicity
 _atom_site_fract_x
 _atom_site_fract_y
 _atom_site_fract_z
 _atom_site_occupancy
  Tb  Tb0  1  0.340091  0.004205  0.467354  1
  Tb  Tb1  1  0.496803  0.840141  0.717930  1
  Tb  Tb2  1  0.500453  0.160004  0.214782  1
  Tb  Tb3  1  0.840141  0.496803  0.282070  1
  Tb  Tb4  1  0.160004  0.500453  0.785218  1
  Tb  Tb5  1  0.658512  0.998531  0.968018  1
  Tb  Tb6  1  0.004205  0.340091  0.532646  1
  Tb  Tb7  1  0.998531  0.658512  0.031982  1
  Ti  Ti8  1  0.174351  0.827482  0.248787  1
  Ti  Ti9  1  0.827482  0.174351  0.751213  1
  Ti  Ti10  1  0.673505  0.673505  0.500000  1
  Ti  Ti11  1  0.153264  0.006796  0.876401  1
  Ti  Ti12  1  0.491576  0.654418  0.125325  1
  Ti  Ti13  1  0.507579  0.347734  0.627656  1
  Ti  Ti14  1  0.654418  0.491576  0.874675  1
  Ti  Ti15  1  0.347734  0.507579  0.372344  1
  Ti  Ti16  1  0.847766  0.992759  0.375878  1
  Ti  Ti17  1  0.006796  0.153264  0.123599  1
  Ti  Ti18  1  0.992759  0.847766  0.624122  1
  Si  Si19  1  0.201884  0.130186  0.685781  1
  Si  Si20  1  0.372909  0.699464  0.934912  1
  Si  Si21  1  0.629912  0.297690  0.434982  1
  Si  Si22  1  0.699464  0.372909  0.065088  1
  Si  Si23  1  0.297690  0.629912  0.565018  1
  Si  Si24  1  0.797652  0.870169  0.184606  1
  Si  Si25  1  0.130186  0.201884  0.314219  1
  Si  Si26  1  0.870169  0.797652  0.815394  1
  Si  Si27  1  0.287725  0.954055  0.064457  1
  Si  Si28  1  0.546768  0.791765  0.315427  1
  Si  Si29  1  0.450931  0.209330  0.817335  1
  Si  Si30  1  0.791765  0.546768  0.684573  1
  Si  Si31  1  0.209330  0.450931  0.182665  1
  Si  Si32  1  0.709211  0.047857  0.565501  1
  Si  Si33  1  0.954055  0.287725  0.935543  1
  Si  Si34  1  0.047857  0.709211  0.434499  1
  Tc  Tc35  1  0.326520  0.326520  0.000000  1
