# generated using pymatgen
data_CaNd19(GeBi2)4
_symmetry_space_group_name_H-M   'P 1'
_cell_length_a   8.34215819
_cell_length_b   9.49481900
_cell_length_c   12.58806970
_cell_angle_alpha   90.00000000
_cell_angle_beta   89.52480965
_cell_angle_gamma   90.00000000
_symmetry_Int_Tables_number   1
_chemical_formula_structural   CaNd19(GeBi2)4
_chemical_formula_sum   'Ca1 Nd19 Ge4 Bi8'
_cell_volume   997.03249677
_cell_formula_units_Z   1
loop_
 _symmetry_equiv_pos_site_id
 _symmetry_equiv_pos_as_xyz
  1  'x, y, z'
loop_
 _atom_site_type_symbol
 _atom_site_label
 _atom_site_symmetry_multiplicity
 _atom_site_fract_x
 _atom_site_fract_y
 _atom_site_fract_z
 _atom_site_occupancy
  Ca  Ca0  1  0.962354  0.750000  0.999903  1
  Nd  Nd1  1  0.313364  0.955734  0.062527  1
  Nd  Nd2  1  0.812446  0.045208  0.437662  1
  Nd  Nd3  1  0.687965  0.454170  0.939721  1
  Nd  Nd4  1  0.188316  0.546154  0.562303  1
  Nd  Nd5  1  0.687965  0.045830  0.939721  1
  Nd  Nd6  1  0.188316  0.953846  0.562303  1
  Nd  Nd7  1  0.313364  0.544266  0.062527  1
  Nd  Nd8  1  0.812446  0.454792  0.437662  1
  Nd  Nd9  1  0.656169  0.750000  0.211004  1
  Nd  Nd10  1  0.157048  0.250000  0.286846  1
  Nd  Nd11  1  0.341491  0.250000  0.788647  1
  Nd  Nd12  1  0.842187  0.750000  0.712491  1
  Nd  Nd13  1  0.137863  0.750000  0.293118  1
  Nd  Nd14  1  0.637466  0.250000  0.207159  1
  Nd  Nd15  1  0.864674  0.250000  0.708197  1
  Nd  Nd16  1  0.364101  0.750000  0.791890  1
  Nd  Nd17  1  0.529696  0.750000  0.500154  1
  Nd  Nd18  1  0.027913  0.250000  0.998265  1
  Nd  Nd19  1  0.468452  0.250000  0.499381  1
  Ge  Ge20  1  0.577554  0.750000  0.978636  1
  Ge  Ge21  1  0.078176  0.250000  0.518229  1
  Ge  Ge22  1  0.422708  0.250000  0.019962  1
  Ge  Ge23  1  0.922934  0.750000  0.481389  1
  Bi  Bi24  1  0.927660  0.006296  0.174020  1
  Bi  Bi25  1  0.425761  0.992692  0.324647  1
  Bi  Bi26  1  0.074042  0.508518  0.826220  1
  Bi  Bi27  1  0.575054  0.491756  0.675263  1
  Bi  Bi28  1  0.074042  0.991482  0.826220  1
  Bi  Bi29  1  0.575054  0.008244  0.675263  1
  Bi  Bi30  1  0.927660  0.493704  0.174020  1
  Bi  Bi31  1  0.425761  0.507308  0.324647  1
