# generated using pymatgen
data_Ho6Al24Os2Ru5Au
_symmetry_space_group_name_H-M   'P 1'
_cell_length_a   8.81792544
_cell_length_b   8.81792694
_cell_length_c   9.56054830
_cell_angle_alpha   90.01246130
_cell_angle_beta   89.98753254
_cell_angle_gamma   119.54718011
_symmetry_Int_Tables_number   1
_chemical_formula_structural   Ho6Al24Os2Ru5Au
_chemical_formula_sum   'Ho6 Al24 Os2 Ru5 Au1'
_cell_volume   646.71056375
_cell_formula_units_Z   1
loop_
 _symmetry_equiv_pos_site_id
 _symmetry_equiv_pos_as_xyz
  1  'x, y, z'
loop_
 _atom_site_type_symbol
 _atom_site_label
 _atom_site_symmetry_multiplicity
 _atom_site_fract_x
 _atom_site_fract_y
 _atom_site_fract_z
 _atom_site_occupancy
  Ho  Ho0  1  0.190814  0.386486  0.251206  1
  Ho  Ho1  1  0.809186  0.613514  0.748794  1
  Ho  Ho2  1  0.613514  0.809186  0.251206  1
  Ho  Ho3  1  0.386486  0.190814  0.748794  1
  Ho  Ho4  1  0.194597  0.805403  0.255939  1
  Ho  Ho5  1  0.805403  0.194597  0.744061  1
  Al  Al6  1  0.328008  0.671992  0.025822  1
  Al  Al7  1  0.671992  0.328008  0.974178  1
  Al  Al8  1  0.666503  0.333497  0.519861  1
  Al  Al9  1  0.333497  0.666503  0.480139  1
  Al  Al10  1  0.162564  0.324548  0.576410  1
  Al  Al11  1  0.837436  0.675452  0.423590  1
  Al  Al12  1  0.675452  0.837436  0.576410  1
  Al  Al13  1  0.848513  0.678386  0.079963  1
  Al  Al14  1  0.324548  0.162564  0.423590  1
  Al  Al15  1  0.151487  0.321614  0.920037  1
  Al  Al16  1  0.163466  0.836534  0.577193  1
  Al  Al17  1  0.321614  0.151487  0.079963  1
  Al  Al18  1  0.836534  0.163466  0.422807  1
  Al  Al19  1  0.678386  0.848513  0.920037  1
  Al  Al20  1  0.837103  0.162897  0.076998  1
  Al  Al21  1  0.162897  0.837103  0.923002  1
  Al  Al22  1  0.560709  0.121583  0.248436  1
  Al  Al23  1  0.439291  0.878417  0.751564  1
  Al  Al24  1  0.878417  0.439291  0.248436  1
  Al  Al25  1  0.121583  0.560709  0.751564  1
  Al  Al26  1  0.563680  0.436320  0.255934  1
  Al  Al27  1  0.436320  0.563680  0.744066  1
  Al  Al28  1  0.999380  0.000620  0.250486  1
  Al  Al29  1  0.000620  0.999380  0.749514  1
  Os  Os30  1  0.500000  0.000000  0.500000  1
  Os  Os31  1  0.000000  0.500000  0.500000  1
  Ru  Ru32  1  0.500000  0.000000  0.000000  1
  Ru  Ru33  1  0.000000  0.500000  0.000000  1
  Ru  Ru34  1  0.500000  0.500000  0.500000  1
  Ru  Ru35  1  0.000000  0.000000  0.000000  1
  Ru  Ru36  1  0.000000  0.000000  0.500000  1
  Au  Au37  1  0.500000  0.500000  0.000000  1
