# generated using pymatgen
data_HoRhI18
_symmetry_space_group_name_H-M   'P 1'
_cell_length_a   10.20588251
_cell_length_b   10.23420578
_cell_length_c   10.21140099
_cell_angle_alpha   88.08530674
_cell_angle_beta   88.08951255
_cell_angle_gamma   87.92940709
_symmetry_Int_Tables_number   1
_chemical_formula_structural   HoRhI18
_chemical_formula_sum   'Ho1 Rh1 I18'
_cell_volume   1064.72879298
_cell_formula_units_Z   1
loop_
 _symmetry_equiv_pos_site_id
 _symmetry_equiv_pos_as_xyz
  1  'x, y, z'
loop_
 _atom_site_type_symbol
 _atom_site_label
 _atom_site_symmetry_multiplicity
 _atom_site_fract_x
 _atom_site_fract_y
 _atom_site_fract_z
 _atom_site_occupancy
  Ho  Ho0  1  0.000000  0.000000  0.000000  1
  Rh  Rh1  1  0.500000  0.500000  0.500000  1
  I  I2  1  0.763749  0.478219  0.497656  1
  I  I3  1  0.496924  0.762869  0.477987  1
  I  I4  1  0.478535  0.498122  0.763721  1
  I  I5  1  0.236251  0.521781  0.502344  1
  I  I6  1  0.503076  0.237131  0.522013  1
  I  I7  1  0.521465  0.501878  0.236279  1
  I  I8  1  0.878203  0.384034  0.742211  1
  I  I9  1  0.741021  0.877110  0.384232  1
  I  I10  1  0.384547  0.741944  0.878404  1
  I  I11  1  0.121797  0.615966  0.257789  1
  I  I12  1  0.258979  0.122890  0.615768  1
  I  I13  1  0.615453  0.258056  0.121596  1
  I  I14  1  0.025746  0.971784  0.704382  1
  I  I15  1  0.704645  0.025537  0.969968  1
  I  I16  1  0.971005  0.705618  0.023813  1
  I  I17  1  0.974254  0.028216  0.295618  1
  I  I18  1  0.295355  0.974463  0.030032  1
  I  I19  1  0.028995  0.294382  0.976187  1
