# generated using pymatgen
data_Li4La3YbPt4
_symmetry_space_group_name_H-M   'P 1'
_cell_length_a   4.16063500
_cell_length_b   7.24447459
_cell_length_c   8.58243362
_cell_angle_alpha   89.53989131
_cell_angle_beta   90.00000000
_cell_angle_gamma   90.00000000
_symmetry_Int_Tables_number   1
_chemical_formula_structural   Li4La3YbPt4
_chemical_formula_sum   'Li4 La3 Yb1 Pt4'
_cell_volume   258.68006488
_cell_formula_units_Z   1
loop_
 _symmetry_equiv_pos_site_id
 _symmetry_equiv_pos_as_xyz
  1  'x, y, z'
loop_
 _atom_site_type_symbol
 _atom_site_label
 _atom_site_symmetry_multiplicity
 _atom_site_fract_x
 _atom_site_fract_y
 _atom_site_fract_z
 _atom_site_occupancy
  Li  Li0  1  0.750000  0.373069  0.050136  1
  Li  Li1  1  0.250000  0.621132  0.940655  1
  Li  Li2  1  0.750000  0.871831  0.449265  1
  Li  Li3  1  0.250000  0.136752  0.555236  1
  La  La4  1  0.250000  0.040271  0.181911  1
  La  La5  1  0.750000  0.958955  0.810651  1
  La  La6  1  0.250000  0.542292  0.325566  1
  Yb  Yb7  1  0.750000  0.458557  0.682971  1
  Pt  Pt8  1  0.250000  0.753519  0.626188  1
  Pt  Pt9  1  0.750000  0.248046  0.374877  1
  Pt  Pt10  1  0.250000  0.248842  0.876451  1
  Pt  Pt11  1  0.750000  0.746735  0.126094  1
