# generated using pymatgen
data_Na3Yb(BO2)5
_symmetry_space_group_name_H-M   'P 1'
_cell_length_a   7.53294458
_cell_length_b   7.48957625
_cell_length_c   9.78574648
_cell_angle_alpha   81.37495913
_cell_angle_beta   109.99436754
_cell_angle_gamma   119.69928964
_symmetry_Int_Tables_number   1
_chemical_formula_structural   Na3Yb(BO2)5
_chemical_formula_sum   'Na6 Yb2 B10 O20'
_cell_volume   450.53941613
_cell_formula_units_Z   2
loop_
 _symmetry_equiv_pos_site_id
 _symmetry_equiv_pos_as_xyz
  1  'x, y, z'
loop_
 _atom_site_type_symbol
 _atom_site_label
 _atom_site_symmetry_multiplicity
 _atom_site_fract_x
 _atom_site_fract_y
 _atom_site_fract_z
 _atom_site_occupancy
  Na  Na0  1  0.769993  0.781349  0.451506  1
  Na  Na1  1  0.738783  0.466685  0.754299  1
  Na  Na2  1  0.230007  0.218651  0.548494  1
  Na  Na3  1  0.191709  0.024065  0.175424  1
  Na  Na4  1  0.808291  0.975935  0.824576  1
  Na  Na5  1  0.261217  0.533315  0.245701  1
  Yb  Yb6  1  0.746392  0.524305  0.119930  1
  Yb  Yb7  1  0.253608  0.475695  0.880070  1
  B  B8  1  0.267807  0.854058  0.714135  1
  B  B9  1  0.113045  0.814453  0.920197  1
  B  B10  1  0.557629  0.284878  0.393293  1
  B  B11  1  0.886955  0.185547  0.079803  1
  B  B12  1  0.615905  0.840586  0.130851  1
  B  B13  1  0.384095  0.159414  0.869149  1
  B  B14  1  0.442371  0.715122  0.606707  1
  B  B15  1  0.128340  0.756652  0.445598  1
  B  B16  1  0.732193  0.145942  0.285865  1
  B  B17  1  0.871660  0.243348  0.554402  1
  O  O18  1  0.977150  0.705652  0.995246  1
  O  O19  1  0.022850  0.294348  0.004754  1
  O  O20  1  0.399168  0.074079  0.759896  1
  O  O21  1  0.600832  0.925921  0.240104  1
  O  O22  1  0.985775  0.740944  0.314254  1
  O  O23  1  0.865762  0.270602  0.187804  1
  O  O24  1  0.761545  0.970198  0.054650  1
  O  O25  1  0.611445  0.689887  0.626627  1
  O  O26  1  0.408709  0.764909  0.726827  1
  O  O27  1  0.501364  0.637950  0.099323  1
  O  O28  1  0.134238  0.729398  0.812196  1
  O  O29  1  0.286745  0.695440  0.468432  1
  O  O30  1  0.126774  0.839646  0.564341  1
  O  O31  1  0.388555  0.310113  0.373373  1
  O  O32  1  0.238455  0.029802  0.945350  1
  O  O33  1  0.014225  0.259056  0.685746  1
  O  O34  1  0.591291  0.235091  0.273173  1
  O  O35  1  0.873226  0.160354  0.435659  1
  O  O36  1  0.498636  0.362050  0.900677  1
  O  O37  1  0.713255  0.304560  0.531568  1
