# generated using pymatgen
data_Sr8Ga(CoN4)2
_symmetry_space_group_name_H-M   'P 1'
_cell_length_a   9.74100508
_cell_length_b   9.74100499
_cell_length_c   7.52943229
_cell_angle_alpha   75.24074442
_cell_angle_beta   75.24074641
_cell_angle_gamma   31.90061434
_symmetry_Int_Tables_number   1
_chemical_formula_structural   Sr8Ga(CoN4)2
_chemical_formula_sum   'Sr8 Ga1 Co2 N8'
_cell_volume   364.05380644
_cell_formula_units_Z   1
loop_
 _symmetry_equiv_pos_site_id
 _symmetry_equiv_pos_as_xyz
  1  'x, y, z'
loop_
 _atom_site_type_symbol
 _atom_site_label
 _atom_site_symmetry_multiplicity
 _atom_site_fract_x
 _atom_site_fract_y
 _atom_site_fract_z
 _atom_site_occupancy
  Sr  Sr0  1  0.966978  0.966978  0.265056  1
  Sr  Sr1  1  0.028273  0.028273  0.738300  1
  Sr  Sr2  1  0.670443  0.670443  0.520814  1
  Sr  Sr3  1  0.334137  0.334137  0.485690  1
  Sr  Sr4  1  0.597973  0.597973  0.042103  1
  Sr  Sr5  1  0.407125  0.407125  0.952849  1
  Sr  Sr6  1  0.196616  0.196616  0.185926  1
  Sr  Sr7  1  0.798384  0.798384  0.816001  1
  Ga  Ga8  1  0.812661  0.812661  0.205688  1
  Co  Co9  1  0.500577  0.500577  0.497688  1
  Co  Co10  1  0.186722  0.186722  0.788844  1
  N  N11  1  0.899705  0.899705  0.997340  1
  N  N12  1  0.108350  0.108350  0.985342  1
  N  N13  1  0.823452  0.823452  0.449126  1
  N  N14  1  0.177892  0.177892  0.567720  1
  N  N15  1  0.715567  0.715567  0.166430  1
  N  N16  1  0.273972  0.273972  0.840591  1
  N  N17  1  0.474391  0.474391  0.287549  1
  N  N18  1  0.526783  0.526783  0.706945  1
