# generated using pymatgen
data_La2USn3Ir2Rh
_symmetry_space_group_name_H-M   'P 1'
_cell_length_a   7.69268100
_cell_length_b   7.61602854
_cell_length_c   4.05926400
_cell_angle_alpha   90.00000000
_cell_angle_beta   90.00000000
_cell_angle_gamma   120.34267315
_symmetry_Int_Tables_number   1
_chemical_formula_structural   La2USn3Ir2Rh
_chemical_formula_sum   'La2 U1 Sn3 Ir2 Rh1'
_cell_volume   205.24576989
_cell_formula_units_Z   1
loop_
 _symmetry_equiv_pos_site_id
 _symmetry_equiv_pos_as_xyz
  1  'x, y, z'
loop_
 _atom_site_type_symbol
 _atom_site_label
 _atom_site_symmetry_multiplicity
 _atom_site_fract_x
 _atom_site_fract_y
 _atom_site_fract_z
 _atom_site_occupancy
  La  La0  1  0.000601  0.585761  0.000000  1
  La  La1  1  0.414837  0.414298  0.000000  1
  U  U2  1  0.581791  0.000016  0.000000  1
  Sn  Sn3  1  0.241123  0.999901  0.500000  1
  Sn  Sn4  1  0.003464  0.253960  0.500000  1
  Sn  Sn5  1  0.749801  0.745994  0.500000  1
  Ir  Ir6  1  0.369825  0.711277  0.500000  1
  Ir  Ir7  1  0.658664  0.288848  0.500000  1
  Rh  Rh8  1  0.979896  0.999944  0.000000  1
