# generated using pymatgen
data_Sc8Ti9Si15GeMo3
_symmetry_space_group_name_H-M   'P 1'
_cell_length_a   6.64427969
_cell_length_b   6.79783003
_cell_length_c   12.99358941
_cell_angle_alpha   89.97900303
_cell_angle_beta   89.91962996
_cell_angle_gamma   90.06806926
_symmetry_Int_Tables_number   1
_chemical_formula_structural   Sc8Ti9Si15GeMo3
_chemical_formula_sum   'Sc8 Ti9 Si15 Ge1 Mo3'
_cell_volume   586.87631575
_cell_formula_units_Z   1
loop_
 _symmetry_equiv_pos_site_id
 _symmetry_equiv_pos_as_xyz
  1  'x, y, z'
loop_
 _atom_site_type_symbol
 _atom_site_label
 _atom_site_symmetry_multiplicity
 _atom_site_fract_x
 _atom_site_fract_y
 _atom_site_fract_z
 _atom_site_occupancy
  Sc  Sc0  1  0.501920  0.324881  0.096333  1
  Sc  Sc1  1  0.002578  0.176654  0.403127  1
  Sc  Sc2  1  0.495958  0.671703  0.594955  1
  Sc  Sc3  1  0.998360  0.824391  0.905166  1
  Sc  Sc4  1  0.496332  0.673216  0.905466  1
  Sc  Sc5  1  0.001536  0.822150  0.595509  1
  Sc  Sc6  1  0.500749  0.325989  0.403082  1
  Sc  Sc7  1  0.001794  0.175489  0.096155  1
  Ti  Ti8  1  0.837980  0.331507  0.627755  1
  Ti  Ti9  1  0.332906  0.174059  0.873340  1
  Ti  Ti10  1  0.167203  0.672526  0.126420  1
  Ti  Ti11  1  0.665432  0.826558  0.372237  1
  Ti  Ti12  1  0.167085  0.672146  0.373090  1
  Ti  Ti13  1  0.666678  0.828419  0.126734  1
  Ti  Ti14  1  0.835851  0.328177  0.873426  1
  Ti  Ti15  1  0.330586  0.174362  0.626770  1
  Ti  Ti16  1  0.659567  0.007818  0.752131  1
  Si  Si17  1  0.164670  0.463859  0.959372  1
  Si  Si18  1  0.335542  0.965065  0.041142  1
  Si  Si19  1  0.833650  0.536235  0.459069  1
  Si  Si20  1  0.331293  0.964425  0.458429  1
  Si  Si21  1  0.834140  0.535718  0.041054  1
  Si  Si22  1  0.664514  0.034934  0.959960  1
  Si  Si23  1  0.165435  0.463218  0.539942  1
  Si  Si24  1  0.534692  0.384367  0.750074  1
  Si  Si25  1  0.034168  0.115433  0.750356  1
  Si  Si26  1  0.465589  0.614511  0.249386  1
  Si  Si27  1  0.965638  0.884268  0.249854  1
  Si  Si28  1  0.793697  0.639169  0.750360  1
  Si  Si29  1  0.294193  0.862536  0.749983  1
  Si  Si30  1  0.204926  0.361912  0.249535  1
  Si  Si31  1  0.705392  0.137542  0.249851  1
  Ge  Ge32  1  0.670854  0.035504  0.540184  1
  Mo  Mo33  1  0.159243  0.492098  0.749985  1
  Mo  Mo34  1  0.339613  0.991051  0.249870  1
  Mo  Mo35  1  0.840237  0.508113  0.249901  1
