# generated using pymatgen
data_Y6Lu10MgCo4Ag3
_symmetry_space_group_name_H-M   'P 1'
_cell_length_a   9.34343529
_cell_length_b   9.35231472
_cell_length_c   9.35231400
_cell_angle_alpha   59.99999546
_cell_angle_beta   59.96855352
_cell_angle_gamma   59.96854559
_symmetry_Int_Tables_number   1
_chemical_formula_structural   Y6Lu10MgCo4Ag3
_chemical_formula_sum   'Y6 Lu10 Mg1 Co4 Ag3'
_cell_volume   577.59462909
_cell_formula_units_Z   1
loop_
 _symmetry_equiv_pos_site_id
 _symmetry_equiv_pos_as_xyz
  1  'x, y, z'
loop_
 _atom_site_type_symbol
 _atom_site_label
 _atom_site_symmetry_multiplicity
 _atom_site_fract_x
 _atom_site_fract_y
 _atom_site_fract_z
 _atom_site_occupancy
  Y  Y0  1  0.938190  0.560374  0.560374  1
  Y  Y1  1  0.560555  0.939073  0.939073  1
  Y  Y2  1  0.560555  0.939073  0.561300  1
  Y  Y3  1  0.938190  0.560374  0.941062  1
  Y  Y4  1  0.560555  0.561300  0.939073  1
  Y  Y5  1  0.938190  0.941062  0.560374  1
  Lu  Lu6  1  0.345609  0.344949  0.344949  1
  Lu  Lu7  1  0.345609  0.344949  0.964495  1
  Lu  Lu8  1  0.345609  0.964495  0.344949  1
  Lu  Lu9  1  0.953055  0.348982  0.348982  1
  Lu  Lu10  1  0.811290  0.187763  0.187763  1
  Lu  Lu11  1  0.184527  0.815118  0.815118  1
  Lu  Lu12  1  0.184527  0.815118  0.185237  1
  Lu  Lu13  1  0.811290  0.187763  0.813184  1
  Lu  Lu14  1  0.184527  0.185237  0.815118  1
  Lu  Lu15  1  0.811290  0.813184  0.187763  1
  Mg  Mg16  1  0.288728  0.570423  0.570423  1
  Co  Co17  1  0.137967  0.143053  0.143053  1
  Co  Co18  1  0.137967  0.143053  0.575929  1
  Co  Co19  1  0.137967  0.575929  0.143053  1
  Co  Co20  1  0.575560  0.141480  0.141480  1
  Ag  Ag21  1  0.582748  0.581671  0.581671  1
  Ag  Ag22  1  0.582748  0.581671  0.253909  1
  Ag  Ag23  1  0.582748  0.253909  0.581671  1
