# generated using pymatgen
data_Ho10In5SnSe2
_symmetry_space_group_name_H-M   'P 1'
_cell_length_a   9.13479691
_cell_length_b   9.16239540
_cell_length_c   6.73945600
_cell_angle_alpha   90.00000000
_cell_angle_beta   90.00000000
_cell_angle_gamma   120.10000079
_symmetry_Int_Tables_number   1
_chemical_formula_structural   Ho10In5SnSe2
_chemical_formula_sum   'Ho10 In5 Sn1 Se2'
_cell_volume   488.00569476
_cell_formula_units_Z   1
loop_
 _symmetry_equiv_pos_site_id
 _symmetry_equiv_pos_as_xyz
  1  'x, y, z'
loop_
 _atom_site_type_symbol
 _atom_site_label
 _atom_site_symmetry_multiplicity
 _atom_site_fract_x
 _atom_site_fract_y
 _atom_site_fract_z
 _atom_site_occupancy
  Ho  Ho0  1  0.670019  0.335193  0.998285  1
  Ho  Ho1  1  0.329981  0.665174  0.998285  1
  Ho  Ho2  1  0.329981  0.665174  0.501715  1
  Ho  Ho3  1  0.670019  0.335193  0.501715  1
  Ho  Ho4  1  0.750585  0.747790  0.750000  1
  Ho  Ho5  1  0.249415  0.997204  0.750000  1
  Ho  Ho6  1  0.000000  0.253811  0.750000  1
  Ho  Ho7  1  0.248408  0.250919  0.250000  1
  Ho  Ho8  1  0.751592  0.002511  0.250000  1
  Ho  Ho9  1  0.000000  0.746303  0.250000  1
  In  In10  1  0.400530  0.400661  0.750000  1
  In  In11  1  0.599470  0.000131  0.750000  1
  In  In12  1  0.000000  0.601166  0.750000  1
  In  In13  1  0.599596  0.599899  0.250000  1
  In  In14  1  0.400404  0.000303  0.250000  1
  Sn  Sn15  1  0.000000  0.398238  0.250000  1
  Se  Se16  1  0.000000  0.000165  0.000739  1
  Se  Se17  1  0.000000  0.000165  0.499261  1
