# generated using pymatgen
data_Sm4YP12Pd2Ru17
_symmetry_space_group_name_H-M   'P 1'
_cell_length_a   12.69809801
_cell_length_b   12.59543693
_cell_length_c   3.99862800
_cell_angle_alpha   90.00000000
_cell_angle_beta   90.00000000
_cell_angle_gamma   120.26459482
_symmetry_Int_Tables_number   1
_chemical_formula_structural   Sm4YP12Pd2Ru17
_chemical_formula_sum   'Sm4 Y1 P12 Pd2 Ru17'
_cell_volume   552.36917067
_cell_formula_units_Z   1
loop_
 _symmetry_equiv_pos_site_id
 _symmetry_equiv_pos_as_xyz
  1  'x, y, z'
loop_
 _atom_site_type_symbol
 _atom_site_label
 _atom_site_symmetry_multiplicity
 _atom_site_fract_x
 _atom_site_fract_y
 _atom_site_fract_z
 _atom_site_occupancy
  Sm  Sm0  1  0.001017  0.182734  0.500000  1
  Sm  Sm1  1  0.818408  0.817213  0.500000  1
  Sm  Sm2  1  0.183972  0.000005  0.500000  1
  Sm  Sm3  1  0.663796  0.327545  0.000000  1
  Y  Y4  1  0.336607  0.672769  0.000000  1
  P  P5  1  0.998807  0.810680  0.000000  1
  P  P6  1  0.187553  0.189996  0.000000  1
  P  P7  1  0.816171  0.999428  0.000000  1
  P  P8  1  0.693049  0.168915  0.500000  1
  P  P9  1  0.818633  0.518142  0.500000  1
  P  P10  1  0.475814  0.298941  0.500000  1
  P  P11  1  0.178285  0.700877  0.500000  1
  P  P12  1  0.522766  0.829458  0.500000  1
  P  P13  1  0.300628  0.483609  0.500000  1
  P  P14  1  0.000091  0.367257  0.000000  1
  P  P15  1  0.633043  0.632468  0.000000  1
  P  P16  1  0.375302  0.000046  0.000000  1
  Pd  Pd17  1  0.998674  0.552100  0.000000  1
  Pd  Pd18  1  0.446757  0.447720  0.000000  1
  Ru  Ru19  1  0.555687  0.000083  0.000000  1
  Ru  Ru20  1  0.998335  0.710463  0.500000  1
  Ru  Ru21  1  0.287236  0.290237  0.500000  1
  Ru  Ru22  1  0.716874  0.999261  0.500000  1
  Ru  Ru23  1  0.807699  0.184199  0.000000  1
  Ru  Ru24  1  0.812962  0.617878  0.000000  1
  Ru  Ru25  1  0.376550  0.192512  0.000000  1
  Ru  Ru26  1  0.185140  0.807104  0.000000  1
  Ru  Ru27  1  0.622121  0.814574  0.000000  1
  Ru  Ru28  1  0.195474  0.383764  0.000000  1
  Ru  Ru29  1  0.872725  0.365328  0.500000  1
  Ru  Ru30  1  0.629400  0.507996  0.500000  1
  Ru  Ru31  1  0.490891  0.122848  0.500000  1
  Ru  Ru32  1  0.368514  0.875777  0.500000  1
  Ru  Ru33  1  0.505619  0.634177  0.500000  1
  Ru  Ru34  1  0.122650  0.493876  0.500000  1
  Ru  Ru35  1  0.002751  0.000016  0.000000  1
