# generated using pymatgen
data_Lu4ScZn(B2Ir5)2
_symmetry_space_group_name_H-M   'P 1'
_cell_length_a   3.14032100
_cell_length_b   9.61578900
_cell_length_c   9.61578900
_cell_angle_alpha   90.00000000
_cell_angle_beta   90.00000000
_cell_angle_gamma   90.00000000
_symmetry_Int_Tables_number   1
_chemical_formula_structural   Lu4ScZn(B2Ir5)2
_chemical_formula_sum   'Lu4 Sc1 Zn1 B4 Ir10'
_cell_volume   290.36475076
_cell_formula_units_Z   1
loop_
 _symmetry_equiv_pos_site_id
 _symmetry_equiv_pos_as_xyz
  1  'x, y, z'
loop_
 _atom_site_type_symbol
 _atom_site_label
 _atom_site_symmetry_multiplicity
 _atom_site_fract_x
 _atom_site_fract_y
 _atom_site_fract_z
 _atom_site_occupancy
  Lu  Lu0  1  0.000000  0.174882  0.677961  1
  Lu  Lu1  1  0.000000  0.825118  0.322039  1
  Lu  Lu2  1  0.000000  0.322039  0.174882  1
  Lu  Lu3  1  0.000000  0.677961  0.825118  1
  Sc  Sc4  1  0.000000  0.500000  0.500000  1
  Zn  Zn5  1  0.000000  0.000000  0.000000  1
  B  B6  1  0.000000  0.628043  0.117984  1
  B  B7  1  0.000000  0.371957  0.882016  1
  B  B8  1  0.000000  0.882016  0.628043  1
  B  B9  1  0.000000  0.117984  0.371957  1
  Ir  Ir10  1  0.500000  0.067050  0.218597  1
  Ir  Ir11  1  0.500000  0.932950  0.781403  1
  Ir  Ir12  1  0.500000  0.781403  0.067050  1
  Ir  Ir13  1  0.500000  0.428335  0.724429  1
  Ir  Ir14  1  0.500000  0.218597  0.932950  1
  Ir  Ir15  1  0.500000  0.571665  0.275571  1
  Ir  Ir16  1  0.500000  0.724429  0.571665  1
  Ir  Ir17  1  0.500000  0.275571  0.428335  1
  Ir  Ir18  1  0.500000  0.000000  0.500000  1
  Ir  Ir19  1  0.500000  0.500000  0.000000  1
