# generated using pymatgen
data_Tb3DyZn4Ir3Rh
_symmetry_space_group_name_H-M   'P 1'
_cell_length_a   4.05399500
_cell_length_b   7.03167027
_cell_length_c   8.13493547
_cell_angle_alpha   90.02658213
_cell_angle_beta   90.00000000
_cell_angle_gamma   90.00000000
_symmetry_Int_Tables_number   1
_chemical_formula_structural   Tb3DyZn4Ir3Rh
_chemical_formula_sum   'Tb3 Dy1 Zn4 Ir3 Rh1'
_cell_volume   231.89734243
_cell_formula_units_Z   1
loop_
 _symmetry_equiv_pos_site_id
 _symmetry_equiv_pos_as_xyz
  1  'x, y, z'
loop_
 _atom_site_type_symbol
 _atom_site_label
 _atom_site_symmetry_multiplicity
 _atom_site_fract_x
 _atom_site_fract_y
 _atom_site_fract_z
 _atom_site_occupancy
  Tb  Tb0  1  0.250000  0.536394  0.184203  1
  Tb  Tb1  1  0.750000  0.460115  0.816575  1
  Tb  Tb2  1  0.750000  0.964419  0.682220  1
  Dy  Dy3  1  0.250000  0.038119  0.317053  1
  Zn  Zn4  1  0.250000  0.136313  0.935104  1
  Zn  Zn5  1  0.750000  0.863525  0.064913  1
  Zn  Zn6  1  0.250000  0.637506  0.564472  1
  Zn  Zn7  1  0.750000  0.362812  0.434300  1
  Ir  Ir8  1  0.750000  0.743901  0.377206  1
  Ir  Ir9  1  0.250000  0.258663  0.623881  1
  Ir  Ir10  1  0.750000  0.241904  0.122339  1
  Rh  Rh11  1  0.250000  0.756330  0.877736  1
