# generated using pymatgen
data_KPuAgSe3
_symmetry_space_group_name_H-M   'P 1'
_cell_length_a   8.06371200
_cell_length_b   8.06371269
_cell_length_c   10.74955400
_cell_angle_alpha   90.00000000
_cell_angle_beta   90.00000000
_cell_angle_gamma   149.09622482
_symmetry_Int_Tables_number   1
_chemical_formula_structural   KPuAgSe3
_chemical_formula_sum   'K2 Pu2 Ag2 Se6'
_cell_volume   358.99106877
_cell_formula_units_Z   2
loop_
 _symmetry_equiv_pos_site_id
 _symmetry_equiv_pos_as_xyz
  1  'x, y, z'
loop_
 _atom_site_type_symbol
 _atom_site_label
 _atom_site_symmetry_multiplicity
 _atom_site_fract_x
 _atom_site_fract_y
 _atom_site_fract_z
 _atom_site_occupancy
  K  K0  1  0.250330  0.749669  0.250000  1
  K  K1  1  0.749669  0.250330  0.750000  1
  Pu  Pu2  1  0.500000  0.500000  0.000000  1
  Pu  Pu3  1  0.500000  0.500000  0.500000  1
  Ag  Ag4  1  0.962780  0.037219  0.250000  1
  Ag  Ag5  1  0.037219  0.962780  0.750000  1
  Se  Se6  1  0.879726  0.120274  0.040132  1
  Se  Se7  1  0.567247  0.432752  0.250000  1
  Se  Se8  1  0.879726  0.120274  0.459867  1
  Se  Se9  1  0.120274  0.879726  0.540133  1
  Se  Se10  1  0.432752  0.567247  0.750000  1
  Se  Se11  1  0.120274  0.879726  0.959867  1
