# generated using pymatgen
data_Ce3Er13MgZn3Co4
_symmetry_space_group_name_H-M   'P 1'
_cell_length_a   9.31485780
_cell_length_b   9.36101571
_cell_length_c   9.36101600
_cell_angle_alpha   60.00000605
_cell_angle_beta   59.83595025
_cell_angle_gamma   59.83595280
_symmetry_Int_Tables_number   1
_chemical_formula_structural   Ce3Er13MgZn3Co4
_chemical_formula_sum   'Ce3 Er13 Mg1 Zn3 Co4'
_cell_volume   575.73930283
_cell_formula_units_Z   1
loop_
 _symmetry_equiv_pos_site_id
 _symmetry_equiv_pos_as_xyz
  1  'x, y, z'
loop_
 _atom_site_type_symbol
 _atom_site_label
 _atom_site_symmetry_multiplicity
 _atom_site_fract_x
 _atom_site_fract_y
 _atom_site_fract_z
 _atom_site_occupancy
  Ce  Ce0  1  0.591379  0.596478  0.596478  1
  Ce  Ce1  1  0.591379  0.596478  0.215664  1
  Ce  Ce2  1  0.591379  0.215664  0.596478  1
  Er  Er3  1  0.192879  0.602374  0.602374  1
  Er  Er4  1  0.060152  0.440141  0.440141  1
  Er  Er5  1  0.438942  0.061887  0.061887  1
  Er  Er6  1  0.438942  0.061887  0.437284  1
  Er  Er7  1  0.060152  0.440141  0.059564  1
  Er  Er8  1  0.438942  0.437284  0.061887  1
  Er  Er9  1  0.060152  0.059564  0.440141  1
  Er  Er10  1  0.180724  0.815065  0.815065  1
  Er  Er11  1  0.810638  0.188017  0.188017  1
  Er  Er12  1  0.810638  0.188017  0.813329  1
  Er  Er13  1  0.180724  0.815065  0.189148  1
  Er  Er14  1  0.810638  0.813329  0.188017  1
  Er  Er15  1  0.180724  0.189148  0.815065  1
  Mg  Mg16  1  0.530588  0.823137  0.823137  1
  Zn  Zn17  1  0.833249  0.829619  0.829619  1
  Zn  Zn18  1  0.833249  0.829619  0.507512  1
  Zn  Zn19  1  0.833249  0.507512  0.829619  1
  Co  Co20  1  0.405939  0.389445  0.389445  1
  Co  Co21  1  0.405939  0.389445  0.815173  1
  Co  Co22  1  0.405939  0.815173  0.389445  1
  Co  Co23  1  0.813461  0.395513  0.395513  1
