# generated using pymatgen
data_Y4Pd3Pb2Au
_symmetry_space_group_name_H-M   'P 1'
_cell_length_a   8.00835989
_cell_length_b   8.00835989
_cell_length_c   3.65578100
_cell_angle_alpha   90.00000000
_cell_angle_beta   90.00000000
_cell_angle_gamma   89.77174281
_symmetry_Int_Tables_number   1
_chemical_formula_structural   Y4Pd3Pb2Au
_chemical_formula_sum   'Y4 Pd3 Pb2 Au1'
_cell_volume   234.45736964
_cell_formula_units_Z   1
loop_
 _symmetry_equiv_pos_site_id
 _symmetry_equiv_pos_as_xyz
  1  'x, y, z'
loop_
 _atom_site_type_symbol
 _atom_site_label
 _atom_site_symmetry_multiplicity
 _atom_site_fract_x
 _atom_site_fract_y
 _atom_site_fract_z
 _atom_site_occupancy
  Y  Y0  1  0.665548  0.165548  0.500000  1
  Y  Y1  1  0.177300  0.329436  0.500000  1
  Y  Y2  1  0.829436  0.677300  0.500000  1
  Y  Y3  1  0.328460  0.828460  0.500000  1
  Pd  Pd4  1  0.375170  0.123717  0.000000  1
  Pd  Pd5  1  0.623717  0.875170  0.000000  1
  Pd  Pd6  1  0.125943  0.625943  0.000000  1
  Pb  Pb7  1  0.001750  0.994499  0.000000  1
  Pb  Pb8  1  0.494499  0.501750  0.000000  1
  Au  Au9  1  0.878177  0.378177  0.000000  1
