# generated using pymatgen
data_ZnSe23
_symmetry_space_group_name_H-M   'P 1'
_cell_length_a   5.39746987
_cell_length_b   10.07725794
_cell_length_c   16.08222500
_cell_angle_alpha   93.36146596
_cell_angle_beta   86.96594930
_cell_angle_gamma   87.56530097
_symmetry_Int_Tables_number   1
_chemical_formula_structural   ZnSe23
_chemical_formula_sum   'Zn1 Se23'
_cell_volume   871.09830197
_cell_formula_units_Z   1
loop_
 _symmetry_equiv_pos_site_id
 _symmetry_equiv_pos_as_xyz
  1  'x, y, z'
loop_
 _atom_site_type_symbol
 _atom_site_label
 _atom_site_symmetry_multiplicity
 _atom_site_fract_x
 _atom_site_fract_y
 _atom_site_fract_z
 _atom_site_occupancy
  Zn  Zn0  1  0.576355  0.257073  0.354056  1
  Se  Se1  1  0.428465  0.852867  0.395065  1
  Se  Se2  1  0.001505  0.314339  0.146402  1
  Se  Se3  1  0.877527  0.186809  0.445266  1
  Se  Se4  1  0.209387  0.786434  0.515910  1
  Se  Se5  1  0.181311  0.222846  0.018643  1
  Se  Se6  1  0.762018  0.714256  0.013701  1
  Se  Se7  1  0.214050  0.396256  0.355945  1
  Se  Se8  1  0.682050  0.663628  0.346858  1
  Se  Se9  1  0.734147  0.150812  0.202076  1
  Se  Se10  1  0.227605  0.882391  0.148537  1
  Se  Se11  1  0.741827  0.631500  0.628141  1
  Se  Se12  1  0.346074  0.336702  0.602493  1
  Se  Se13  1  0.217363  0.860551  0.862471  1
  Se  Se14  1  0.721375  0.135234  0.856878  1
  Se  Se15  1  0.033509  0.678932  0.121465  1
  Se  Se16  1  0.472706  0.822799  0.626525  1
  Se  Se17  1  0.605923  0.149289  0.564675  1
  Se  Se18  1  0.005073  0.665924  0.887902  1
  Se  Se19  1  0.972077  0.306297  0.904961  1
  Se  Se20  1  0.446022  0.528086  0.260787  1
  Se  Se21  1  0.014307  0.997219  0.265690  1
  Se  Se22  1  0.537507  0.471941  0.704730  1
  Se  Se23  1  0.991816  0.987813  0.770826  1
