# generated using pymatgen
data_Tb15Er5Ir11Ru
_symmetry_space_group_name_H-M   'P 1'
_cell_length_a   10.88730109
_cell_length_b   10.88841513
_cell_length_c   6.40245204
_cell_angle_alpha   90.01161765
_cell_angle_beta   89.99348957
_cell_angle_gamma   90.01331409
_symmetry_Int_Tables_number   1
_chemical_formula_structural   Tb15Er5Ir11Ru
_chemical_formula_sum   'Tb15 Er5 Ir11 Ru1'
_cell_volume   758.98154267
_cell_formula_units_Z   1
loop_
 _symmetry_equiv_pos_site_id
 _symmetry_equiv_pos_as_xyz
  1  'x, y, z'
loop_
 _atom_site_type_symbol
 _atom_site_label
 _atom_site_symmetry_multiplicity
 _atom_site_fract_x
 _atom_site_fract_y
 _atom_site_fract_z
 _atom_site_occupancy
  Tb  Tb0  1  0.292156  0.912975  0.880626  1
  Tb  Tb1  1  0.707816  0.087287  0.880486  1
  Tb  Tb2  1  0.708027  0.912827  0.377598  1
  Tb  Tb3  1  0.587269  0.792223  0.880462  1
  Tb  Tb4  1  0.586805  0.207962  0.377672  1
  Tb  Tb5  1  0.412658  0.792245  0.377654  1
  Tb  Tb6  1  0.412443  0.207626  0.880520  1
  Tb  Tb7  1  0.209583  0.411514  0.621064  1
  Tb  Tb8  1  0.209572  0.588155  0.120799  1
  Tb  Tb9  1  0.790441  0.411803  0.120809  1
  Tb  Tb10  1  0.790429  0.588359  0.621219  1
  Tb  Tb11  1  0.911818  0.709513  0.120827  1
  Tb  Tb12  1  0.911656  0.290397  0.621253  1
  Tb  Tb13  1  0.088376  0.709609  0.621107  1
  Tb  Tb14  1  0.088450  0.290257  0.121124  1
  Er  Er15  1  0.292586  0.087164  0.378577  1
  Er  Er16  1  0.000357  0.000191  0.499112  1
  Er  Er17  1  0.000017  0.000032  0.999323  1
  Er  Er18  1  0.500049  0.499948  0.999290  1
  Er  Er19  1  0.499972  0.499967  0.499115  1
  Ir  Ir20  1  0.848193  0.152600  0.249973  1
  Ir  Ir21  1  0.848257  0.847730  0.749714  1
  Ir  Ir22  1  0.152157  0.152019  0.748409  1
  Ir  Ir23  1  0.152066  0.847898  0.250283  1
  Ir  Ir24  1  0.652240  0.348251  0.749653  1
  Ir  Ir25  1  0.652690  0.651811  0.249955  1
  Ir  Ir26  1  0.347187  0.347464  0.250288  1
  Ir  Ir27  1  0.347736  0.651742  0.749707  1
  Ir  Ir28  1  0.499331  0.000249  0.622351  1
  Ir  Ir29  1  0.000030  0.500018  0.878491  1
  Ir  Ir30  1  0.000012  0.499974  0.378706  1
  Ru  Ru31  1  0.499620  0.000190  0.123834  1
