# generated using pymatgen
data_Ce2DyY(AsPt)4
_symmetry_space_group_name_H-M   'P 1'
_cell_length_a   4.30479300
_cell_length_b   4.30479403
_cell_length_c   15.65682400
_cell_angle_alpha   90.00000000
_cell_angle_beta   90.00000000
_cell_angle_gamma   119.99999975
_symmetry_Int_Tables_number   1
_chemical_formula_structural   Ce2DyY(AsPt)4
_chemical_formula_sum   'Ce2 Dy1 Y1 As4 Pt4'
_cell_volume   251.26902370
_cell_formula_units_Z   1
loop_
 _symmetry_equiv_pos_site_id
 _symmetry_equiv_pos_as_xyz
  1  'x, y, z'
loop_
 _atom_site_type_symbol
 _atom_site_label
 _atom_site_symmetry_multiplicity
 _atom_site_fract_x
 _atom_site_fract_y
 _atom_site_fract_z
 _atom_site_occupancy
  Ce  Ce0  1  0.000000  0.000000  0.500047  1
  Ce  Ce1  1  0.000000  0.000000  0.999953  1
  Dy  Dy2  1  0.000000  0.000000  0.750000  1
  Y  Y3  1  0.000000  0.000000  0.250000  1
  As  As4  1  0.333333  0.666667  0.884850  1
  As  As5  1  0.666667  0.333333  0.115268  1
  As  As6  1  0.666667  0.333333  0.384732  1
  As  As7  1  0.333333  0.666667  0.615150  1
  Pt  Pt8  1  0.333333  0.666667  0.358890  1
  Pt  Pt9  1  0.666667  0.333333  0.642332  1
  Pt  Pt10  1  0.666667  0.333333  0.857668  1
  Pt  Pt11  1  0.333333  0.666667  0.141110  1
