# generated using pymatgen
data_Cs4K2ScInAs4
_symmetry_space_group_name_H-M   'P 1'
_cell_length_a   9.87427874
_cell_length_b   9.87427867
_cell_length_c   9.87427906
_cell_angle_alpha   133.44104671
_cell_angle_beta   138.50984768
_cell_angle_gamma   64.10792121
_symmetry_Int_Tables_number   1
_chemical_formula_structural   Cs4K2ScInAs4
_chemical_formula_sum   'Cs4 K2 Sc1 In1 As4'
_cell_volume   456.91717841
_cell_formula_units_Z   1
loop_
 _symmetry_equiv_pos_site_id
 _symmetry_equiv_pos_as_xyz
  1  'x, y, z'
loop_
 _atom_site_type_symbol
 _atom_site_label
 _atom_site_symmetry_multiplicity
 _atom_site_fract_x
 _atom_site_fract_y
 _atom_site_fract_z
 _atom_site_occupancy
  Cs  Cs0  1  0.682439  0.436365  0.762313  1
  Cs  Cs1  1  0.817561  0.079873  0.253926  1
  Cs  Cs2  1  0.174052  0.920127  0.737687  1
  Cs  Cs3  1  0.325948  0.563635  0.246074  1
  K  K4  1  0.750000  0.000000  0.750000  1
  K  K5  1  0.250000  0.000000  0.250000  1
  Sc  Sc6  1  0.250000  0.500000  0.750000  1
  In  In7  1  0.750000  0.500000  0.250000  1
  As  As8  1  0.404038  0.218230  0.804304  1
  As  As9  1  0.586074  0.781770  0.185808  1
  As  As10  1  0.095962  0.400267  0.314192  1
  As  As11  1  0.913926  0.599733  0.695696  1
