# generated using pymatgen
data_ErLu7(SiI6)2
_symmetry_space_group_name_H-M   'P 1'
_cell_length_a   4.15588700
_cell_length_b   13.70976665
_cell_length_c   14.51394769
_cell_angle_alpha   90.03536340
_cell_angle_beta   90.00000000
_cell_angle_gamma   90.00000000
_symmetry_Int_Tables_number   1
_chemical_formula_structural   ErLu7(SiI6)2
_chemical_formula_sum   'Er1 Lu7 Si2 I12'
_cell_volume   826.95002408
_cell_formula_units_Z   1
loop_
 _symmetry_equiv_pos_site_id
 _symmetry_equiv_pos_as_xyz
  1  'x, y, z'
loop_
 _atom_site_type_symbol
 _atom_site_label
 _atom_site_symmetry_multiplicity
 _atom_site_fract_x
 _atom_site_fract_y
 _atom_site_fract_z
 _atom_site_occupancy
  Er  Er0  1  0.500000  0.113839  0.347516  1
  Lu  Lu1  1  0.500000  0.886433  0.652109  1
  Lu  Lu2  1  0.500000  0.613305  0.151805  1
  Lu  Lu3  1  0.500000  0.386679  0.848200  1
  Lu  Lu4  1  0.000000  0.109262  0.572830  1
  Lu  Lu5  1  0.000000  0.890890  0.426986  1
  Lu  Lu6  1  0.000000  0.609054  0.927189  1
  Lu  Lu7  1  0.000000  0.390969  0.072771  1
  Si  Si8  1  0.500000  0.999420  0.500820  1
  Si  Si9  1  0.500000  0.500043  0.999967  1
  I  I10  1  0.500000  0.247657  0.160983  1
  I  I11  1  0.500000  0.752941  0.838273  1
  I  I12  1  0.500000  0.746893  0.338209  1
  I  I13  1  0.500000  0.253003  0.661987  1
  I  I14  1  0.000000  0.260292  0.415238  1
  I  I15  1  0.000000  0.741290  0.586155  1
  I  I16  1  0.000000  0.758490  0.086110  1
  I  I17  1  0.000000  0.241430  0.913809  1
  I  I18  1  0.000000  0.998014  0.239299  1
  I  I19  1  0.000000  0.000078  0.759748  1
  I  I20  1  0.000000  0.499958  0.259611  1
  I  I21  1  0.000000  0.500060  0.740383  1
