# generated using pymatgen
data_Rb4ReRhCl12
_symmetry_space_group_name_H-M   'P 1'
_cell_length_a   7.19757200
_cell_length_b   7.19757200
_cell_length_c   10.52766700
_cell_angle_alpha   90.00000000
_cell_angle_beta   90.00000000
_cell_angle_gamma   90.00000000
_symmetry_Int_Tables_number   1
_chemical_formula_structural   Rb4ReRhCl12
_chemical_formula_sum   'Rb4 Re1 Rh1 Cl12'
_cell_volume   545.38623842
_cell_formula_units_Z   1
loop_
 _symmetry_equiv_pos_site_id
 _symmetry_equiv_pos_as_xyz
  1  'x, y, z'
loop_
 _atom_site_type_symbol
 _atom_site_label
 _atom_site_symmetry_multiplicity
 _atom_site_fract_x
 _atom_site_fract_y
 _atom_site_fract_z
 _atom_site_occupancy
  Rb  Rb0  1  0.500000  0.000000  0.776118  1
  Rb  Rb1  1  0.000000  0.500000  0.223882  1
  Rb  Rb2  1  0.500000  0.000000  0.223882  1
  Rb  Rb3  1  0.000000  0.500000  0.776118  1
  Re  Re4  1  0.500000  0.500000  0.500000  1
  Rh  Rh5  1  0.000000  0.000000  0.000000  1
  Cl  Cl6  1  0.000000  0.000000  0.775361  1
  Cl  Cl7  1  0.500000  0.500000  0.275110  1
  Cl  Cl8  1  0.730578  0.730578  0.500000  1
  Cl  Cl9  1  0.232284  0.232284  0.000000  1
  Cl  Cl10  1  0.730578  0.269422  0.500000  1
  Cl  Cl11  1  0.232284  0.767716  0.000000  1
  Cl  Cl12  1  0.000000  0.000000  0.224639  1
  Cl  Cl13  1  0.500000  0.500000  0.724890  1
  Cl  Cl14  1  0.269422  0.269422  0.500000  1
  Cl  Cl15  1  0.767716  0.767716  0.000000  1
  Cl  Cl16  1  0.269422  0.730578  0.500000  1
  Cl  Cl17  1  0.767716  0.232284  0.000000  1
