# generated using pymatgen
data_NaY(InCl3)2
_symmetry_space_group_name_H-M   'P 1'
_cell_length_a   7.23461233
_cell_length_b   7.83326000
_cell_length_c   12.62875525
_cell_angle_alpha   90.00000000
_cell_angle_beta   123.45933303
_cell_angle_gamma   90.00000000
_symmetry_Int_Tables_number   1
_chemical_formula_structural   NaY(InCl3)2
_chemical_formula_sum   'Na2 Y2 In4 Cl12'
_cell_volume   597.07489567
_cell_formula_units_Z   2
loop_
 _symmetry_equiv_pos_site_id
 _symmetry_equiv_pos_as_xyz
  1  'x, y, z'
loop_
 _atom_site_type_symbol
 _atom_site_label
 _atom_site_symmetry_multiplicity
 _atom_site_fract_x
 _atom_site_fract_y
 _atom_site_fract_z
 _atom_site_occupancy
  Na  Na0  1  0.500000  0.000000  0.000000  1
  Na  Na1  1  0.500001  0.500000  0.500000  1
  Y  Y2  1  0.000000  0.500000  0.000000  1
  Y  Y3  1  0.000000  0.000000  0.500000  1
  In  In4  1  0.283673  0.083800  0.254189  1
  In  In5  1  0.716327  0.583800  0.245811  1
  In  In6  1  0.283672  0.416200  0.754189  1
  In  In7  1  0.716327  0.916200  0.745810  1
  Cl  Cl8  1  0.343616  0.318016  0.041385  1
  Cl  Cl9  1  0.233607  0.785411  0.051923  1
  Cl  Cl10  1  0.141154  0.471292  0.243593  1
  Cl  Cl11  1  0.858846  0.971292  0.256407  1
  Cl  Cl12  1  0.766394  0.285411  0.448078  1
  Cl  Cl13  1  0.656384  0.818016  0.458616  1
  Cl  Cl14  1  0.343617  0.181984  0.541385  1
  Cl  Cl15  1  0.233607  0.714589  0.551923  1
  Cl  Cl16  1  0.141153  0.028708  0.743593  1
  Cl  Cl17  1  0.858847  0.528709  0.756407  1
  Cl  Cl18  1  0.766393  0.214589  0.948078  1
  Cl  Cl19  1  0.656383  0.681984  0.958616  1
