# generated using pymatgen
data_Tb2Y2GaSi3
_symmetry_space_group_name_H-M   'P 1'
_cell_length_a   3.89696200
_cell_length_b   4.32674700
_cell_length_c   10.66989600
_cell_angle_alpha   90.00000000
_cell_angle_beta   90.00000000
_cell_angle_gamma   90.00000000
_symmetry_Int_Tables_number   1
_chemical_formula_structural   Tb2Y2GaSi3
_chemical_formula_sum   'Tb2 Y2 Ga1 Si3'
_cell_volume   179.90691586
_cell_formula_units_Z   1
loop_
 _symmetry_equiv_pos_site_id
 _symmetry_equiv_pos_as_xyz
  1  'x, y, z'
loop_
 _atom_site_type_symbol
 _atom_site_label
 _atom_site_symmetry_multiplicity
 _atom_site_fract_x
 _atom_site_fract_y
 _atom_site_fract_z
 _atom_site_occupancy
  Tb  Tb0  1  0.000000  0.000000  0.362558  1
  Tb  Tb1  1  0.500000  0.000000  0.639437  1
  Y  Y2  1  0.000000  0.500000  0.856811  1
  Y  Y3  1  0.500000  0.500000  0.141971  1
  Ga  Ga4  1  0.000000  0.000000  0.075305  1
  Si  Si5  1  0.000000  0.500000  0.575855  1
  Si  Si6  1  0.500000  0.500000  0.425846  1
  Si  Si7  1  0.500000  0.000000  0.922217  1
