# generated using pymatgen
data_Y2AlIrRu
_symmetry_space_group_name_H-M   'P 1'
_cell_length_a   5.57341892
_cell_length_b   5.57341838
_cell_length_c   5.57341830
_cell_angle_alpha   137.40606788
_cell_angle_beta   116.20728210
_cell_angle_gamma   79.75903023
_symmetry_Int_Tables_number   1
_chemical_formula_structural   Y2AlIrRu
_chemical_formula_sum   'Y2 Al1 Ir1 Ru1'
_cell_volume   101.98626573
_cell_formula_units_Z   1
loop_
 _symmetry_equiv_pos_site_id
 _symmetry_equiv_pos_as_xyz
  1  'x, y, z'
loop_
 _atom_site_type_symbol
 _atom_site_label
 _atom_site_symmetry_multiplicity
 _atom_site_fract_x
 _atom_site_fract_y
 _atom_site_fract_z
 _atom_site_occupancy
  Y  Y0  1  0.699824  0.202285  0.497539  1
  Y  Y1  1  0.295255  0.797715  0.497539  1
  Al  Al2  1  0.003078  0.000000  0.003078  1
  Ir  Ir3  1  0.736421  0.500000  0.236421  1
  Ru  Ru4  1  0.265421  0.500000  0.765421  1
