# generated using pymatgen
data_Tb3Ce(TcB4)4
_symmetry_space_group_name_H-M   'P 1'
_cell_length_a   3.62664900
_cell_length_b   5.99263474
_cell_length_c   11.60116646
_cell_angle_alpha   90.03861385
_cell_angle_beta   90.00000000
_cell_angle_gamma   90.00000000
_symmetry_Int_Tables_number   1
_chemical_formula_structural   Tb3Ce(TcB4)4
_chemical_formula_sum   'Tb3 Ce1 Tc4 B16'
_cell_volume   252.13021419
_cell_formula_units_Z   1
loop_
 _symmetry_equiv_pos_site_id
 _symmetry_equiv_pos_as_xyz
  1  'x, y, z'
loop_
 _atom_site_type_symbol
 _atom_site_label
 _atom_site_symmetry_multiplicity
 _atom_site_fract_x
 _atom_site_fract_y
 _atom_site_fract_z
 _atom_site_occupancy
  Tb  Tb0  1  0.500000  0.872405  0.849275  1
  Tb  Tb1  1  0.500000  0.627294  0.350493  1
  Tb  Tb2  1  0.500000  0.373321  0.650491  1
  Ce  Ce3  1  0.500000  0.126676  0.150648  1
  Tc  Tc4  1  0.500000  0.132779  0.412572  1
  Tc  Tc5  1  0.500000  0.865824  0.587476  1
  Tc  Tc6  1  0.500000  0.634903  0.088597  1
  Tc  Tc7  1  0.500000  0.365504  0.911546  1
  B  B8  1  0.000000  0.476481  0.191522  1
  B  B9  1  0.000000  0.522979  0.807756  1
  B  B10  1  0.000000  0.977569  0.308946  1
  B  B11  1  0.000000  0.022975  0.691889  1
  B  B12  1  0.000000  0.286817  0.315680  1
  B  B13  1  0.000000  0.712790  0.684746  1
  B  B14  1  0.000000  0.787159  0.184783  1
  B  B15  1  0.000000  0.213472  0.814298  1
  B  B16  1  0.000000  0.363590  0.468750  1
  B  B17  1  0.000000  0.636148  0.531724  1
  B  B18  1  0.000000  0.863354  0.031328  1
  B  B19  1  0.000000  0.137077  0.967946  1
  B  B20  1  0.000000  0.388508  0.046199  1
  B  B21  1  0.000000  0.613205  0.952544  1
  B  B22  1  0.000000  0.886666  0.453660  1
  B  B23  1  0.000000  0.112507  0.547130  1
