# generated using pymatgen
data_NbNiOF5
_symmetry_space_group_name_H-M   'P 1'
_cell_length_a   5.51744883
_cell_length_b   5.58103137
_cell_length_c   5.48988582
_cell_angle_alpha   118.64617317
_cell_angle_beta   119.02049434
_cell_angle_gamma   91.42848167
_symmetry_Int_Tables_number   1
_chemical_formula_structural   NbNiOF5
_chemical_formula_sum   'Nb1 Ni1 O1 F5'
_cell_volume   122.21016377
_cell_formula_units_Z   1
loop_
 _symmetry_equiv_pos_site_id
 _symmetry_equiv_pos_as_xyz
  1  'x, y, z'
loop_
 _atom_site_type_symbol
 _atom_site_label
 _atom_site_symmetry_multiplicity
 _atom_site_fract_x
 _atom_site_fract_y
 _atom_site_fract_z
 _atom_site_occupancy
  Nb  Nb0  1  0.683134  0.994828  0.322413  1
  Ni  Ni1  1  0.158340  0.473907  0.318521  1
  O  O2  1  0.950474  0.222207  0.363638  1
  F  F3  1  0.356402  0.725056  0.264324  1
  F  F4  1  0.397408  0.203844  0.240171  1
  F  F5  1  0.474402  0.716335  0.827052  1
  F  F6  1  0.907938  0.734923  0.390697  1
  F  F7  1  0.833056  0.224134  0.806661  1
