# generated using pymatgen
data_Dy15Ho(ZnRh)4
_symmetry_space_group_name_H-M   'P 1'
_cell_length_a   9.47464591
_cell_length_b   9.47464542
_cell_length_c   9.48826500
_cell_angle_alpha   59.95243375
_cell_angle_beta   59.95243549
_cell_angle_gamma   59.88183437
_symmetry_Int_Tables_number   1
_chemical_formula_structural   Dy15Ho(ZnRh)4
_chemical_formula_sum   'Dy15 Ho1 Zn4 Rh4'
_cell_volume   601.30714821
_cell_formula_units_Z   1
loop_
 _symmetry_equiv_pos_site_id
 _symmetry_equiv_pos_as_xyz
  1  'x, y, z'
loop_
 _atom_site_type_symbol
 _atom_site_label
 _atom_site_symmetry_multiplicity
 _atom_site_fract_x
 _atom_site_fract_y
 _atom_site_fract_z
 _atom_site_occupancy
  Dy  Dy0  1  0.314115  0.894563  0.895661  1
  Dy  Dy1  1  0.686758  0.313260  0.685528  1
  Dy  Dy2  1  0.313260  0.686758  0.314455  1
  Dy  Dy3  1  0.059369  0.441108  0.440682  1
  Dy  Dy4  1  0.686758  0.313260  0.314455  1
  Dy  Dy5  1  0.441108  0.059369  0.440682  1
  Dy  Dy6  1  0.441108  0.059369  0.058841  1
  Dy  Dy7  1  0.895448  0.895448  0.896384  1
  Dy  Dy8  1  0.059369  0.441108  0.058841  1
  Dy  Dy9  1  0.894563  0.314115  0.895661  1
  Dy  Dy10  1  0.313260  0.686758  0.685528  1
  Dy  Dy11  1  0.895448  0.895448  0.312721  1
  Dy  Dy12  1  0.440852  0.440852  0.059148  1
  Dy  Dy13  1  0.313713  0.313713  0.686287  1
  Dy  Dy14  1  0.685763  0.685763  0.314237  1
  Ho  Ho15  1  0.058920  0.058920  0.441080  1
  Zn  Zn16  1  0.987606  0.671323  0.670535  1
  Zn  Zn17  1  0.671323  0.987606  0.670535  1
  Zn  Zn18  1  0.671343  0.671343  0.986768  1
  Zn  Zn19  1  0.671343  0.671343  0.670546  1
  Rh  Rh20  1  0.105883  0.105883  0.680701  1
  Rh  Rh21  1  0.105473  0.681338  0.106595  1
  Rh  Rh22  1  0.105883  0.105883  0.107534  1
  Rh  Rh23  1  0.681338  0.105473  0.106595  1
