# generated using pymatgen
data_Pr10CdSi4Pd
_symmetry_space_group_name_H-M   'P 1'
_cell_length_a   7.77688800
_cell_length_b   9.37534156
_cell_length_c   7.77688800
_cell_angle_alpha   114.50372213
_cell_angle_beta   90.00000000
_cell_angle_gamma   114.50372213
_symmetry_Int_Tables_number   1
_chemical_formula_structural   Pr10CdSi4Pd
_chemical_formula_sum   'Pr10 Cd1 Si4 Pd1'
_cell_volume   459.23796758
_cell_formula_units_Z   1
loop_
 _symmetry_equiv_pos_site_id
 _symmetry_equiv_pos_as_xyz
  1  'x, y, z'
loop_
 _atom_site_type_symbol
 _atom_site_label
 _atom_site_symmetry_multiplicity
 _atom_site_fract_x
 _atom_site_fract_y
 _atom_site_fract_z
 _atom_site_occupancy
  Pr  Pr0  1  0.973272  0.946543  0.973272  1
  Pr  Pr1  1  0.526728  0.053457  0.526728  1
  Pr  Pr2  1  0.520101  0.722748  0.669651  1
  Pr  Pr3  1  0.202648  0.722748  0.053098  1
  Pr  Pr4  1  0.669651  0.722748  0.202648  1
  Pr  Pr5  1  0.053098  0.722748  0.520101  1
  Pr  Pr6  1  0.446902  0.277252  0.297352  1
  Pr  Pr7  1  0.830349  0.277252  0.979899  1
  Pr  Pr8  1  0.297352  0.277252  0.830349  1
  Pr  Pr9  1  0.979899  0.277252  0.446902  1
  Cd  Cd10  1  0.750000  0.500000  0.750000  1
  Si  Si11  1  0.884288  0.000000  0.615712  1
  Si  Si12  1  0.115712  0.000000  0.384288  1
  Si  Si13  1  0.615712  0.000000  0.115712  1
  Si  Si14  1  0.384288  0.000000  0.884288  1
  Pd  Pd15  1  0.250000  0.500000  0.250000  1
