# generated using pymatgen
data_Eu2YNpO6
_symmetry_space_group_name_H-M   'P 1'
_cell_length_a   6.12265000
_cell_length_b   5.96126019
_cell_length_c   10.42298700
_cell_angle_alpha   55.24316838
_cell_angle_beta   90.00000000
_cell_angle_gamma   90.00000000
_symmetry_Int_Tables_number   1
_chemical_formula_structural   Eu2YNpO6
_chemical_formula_sum   'Eu4 Y2 Np2 O12'
_cell_volume   312.54965307
_cell_formula_units_Z   2
loop_
 _symmetry_equiv_pos_site_id
 _symmetry_equiv_pos_as_xyz
  1  'x, y, z'
loop_
 _atom_site_type_symbol
 _atom_site_label
 _atom_site_symmetry_multiplicity
 _atom_site_fract_x
 _atom_site_fract_y
 _atom_site_fract_z
 _atom_site_occupancy
  Eu  Eu0  1  0.451348  0.262966  0.750477  1
  Eu  Eu1  1  0.951348  0.737034  0.749523  1
  Eu  Eu2  1  0.048652  0.262966  0.250477  1
  Eu  Eu3  1  0.548652  0.737034  0.249523  1
  Y  Y4  1  0.500000  0.000000  0.500000  1
  Y  Y5  1  0.000000  0.000000  0.000000  1
  Np  Np6  1  0.000000  0.500000  0.500000  1
  Np  Np7  1  0.500000  0.500000  0.000000  1
  O  O8  1  0.190567  0.734879  0.558146  1
  O  O9  1  0.690567  0.265121  0.941854  1
  O  O10  1  0.809433  0.265121  0.441854  1
  O  O11  1  0.309433  0.734879  0.058146  1
  O  O12  1  0.704905  0.627984  0.563811  1
  O  O13  1  0.204905  0.372016  0.936189  1
  O  O14  1  0.295095  0.372016  0.436189  1
  O  O15  1  0.795095  0.627984  0.063811  1
  O  O16  1  0.046621  0.141808  0.743858  1
  O  O17  1  0.546621  0.858192  0.756142  1
  O  O18  1  0.953379  0.858192  0.256142  1
  O  O19  1  0.453379  0.141808  0.243858  1
