# generated using pymatgen
data_Cs6Er3TmCl18
_symmetry_space_group_name_H-M   'P 1'
_cell_length_a   9.88937733
_cell_length_b   9.88937930
_cell_length_c   9.88937900
_cell_angle_alpha   83.17140178
_cell_angle_beta   83.17140625
_cell_angle_gamma   83.17139424
_symmetry_Int_Tables_number   1
_chemical_formula_structural   Cs6Er3TmCl18
_chemical_formula_sum   'Cs6 Er3 Tm1 Cl18'
_cell_volume   948.10732392
_cell_formula_units_Z   1
loop_
 _symmetry_equiv_pos_site_id
 _symmetry_equiv_pos_as_xyz
  1  'x, y, z'
loop_
 _atom_site_type_symbol
 _atom_site_label
 _atom_site_symmetry_multiplicity
 _atom_site_fract_x
 _atom_site_fract_y
 _atom_site_fract_z
 _atom_site_occupancy
  Cs  Cs0  1  0.589713  0.910385  0.249760  1
  Cs  Cs1  1  0.249760  0.589713  0.910385  1
  Cs  Cs2  1  0.910385  0.249760  0.589713  1
  Cs  Cs3  1  0.750063  0.410213  0.089873  1
  Cs  Cs4  1  0.089873  0.750063  0.410213  1
  Cs  Cs5  1  0.410213  0.089873  0.750063  1
  Er  Er6  1  0.847064  0.847064  0.847064  1
  Er  Er7  1  0.347066  0.347066  0.347066  1
  Er  Er8  1  0.152898  0.152898  0.152898  1
  Tm  Tm9  1  0.652587  0.652587  0.652587  1
  Cl  Cl10  1  0.096676  0.403362  0.249949  1
  Cl  Cl11  1  0.249949  0.096676  0.403362  1
  Cl  Cl12  1  0.403362  0.249949  0.096676  1
  Cl  Cl13  1  0.749868  0.902937  0.596878  1
  Cl  Cl14  1  0.596878  0.749868  0.902937  1
  Cl  Cl15  1  0.902937  0.596878  0.749868  1
  Cl  Cl16  1  0.235883  0.414474  0.577008  1
  Cl  Cl17  1  0.577008  0.235883  0.414474  1
  Cl  Cl18  1  0.414474  0.577008  0.235883  1
  Cl  Cl19  1  0.077167  0.914673  0.735928  1
  Cl  Cl20  1  0.735928  0.077167  0.914673  1
  Cl  Cl21  1  0.914673  0.735928  0.077167  1
  Cl  Cl22  1  0.764009  0.585662  0.423258  1
  Cl  Cl23  1  0.423258  0.764009  0.585662  1
  Cl  Cl24  1  0.585662  0.423258  0.764009  1
  Cl  Cl25  1  0.922982  0.085525  0.264142  1
  Cl  Cl26  1  0.264142  0.922982  0.085525  1
  Cl  Cl27  1  0.085525  0.264142  0.922982  1
