# generated using pymatgen
data_Nd12ZnCdCo4
_symmetry_space_group_name_H-M   'P 1'
_cell_length_a   8.58013666
_cell_length_b   8.58013833
_cell_length_c   8.58013726
_cell_angle_alpha   112.27627606
_cell_angle_beta   109.59895231
_cell_angle_gamma   106.58829978
_symmetry_Int_Tables_number   1
_chemical_formula_structural   Nd12ZnCdCo4
_chemical_formula_sum   'Nd12 Zn1 Cd1 Co4'
_cell_volume   485.05421349
_cell_formula_units_Z   1
loop_
 _symmetry_equiv_pos_site_id
 _symmetry_equiv_pos_as_xyz
  1  'x, y, z'
loop_
 _atom_site_type_symbol
 _atom_site_label
 _atom_site_symmetry_multiplicity
 _atom_site_fract_x
 _atom_site_fract_y
 _atom_site_fract_z
 _atom_site_occupancy
  Nd  Nd0  1  0.429124  0.231343  0.197780  1
  Nd  Nd1  1  0.570876  0.768657  0.802220  1
  Nd  Nd2  1  0.033562  0.231343  0.802220  1
  Nd  Nd3  1  0.966438  0.768657  0.197780  1
  Nd  Nd4  1  0.178889  0.282860  0.461748  1
  Nd  Nd5  1  0.821111  0.717140  0.538252  1
  Nd  Nd6  1  0.178889  0.717140  0.896031  1
  Nd  Nd7  1  0.821111  0.282860  0.103969  1
  Nd  Nd8  1  0.324996  0.638603  0.313607  1
  Nd  Nd9  1  0.675004  0.361397  0.686393  1
  Nd  Nd10  1  0.324996  0.011389  0.686393  1
  Nd  Nd11  1  0.675004  0.988611  0.313607  1
  Zn  Zn12  1  0.000000  0.000000  0.000000  1
  Cd  Cd13  1  0.500000  0.500000  0.000000  1
  Co  Co14  1  0.334528  0.000000  0.334528  1
  Co  Co15  1  0.665472  0.000000  0.665472  1
  Co  Co16  1  0.112197  0.612197  0.500000  1
  Co  Co17  1  0.887803  0.387803  0.500000  1
