# generated using pymatgen
data_Yb3ErSnSb3O14
_symmetry_space_group_name_H-M   'P 1'
_cell_length_a   7.37474034
_cell_length_b   7.36214489
_cell_length_c   7.37474000
_cell_angle_alpha   59.94338224
_cell_angle_beta   59.99999255
_cell_angle_gamma   59.94338473
_symmetry_Int_Tables_number   1
_chemical_formula_structural   Yb3ErSnSb3O14
_chemical_formula_sum   'Yb3 Er1 Sn1 Sb3 O14'
_cell_volume   282.88544548
_cell_formula_units_Z   1
loop_
 _symmetry_equiv_pos_site_id
 _symmetry_equiv_pos_as_xyz
  1  'x, y, z'
loop_
 _atom_site_type_symbol
 _atom_site_label
 _atom_site_symmetry_multiplicity
 _atom_site_fract_x
 _atom_site_fract_y
 _atom_site_fract_z
 _atom_site_occupancy
  Yb  Yb0  1  0.625000  0.625000  0.125000  1
  Yb  Yb1  1  0.125000  0.625000  0.625000  1
  Yb  Yb2  1  0.625000  0.625000  0.625000  1
  Er  Er3  1  0.625000  0.125000  0.625000  1
  Sn  Sn4  1  0.125000  0.625000  0.125000  1
  Sb  Sb5  1  0.125000  0.125000  0.625000  1
  Sb  Sb6  1  0.625000  0.125000  0.125000  1
  Sb  Sb7  1  0.125000  0.125000  0.125000  1
  O  O8  1  0.744513  0.766461  0.744513  1
  O  O9  1  0.505487  0.483539  0.505487  1
  O  O10  1  0.043545  0.448980  0.043545  1
  O  O11  1  0.798730  0.193001  0.798730  1
  O  O12  1  0.040460  0.056999  0.451270  1
  O  O13  1  0.451270  0.056999  0.040460  1
  O  O14  1  0.043545  0.448980  0.463928  1
  O  O15  1  0.463928  0.448980  0.043545  1
  O  O16  1  0.451270  0.056999  0.451270  1
  O  O17  1  0.206455  0.801020  0.786072  1
  O  O18  1  0.798730  0.193001  0.209540  1
  O  O19  1  0.206455  0.801020  0.206455  1
  O  O20  1  0.786072  0.801020  0.206455  1
  O  O21  1  0.209540  0.193001  0.798730  1
