# generated using pymatgen
data_Y5Er7Th4(CdIr)4
_symmetry_space_group_name_H-M   'P 1'
_cell_length_a   9.73919227
_cell_length_b   9.71901863
_cell_length_c   9.71901851
_cell_angle_alpha   59.91859978
_cell_angle_beta   59.93131157
_cell_angle_gamma   59.93131299
_symmetry_Int_Tables_number   1
_chemical_formula_structural   Y5Er7Th4(CdIr)4
_chemical_formula_sum   'Y5 Er7 Th4 Cd4 Ir4'
_cell_volume   649.43212404
_cell_formula_units_Z   1
loop_
 _symmetry_equiv_pos_site_id
 _symmetry_equiv_pos_as_xyz
  1  'x, y, z'
loop_
 _atom_site_type_symbol
 _atom_site_label
 _atom_site_symmetry_multiplicity
 _atom_site_fract_x
 _atom_site_fract_y
 _atom_site_fract_z
 _atom_site_occupancy
  Y  Y0  1  0.563299  0.936701  0.936701  1
  Y  Y1  1  0.564401  0.936453  0.563818  1
  Y  Y2  1  0.935328  0.563818  0.936453  1
  Y  Y3  1  0.564401  0.563818  0.936453  1
  Y  Y4  1  0.935328  0.936453  0.563818  1
  Er  Er5  1  0.812464  0.187536  0.187536  1
  Er  Er6  1  0.186390  0.813610  0.813610  1
  Er  Er7  1  0.186715  0.812834  0.187384  1
  Er  Er8  1  0.813067  0.187384  0.812834  1
  Er  Er9  1  0.186715  0.187384  0.812834  1
  Er  Er10  1  0.813067  0.812834  0.187384  1
  Er  Er11  1  0.936127  0.563873  0.563873  1
  Th  Th12  1  0.349154  0.350313  0.350313  1
  Th  Th13  1  0.350016  0.351098  0.948870  1
  Th  Th14  1  0.350016  0.948870  0.351098  1
  Th  Th15  1  0.950221  0.350313  0.350313  1
  Cd  Cd16  1  0.584049  0.582048  0.582048  1
  Cd  Cd17  1  0.583171  0.581813  0.251846  1
  Cd  Cd18  1  0.583171  0.251846  0.581813  1
  Cd  Cd19  1  0.251855  0.582048  0.582048  1
  Ir  Ir20  1  0.143475  0.142394  0.142394  1
  Ir  Ir21  1  0.142917  0.142563  0.571602  1
  Ir  Ir22  1  0.142917  0.571602  0.142563  1
  Ir  Ir23  1  0.571735  0.142394  0.142394  1
