# generated using pymatgen
data_Mn4ZnCu2Pd9
_symmetry_space_group_name_H-M   'P 1'
_cell_length_a   6.75015291
_cell_length_b   6.75015282
_cell_length_c   6.75015285
_cell_angle_alpha   106.20329838
_cell_angle_beta   106.20329307
_cell_angle_gamma   116.22563893
_symmetry_Int_Tables_number   1
_chemical_formula_structural   Mn4ZnCu2Pd9
_chemical_formula_sum   'Mn4 Zn1 Cu2 Pd9'
_cell_volume   234.26981504
_cell_formula_units_Z   1
loop_
 _symmetry_equiv_pos_site_id
 _symmetry_equiv_pos_as_xyz
  1  'x, y, z'
loop_
 _atom_site_type_symbol
 _atom_site_label
 _atom_site_symmetry_multiplicity
 _atom_site_fract_x
 _atom_site_fract_y
 _atom_site_fract_z
 _atom_site_occupancy
  Mn  Mn0  1  0.239030  0.239030  0.478063  1
  Mn  Mn1  1  0.760970  0.760970  0.521937  1
  Mn  Mn2  1  0.239030  0.760970  0.000000  1
  Mn  Mn3  1  0.760970  0.239030  0.000000  1
  Zn  Zn4  1  0.500000  0.500000  0.000000  1
  Cu  Cu5  1  0.500000  0.000000  0.500000  1
  Cu  Cu6  1  0.000000  0.500000  0.500000  1
  Pd  Pd7  1  0.516984  0.264335  0.252648  1
  Pd  Pd8  1  0.483016  0.735665  0.747352  1
  Pd  Pd9  1  0.011687  0.264335  0.747352  1
  Pd  Pd10  1  0.264335  0.011687  0.747352  1
  Pd  Pd11  1  0.988313  0.735665  0.252648  1
  Pd  Pd12  1  0.735665  0.988313  0.252648  1
  Pd  Pd13  1  0.264335  0.516984  0.252648  1
  Pd  Pd14  1  0.735665  0.483016  0.747352  1
  Pd  Pd15  1  0.000000  0.000000  0.000000  1
