# generated using pymatgen
data_Nd4Lu4Tc3B24Os
_symmetry_space_group_name_H-M   'P 1'
_cell_length_a   3.69427300
_cell_length_b   9.17502835
_cell_length_c   11.63100003
_cell_angle_alpha   89.95514231
_cell_angle_beta   90.00000000
_cell_angle_gamma   90.00000000
_symmetry_Int_Tables_number   1
_chemical_formula_structural   Nd4Lu4Tc3B24Os
_chemical_formula_sum   'Nd4 Lu4 Tc3 B24 Os1'
_cell_volume   394.23331722
_cell_formula_units_Z   1
loop_
 _symmetry_equiv_pos_site_id
 _symmetry_equiv_pos_as_xyz
  1  'x, y, z'
loop_
 _atom_site_type_symbol
 _atom_site_label
 _atom_site_symmetry_multiplicity
 _atom_site_fract_x
 _atom_site_fract_y
 _atom_site_fract_z
 _atom_site_occupancy
  Nd  Nd0  1  0.000000  0.322786  0.414349  1
  Nd  Nd1  1  0.000000  0.676251  0.584060  1
  Nd  Nd2  1  0.000000  0.822526  0.086649  1
  Nd  Nd3  1  0.000000  0.178394  0.915256  1
  Lu  Lu4  1  0.000000  0.942880  0.369408  1
  Lu  Lu5  1  0.000000  0.057948  0.630432  1
  Lu  Lu6  1  0.000000  0.443326  0.130916  1
  Lu  Lu7  1  0.000000  0.556467  0.869011  1
  Tc  Tc8  1  0.000000  0.640096  0.318291  1
  Tc  Tc9  1  0.000000  0.360013  0.682228  1
  Tc  Tc10  1  0.000000  0.139465  0.180851  1
  B  B11  1  0.500000  0.555427  0.430036  1
  B  B12  1  0.500000  0.444459  0.569729  1
  B  B13  1  0.500000  0.055525  0.069840  1
  B  B14  1  0.500000  0.943975  0.930007  1
  B  B15  1  0.500000  0.751215  0.415744  1
  B  B16  1  0.500000  0.248515  0.584371  1
  B  B17  1  0.500000  0.251857  0.084351  1
  B  B18  1  0.500000  0.748950  0.915378  1
  B  B19  1  0.500000  0.792280  0.265818  1
  B  B20  1  0.500000  0.207904  0.734663  1
  B  B21  1  0.500000  0.292135  0.234379  1
  B  B22  1  0.500000  0.708400  0.765383  1
  B  B23  1  0.500000  0.629264  0.185263  1
  B  B24  1  0.500000  0.370718  0.815214  1
  B  B25  1  0.500000  0.128890  0.314523  1
  B  B26  1  0.500000  0.870703  0.685339  1
  B  B27  1  0.500000  0.983307  0.213813  1
  B  B28  1  0.500000  0.015606  0.786423  1
  B  B29  1  0.500000  0.483638  0.286002  1
  B  B30  1  0.500000  0.516208  0.713754  1
  B  B31  1  0.500000  0.596544  0.026011  1
  B  B32  1  0.500000  0.404478  0.973779  1
  B  B33  1  0.500000  0.096095  0.473998  1
  B  B34  1  0.500000  0.904064  0.526527  1
  Os  Os35  1  0.000000  0.859691  0.818204  1
