# generated using pymatgen
data_Nd5Ho11Cd4PdRu3
_symmetry_space_group_name_H-M   'P 1'
_cell_length_a   9.72768025
_cell_length_b   9.76033649
_cell_length_c   9.76033606
_cell_angle_alpha   59.53811175
_cell_angle_beta   59.42639161
_cell_angle_gamma   59.42639257
_symmetry_Int_Tables_number   1
_chemical_formula_structural   Nd5Ho11Cd4PdRu3
_chemical_formula_sum   'Nd5 Ho11 Cd4 Pd1 Ru3'
_cell_volume   647.27860614
_cell_formula_units_Z   1
loop_
 _symmetry_equiv_pos_site_id
 _symmetry_equiv_pos_as_xyz
  1  'x, y, z'
loop_
 _atom_site_type_symbol
 _atom_site_label
 _atom_site_symmetry_multiplicity
 _atom_site_fract_x
 _atom_site_fract_y
 _atom_site_fract_z
 _atom_site_occupancy
  Nd  Nd0  1  0.554893  0.941607  0.941607  1
  Nd  Nd1  1  0.558624  0.936032  0.564560  1
  Nd  Nd2  1  0.939229  0.558329  0.939056  1
  Nd  Nd3  1  0.558624  0.564560  0.936032  1
  Nd  Nd4  1  0.939229  0.939056  0.558329  1
  Ho  Ho5  1  0.344966  0.350787  0.350787  1
  Ho  Ho6  1  0.342482  0.352522  0.957792  1
  Ho  Ho7  1  0.342482  0.957792  0.352522  1
  Ho  Ho8  1  0.964172  0.345766  0.345766  1
  Ho  Ho9  1  0.818389  0.187003  0.187003  1
  Ho  Ho10  1  0.183587  0.813876  0.813876  1
  Ho  Ho11  1  0.185327  0.812182  0.188324  1
  Ho  Ho12  1  0.818171  0.189155  0.805258  1
  Ho  Ho13  1  0.185327  0.188324  0.812182  1
  Ho  Ho14  1  0.818171  0.805258  0.189155  1
  Ho  Ho15  1  0.940820  0.556963  0.556963  1
  Cd  Cd16  1  0.582520  0.577753  0.577753  1
  Cd  Cd17  1  0.579140  0.578831  0.262247  1
  Cd  Cd18  1  0.579140  0.262247  0.578831  1
  Cd  Cd19  1  0.259295  0.578993  0.578993  1
  Pd  Pd20  1  0.574605  0.142416  0.142416  1
  Ru  Ru21  1  0.144512  0.139060  0.139060  1
  Ru  Ru22  1  0.143150  0.144070  0.577417  1
  Ru  Ru23  1  0.143150  0.577417  0.144070  1
