# generated using pymatgen
data_Ta6MnCr2Fe3N2
_symmetry_space_group_name_H-M   'P 1'
_cell_length_a   8.02586854
_cell_length_b   8.02586762
_cell_length_c   8.03468100
_cell_angle_alpha   59.96367190
_cell_angle_beta   59.96367569
_cell_angle_gamma   59.91366646
_symmetry_Int_Tables_number   1
_chemical_formula_structural   Ta6MnCr2Fe3N2
_chemical_formula_sum   'Ta12 Mn2 Cr4 Fe6 N4'
_cell_volume   365.52336742
_cell_formula_units_Z   2
loop_
 _symmetry_equiv_pos_site_id
 _symmetry_equiv_pos_as_xyz
  1  'x, y, z'
loop_
 _atom_site_type_symbol
 _atom_site_label
 _atom_site_symmetry_multiplicity
 _atom_site_fract_x
 _atom_site_fract_y
 _atom_site_fract_z
 _atom_site_occupancy
  Ta  Ta0  1  0.804133  0.804133  0.195867  1
  Ta  Ta1  1  0.196170  0.196170  0.803830  1
  Ta  Ta2  1  0.804187  0.196154  0.803825  1
  Ta  Ta3  1  0.196154  0.804187  0.195834  1
  Ta  Ta4  1  0.196154  0.804187  0.803825  1
  Ta  Ta5  1  0.804187  0.196154  0.195834  1
  Ta  Ta6  1  0.446463  0.446463  0.053537  1
  Ta  Ta7  1  0.053291  0.053291  0.446709  1
  Ta  Ta8  1  0.446819  0.053601  0.446204  1
  Ta  Ta9  1  0.053601  0.446819  0.053375  1
  Ta  Ta10  1  0.053601  0.446819  0.446204  1
  Ta  Ta11  1  0.446819  0.053601  0.053375  1
  Mn  Mn12  1  0.826594  0.826594  0.519092  1
  Mn  Mn13  1  0.826594  0.826594  0.827722  1
  Cr  Cr14  1  0.125744  0.624916  0.624670  1
  Cr  Cr15  1  0.624916  0.125744  0.624670  1
  Cr  Cr16  1  0.624557  0.624557  0.125863  1
  Cr  Cr17  1  0.624557  0.624557  0.625023  1
  Fe  Fe18  1  0.730209  0.423735  0.423027  1
  Fe  Fe19  1  0.423735  0.730209  0.423027  1
  Fe  Fe20  1  0.423500  0.423500  0.729948  1
  Fe  Fe21  1  0.423500  0.423500  0.423050  1
  Fe  Fe22  1  0.516540  0.827328  0.828067  1
  Fe  Fe23  1  0.827328  0.516540  0.828067  1
  N  N24  1  0.624700  0.125469  0.124916  1
  N  N25  1  0.125469  0.624700  0.124916  1
  N  N26  1  0.125238  0.125238  0.624849  1
  N  N27  1  0.125238  0.125238  0.124675  1
