# generated using pymatgen
data_LaHoTmRh9
_symmetry_space_group_name_H-M   'P 1'
_cell_length_a   5.30160204
_cell_length_b   5.30133911
_cell_length_c   17.51501200
_cell_angle_alpha   90.00000000
_cell_angle_beta   90.00000000
_cell_angle_gamma   119.98838894
_symmetry_Int_Tables_number   1
_chemical_formula_structural   LaHoTmRh9
_chemical_formula_sum   'La2 Ho2 Tm2 Rh18'
_cell_volume   426.36797947
_cell_formula_units_Z   2
loop_
 _symmetry_equiv_pos_site_id
 _symmetry_equiv_pos_as_xyz
  1  'x, y, z'
loop_
 _atom_site_type_symbol
 _atom_site_label
 _atom_site_symmetry_multiplicity
 _atom_site_fract_x
 _atom_site_fract_y
 _atom_site_fract_z
 _atom_site_occupancy
  La  La0  1  0.333332  0.666676  0.749802  1
  La  La1  1  0.666668  0.333324  0.249802  1
  Ho  Ho2  1  0.666701  0.333362  0.459351  1
  Ho  Ho3  1  0.333299  0.666638  0.959351  1
  Tm  Tm4  1  0.333299  0.666655  0.541191  1
  Tm  Tm5  1  0.666701  0.333345  0.041191  1
  Rh  Rh6  1  0.167563  0.335072  0.123721  1
  Rh  Rh7  1  0.832437  0.664928  0.623721  1
  Rh  Rh8  1  0.664988  0.832487  0.123709  1
  Rh  Rh9  1  0.167552  0.832468  0.123715  1
  Rh  Rh10  1  0.832448  0.167532  0.623715  1
  Rh  Rh11  1  0.335012  0.167513  0.623709  1
  Rh  Rh12  1  0.832522  0.665129  0.876166  1
  Rh  Rh13  1  0.832535  0.167379  0.876175  1
  Rh  Rh14  1  0.334760  0.167382  0.876155  1
  Rh  Rh15  1  0.665240  0.832618  0.376155  1
  Rh  Rh16  1  0.167465  0.832621  0.376175  1
  Rh  Rh17  1  0.167478  0.334871  0.376166  1
  Rh  Rh18  1  0.999478  0.999740  0.250099  1
  Rh  Rh19  1  0.000522  0.000260  0.750099  1
  Rh  Rh20  1  0.333826  0.666920  0.249933  1
  Rh  Rh21  1  0.666174  0.333080  0.749933  1
  Rh  Rh22  1  0.000224  0.000150  0.999983  1
  Rh  Rh23  1  0.999776  0.999850  0.499983  1
