# generated using pymatgen
data_Gd3Tm5(ReB6)4
_symmetry_space_group_name_H-M   'P 1'
_cell_length_a   3.66461200
_cell_length_b   9.14497905
_cell_length_c   11.53695506
_cell_angle_alpha   89.98796124
_cell_angle_beta   90.00000000
_cell_angle_gamma   90.00000000
_symmetry_Int_Tables_number   1
_chemical_formula_structural   Gd3Tm5(ReB6)4
_chemical_formula_sum   'Gd3 Tm5 Re4 B24'
_cell_volume   386.63565875
_cell_formula_units_Z   1
loop_
 _symmetry_equiv_pos_site_id
 _symmetry_equiv_pos_as_xyz
  1  'x, y, z'
loop_
 _atom_site_type_symbol
 _atom_site_label
 _atom_site_symmetry_multiplicity
 _atom_site_fract_x
 _atom_site_fract_y
 _atom_site_fract_z
 _atom_site_occupancy
  Gd  Gd0  1  0.000000  0.322999  0.413843  1
  Gd  Gd1  1  0.000000  0.676891  0.586332  1
  Gd  Gd2  1  0.000000  0.823311  0.085939  1
  Tm  Tm3  1  0.000000  0.176426  0.913947  1
  Tm  Tm4  1  0.000000  0.943510  0.369639  1
  Tm  Tm5  1  0.000000  0.056742  0.630424  1
  Tm  Tm6  1  0.000000  0.443085  0.129527  1
  Tm  Tm7  1  0.000000  0.556500  0.870203  1
  Re  Re8  1  0.000000  0.639640  0.319705  1
  Re  Re9  1  0.000000  0.359794  0.681043  1
  Re  Re10  1  0.000000  0.139548  0.178934  1
  Re  Re11  1  0.000000  0.861424  0.820586  1
  B  B12  1  0.500000  0.553807  0.432319  1
  B  B13  1  0.500000  0.445884  0.568132  1
  B  B14  1  0.500000  0.054097  0.066616  1
  B  B15  1  0.500000  0.947343  0.932477  1
  B  B16  1  0.500000  0.750435  0.418129  1
  B  B17  1  0.500000  0.249515  0.582418  1
  B  B18  1  0.500000  0.250339  0.080453  1
  B  B19  1  0.500000  0.749967  0.917993  1
  B  B20  1  0.500000  0.792775  0.265453  1
  B  B21  1  0.500000  0.206696  0.735576  1
  B  B22  1  0.500000  0.292633  0.233931  1
  B  B23  1  0.500000  0.707548  0.765595  1
  B  B24  1  0.500000  0.630195  0.185031  1
  B  B25  1  0.500000  0.368844  0.815800  1
  B  B26  1  0.500000  0.130496  0.314333  1
  B  B27  1  0.500000  0.870147  0.685619  1
  B  B28  1  0.500000  0.982759  0.212110  1
  B  B29  1  0.500000  0.018712  0.788005  1
  B  B30  1  0.500000  0.482205  0.287226  1
  B  B31  1  0.500000  0.517230  0.713016  1
  B  B32  1  0.500000  0.597772  0.027112  1
  B  B33  1  0.500000  0.400530  0.972327  1
  B  B34  1  0.500000  0.097821  0.472897  1
  B  B35  1  0.500000  0.902379  0.527311  1
