# generated using pymatgen
data_MgSi3PIrRh5
_symmetry_space_group_name_H-M   'P 1'
_cell_length_a   6.99251400
_cell_length_b   7.09623317
_cell_length_c   3.67034800
_cell_angle_alpha   90.00000000
_cell_angle_beta   90.00000000
_cell_angle_gamma   119.51767012
_symmetry_Int_Tables_number   1
_chemical_formula_structural   MgSi3PIrRh5
_chemical_formula_sum   'Mg1 Si3 P1 Ir1 Rh5'
_cell_volume   158.48546399
_cell_formula_units_Z   1
loop_
 _symmetry_equiv_pos_site_id
 _symmetry_equiv_pos_as_xyz
  1  'x, y, z'
loop_
 _atom_site_type_symbol
 _atom_site_label
 _atom_site_symmetry_multiplicity
 _atom_site_fract_x
 _atom_site_fract_y
 _atom_site_fract_z
 _atom_site_occupancy
  Mg  Mg0  1  0.003024  0.006048  0.000000  1
  Si  Si1  1  0.802281  0.194764  0.500000  1
  Si  Si2  1  0.392482  0.194764  0.500000  1
  Si  Si3  1  0.333495  0.666990  0.000000  1
  P  P4  1  0.803805  0.607610  0.500000  1
  Ir  Ir5  1  0.533452  0.066905  0.000000  1
  Rh  Rh6  1  0.184951  0.805833  0.500000  1
  Rh  Rh7  1  0.193107  0.386216  0.500000  1
  Rh  Rh8  1  0.929855  0.465854  0.000000  1
  Rh  Rh9  1  0.535998  0.465854  0.000000  1
  Rh  Rh10  1  0.620880  0.805833  0.500000  1
