# generated using pymatgen
data_Tb5OsRu
_symmetry_space_group_name_H-M   'P 1'
_cell_length_a   6.41403062
_cell_length_b   7.32571514
_cell_length_c   8.51485409
_cell_angle_alpha   96.71315901
_cell_angle_beta   112.12557452
_cell_angle_gamma   89.99999644
_symmetry_Int_Tables_number   1
_chemical_formula_structural   Tb5OsRu
_chemical_formula_sum   'Tb10 Os2 Ru2'
_cell_volume   367.66526440
_cell_formula_units_Z   2
loop_
 _symmetry_equiv_pos_site_id
 _symmetry_equiv_pos_as_xyz
  1  'x, y, z'
loop_
 _atom_site_type_symbol
 _atom_site_label
 _atom_site_symmetry_multiplicity
 _atom_site_fract_x
 _atom_site_fract_y
 _atom_site_fract_z
 _atom_site_occupancy
  Tb  Tb0  1  0.979067  0.916079  0.184360  1
  Tb  Tb1  1  0.794708  0.583921  0.815640  1
  Tb  Tb2  1  0.020358  0.084902  0.813460  1
  Tb  Tb3  1  0.206897  0.415098  0.186540  1
  Tb  Tb4  1  0.640268  0.815476  0.434365  1
  Tb  Tb5  1  0.205903  0.684524  0.565635  1
  Tb  Tb6  1  0.359893  0.184485  0.565943  1
  Tb  Tb7  1  0.793950  0.315515  0.434057  1
  Tb  Tb8  1  0.423277  0.750000  0.000000  1
  Tb  Tb9  1  0.578012  0.250000  0.000000  1
  Os  Os10  1  0.823323  0.576014  0.219468  1
  Os  Os11  1  0.603855  0.923986  0.780532  1
  Ru  Ru12  1  0.174838  0.423446  0.779185  1
  Ru  Ru13  1  0.395653  0.076554  0.220815  1
