# generated using pymatgen
data_DyHo4(In2Ir)2
_symmetry_space_group_name_H-M   'P 1'
_cell_length_a   3.65082600
_cell_length_b   7.99753900
_cell_length_c   18.27219700
_cell_angle_alpha   90.00000000
_cell_angle_beta   90.00000000
_cell_angle_gamma   90.00000000
_symmetry_Int_Tables_number   1
_chemical_formula_structural   DyHo4(In2Ir)2
_chemical_formula_sum   'Dy2 Ho8 In8 Ir4'
_cell_volume   533.50472518
_cell_formula_units_Z   2
loop_
 _symmetry_equiv_pos_site_id
 _symmetry_equiv_pos_as_xyz
  1  'x, y, z'
loop_
 _atom_site_type_symbol
 _atom_site_label
 _atom_site_symmetry_multiplicity
 _atom_site_fract_x
 _atom_site_fract_y
 _atom_site_fract_z
 _atom_site_occupancy
  Dy  Dy0  1  0.500000  0.500000  0.000000  1
  Dy  Dy1  1  0.500000  0.000000  0.500000  1
  Ho  Ho2  1  0.500000  0.383391  0.589730  1
  Ho  Ho3  1  0.500000  0.883391  0.910270  1
  Ho  Ho4  1  0.500000  0.116609  0.089730  1
  Ho  Ho5  1  0.500000  0.754824  0.721835  1
  Ho  Ho6  1  0.500000  0.254824  0.778165  1
  Ho  Ho7  1  0.500000  0.745176  0.221835  1
  Ho  Ho8  1  0.500000  0.245176  0.278165  1
  Ho  Ho9  1  0.500000  0.616609  0.410270  1
  In  In10  1  0.000000  0.793643  0.067665  1
  In  In11  1  0.000000  0.929271  0.350610  1
  In  In12  1  0.000000  0.070729  0.649390  1
  In  In13  1  0.000000  0.570729  0.850610  1
  In  In14  1  0.000000  0.706357  0.567665  1
  In  In15  1  0.000000  0.206357  0.932335  1
  In  In16  1  0.000000  0.293643  0.432335  1
  In  In17  1  0.000000  0.429271  0.149390  1
  Ir  Ir18  1  0.000000  0.979589  0.804480  1
  Ir  Ir19  1  0.000000  0.520411  0.304480  1
  Ir  Ir20  1  0.000000  0.479589  0.695520  1
  Ir  Ir21  1  0.000000  0.020411  0.195520  1
