# generated using pymatgen
data_Sc3Pa(CdPt2)2
_symmetry_space_group_name_H-M   'P 1'
_cell_length_a   7.65512584
_cell_length_b   7.65512584
_cell_length_c   3.46872500
_cell_angle_alpha   90.00000000
_cell_angle_beta   90.00000000
_cell_angle_gamma   89.21234134
_symmetry_Int_Tables_number   1
_chemical_formula_structural   Sc3Pa(CdPt2)2
_chemical_formula_sum   'Sc3 Pa1 Cd2 Pt4'
_cell_volume   203.25137846
_cell_formula_units_Z   1
loop_
 _symmetry_equiv_pos_site_id
 _symmetry_equiv_pos_as_xyz
  1  'x, y, z'
loop_
 _atom_site_type_symbol
 _atom_site_label
 _atom_site_symmetry_multiplicity
 _atom_site_fract_x
 _atom_site_fract_y
 _atom_site_fract_z
 _atom_site_occupancy
  Sc  Sc0  1  0.832188  0.340833  0.500001  1
  Sc  Sc1  1  0.159166  0.667811  0.500001  1
  Sc  Sc2  1  0.671376  0.828623  0.500001  1
  Pa  Pa3  1  0.336981  0.163018  0.500001  1
  Cd  Cd4  1  0.990676  0.995632  0.000000  1
  Cd  Cd5  1  0.504368  0.509324  0.000000  1
  Pt  Pt6  1  0.632320  0.133637  0.000000  1
  Pt  Pt7  1  0.135124  0.364875  0.000000  1
  Pt  Pt8  1  0.871434  0.628566  0.000000  1
  Pt  Pt9  1  0.366362  0.867680  0.000000  1
