# generated using pymatgen
data_Pr2Eu6GePd24
_symmetry_space_group_name_H-M   'P 1'
_cell_length_a   8.52063911
_cell_length_b   8.52063911
_cell_length_c   8.52063911
_cell_angle_alpha   89.98685986
_cell_angle_beta   89.98685986
_cell_angle_gamma   89.98685986
_symmetry_Int_Tables_number   1
_chemical_formula_structural   Pr2Eu6GePd24
_chemical_formula_sum   'Pr2 Eu6 Ge1 Pd24'
_cell_volume   618.60934984
_cell_formula_units_Z   1
loop_
 _symmetry_equiv_pos_site_id
 _symmetry_equiv_pos_as_xyz
  1  'x, y, z'
loop_
 _atom_site_type_symbol
 _atom_site_label
 _atom_site_symmetry_multiplicity
 _atom_site_fract_x
 _atom_site_fract_y
 _atom_site_fract_z
 _atom_site_occupancy
  Pr  Pr0  1  0.253538  0.253538  0.253538  1
  Pr  Pr1  1  0.746462  0.746462  0.746462  1
  Eu  Eu2  1  0.749599  0.749599  0.251939  1
  Eu  Eu3  1  0.749599  0.251939  0.749599  1
  Eu  Eu4  1  0.250401  0.250401  0.748061  1
  Eu  Eu5  1  0.250401  0.748061  0.250401  1
  Eu  Eu6  1  0.251939  0.749599  0.749599  1
  Eu  Eu7  1  0.748061  0.250401  0.250401  1
  Ge  Ge8  1  0.000000  0.000000  0.000000  1
  Pd  Pd9  1  0.261333  0.500158  0.998307  1
  Pd  Pd10  1  0.738667  0.499842  0.001693  1
  Pd  Pd11  1  0.998307  0.261333  0.500158  1
  Pd  Pd12  1  0.500158  0.261333  0.998307  1
  Pd  Pd13  1  0.001693  0.738667  0.499842  1
  Pd  Pd14  1  0.499842  0.738667  0.001693  1
  Pd  Pd15  1  0.500158  0.998307  0.261333  1
  Pd  Pd16  1  0.261333  0.998307  0.500158  1
  Pd  Pd17  1  0.499842  0.001693  0.738667  1
  Pd  Pd18  1  0.738667  0.001693  0.499842  1
  Pd  Pd19  1  0.998307  0.500158  0.261333  1
  Pd  Pd20  1  0.001693  0.499842  0.738667  1
  Pd  Pd21  1  0.253396  0.501578  0.501578  1
  Pd  Pd22  1  0.746604  0.498422  0.498422  1
  Pd  Pd23  1  0.501578  0.253396  0.501578  1
  Pd  Pd24  1  0.498422  0.746604  0.498422  1
  Pd  Pd25  1  0.501578  0.501578  0.253396  1
  Pd  Pd26  1  0.498422  0.498422  0.746604  1
  Pd  Pd27  1  0.294075  0.999683  0.999683  1
  Pd  Pd28  1  0.705925  0.000317  0.000317  1
  Pd  Pd29  1  0.999683  0.294075  0.999683  1
  Pd  Pd30  1  0.000317  0.705925  0.000317  1
  Pd  Pd31  1  0.999683  0.999683  0.294075  1
  Pd  Pd32  1  0.000317  0.000317  0.705925  1
