# generated using pymatgen
data_Sm8Ga(Pd3Pt5)3
_symmetry_space_group_name_H-M   'P 1'
_cell_length_a   8.43860600
_cell_length_b   8.43868800
_cell_length_c   8.45228600
_cell_angle_alpha   90.00000000
_cell_angle_beta   90.00000000
_cell_angle_gamma   90.00000000
_symmetry_Int_Tables_number   1
_chemical_formula_structural   Sm8Ga(Pd3Pt5)3
_chemical_formula_sum   'Sm8 Ga1 Pd9 Pt15'
_cell_volume   601.89373675
_cell_formula_units_Z   1
loop_
 _symmetry_equiv_pos_site_id
 _symmetry_equiv_pos_as_xyz
  1  'x, y, z'
loop_
 _atom_site_type_symbol
 _atom_site_label
 _atom_site_symmetry_multiplicity
 _atom_site_fract_x
 _atom_site_fract_y
 _atom_site_fract_z
 _atom_site_occupancy
  Sm  Sm0  1  0.252254  0.252255  0.252075  1
  Sm  Sm1  1  0.747786  0.747806  0.747924  1
  Sm  Sm2  1  0.747786  0.747806  0.252076  1
  Sm  Sm3  1  0.747746  0.252255  0.747925  1
  Sm  Sm4  1  0.252254  0.252255  0.747925  1
  Sm  Sm5  1  0.252214  0.747806  0.252076  1
  Sm  Sm6  1  0.252214  0.747806  0.747924  1
  Sm  Sm7  1  0.747746  0.252255  0.252075  1
  Ga  Ga8  1  0.000000  0.000061  0.000000  1
  Pd  Pd9  1  0.500000  0.746858  0.500000  1
  Pd  Pd10  1  0.500000  0.499915  0.253058  1
  Pd  Pd11  1  0.500000  0.499915  0.746942  1
  Pd  Pd12  1  0.293701  0.999903  0.000000  1
  Pd  Pd13  1  0.706299  0.999903  0.000000  1
  Pd  Pd14  1  0.000000  0.293698  0.000000  1
  Pd  Pd15  1  0.000000  0.706450  0.000000  1
  Pd  Pd16  1  0.000000  0.999906  0.293445  1
  Pd  Pd17  1  0.000000  0.999906  0.706555  1
  Pt  Pt18  1  0.260720  0.500065  0.000000  1
  Pt  Pt19  1  0.739280  0.500065  0.000000  1
  Pt  Pt20  1  0.000000  0.260399  0.500000  1
  Pt  Pt21  1  0.500000  0.260677  0.000000  1
  Pt  Pt22  1  0.000000  0.739511  0.500000  1
  Pt  Pt23  1  0.500000  0.739367  0.000000  1
  Pt  Pt24  1  0.500000  0.000043  0.260438  1
  Pt  Pt25  1  0.260629  0.000140  0.500000  1
  Pt  Pt26  1  0.500000  0.000043  0.739562  1
  Pt  Pt27  1  0.739371  0.000140  0.500000  1
  Pt  Pt28  1  0.000000  0.500077  0.260315  1
  Pt  Pt29  1  0.000000  0.500077  0.739685  1
  Pt  Pt30  1  0.253070  0.499759  0.500000  1
  Pt  Pt31  1  0.746930  0.499759  0.500000  1
  Pt  Pt32  1  0.500000  0.253117  0.500000  1
