# generated using pymatgen
data_Eu4Mg4PdRh3
_symmetry_space_group_name_H-M   'P 1'
_cell_length_a   4.30309700
_cell_length_b   7.36280407
_cell_length_c   8.58760905
_cell_angle_alpha   90.08260998
_cell_angle_beta   90.00000000
_cell_angle_gamma   90.00000000
_symmetry_Int_Tables_number   1
_chemical_formula_structural   Eu4Mg4PdRh3
_chemical_formula_sum   'Eu4 Mg4 Pd1 Rh3'
_cell_volume   272.07973356
_cell_formula_units_Z   1
loop_
 _symmetry_equiv_pos_site_id
 _symmetry_equiv_pos_as_xyz
  1  'x, y, z'
loop_
 _atom_site_type_symbol
 _atom_site_label
 _atom_site_symmetry_multiplicity
 _atom_site_fract_x
 _atom_site_fract_y
 _atom_site_fract_z
 _atom_site_occupancy
  Eu  Eu0  1  0.250000  0.025271  0.328942  1
  Eu  Eu1  1  0.250000  0.538033  0.178995  1
  Eu  Eu2  1  0.750000  0.970015  0.675748  1
  Eu  Eu3  1  0.750000  0.474257  0.819953  1
  Mg  Mg4  1  0.250000  0.135334  0.936282  1
  Mg  Mg5  1  0.250000  0.637162  0.559522  1
  Mg  Mg6  1  0.750000  0.858615  0.058194  1
  Mg  Mg7  1  0.750000  0.363448  0.443850  1
  Pd  Pd8  1  0.750000  0.229907  0.124898  1
  Rh  Rh9  1  0.250000  0.267607  0.628091  1
  Rh  Rh10  1  0.250000  0.767817  0.873312  1
  Rh  Rh11  1  0.750000  0.732534  0.372214  1
