# generated using pymatgen
data_Y4MgU(P2Ru3)6
_symmetry_space_group_name_H-M   'P 1'
_cell_length_a   12.68946406
_cell_length_b   12.50063975
_cell_length_c   3.95741100
_cell_angle_alpha   90.00000000
_cell_angle_beta   90.00000000
_cell_angle_gamma   119.50896518
_symmetry_Int_Tables_number   1
_chemical_formula_structural   Y4MgU(P2Ru3)6
_chemical_formula_sum   'Y4 Mg1 U1 P12 Ru18'
_cell_volume   546.31735631
_cell_formula_units_Z   1
loop_
 _symmetry_equiv_pos_site_id
 _symmetry_equiv_pos_as_xyz
  1  'x, y, z'
loop_
 _atom_site_type_symbol
 _atom_site_label
 _atom_site_symmetry_multiplicity
 _atom_site_fract_x
 _atom_site_fract_y
 _atom_site_fract_z
 _atom_site_occupancy
  Y  Y0  1  0.810353  0.812636  0.500000  1
  Y  Y1  1  0.189647  0.002282  0.500000  1
  Y  Y2  1  0.664408  0.330222  0.000000  1
  Y  Y3  1  0.335592  0.665815  0.000000  1
  Mg  Mg4  1  0.000000  0.562215  0.000000  1
  U  U5  1  0.000000  0.173751  0.500000  1
  P  P6  1  0.000000  0.815286  0.000000  1
  P  P7  1  0.188203  0.181664  0.000000  1
  P  P8  1  0.811797  0.993461  0.000000  1
  P  P9  1  0.691426  0.171639  0.500000  1
  P  P10  1  0.819264  0.520045  0.500000  1
  P  P11  1  0.477858  0.309843  0.500000  1
  P  P12  1  0.180736  0.700781  0.500000  1
  P  P13  1  0.522142  0.831985  0.500000  1
  P  P14  1  0.308574  0.480212  0.500000  1
  P  P15  1  0.000000  0.359980  0.000000  1
  P  P16  1  0.623812  0.624832  0.000000  1
  P  P17  1  0.376188  0.001020  0.000000  1
  Ru  Ru18  1  0.440926  0.445266  0.000000  1
  Ru  Ru19  1  0.559074  0.004339  0.000000  1
  Ru  Ru20  1  0.000000  0.719584  0.500000  1
  Ru  Ru21  1  0.282253  0.284130  0.500000  1
  Ru  Ru22  1  0.717747  0.001877  0.500000  1
  Ru  Ru23  1  0.811937  0.181800  0.000000  1
  Ru  Ru24  1  0.813866  0.620798  0.000000  1
  Ru  Ru25  1  0.377581  0.192566  0.000000  1
  Ru  Ru26  1  0.186134  0.806932  0.000000  1
  Ru  Ru27  1  0.622419  0.814984  0.000000  1
  Ru  Ru28  1  0.188063  0.369863  0.000000  1
  Ru  Ru29  1  0.874112  0.363848  0.500000  1
  Ru  Ru30  1  0.631106  0.512024  0.500000  1
  Ru  Ru31  1  0.495057  0.131366  0.500000  1
  Ru  Ru32  1  0.368894  0.880919  0.500000  1
  Ru  Ru33  1  0.504943  0.636308  0.500000  1
  Ru  Ru34  1  0.125888  0.489736  0.500000  1
  Ru  Ru35  1  0.000000  0.005993  0.000000  1
