# generated using pymatgen
data_DyHoGaCoRu
_symmetry_space_group_name_H-M   'P 1'
_cell_length_a   4.09146791
_cell_length_b   5.43989470
_cell_length_c   5.44292849
_cell_angle_alpha   61.62555446
_cell_angle_beta   67.92304457
_cell_angle_gamma   67.91007001
_symmetry_Int_Tables_number   1
_chemical_formula_structural   DyHoGaCoRu
_chemical_formula_sum   'Dy1 Ho1 Ga1 Co1 Ru1'
_cell_volume   95.83484307
_cell_formula_units_Z   1
loop_
 _symmetry_equiv_pos_site_id
 _symmetry_equiv_pos_as_xyz
  1  'x, y, z'
loop_
 _atom_site_type_symbol
 _atom_site_label
 _atom_site_symmetry_multiplicity
 _atom_site_fract_x
 _atom_site_fract_y
 _atom_site_fract_z
 _atom_site_occupancy
  Dy  Dy0  1  0.208459  0.284877  0.298206  1
  Ho  Ho1  1  0.791563  0.701758  0.715114  1
  Ga  Ga2  1  0.000188  0.990175  0.009450  1
  Co  Co3  1  0.499954  0.727580  0.272513  1
  Ru  Ru4  1  0.499837  0.295610  0.704717  1
