# generated using pymatgen
data_MnNb12Al2Ga6Cu3C4
_symmetry_space_group_name_H-M   'P 1'
_cell_length_a   8.27375524
_cell_length_b   8.31742523
_cell_length_c   8.27375400
_cell_angle_alpha   60.17352807
_cell_angle_beta   59.99999695
_cell_angle_gamma   60.17352450
_symmetry_Int_Tables_number   1
_chemical_formula_structural   MnNb12Al2Ga6Cu3C4
_chemical_formula_sum   'Mn1 Nb12 Al2 Ga6 Cu3 C4'
_cell_volume   403.65774877
_cell_formula_units_Z   1
loop_
 _symmetry_equiv_pos_site_id
 _symmetry_equiv_pos_as_xyz
  1  'x, y, z'
loop_
 _atom_site_type_symbol
 _atom_site_label
 _atom_site_symmetry_multiplicity
 _atom_site_fract_x
 _atom_site_fract_y
 _atom_site_fract_z
 _atom_site_occupancy
  Mn  Mn0  1  0.125005  0.625000  0.125000  1
  Nb  Nb1  1  0.566103  0.933023  0.566032  1
  Nb  Nb2  1  0.310476  0.682826  0.696262  1
  Nb  Nb3  1  0.683935  0.316777  0.314918  1
  Nb  Nb4  1  0.310828  0.682340  0.310439  1
  Nb  Nb5  1  0.695906  0.682696  0.310552  1
  Nb  Nb6  1  0.315159  0.316977  0.683968  1
  Nb  Nb7  1  0.553606  0.567660  0.939561  1
  Nb  Nb8  1  0.939564  0.567174  0.553738  1
  Nb  Nb9  1  0.565629  0.933223  0.935082  1
  Nb  Nb10  1  0.934915  0.933145  0.565806  1
  Nb  Nb11  1  0.683866  0.316855  0.684194  1
  Nb  Nb12  1  0.939153  0.567304  0.939448  1
  Al  Al13  1  0.246785  0.918336  0.917521  1
  Al  Al14  1  0.332642  0.331664  0.332479  1
  Ga  Ga15  1  0.916437  0.917197  0.915707  1
  Ga  Ga16  1  0.999340  0.332803  0.334293  1
  Ga  Ga17  1  0.337971  0.986973  0.337801  1
  Ga  Ga18  1  0.334215  0.333448  0.999444  1
  Ga  Ga19  1  0.912746  0.263027  0.912199  1
  Ga  Ga20  1  0.917107  0.916552  0.250556  1
  Cu  Cu21  1  0.126279  0.124653  0.123696  1
  Cu  Cu22  1  0.624628  0.125347  0.126304  1
  Cu  Cu23  1  0.127219  0.125000  0.625000  1
  C  C24  1  0.624998  0.624814  0.624599  1
  C  C25  1  0.124411  0.625186  0.625401  1
  C  C26  1  0.625656  0.125000  0.625000  1
  C  C27  1  0.625419  0.625000  0.125000  1
