# generated using pymatgen
data_La3SmY2(AlC3)2
_symmetry_space_group_name_H-M   'P 1'
_cell_length_a   3.72360500
_cell_length_b   7.47247169
_cell_length_c   10.15994758
_cell_angle_alpha   88.50761382
_cell_angle_beta   90.00000000
_cell_angle_gamma   90.00000000
_symmetry_Int_Tables_number   1
_chemical_formula_structural   La3SmY2(AlC3)2
_chemical_formula_sum   'La3 Sm1 Y2 Al2 C6'
_cell_volume   282.59990442
_cell_formula_units_Z   1
loop_
 _symmetry_equiv_pos_site_id
 _symmetry_equiv_pos_as_xyz
  1  'x, y, z'
loop_
 _atom_site_type_symbol
 _atom_site_label
 _atom_site_symmetry_multiplicity
 _atom_site_fract_x
 _atom_site_fract_y
 _atom_site_fract_z
 _atom_site_occupancy
  La  La0  1  0.500000  0.514960  0.188044  1
  La  La1  1  0.500000  0.482317  0.811405  1
  La  La2  1  0.000000  0.752357  0.465697  1
  Sm  Sm3  1  0.000000  0.248628  0.541483  1
  Y  Y4  1  0.500000  0.988609  0.201598  1
  Y  Y5  1  0.500000  0.012836  0.796758  1
  Al  Al6  1  0.000000  0.791696  0.007994  1
  Al  Al7  1  0.000000  0.208106  0.990484  1
  C  C8  1  0.500000  0.496364  0.564518  1
  C  C9  1  0.500000  0.484919  0.435072  1
  C  C10  1  0.500000  0.001970  0.563783  1
  C  C11  1  0.500000  0.017439  0.434080  1
  C  C12  1  0.000000  0.763944  0.207011  1
  C  C13  1  0.000000  0.235857  0.792073  1
