# generated using pymatgen
data_Tb5Er11Cd4Ru3Pt
_symmetry_space_group_name_H-M   'P 1'
_cell_length_a   9.61552829
_cell_length_b   9.63445497
_cell_length_c   9.63445554
_cell_angle_alpha   59.57663819
_cell_angle_beta   59.48327716
_cell_angle_gamma   59.48327092
_symmetry_Int_Tables_number   1
_chemical_formula_structural   Tb5Er11Cd4Ru3Pt
_chemical_formula_sum   'Tb5 Er11 Cd4 Ru3 Pt1'
_cell_volume   624.15020094
_cell_formula_units_Z   1
loop_
 _symmetry_equiv_pos_site_id
 _symmetry_equiv_pos_as_xyz
  1  'x, y, z'
loop_
 _atom_site_type_symbol
 _atom_site_label
 _atom_site_symmetry_multiplicity
 _atom_site_fract_x
 _atom_site_fract_y
 _atom_site_fract_z
 _atom_site_occupancy
  Tb  Tb0  1  0.557326  0.939016  0.939016  1
  Tb  Tb1  1  0.557975  0.938261  0.564650  1
  Tb  Tb2  1  0.938408  0.560419  0.939248  1
  Tb  Tb3  1  0.557975  0.564650  0.938261  1
  Tb  Tb4  1  0.938408  0.939248  0.560419  1
  Er  Er5  1  0.344907  0.350450  0.350450  1
  Er  Er6  1  0.345618  0.350953  0.955585  1
  Er  Er7  1  0.345618  0.955585  0.350953  1
  Er  Er8  1  0.962118  0.346445  0.346445  1
  Er  Er9  1  0.815156  0.188334  0.188334  1
  Er  Er10  1  0.185734  0.812028  0.812028  1
  Er  Er11  1  0.187307  0.811118  0.188246  1
  Er  Er12  1  0.815257  0.189037  0.806044  1
  Er  Er13  1  0.187307  0.188246  0.811118  1
  Er  Er14  1  0.815257  0.806044  0.189037  1
  Er  Er15  1  0.938268  0.560566  0.560566  1
  Cd  Cd16  1  0.580728  0.579699  0.579699  1
  Cd  Cd17  1  0.580675  0.579900  0.259166  1
  Cd  Cd18  1  0.580675  0.259166  0.579900  1
  Cd  Cd19  1  0.256994  0.580729  0.580729  1
  Ru  Ru20  1  0.144044  0.138798  0.138798  1
  Ru  Ru21  1  0.144538  0.141028  0.577811  1
  Ru  Ru22  1  0.144538  0.577811  0.141028  1
  Pt  Pt23  1  0.575166  0.142469  0.142469  1
