# generated using pymatgen
data_Ce2(SnHg)3
_symmetry_space_group_name_H-M   'P 1'
_cell_length_a   4.71646800
_cell_length_b   4.82224200
_cell_length_c   9.21000900
_cell_angle_alpha   90.00000000
_cell_angle_beta   90.00000000
_cell_angle_gamma   90.00000000
_symmetry_Int_Tables_number   1
_chemical_formula_structural   Ce2(SnHg)3
_chemical_formula_sum   'Ce2 Sn3 Hg3'
_cell_volume   209.47198494
_cell_formula_units_Z   1
loop_
 _symmetry_equiv_pos_site_id
 _symmetry_equiv_pos_as_xyz
  1  'x, y, z'
loop_
 _atom_site_type_symbol
 _atom_site_label
 _atom_site_symmetry_multiplicity
 _atom_site_fract_x
 _atom_site_fract_y
 _atom_site_fract_z
 _atom_site_occupancy
  Ce  Ce0  1  0.000000  0.000000  0.245775  1
  Ce  Ce1  1  0.000000  0.000000  0.754225  1
  Sn  Sn2  1  0.000000  0.500000  0.000000  1
  Sn  Sn3  1  0.500000  0.000000  0.500000  1
  Sn  Sn4  1  0.500000  0.000000  0.000000  1
  Hg  Hg5  1  0.500000  0.500000  0.251460  1
  Hg  Hg6  1  0.500000  0.500000  0.748540  1
  Hg  Hg7  1  0.000000  0.500000  0.500000  1
