# generated using pymatgen
data_TbHo13Lu2(In3Co)2
_symmetry_space_group_name_H-M   'P 1'
_cell_length_a   10.29926601
_cell_length_b   10.30971880
_cell_length_c   6.95632014
_cell_angle_alpha   90.02068629
_cell_angle_beta   89.99718370
_cell_angle_gamma   119.97050727
_symmetry_Int_Tables_number   1
_chemical_formula_structural   TbHo13Lu2(In3Co)2
_chemical_formula_sum   'Tb1 Ho13 Lu2 In6 Co2'
_cell_volume   639.87073060
_cell_formula_units_Z   1
loop_
 _symmetry_equiv_pos_site_id
 _symmetry_equiv_pos_as_xyz
  1  'x, y, z'
loop_
 _atom_site_type_symbol
 _atom_site_label
 _atom_site_symmetry_multiplicity
 _atom_site_fract_x
 _atom_site_fract_y
 _atom_site_fract_z
 _atom_site_occupancy
  Tb  Tb0  1  0.535324  0.070670  0.504020  1
  Ho  Ho1  1  0.464384  0.928659  0.004014  1
  Ho  Ho2  1  0.069991  0.534951  0.005296  1
  Ho  Ho3  1  0.464962  0.534927  0.005286  1
  Ho  Ho4  1  0.178456  0.356845  0.710968  1
  Ho  Ho5  1  0.643632  0.820497  0.711587  1
  Ho  Ho6  1  0.176818  0.820458  0.711520  1
  Ho  Ho7  1  0.821669  0.643292  0.214521  1
  Ho  Ho8  1  0.356875  0.179250  0.212530  1
  Ho  Ho9  1  0.822408  0.179242  0.212453  1
  Ho  Ho10  1  0.667378  0.334718  0.894624  1
  Ho  Ho11  1  0.332674  0.665299  0.395137  1
  Ho  Ho12  1  0.999961  0.999869  0.492894  1
  Ho  Ho13  1  0.000069  0.000178  0.992578  1
  Lu  Lu14  1  0.927802  0.463933  0.505761  1
  Lu  Lu15  1  0.536087  0.463901  0.505744  1
  In  In16  1  0.836443  0.673365  0.752794  1
  In  In17  1  0.325758  0.162783  0.752984  1
  In  In18  1  0.836978  0.162656  0.752057  1
  In  In19  1  0.162636  0.325622  0.252554  1
  In  In20  1  0.675226  0.837848  0.253131  1
  In  In21  1  0.163302  0.838694  0.252539  1
  Co  Co22  1  0.668011  0.336022  0.281943  1
  Co  Co23  1  0.333157  0.666323  0.781109  1
