# generated using pymatgen
data_Ho4Ir4Os3Ru
_symmetry_space_group_name_H-M   'P 1'
_cell_length_a   5.30025898
_cell_length_b   5.30025833
_cell_length_c   8.84681800
_cell_angle_alpha   90.00000000
_cell_angle_beta   90.00000000
_cell_angle_gamma   119.78904451
_symmetry_Int_Tables_number   1
_chemical_formula_structural   Ho4Ir4Os3Ru
_chemical_formula_sum   'Ho4 Ir4 Os3 Ru1'
_cell_volume   215.69055330
_cell_formula_units_Z   1
loop_
 _symmetry_equiv_pos_site_id
 _symmetry_equiv_pos_as_xyz
  1  'x, y, z'
loop_
 _atom_site_type_symbol
 _atom_site_label
 _atom_site_symmetry_multiplicity
 _atom_site_fract_x
 _atom_site_fract_y
 _atom_site_fract_z
 _atom_site_occupancy
  Ho  Ho0  1  0.333348  0.666652  0.430567  1
  Ho  Ho1  1  0.666412  0.333588  0.565764  1
  Ho  Ho2  1  0.666412  0.333588  0.934236  1
  Ho  Ho3  1  0.333348  0.666652  0.069433  1
  Ir  Ir4  1  0.999088  0.000912  0.498722  1
  Ir  Ir5  1  0.999088  0.000912  0.001278  1
  Ir  Ir6  1  0.831826  0.660423  0.250000  1
  Ir  Ir7  1  0.339577  0.168174  0.250000  1
  Os  Os8  1  0.171568  0.828432  0.750000  1
  Os  Os9  1  0.171659  0.342648  0.750000  1
  Os  Os10  1  0.657352  0.828341  0.750000  1
  Ru  Ru11  1  0.830319  0.169681  0.250000  1
