# generated using pymatgen
data_Ba2B2Rh5
_symmetry_space_group_name_H-M   'P 1'
_cell_length_a   5.75145719
_cell_length_b   5.75145926
_cell_length_c   21.46754500
_cell_angle_alpha   90.00000000
_cell_angle_beta   90.00000000
_cell_angle_gamma   119.97552860
_symmetry_Int_Tables_number   1
_chemical_formula_structural   Ba2B2Rh5
_chemical_formula_sum   'Ba8 B8 Rh20'
_cell_volume   615.14286781
_cell_formula_units_Z   4
loop_
 _symmetry_equiv_pos_site_id
 _symmetry_equiv_pos_as_xyz
  1  'x, y, z'
loop_
 _atom_site_type_symbol
 _atom_site_label
 _atom_site_symmetry_multiplicity
 _atom_site_fract_x
 _atom_site_fract_y
 _atom_site_fract_z
 _atom_site_occupancy
  Ba  Ba0  1  0.666677  0.333323  0.522749  1
  Ba  Ba1  1  0.333323  0.666677  0.477251  1
  Ba  Ba2  1  0.333323  0.666677  0.022749  1
  Ba  Ba3  1  0.666677  0.333323  0.977251  1
  Ba  Ba4  1  0.666750  0.333250  0.675937  1
  Ba  Ba5  1  0.333250  0.666750  0.324063  1
  Ba  Ba6  1  0.333250  0.666750  0.175937  1
  Ba  Ba7  1  0.666750  0.333250  0.824063  1
  B  B8  1  0.000059  0.999941  0.680272  1
  B  B9  1  0.999941  0.000059  0.319728  1
  B  B10  1  0.999941  0.000059  0.180272  1
  B  B11  1  0.000059  0.999941  0.819728  1
  B  B12  1  0.666582  0.333418  0.326322  1
  B  B13  1  0.333418  0.666582  0.673678  1
  B  B14  1  0.333418  0.666582  0.826322  1
  B  B15  1  0.666582  0.333418  0.173678  1
  Rh  Rh16  1  0.000000  0.000000  0.500000  1
  Rh  Rh17  1  0.000000  0.000000  0.000000  1
  Rh  Rh18  1  0.168612  0.337010  0.750000  1
  Rh  Rh19  1  0.168600  0.831400  0.750000  1
  Rh  Rh20  1  0.662990  0.831388  0.750000  1
  Rh  Rh21  1  0.831388  0.662990  0.250000  1
  Rh  Rh22  1  0.831400  0.168600  0.250000  1
  Rh  Rh23  1  0.337010  0.168612  0.250000  1
  Rh  Rh24  1  0.160844  0.321512  0.614523  1
  Rh  Rh25  1  0.160868  0.839132  0.614508  1
  Rh  Rh26  1  0.678488  0.839156  0.614523  1
  Rh  Rh27  1  0.839156  0.678488  0.385477  1
  Rh  Rh28  1  0.839132  0.160868  0.385492  1
  Rh  Rh29  1  0.321512  0.160844  0.385477  1
  Rh  Rh30  1  0.839156  0.678488  0.114523  1
  Rh  Rh31  1  0.839132  0.160868  0.114508  1
  Rh  Rh32  1  0.321512  0.160844  0.114523  1
  Rh  Rh33  1  0.160844  0.321512  0.885477  1
  Rh  Rh34  1  0.160868  0.839132  0.885492  1
  Rh  Rh35  1  0.678488  0.839156  0.885477  1
