# generated using pymatgen
data_CeY3Si3Rh4
_symmetry_space_group_name_H-M   'P 1'
_cell_length_a   10.71133203
_cell_length_b   10.71133118
_cell_length_c   7.80373328
_cell_angle_alpha   71.43890787
_cell_angle_beta   71.43890819
_cell_angle_gamma   29.76793619
_symmetry_Int_Tables_number   1
_chemical_formula_structural   CeY3Si3Rh4
_chemical_formula_sum   'Ce2 Y6 Si6 Rh8'
_cell_volume   419.72352873
_cell_formula_units_Z   2
loop_
 _symmetry_equiv_pos_site_id
 _symmetry_equiv_pos_as_xyz
  1  'x, y, z'
loop_
 _atom_site_type_symbol
 _atom_site_label
 _atom_site_symmetry_multiplicity
 _atom_site_fract_x
 _atom_site_fract_y
 _atom_site_fract_z
 _atom_site_occupancy
  Ce  Ce0  1  0.206391  0.922282  0.830870  1
  Ce  Ce1  1  0.077718  0.793609  0.669130  1
  Y  Y2  1  0.793644  0.546616  0.599289  1
  Y  Y3  1  0.453384  0.206356  0.900711  1
  Y  Y4  1  0.207950  0.452047  0.400159  1
  Y  Y5  1  0.547953  0.792050  0.099841  1
  Y  Y6  1  0.788902  0.073996  0.172938  1
  Y  Y7  1  0.926004  0.211098  0.327062  1
  Si  Si8  1  0.952238  0.703961  0.058465  1
  Si  Si9  1  0.296039  0.047762  0.441535  1
  Si  Si10  1  0.045839  0.300604  0.942434  1
  Si  Si11  1  0.699396  0.954161  0.557566  1
  Si  Si12  1  0.647678  0.352322  0.750000  1
  Si  Si13  1  0.364076  0.635924  0.250000  1
  Rh  Rh14  1  0.570434  0.300484  0.520596  1
  Rh  Rh15  1  0.699516  0.429566  0.979404  1
  Rh  Rh16  1  0.423186  0.700223  0.484371  1
  Rh  Rh17  1  0.299777  0.576814  0.015629  1
  Rh  Rh18  1  0.632545  0.924383  0.312366  1
  Rh  Rh19  1  0.075617  0.367455  0.187634  1
  Rh  Rh20  1  0.364970  0.073257  0.689787  1
  Rh  Rh21  1  0.926743  0.635030  0.810213  1
