# generated using pymatgen
data_Tb3(NdSb4)5
_symmetry_space_group_name_H-M   'P 1'
_cell_length_a   4.25701000
_cell_length_b   13.45051296
_cell_length_c   15.09660189
_cell_angle_alpha   78.15353215
_cell_angle_beta   90.00000000
_cell_angle_gamma   90.00000000
_symmetry_Int_Tables_number   1
_chemical_formula_structural   Tb3(NdSb4)5
_chemical_formula_sum   'Tb3 Nd5 Sb20'
_cell_volume   846.00484167
_cell_formula_units_Z   1
loop_
 _symmetry_equiv_pos_site_id
 _symmetry_equiv_pos_as_xyz
  1  'x, y, z'
loop_
 _atom_site_type_symbol
 _atom_site_label
 _atom_site_symmetry_multiplicity
 _atom_site_fract_x
 _atom_site_fract_y
 _atom_site_fract_z
 _atom_site_occupancy
  Tb  Tb0  1  0.750000  0.332175  0.423735  1
  Tb  Tb1  1  0.250000  0.395904  0.771383  1
  Tb  Tb2  1  0.750000  0.602303  0.228095  1
  Nd  Nd3  1  0.750000  0.335212  0.143738  1
  Nd  Nd4  1  0.250000  0.951167  0.361496  1
  Nd  Nd5  1  0.250000  0.664743  0.856858  1
  Nd  Nd6  1  0.250000  0.667493  0.575821  1
  Nd  Nd7  1  0.750000  0.050182  0.638471  1
  Sb  Sb8  1  0.750000  0.851586  0.820581  1
  Sb  Sb9  1  0.250000  0.861884  0.674821  1
  Sb  Sb10  1  0.250000  0.147909  0.478244  1
  Sb  Sb11  1  0.750000  0.283988  0.934779  1
  Sb  Sb12  1  0.250000  0.146519  0.779905  1
  Sb  Sb13  1  0.750000  0.572330  0.442047  1
  Sb  Sb14  1  0.750000  0.140269  0.326660  1
  Sb  Sb15  1  0.250000  0.705964  0.350093  1
  Sb  Sb16  1  0.750000  0.293003  0.647440  1
  Sb  Sb17  1  0.750000  0.853596  0.219681  1
  Sb  Sb18  1  0.250000  0.419962  0.973083  1
  Sb  Sb19  1  0.250000  0.425288  0.555552  1
  Sb  Sb20  1  0.750000  0.572890  0.735809  1
  Sb  Sb21  1  0.250000  0.423978  0.267776  1
  Sb  Sb22  1  0.750000  0.856762  0.521418  1
  Sb  Sb23  1  0.750000  0.031734  0.892227  1
  Sb  Sb24  1  0.250000  0.715381  0.065461  1
  Sb  Sb25  1  0.250000  0.969317  0.107827  1
  Sb  Sb26  1  0.250000  0.148936  0.180392  1
  Sb  Sb27  1  0.750000  0.579522  0.026609  1
