# generated using pymatgen
data_Tb3Nd(WO6)2
_symmetry_space_group_name_H-M   'P 1'
_cell_length_a   5.46536800
_cell_length_b   7.79549096
_cell_length_c   11.59846050
_cell_angle_alpha   75.67516923
_cell_angle_beta   90.00000000
_cell_angle_gamma   90.00000000
_symmetry_Int_Tables_number   1
_chemical_formula_structural   Tb3Nd(WO6)2
_chemical_formula_sum   'Tb6 Nd2 W4 O24'
_cell_volume   478.79106680
_cell_formula_units_Z   2
loop_
 _symmetry_equiv_pos_site_id
 _symmetry_equiv_pos_as_xyz
  1  'x, y, z'
loop_
 _atom_site_type_symbol
 _atom_site_label
 _atom_site_symmetry_multiplicity
 _atom_site_fract_x
 _atom_site_fract_y
 _atom_site_fract_z
 _atom_site_occupancy
  Tb  Tb0  1  0.740103  0.000000  0.750000  1
  Tb  Tb1  1  0.259897  0.000000  0.250000  1
  Tb  Tb2  1  0.187097  0.796903  0.576613  1
  Tb  Tb3  1  0.812903  0.796903  0.076613  1
  Tb  Tb4  1  0.187097  0.203097  0.923387  1
  Tb  Tb5  1  0.812903  0.203097  0.423387  1
  Nd  Nd6  1  0.684499  0.500000  0.750000  1
  Nd  Nd7  1  0.315501  0.500000  0.250000  1
  W  W8  1  0.252779  0.727437  0.884254  1
  W  W9  1  0.747221  0.727437  0.384254  1
  W  W10  1  0.252779  0.272563  0.615746  1
  W  W11  1  0.747221  0.272563  0.115746  1
  O  O12  1  0.042224  0.940436  0.895657  1
  O  O13  1  0.529686  0.847468  0.930232  1
  O  O14  1  0.957776  0.940436  0.395657  1
  O  O15  1  0.454683  0.792916  0.728325  1
  O  O16  1  0.470314  0.847468  0.430232  1
  O  O17  1  0.984775  0.717348  0.771009  1
  O  O18  1  0.545317  0.792916  0.228325  1
  O  O19  1  0.851976  0.641246  0.545239  1
  O  O20  1  0.350183  0.494284  0.886830  1
  O  O21  1  0.015225  0.717348  0.271009  1
  O  O22  1  0.350183  0.505716  0.613170  1
  O  O23  1  0.851976  0.358754  0.954761  1
  O  O24  1  0.148024  0.641246  0.045239  1
  O  O25  1  0.649817  0.494284  0.386830  1
  O  O26  1  0.984775  0.282652  0.728991  1
  O  O27  1  0.649817  0.505716  0.113170  1
  O  O28  1  0.148024  0.358754  0.454761  1
  O  O29  1  0.454683  0.207084  0.771675  1
  O  O30  1  0.015225  0.282652  0.228991  1
  O  O31  1  0.529686  0.152532  0.569768  1
  O  O32  1  0.545317  0.207084  0.271675  1
  O  O33  1  0.042224  0.059564  0.604343  1
  O  O34  1  0.470314  0.152532  0.069768  1
  O  O35  1  0.957776  0.059564  0.104343  1
