# generated using pymatgen
data_Rb4Na2CaSnBi4
_symmetry_space_group_name_H-M   'P 1'
_cell_length_a   10.23707465
_cell_length_b   10.23707288
_cell_length_c   10.23707409
_cell_angle_alpha   136.36829284
_cell_angle_beta   63.07031074
_cell_angle_gamma   136.81154655
_symmetry_Int_Tables_number   1
_chemical_formula_structural   Rb4Na2CaSnBi4
_chemical_formula_sum   'Rb4 Na2 Ca1 Sn1 Bi4'
_cell_volume   500.24036310
_cell_formula_units_Z   1
loop_
 _symmetry_equiv_pos_site_id
 _symmetry_equiv_pos_as_xyz
  1  'x, y, z'
loop_
 _atom_site_type_symbol
 _atom_site_label
 _atom_site_symmetry_multiplicity
 _atom_site_fract_x
 _atom_site_fract_y
 _atom_site_fract_z
 _atom_site_occupancy
  Rb  Rb0  1  0.324025  0.734507  0.064266  1
  Rb  Rb1  1  0.175975  0.240241  0.410481  1
  Rb  Rb2  1  0.829759  0.765494  0.589518  1
  Rb  Rb3  1  0.670242  0.259759  0.935735  1
  Na  Na4  1  0.250000  0.250000  0.000000  1
  Na  Na5  1  0.750000  0.750000  0.000000  1
  Ca  Ca6  1  0.749999  0.250000  0.500000  1
  Sn  Sn7  1  0.250000  0.750000  0.500000  1
  Bi  Bi8  1  0.915068  0.291675  0.171348  1
  Bi  Bi9  1  0.584933  0.756282  0.376607  1
  Bi  Bi10  1  0.379674  0.208326  0.623393  1
  Bi  Bi11  1  0.120325  0.743719  0.828652  1
