# generated using pymatgen
data_Zr4B4MoRu10W
_symmetry_space_group_name_H-M   'P 1'
_cell_length_a   9.49339500
_cell_length_b   9.49339500
_cell_length_c   3.08705300
_cell_angle_alpha   90.00000000
_cell_angle_beta   90.00000000
_cell_angle_gamma   90.00000000
_symmetry_Int_Tables_number   1
_chemical_formula_structural   Zr4B4MoRu10W
_chemical_formula_sum   'Zr4 B4 Mo1 Ru10 W1'
_cell_volume   278.21925821
_cell_formula_units_Z   1
loop_
 _symmetry_equiv_pos_site_id
 _symmetry_equiv_pos_as_xyz
  1  'x, y, z'
loop_
 _atom_site_type_symbol
 _atom_site_label
 _atom_site_symmetry_multiplicity
 _atom_site_fract_x
 _atom_site_fract_y
 _atom_site_fract_z
 _atom_site_occupancy
  Zr  Zr0  1  0.676329  0.176845  0.000000  1
  Zr  Zr1  1  0.323671  0.823155  0.000000  1
  Zr  Zr2  1  0.176845  0.323671  0.000000  1
  Zr  Zr3  1  0.823155  0.676329  0.000000  1
  B  B4  1  0.121308  0.620598  0.000000  1
  B  B5  1  0.878692  0.379402  0.000000  1
  B  B6  1  0.620598  0.878692  0.000000  1
  B  B7  1  0.379402  0.121308  0.000000  1
  Mo  Mo8  1  0.500000  0.500000  0.000000  1
  Ru  Ru9  1  0.216357  0.070564  0.500000  1
  Ru  Ru10  1  0.783643  0.929436  0.500000  1
  Ru  Ru11  1  0.070564  0.783643  0.500000  1
  Ru  Ru12  1  0.716546  0.428675  0.500000  1
  Ru  Ru13  1  0.929436  0.216357  0.500000  1
  Ru  Ru14  1  0.283454  0.571325  0.500000  1
  Ru  Ru15  1  0.571325  0.716546  0.500000  1
  Ru  Ru16  1  0.428675  0.283454  0.500000  1
  Ru  Ru17  1  0.500000  0.000000  0.500000  1
  Ru  Ru18  1  0.000000  0.500000  0.500000  1
  W  W19  1  0.000000  0.000000  0.000000  1
