# generated using pymatgen
data_SrLa3Pr3CoI12
_symmetry_space_group_name_H-M   'P 1'
_cell_length_a   10.17355231
_cell_length_b   10.17606196
_cell_length_c   10.01172912
_cell_angle_alpha   106.63831050
_cell_angle_beta   105.92459090
_cell_angle_gamma   106.36880664
_symmetry_Int_Tables_number   1
_chemical_formula_structural   SrLa3Pr3CoI12
_chemical_formula_sum   'Sr1 La3 Pr3 Co1 I12'
_cell_volume   878.89324097
_cell_formula_units_Z   1
loop_
 _symmetry_equiv_pos_site_id
 _symmetry_equiv_pos_as_xyz
  1  'x, y, z'
loop_
 _atom_site_type_symbol
 _atom_site_label
 _atom_site_symmetry_multiplicity
 _atom_site_fract_x
 _atom_site_fract_y
 _atom_site_fract_z
 _atom_site_occupancy
  Sr  Sr0  1  0.500508  0.499997  0.500738  1
  La  La1  1  0.980249  0.907712  0.716430  1
  La  La2  1  0.019442  0.091048  0.283154  1
  La  La3  1  0.098163  0.305183  0.020361  1
  Pr  Pr4  1  0.301225  0.020767  0.097228  1
  Pr  Pr5  1  0.902261  0.698924  0.979225  1
  Pr  Pr6  1  0.698607  0.978889  0.902727  1
  Co  Co7  1  0.000092  0.000272  0.999675  1
  I  I8  1  0.549540  0.630622  0.858193  1
  I  I9  1  0.452911  0.369090  0.143314  1
  I  I10  1  0.322420  0.926532  0.774236  1
  I  I11  1  0.372421  0.146450  0.453946  1
  I  I12  1  0.926751  0.774668  0.322551  1
  I  I13  1  0.677482  0.073115  0.225783  1
  I  I14  1  0.072434  0.223319  0.674116  1
  I  I15  1  0.773792  0.320572  0.926354  1
  I  I16  1  0.223600  0.679600  0.073027  1
  I  I17  1  0.853140  0.545747  0.627344  1
  I  I18  1  0.147369  0.454344  0.375599  1
  I  I19  1  0.627592  0.853149  0.546000  1
