# generated using pymatgen
data_Dy2Er4ScCo17P12
_symmetry_space_group_name_H-M   'P 1'
_cell_length_a   3.69172700
_cell_length_b   10.54257800
_cell_length_c   12.23151400
_cell_angle_alpha   90.00000000
_cell_angle_beta   90.00000000
_cell_angle_gamma   90.00000000
_symmetry_Int_Tables_number   1
_chemical_formula_structural   Dy2Er4ScCo17P12
_chemical_formula_sum   'Dy2 Er4 Sc1 Co17 P12'
_cell_volume   476.05443716
_cell_formula_units_Z   1
loop_
 _symmetry_equiv_pos_site_id
 _symmetry_equiv_pos_as_xyz
  1  'x, y, z'
loop_
 _atom_site_type_symbol
 _atom_site_label
 _atom_site_symmetry_multiplicity
 _atom_site_fract_x
 _atom_site_fract_y
 _atom_site_fract_z
 _atom_site_occupancy
  Dy  Dy0  1  0.750000  0.250000  0.471937  1
  Dy  Dy1  1  0.250000  0.750000  0.522895  1
  Er  Er2  1  0.250000  0.927888  0.792457  1
  Er  Er3  1  0.250000  0.572112  0.792457  1
  Er  Er4  1  0.750000  0.067948  0.204257  1
  Er  Er5  1  0.750000  0.432052  0.204257  1
  Sc  Sc6  1  0.250000  0.250000  0.847313  1
  Co  Co7  1  0.750000  0.750000  0.162789  1
  Co  Co8  1  0.250000  0.250000  0.295598  1
  Co  Co9  1  0.750000  0.750000  0.704643  1
  Co  Co10  1  0.750000  0.250000  0.015227  1
  Co  Co11  1  0.250000  0.750000  0.986964  1
  Co  Co12  1  0.250000  0.423515  0.010057  1
  Co  Co13  1  0.250000  0.076485  0.010057  1
  Co  Co14  1  0.750000  0.587705  0.998464  1
  Co  Co15  1  0.750000  0.912295  0.998464  1
  Co  Co16  1  0.250000  0.455016  0.566029  1
  Co  Co17  1  0.250000  0.044984  0.566029  1
  Co  Co18  1  0.750000  0.547770  0.429301  1
  Co  Co19  1  0.750000  0.952230  0.429301  1
  Co  Co20  1  0.250000  0.869998  0.292177  1
  Co  Co21  1  0.250000  0.630002  0.292177  1
  Co  Co22  1  0.750000  0.126928  0.704573  1
  Co  Co23  1  0.750000  0.373072  0.704573  1
  P  P24  1  0.250000  0.250000  0.116777  1
  P  P25  1  0.750000  0.750000  0.883711  1
  P  P26  1  0.250000  0.250000  0.641910  1
  P  P27  1  0.750000  0.750000  0.345525  1
  P  P28  1  0.250000  0.440464  0.381541  1
  P  P29  1  0.250000  0.059536  0.381541  1
  P  P30  1  0.750000  0.561130  0.614409  1
  P  P31  1  0.750000  0.938870  0.614409  1
  P  P32  1  0.250000  0.898796  0.111611  1
  P  P33  1  0.250000  0.601204  0.111611  1
  P  P34  1  0.750000  0.085993  0.897480  1
  P  P35  1  0.750000  0.414007  0.897480  1
