# generated using pymatgen
data_Yb(Ni2B)6
_symmetry_space_group_name_H-M   'P 1'
_cell_length_a   6.00446061
_cell_length_b   6.00446045
_cell_length_c   6.00446009
_cell_angle_alpha   104.49332110
_cell_angle_beta   104.49332791
_cell_angle_gamma   104.49331641
_symmetry_Int_Tables_number   1
_chemical_formula_structural   Yb(Ni2B)6
_chemical_formula_sum   'Yb1 Ni12 B6'
_cell_volume   191.28354039
_cell_formula_units_Z   1
loop_
 _symmetry_equiv_pos_site_id
 _symmetry_equiv_pos_as_xyz
  1  'x, y, z'
loop_
 _atom_site_type_symbol
 _atom_site_label
 _atom_site_symmetry_multiplicity
 _atom_site_fract_x
 _atom_site_fract_y
 _atom_site_fract_z
 _atom_site_occupancy
  Yb  Yb0  1  0.000000  0.000000  0.000000  1
  Ni  Ni1  1  0.869877  0.130123  0.500000  1
  Ni  Ni2  1  0.130123  0.500000  0.869877  1
  Ni  Ni3  1  0.500000  0.869877  0.130123  1
  Ni  Ni4  1  0.869915  0.500000  0.130085  1
  Ni  Ni5  1  0.500000  0.130085  0.869915  1
  Ni  Ni6  1  0.130085  0.869915  0.500000  1
  Ni  Ni7  1  0.814498  0.546540  0.546516  1
  Ni  Ni8  1  0.546540  0.546516  0.814498  1
  Ni  Ni9  1  0.546516  0.814498  0.546540  1
  Ni  Ni10  1  0.185502  0.453484  0.453460  1
  Ni  Ni11  1  0.453484  0.453460  0.185502  1
  Ni  Ni12  1  0.453460  0.185502  0.453484  1
  B  B13  1  0.330451  0.763031  0.763015  1
  B  B14  1  0.763031  0.763015  0.330451  1
  B  B15  1  0.763015  0.330451  0.763031  1
  B  B16  1  0.669549  0.236985  0.236969  1
  B  B17  1  0.236985  0.236969  0.669549  1
  B  B18  1  0.236969  0.669549  0.236985  1
