# generated using pymatgen
data_YNpBe25Co
_symmetry_space_group_name_H-M   'P 1'
_cell_length_a   7.23366699
_cell_length_b   7.28646267
_cell_length_c   7.23986656
_cell_angle_alpha   59.92965364
_cell_angle_beta   59.90215638
_cell_angle_gamma   59.54985193
_symmetry_Int_Tables_number   1
_chemical_formula_structural   YNpBe25Co
_chemical_formula_sum   'Y1 Np1 Be25 Co1'
_cell_volume   268.56043055
_cell_formula_units_Z   1
loop_
 _symmetry_equiv_pos_site_id
 _symmetry_equiv_pos_as_xyz
  1  'x, y, z'
loop_
 _atom_site_type_symbol
 _atom_site_label
 _atom_site_symmetry_multiplicity
 _atom_site_fract_x
 _atom_site_fract_y
 _atom_site_fract_z
 _atom_site_occupancy
  Y  Y0  1  0.749951  0.751987  0.752869  1
  Np  Np1  1  0.243224  0.257152  0.249344  1
  Be  Be2  1  0.503716  0.501099  0.496620  1
  Be  Be3  1  0.998882  0.003090  0.000597  1
  Be  Be4  1  0.203089  0.440983  0.797272  1
  Be  Be5  1  0.565360  0.788499  0.433312  1
  Be  Be6  1  0.434163  0.208804  0.563566  1
  Be  Be7  1  0.290579  0.936527  0.707541  1
  Be  Be8  1  0.704895  0.063685  0.292113  1
  Be  Be9  1  0.935005  0.287776  0.065252  1
  Be  Be10  1  0.066216  0.714615  0.934244  1
  Be  Be11  1  0.207671  0.796675  0.559611  1
  Be  Be12  1  0.791711  0.206197  0.438718  1
  Be  Be13  1  0.438099  0.561597  0.794401  1
  Be  Be14  1  0.561907  0.435832  0.209446  1
  Be  Be15  1  0.708156  0.284998  0.937084  1
  Be  Be16  1  0.288740  0.710623  0.064350  1
  Be  Be17  1  0.065388  0.933205  0.288381  1
  Be  Be18  1  0.938449  0.065364  0.709781  1
  Be  Be19  1  0.557700  0.210099  0.794298  1
  Be  Be20  1  0.439444  0.792093  0.207586  1
  Be  Be21  1  0.792885  0.436375  0.561174  1
  Be  Be22  1  0.207065  0.561049  0.440750  1
  Be  Be23  1  0.937985  0.710152  0.288550  1
  Be  Be24  1  0.064906  0.288074  0.708491  1
  Be  Be25  1  0.289758  0.063808  0.936986  1
  Be  Be26  1  0.710602  0.934853  0.064170  1
  Co  Co27  1  0.804455  0.554790  0.203493  1
