# generated using pymatgen
data_TbNd3V4(WO6)4
_symmetry_space_group_name_H-M   'P 1'
_cell_length_a   7.53280397
_cell_length_b   5.35752970
_cell_length_c   11.21470756
_cell_angle_alpha   90.12227807
_cell_angle_beta   90.08450914
_cell_angle_gamma   90.05764367
_symmetry_Int_Tables_number   1
_chemical_formula_structural   TbNd3V4(WO6)4
_chemical_formula_sum   'Tb1 Nd3 V4 W4 O24'
_cell_volume   452.59267766
_cell_formula_units_Z   1
loop_
 _symmetry_equiv_pos_site_id
 _symmetry_equiv_pos_as_xyz
  1  'x, y, z'
loop_
 _atom_site_type_symbol
 _atom_site_label
 _atom_site_symmetry_multiplicity
 _atom_site_fract_x
 _atom_site_fract_y
 _atom_site_fract_z
 _atom_site_occupancy
  Tb  Tb0  1  0.752952  0.298878  0.954054  1
  Nd  Nd1  1  0.253364  0.208205  0.044899  1
  Nd  Nd2  1  0.753383  0.705979  0.454350  1
  Nd  Nd3  1  0.253605  0.793374  0.546370  1
  V  V4  1  0.507052  0.699813  0.133464  1
  V  V5  1  0.005559  0.200526  0.365710  1
  V  V6  1  0.506668  0.300493  0.635363  1
  V  V7  1  0.004610  0.801063  0.865840  1
  W  W8  1  0.997045  0.695536  0.142190  1
  W  W9  1  0.498026  0.194766  0.355916  1
  W  W10  1  0.998367  0.304511  0.645512  1
  W  W11  1  0.501885  0.806946  0.856978  1
  O  O12  1  0.547181  0.989839  0.018919  1
  O  O13  1  0.957053  0.984014  0.029086  1
  O  O14  1  0.754941  0.577239  0.117004  1
  O  O15  1  0.245543  0.801329  0.139707  1
  O  O16  1  0.064289  0.385320  0.208899  1
  O  O17  1  0.442028  0.366912  0.215654  1
  O  O18  1  0.940927  0.866468  0.283093  1
  O  O19  1  0.563487  0.881651  0.290725  1
  O  O20  1  0.746050  0.300815  0.356825  1
  O  O21  1  0.255001  0.084820  0.379536  1
  O  O22  1  0.462224  0.479579  0.470546  1
  O  O23  1  0.040727  0.484622  0.480998  1
  O  O24  1  0.540522  0.014552  0.519921  1
  O  O25  1  0.962460  0.019368  0.530731  1
  O  O26  1  0.755741  0.413903  0.620023  1
  O  O27  1  0.246209  0.198229  0.645223  1
  O  O28  1  0.064179  0.618374  0.709001  1
  O  O29  1  0.443878  0.636349  0.715497  1
  O  O30  1  0.939643  0.137397  0.787212  1
  O  O31  1  0.569629  0.120069  0.793784  1
  O  O32  1  0.746834  0.687366  0.856717  1
  O  O33  1  0.256872  0.911807  0.880808  1
  O  O34  1  0.466256  0.518340  0.970275  1
  O  O35  1  0.036205  0.511527  0.979168  1
