# generated using pymatgen
data_Sm11GdIn8(GaO4)12
_symmetry_space_group_name_H-M   'P 1'
_cell_length_a   11.13062448
_cell_length_b   11.13063745
_cell_length_c   11.12605700
_cell_angle_alpha   109.44691812
_cell_angle_beta   109.44684344
_cell_angle_gamma   109.53672094
_symmetry_Int_Tables_number   1
_chemical_formula_structural   Sm11GdIn8(GaO4)12
_chemical_formula_sum   'Sm11 Gd1 In8 Ga12 O48'
_cell_volume   1060.88547533
_cell_formula_units_Z   1
loop_
 _symmetry_equiv_pos_site_id
 _symmetry_equiv_pos_as_xyz
  1  'x, y, z'
loop_
 _atom_site_type_symbol
 _atom_site_label
 _atom_site_symmetry_multiplicity
 _atom_site_fract_x
 _atom_site_fract_y
 _atom_site_fract_z
 _atom_site_occupancy
  Sm  Sm0  1  0.250056  0.375111  0.125088  1
  Sm  Sm1  1  0.750042  0.624874  0.875368  1
  Sm  Sm2  1  0.750020  0.124969  0.374911  1
  Sm  Sm3  1  0.124891  0.249941  0.374910  1
  Sm  Sm4  1  0.375031  0.749979  0.125089  1
  Sm  Sm5  1  0.249507  0.874672  0.624632  1
  Sm  Sm6  1  0.875126  0.749961  0.624633  1
  Sm  Sm7  1  0.625328  0.250495  0.875369  1
  Sm  Sm8  1  0.375000  0.125000  0.250001  1
  Sm  Sm9  1  0.624999  0.875000  0.749999  1
  Sm  Sm10  1  0.124999  0.374999  0.750000  1
  Gd  Gd11  1  0.875006  0.625007  0.250011  1
  In  In12  1  0.999845  0.999926  0.000025  1
  In  In13  1  0.499900  0.999820  0.499975  1
  In  In14  1  0.000007  0.500002  0.499655  1
  In  In15  1  0.500179  0.000099  0.000024  1
  In  In16  1  0.500346  0.500351  0.000345  1
  In  In17  1  0.500074  0.500155  0.499976  1
  In  In18  1  0.999649  0.999655  0.499656  1
  In  In19  1  0.999998  0.499993  0.000345  1
  Ga  Ga20  1  0.249364  0.624736  0.374549  1
  Ga  Ga21  1  0.750000  0.374985  0.624912  1
  Ga  Ga22  1  0.750187  0.874815  0.125450  1
  Ga  Ga23  1  0.374913  0.249926  0.624911  1
  Ga  Ga24  1  0.625185  0.749812  0.374549  1
  Ga  Ga25  1  0.250074  0.125088  0.875088  1
  Ga  Ga26  1  0.125014  0.749999  0.875088  1
  Ga  Ga27  1  0.875264  0.250638  0.125451  1
  Ga  Ga28  1  0.625694  0.375695  0.249998  1
  Ga  Ga29  1  0.375004  0.625003  0.750000  1
  Ga  Ga30  1  0.874997  0.124997  0.750001  1
  Ga  Ga31  1  0.124304  0.874304  0.249998  1
  O  O32  1  0.470531  0.372570  0.284096  1
  O  O33  1  0.530176  0.627713  0.715960  1
  O  O34  1  0.588472  0.186432  0.215903  1
  O  O35  1  0.911873  0.127624  0.597576  1
  O  O36  1  0.283990  0.470053  0.372271  1
  O  O37  1  0.313566  0.911528  0.284096  1
  O  O38  1  0.411754  0.814215  0.784039  1
  O  O39  1  0.085945  0.870205  0.401353  1
  O  O40  1  0.716136  0.530107  0.627451  1
  O  O41  1  0.685784  0.088246  0.715962  1
  O  O42  1  0.030050  0.314298  0.902424  1
  O  O43  1  0.215973  0.588081  0.185676  1
  O  O44  1  0.127431  0.029468  0.215903  1
  O  O45  1  0.968855  0.684594  0.098645  1
  O  O46  1  0.784143  0.411871  0.814225  1
  O  O47  1  0.872286  0.969824  0.784038  1
  O  O48  1  0.597782  0.911717  0.127728  1
  O  O49  1  0.185702  0.469952  0.597575  1
  O  O50  1  0.402656  0.088685  0.872549  1
  O  O51  1  0.815406  0.531146  0.401351  1
  O  O52  1  0.902407  0.030297  0.314327  1
  O  O53  1  0.372373  0.588125  0.902423  1
  O  O54  1  0.097645  0.969917  0.685774  1
  O  O55  1  0.629796  0.414053  0.098647  1
  O  O56  1  0.372226  0.284139  0.469759  1
  O  O57  1  0.588282  0.902218  0.372273  1
  O  O58  1  0.628118  0.716076  0.529990  1
  O  O59  1  0.411314  0.097343  0.627452  1
  O  O60  1  0.127660  0.597726  0.912041  1
  O  O61  1  0.029947  0.216011  0.127729  1
  O  O62  1  0.872460  0.403167  0.089120  1
  O  O63  1  0.969892  0.783864  0.872546  1
  O  O64  1  0.314378  0.902464  0.030240  1
  O  O65  1  0.911917  0.284027  0.314324  1
  O  O66  1  0.686085  0.098130  0.970011  1
  O  O67  1  0.088129  0.715855  0.685774  1
  O  O68  1  0.185688  0.215623  0.587962  1
  O  O69  1  0.469705  0.597595  0.185676  1
  O  O70  1  0.814044  0.783337  0.410881  1
  O  O71  1  0.530082  0.402354  0.814224  1
  O  O72  1  0.284380  0.314314  0.912042  1
  O  O73  1  0.716659  0.685953  0.089116  1
  O  O74  1  0.215861  0.127774  0.030241  1
  O  O75  1  0.783924  0.871880  0.970010  1
  O  O76  1  0.902274  0.372340  0.587961  1
  O  O77  1  0.096835  0.627544  0.410880  1
  O  O78  1  0.597536  0.185621  0.469760  1
  O  O79  1  0.401871  0.813912  0.529991  1
