# generated using pymatgen
data_Yb4Al16ZnSi2Ir5
_symmetry_space_group_name_H-M   'P 1'
_cell_length_a   7.56760191
_cell_length_b   7.56760213
_cell_length_c   9.46995794
_cell_angle_alpha   89.86738492
_cell_angle_beta   89.86738711
_cell_angle_gamma   119.62327670
_symmetry_Int_Tables_number   1
_chemical_formula_structural   Yb4Al16ZnSi2Ir5
_chemical_formula_sum   'Yb4 Al16 Zn1 Si2 Ir5'
_cell_volume   471.44039940
_cell_formula_units_Z   1
loop_
 _symmetry_equiv_pos_site_id
 _symmetry_equiv_pos_as_xyz
  1  'x, y, z'
loop_
 _atom_site_type_symbol
 _atom_site_label
 _atom_site_symmetry_multiplicity
 _atom_site_fract_x
 _atom_site_fract_y
 _atom_site_fract_z
 _atom_site_occupancy
  Yb  Yb0  1  0.997400  0.679751  0.249746  1
  Yb  Yb1  1  0.002600  0.320249  0.750254  1
  Yb  Yb2  1  0.679751  0.997400  0.249746  1
  Yb  Yb3  1  0.320249  0.002600  0.750254  1
  Al  Al4  1  0.002626  0.343566  0.078899  1
  Al  Al5  1  0.997374  0.656434  0.921101  1
  Al  Al6  1  0.000658  0.662535  0.570933  1
  Al  Al7  1  0.337465  0.999342  0.429067  1
  Al  Al8  1  0.999342  0.337465  0.429067  1
  Al  Al9  1  0.662535  0.000658  0.570933  1
  Al  Al10  1  0.656434  0.997374  0.921101  1
  Al  Al11  1  0.343566  0.002626  0.078899  1
  Al  Al12  1  0.334275  0.334275  0.552616  1
  Al  Al13  1  0.665725  0.665725  0.447384  1
  Al  Al14  1  0.656416  0.656416  0.060505  1
  Al  Al15  1  0.343584  0.343584  0.939495  1
  Al  Al16  1  0.335967  0.550637  0.251571  1
  Al  Al17  1  0.664033  0.449363  0.748429  1
  Al  Al18  1  0.550637  0.335967  0.251571  1
  Al  Al19  1  0.449363  0.664033  0.748429  1
  Zn  Zn20  1  0.000000  0.000000  0.000000  1
  Si  Si21  1  0.139449  0.139449  0.261635  1
  Si  Si22  1  0.860551  0.860551  0.738365  1
  Ir  Ir23  1  0.671131  0.328869  0.000000  1
  Ir  Ir24  1  0.328869  0.671131  0.000000  1
  Ir  Ir25  1  0.329676  0.670324  0.500000  1
  Ir  Ir26  1  0.670324  0.329676  0.500000  1
  Ir  Ir27  1  0.000000  0.000000  0.500000  1
