# generated using pymatgen
data_Zr10AlZn(BiPb2)2
_symmetry_space_group_name_H-M   'P 1'
_cell_length_a   8.88107644
_cell_length_b   8.87299606
_cell_length_c   5.94407559
_cell_angle_alpha   89.94907682
_cell_angle_beta   90.02543424
_cell_angle_gamma   119.96990949
_symmetry_Int_Tables_number   1
_chemical_formula_structural   Zr10AlZn(BiPb2)2
_chemical_formula_sum   'Zr10 Al1 Zn1 Bi2 Pb4'
_cell_volume   405.77219463
_cell_formula_units_Z   1
loop_
 _symmetry_equiv_pos_site_id
 _symmetry_equiv_pos_as_xyz
  1  'x, y, z'
loop_
 _atom_site_type_symbol
 _atom_site_label
 _atom_site_symmetry_multiplicity
 _atom_site_fract_x
 _atom_site_fract_y
 _atom_site_fract_z
 _atom_site_occupancy
  Zr  Zr0  1  0.333039  0.666520  0.000000  1
  Zr  Zr1  1  0.666390  0.333195  0.500000  1
  Zr  Zr2  1  0.666100  0.333050  0.000000  1
  Zr  Zr3  1  0.333655  0.666828  0.500000  1
  Zr  Zr4  1  0.267015  0.000349  0.251130  1
  Zr  Zr5  1  0.267015  0.266666  0.748870  1
  Zr  Zr6  1  0.001609  0.733825  0.749005  1
  Zr  Zr7  1  0.001609  0.267784  0.250995  1
  Zr  Zr8  1  0.732965  0.732157  0.250879  1
  Zr  Zr9  1  0.732965  0.000808  0.749121  1
  Al  Al10  1  0.000661  0.000330  0.000000  1
  Zn  Zn11  1  0.000524  0.000262  0.500000  1
  Bi  Bi12  1  0.613056  0.000464  0.251223  1
  Bi  Bi13  1  0.613056  0.612592  0.748777  1
  Pb  Pb14  1  0.000312  0.386312  0.749050  1
  Pb  Pb15  1  0.000312  0.614000  0.250950  1
  Pb  Pb16  1  0.384857  0.384777  0.250747  1
  Pb  Pb17  1  0.384857  0.000081  0.749253  1
