# generated using pymatgen
data_Ho12Tc3Pb2
_symmetry_space_group_name_H-M   'P 1'
_cell_length_a   8.47363519
_cell_length_b   8.47363543
_cell_length_c   8.47363610
_cell_angle_alpha   109.03880722
_cell_angle_beta   109.03882126
_cell_angle_gamma   110.33954055
_symmetry_Int_Tables_number   1
_chemical_formula_structural   Ho12Tc3Pb2
_chemical_formula_sum   'Ho12 Tc3 Pb2'
_cell_volume   468.28742732
_cell_formula_units_Z   1
loop_
 _symmetry_equiv_pos_site_id
 _symmetry_equiv_pos_as_xyz
  1  'x, y, z'
loop_
 _atom_site_type_symbol
 _atom_site_label
 _atom_site_symmetry_multiplicity
 _atom_site_fract_x
 _atom_site_fract_y
 _atom_site_fract_z
 _atom_site_occupancy
  Ho  Ho0  1  0.190733  0.428605  0.237873  1
  Ho  Ho1  1  0.809267  0.571395  0.762127  1
  Ho  Ho2  1  0.190733  0.952862  0.762127  1
  Ho  Ho3  1  0.952862  0.190733  0.762127  1
  Ho  Ho4  1  0.809267  0.047138  0.237873  1
  Ho  Ho5  1  0.047138  0.809267  0.237873  1
  Ho  Ho6  1  0.428605  0.190733  0.237873  1
  Ho  Ho7  1  0.571395  0.809267  0.762127  1
  Ho  Ho8  1  0.306714  0.306714  0.613429  1
  Ho  Ho9  1  0.693286  0.693286  0.386571  1
  Ho  Ho10  1  0.693286  0.306714  0.000000  1
  Ho  Ho11  1  0.306714  0.693286  0.000000  1
  Tc  Tc12  1  0.372382  0.372382  0.000000  1
  Tc  Tc13  1  0.627618  0.627618  0.000000  1
  Tc  Tc14  1  0.000000  0.000000  0.000000  1
  Pb  Pb15  1  0.000000  0.500000  0.500000  1
  Pb  Pb16  1  0.500000  0.000000  0.500000  1
