# generated using pymatgen
data_La2PrOsO8
_symmetry_space_group_name_H-M   'P 1'
_cell_length_a   6.34288800
_cell_length_b   7.56657704
_cell_length_c   7.56399519
_cell_angle_alpha   70.11970441
_cell_angle_beta   90.00000000
_cell_angle_gamma   90.00000000
_symmetry_Int_Tables_number   1
_chemical_formula_structural   La2PrOsO8
_chemical_formula_sum   'La4 Pr2 Os2 O16'
_cell_volume   341.39152447
_cell_formula_units_Z   2
loop_
 _symmetry_equiv_pos_site_id
 _symmetry_equiv_pos_as_xyz
  1  'x, y, z'
loop_
 _atom_site_type_symbol
 _atom_site_label
 _atom_site_symmetry_multiplicity
 _atom_site_fract_x
 _atom_site_fract_y
 _atom_site_fract_z
 _atom_site_occupancy
  La  La0  1  0.250000  0.398451  0.396927  1
  La  La1  1  0.750000  0.601549  0.603073  1
  La  La2  1  0.250000  0.331707  0.895103  1
  La  La3  1  0.750000  0.668293  0.104897  1
  Pr  Pr4  1  0.750000  0.106507  0.661404  1
  Pr  Pr5  1  0.250000  0.893493  0.338596  1
  Os  Os6  1  0.250000  0.816686  0.818320  1
  Os  Os7  1  0.750000  0.183314  0.181680  1
  O  O8  1  0.000114  0.333869  0.664405  1
  O  O9  1  0.500114  0.666131  0.335595  1
  O  O10  1  0.999886  0.666131  0.335595  1
  O  O11  1  0.499886  0.333869  0.664405  1
  O  O12  1  0.948701  0.808350  0.804856  1
  O  O13  1  0.448701  0.191650  0.195144  1
  O  O14  1  0.051299  0.191650  0.195144  1
  O  O15  1  0.551299  0.808350  0.804856  1
  O  O16  1  0.750000  0.969972  0.408986  1
  O  O17  1  0.250000  0.030028  0.591014  1
  O  O18  1  0.750000  0.339167  0.337699  1
  O  O19  1  0.250000  0.660833  0.662301  1
  O  O20  1  0.750000  0.410848  0.969587  1
  O  O21  1  0.250000  0.589152  0.030413  1
  O  O22  1  0.750000  0.038145  0.027713  1
  O  O23  1  0.250000  0.961855  0.972287  1
