# generated using pymatgen
data_LiEr2InHg4
_symmetry_space_group_name_H-M   'P 1'
_cell_length_a   4.99703200
_cell_length_b   7.12116600
_cell_length_c   9.98249600
_cell_angle_alpha   90.00000000
_cell_angle_beta   90.00000000
_cell_angle_gamma   90.00000000
_symmetry_Int_Tables_number   1
_chemical_formula_structural   LiEr2InHg4
_chemical_formula_sum   'Li2 Er4 In2 Hg8'
_cell_volume   355.22406930
_cell_formula_units_Z   2
loop_
 _symmetry_equiv_pos_site_id
 _symmetry_equiv_pos_as_xyz
  1  'x, y, z'
loop_
 _atom_site_type_symbol
 _atom_site_label
 _atom_site_symmetry_multiplicity
 _atom_site_fract_x
 _atom_site_fract_y
 _atom_site_fract_z
 _atom_site_occupancy
  Li  Li0  1  0.250979  0.750000  0.623924  1
  Li  Li1  1  0.750979  0.249999  0.876076  1
  Er  Er2  1  0.248590  0.249999  0.132130  1
  Er  Er3  1  0.748589  0.750000  0.367870  1
  Er  Er4  1  0.251380  0.249999  0.619931  1
  Er  Er5  1  0.751381  0.750000  0.880069  1
  In  In6  1  0.248596  0.750000  0.124103  1
  In  In7  1  0.748596  0.249999  0.375896  1
  Hg  Hg8  1  0.748450  0.013313  0.113311  1
  Hg  Hg9  1  0.748450  0.486687  0.113311  1
  Hg  Hg10  1  0.248451  0.513314  0.386689  1
  Hg  Hg11  1  0.248451  0.986687  0.386689  1
  Hg  Hg12  1  0.751777  0.992815  0.634617  1
  Hg  Hg13  1  0.751777  0.507185  0.634617  1
  Hg  Hg14  1  0.251778  0.492816  0.865383  1
  Hg  Hg15  1  0.251778  0.007185  0.865383  1
