# generated using pymatgen
data_HoEr3Lu2FeBi2
_symmetry_space_group_name_H-M   'P 1'
_cell_length_a   8.22750853
_cell_length_b   8.22457531
_cell_length_c   4.14191500
_cell_angle_alpha   90.00000000
_cell_angle_beta   90.00000000
_cell_angle_gamma   120.12146358
_symmetry_Int_Tables_number   1
_chemical_formula_structural   HoEr3Lu2FeBi2
_chemical_formula_sum   'Ho1 Er3 Lu2 Fe1 Bi2'
_cell_volume   242.42688462
_cell_formula_units_Z   1
loop_
 _symmetry_equiv_pos_site_id
 _symmetry_equiv_pos_as_xyz
  1  'x, y, z'
loop_
 _atom_site_type_symbol
 _atom_site_label
 _atom_site_symmetry_multiplicity
 _atom_site_fract_x
 _atom_site_fract_y
 _atom_site_fract_z
 _atom_site_occupancy
  Ho  Ho0  1  0.612209  0.999912  0.000000  1
  Er  Er1  1  0.772179  0.772034  0.500000  1
  Er  Er2  1  0.999852  0.612798  0.000000  1
  Er  Er3  1  0.384317  0.384409  0.000000  1
  Lu  Lu4  1  0.228533  0.000034  0.500000  1
  Lu  Lu5  1  0.000224  0.228380  0.500000  1
  Fe  Fe6  1  0.004712  0.003961  0.000000  1
  Bi  Bi7  1  0.331543  0.665946  0.500000  1
  Bi  Bi8  1  0.666431  0.332526  0.500000  1
