# generated using pymatgen
data_Yb2Sc2Si7Pt9W
_symmetry_space_group_name_H-M   'P 1'
_cell_length_a   9.94986146
_cell_length_b   9.99853319
_cell_length_c   3.96854700
_cell_angle_alpha   90.00000000
_cell_angle_beta   90.00000000
_cell_angle_gamma   119.75925482
_symmetry_Int_Tables_number   1
_chemical_formula_structural   Yb2Sc2Si7Pt9W
_chemical_formula_sum   'Yb2 Sc2 Si7 Pt9 W1'
_cell_volume   342.73932825
_cell_formula_units_Z   1
loop_
 _symmetry_equiv_pos_site_id
 _symmetry_equiv_pos_as_xyz
  1  'x, y, z'
loop_
 _atom_site_type_symbol
 _atom_site_label
 _atom_site_symmetry_multiplicity
 _atom_site_fract_x
 _atom_site_fract_y
 _atom_site_fract_z
 _atom_site_occupancy
  Yb  Yb0  1  0.000764  0.997022  0.000000  1
  Yb  Yb1  1  0.329021  0.665895  0.500000  1
  Sc  Sc2  1  0.567557  0.111457  0.500000  1
  Sc  Sc3  1  0.545482  0.435932  0.500000  1
  Si  Si4  1  0.245552  0.200746  0.500000  1
  Si  Si5  1  0.801975  0.044946  0.500000  1
  Si  Si6  1  0.952775  0.734081  0.500000  1
  Si  Si7  1  0.550244  0.645454  0.000000  1
  Si  Si8  1  0.357034  0.912968  0.000000  1
  Si  Si9  1  0.080343  0.447576  0.000000  1
  Si  Si10  1  0.682428  0.339606  0.000000  1
  Pt  Pt11  1  0.220429  0.940066  0.500000  1
  Pt  Pt12  1  0.057867  0.283497  0.500000  1
  Pt  Pt13  1  0.718843  0.776255  0.500000  1
  Pt  Pt14  1  0.306327  0.409595  0.000000  1
  Pt  Pt15  1  0.591943  0.902399  0.000000  1
  Pt  Pt16  1  0.098207  0.693690  0.000000  1
  Pt  Pt17  1  0.396698  0.180144  0.000000  1
  Pt  Pt18  1  0.829215  0.209963  0.000000  1
  Pt  Pt19  1  0.782193  0.612280  0.000000  1
  W  W20  1  0.885101  0.456430  0.500000  1
