# generated using pymatgen
data_Zn22Ir2Ru
_symmetry_space_group_name_H-M   'P 1'
_cell_length_a   7.80225373
_cell_length_b   7.80225529
_cell_length_c   7.74887218
_cell_angle_alpha   72.80012936
_cell_angle_beta   72.80012884
_cell_angle_gamma   58.95220961
_symmetry_Int_Tables_number   1
_chemical_formula_structural   Zn22Ir2Ru
_chemical_formula_sum   'Zn22 Ir2 Ru1'
_cell_volume   380.10660375
_cell_formula_units_Z   1
loop_
 _symmetry_equiv_pos_site_id
 _symmetry_equiv_pos_as_xyz
  1  'x, y, z'
loop_
 _atom_site_type_symbol
 _atom_site_label
 _atom_site_symmetry_multiplicity
 _atom_site_fract_x
 _atom_site_fract_y
 _atom_site_fract_z
 _atom_site_occupancy
  Zn  Zn0  1  0.340010  0.748249  0.312591  1
  Zn  Zn1  1  0.659990  0.251751  0.687409  1
  Zn  Zn2  1  0.251751  0.659990  0.687409  1
  Zn  Zn3  1  0.748249  0.340010  0.312591  1
  Zn  Zn4  1  0.678157  0.321843  0.000000  1
  Zn  Zn5  1  0.321843  0.678157  0.000000  1
  Zn  Zn6  1  0.830814  0.830814  0.781983  1
  Zn  Zn7  1  0.169186  0.169186  0.218017  1
  Zn  Zn8  1  0.972125  0.972125  0.173592  1
  Zn  Zn9  1  0.027875  0.027875  0.826408  1
  Zn  Zn10  1  0.354443  0.354443  0.278039  1
  Zn  Zn11  1  0.645557  0.645557  0.721961  1
  Zn  Zn12  1  0.688767  0.688767  0.377193  1
  Zn  Zn13  1  0.311233  0.311233  0.622807  1
  Zn  Zn14  1  0.658385  0.026698  0.458679  1
  Zn  Zn15  1  0.341615  0.973302  0.541321  1
  Zn  Zn16  1  0.973302  0.341615  0.541321  1
  Zn  Zn17  1  0.026698  0.658385  0.458679  1
  Zn  Zn18  1  0.614225  0.000572  0.105790  1
  Zn  Zn19  1  0.385775  0.999428  0.894210  1
  Zn  Zn20  1  0.999428  0.385775  0.894210  1
  Zn  Zn21  1  0.000572  0.614225  0.105790  1
  Ir  Ir22  1  0.657632  0.657632  0.055804  1
  Ir  Ir23  1  0.342368  0.342368  0.944196  1
  Ru  Ru24  1  0.000000  0.000000  0.500000  1
