# generated using pymatgen
data_TbHo4(Th3Ru2)3
_symmetry_space_group_name_H-M   'P 1'
_cell_length_a   9.78138905
_cell_length_b   9.88728557
_cell_length_c   6.35382524
_cell_angle_alpha   90.20247974
_cell_angle_beta   90.11340854
_cell_angle_gamma   120.36858883
_symmetry_Int_Tables_number   1
_chemical_formula_structural   TbHo4(Th3Ru2)3
_chemical_formula_sum   'Tb1 Ho4 Th9 Ru6'
_cell_volume   530.16568424
_cell_formula_units_Z   1
loop_
 _symmetry_equiv_pos_site_id
 _symmetry_equiv_pos_as_xyz
  1  'x, y, z'
loop_
 _atom_site_type_symbol
 _atom_site_label
 _atom_site_symmetry_multiplicity
 _atom_site_fract_x
 _atom_site_fract_y
 _atom_site_fract_z
 _atom_site_occupancy
  Tb  Tb0  1  0.459677  0.536176  0.298461  1
  Ho  Ho1  1  0.073569  0.535176  0.301295  1
  Ho  Ho2  1  0.923720  0.460264  0.799409  1
  Ho  Ho3  1  0.251487  0.125591  0.508141  1
  Ho  Ho4  1  0.540849  0.078614  0.794961  1
  Th  Th5  1  0.747864  0.876250  0.011582  1
  Th  Th6  1  0.666489  0.332304  0.270130  1
  Th  Th7  1  0.127630  0.873671  0.005873  1
  Th  Th8  1  0.458977  0.922316  0.300662  1
  Th  Th9  1  0.537608  0.460553  0.796513  1
  Th  Th10  1  0.879705  0.131748  0.513479  1
  Th  Th11  1  0.125806  0.250799  0.011160  1
  Th  Th12  1  0.876460  0.748114  0.508392  1
  Th  Th13  1  0.333119  0.666460  0.770621  1
  Ru  Ru14  1  0.810197  0.629432  0.047223  1
  Ru  Ru15  1  0.818198  0.182147  0.051512  1
  Ru  Ru16  1  0.631770  0.819733  0.543618  1
  Ru  Ru17  1  0.372072  0.189482  0.041048  1
  Ru  Ru18  1  0.181660  0.374073  0.559630  1
  Ru  Ru19  1  0.183142  0.807097  0.550286  1
