# generated using pymatgen
data_Ta11Nb2Co8Os3C4
_symmetry_space_group_name_H-M   'P 1'
_cell_length_a   8.11044468
_cell_length_b   8.18011340
_cell_length_c   8.18221000
_cell_angle_alpha   59.99152115
_cell_angle_beta   59.70685953
_cell_angle_gamma   59.73814871
_symmetry_Int_Tables_number   1
_chemical_formula_structural   Ta11Nb2Co8Os3C4
_chemical_formula_sum   'Ta11 Nb2 Co8 Os3 C4'
_cell_volume   382.20606557
_cell_formula_units_Z   1
loop_
 _symmetry_equiv_pos_site_id
 _symmetry_equiv_pos_as_xyz
  1  'x, y, z'
loop_
 _atom_site_type_symbol
 _atom_site_label
 _atom_site_symmetry_multiplicity
 _atom_site_fract_x
 _atom_site_fract_y
 _atom_site_fract_z
 _atom_site_occupancy
  Ta  Ta0  1  0.124928  0.624446  0.625313  1
  Ta  Ta1  1  0.803893  0.195700  0.804733  1
  Ta  Ta2  1  0.194324  0.809780  0.186330  1
  Ta  Ta3  1  0.194324  0.809780  0.809567  1
  Ta  Ta4  1  0.803893  0.195700  0.195674  1
  Ta  Ta5  1  0.446154  0.445328  0.054259  1
  Ta  Ta6  1  0.055984  0.063177  0.440419  1
  Ta  Ta7  1  0.445882  0.054675  0.444840  1
  Ta  Ta8  1  0.056051  0.440074  0.064175  1
  Ta  Ta9  1  0.056051  0.440074  0.439700  1
  Ta  Ta10  1  0.445882  0.054675  0.054604  1
  Nb  Nb11  1  0.804617  0.805649  0.194867  1
  Nb  Nb12  1  0.193326  0.185926  0.810374  1
  Co  Co13  1  0.727393  0.423875  0.424366  1
  Co  Co14  1  0.422904  0.735933  0.420581  1
  Co  Co15  1  0.423827  0.420441  0.736148  1
  Co  Co16  1  0.423827  0.420441  0.419583  1
  Co  Co17  1  0.523092  0.825148  0.825880  1
  Co  Co18  1  0.825314  0.514802  0.829942  1
  Co  Co19  1  0.826804  0.829809  0.514647  1
  Co  Co20  1  0.826804  0.829809  0.828740  1
  Os  Os21  1  0.625541  0.124869  0.624795  1
  Os  Os22  1  0.624522  0.624673  0.124820  1
  Os  Os23  1  0.624522  0.624673  0.625985  1
  C  C24  1  0.624197  0.126565  0.124619  1
  C  C25  1  0.126393  0.624217  0.124695  1
  C  C26  1  0.124775  0.124881  0.624117  1
  C  C27  1  0.124775  0.124881  0.126228  1
