# generated using pymatgen
data_Ce2Y5Tm3(Ga2Ru3)2
_symmetry_space_group_name_H-M   'P 1'
_cell_length_a   8.45154368
_cell_length_b   8.34632257
_cell_length_c   8.32159008
_cell_angle_alpha   109.86759015
_cell_angle_beta   109.50166769
_cell_angle_gamma   110.42269803
_symmetry_Int_Tables_number   1
_chemical_formula_structural   Ce2Y5Tm3(Ga2Ru3)2
_chemical_formula_sum   'Ce2 Y5 Tm3 Ga4 Ru6'
_cell_volume   443.99793247
_cell_formula_units_Z   1
loop_
 _symmetry_equiv_pos_site_id
 _symmetry_equiv_pos_as_xyz
  1  'x, y, z'
loop_
 _atom_site_type_symbol
 _atom_site_label
 _atom_site_symmetry_multiplicity
 _atom_site_fract_x
 _atom_site_fract_y
 _atom_site_fract_z
 _atom_site_occupancy
  Ce  Ce0  1  0.945013  0.249417  0.195633  1
  Ce  Ce1  1  0.199279  0.943820  0.250952  1
  Y  Y2  1  0.776727  0.782240  0.773750  1
  Y  Y3  1  0.314923  0.564947  0.754751  1
  Y  Y4  1  0.751631  0.315737  0.567043  1
  Y  Y5  1  0.565758  0.746985  0.311692  1
  Y  Y6  1  0.725797  0.502814  0.000888  1
  Tm  Tm7  1  0.000191  0.720421  0.507239  1
  Tm  Tm8  1  0.500194  0.991934  0.716134  1
  Tm  Tm9  1  0.253458  0.186259  0.931595  1
  Ga  Ga10  1  0.414958  0.412339  0.409479  1
  Ga  Ga11  1  0.092939  0.493055  0.998781  1
  Ga  Ga12  1  0.999407  0.086650  0.503737  1
  Ga  Ga13  1  0.502121  0.012502  0.089883  1
  Ru  Ru14  1  0.867141  0.116323  0.741955  1
  Ru  Ru15  1  0.755952  0.906616  0.122534  1
  Ru  Ru16  1  0.125280  0.764646  0.906303  1
  Ru  Ru17  1  0.222676  0.595808  0.369344  1
  Ru  Ru18  1  0.360154  0.218740  0.595918  1
  Ru  Ru19  1  0.626399  0.388748  0.252392  1
