# generated using pymatgen
data_Tb2PrSm3CoBr10
_symmetry_space_group_name_H-M   'P 1'
_cell_length_a   7.46867645
_cell_length_b   9.31896984
_cell_length_c   9.41990616
_cell_angle_alpha   108.21863550
_cell_angle_beta   96.43359413
_cell_angle_gamma   104.51285170
_symmetry_Int_Tables_number   1
_chemical_formula_structural   Tb2PrSm3CoBr10
_chemical_formula_sum   'Tb2 Pr1 Sm3 Co1 Br10'
_cell_volume   589.82610880
_cell_formula_units_Z   1
loop_
 _symmetry_equiv_pos_site_id
 _symmetry_equiv_pos_as_xyz
  1  'x, y, z'
loop_
 _atom_site_type_symbol
 _atom_site_label
 _atom_site_symmetry_multiplicity
 _atom_site_fract_x
 _atom_site_fract_y
 _atom_site_fract_z
 _atom_site_occupancy
  Tb  Tb0  1  0.352982  0.130275  0.675831  1
  Tb  Tb1  1  0.647617  0.872347  0.324723  1
  Pr  Pr2  1  0.034578  0.711112  0.408707  1
  Sm  Sm3  1  0.964074  0.281868  0.588670  1
  Sm  Sm4  1  0.875094  0.951043  0.745417  1
  Sm  Sm5  1  0.127740  0.047940  0.255220  1
  Co  Co6  1  0.000763  0.998974  0.499885  1
  Br  Br7  1  0.458214  0.826280  0.583806  1
  Br  Br8  1  0.546624  0.178421  0.419276  1
  Br  Br9  1  0.910811  0.628375  0.675622  1
  Br  Br10  1  0.085319  0.365877  0.328301  1
  Br  Br11  1  0.251330  0.086323  0.952032  1
  Br  Br12  1  0.751735  0.918834  0.049636  1
  Br  Br13  1  0.342761  0.443234  0.769664  1
  Br  Br14  1  0.644039  0.556326  0.227458  1
  Br  Br15  1  0.773501  0.249833  0.843342  1
  Br  Br16  1  0.232820  0.752939  0.152410  1
