# generated using pymatgen
data_LaEr3Sb10
_symmetry_space_group_name_H-M   'P 1'
_cell_length_a   4.28698500
_cell_length_b   13.32065792
_cell_length_c   14.68377988
_cell_angle_alpha   78.20911883
_cell_angle_beta   90.00000000
_cell_angle_gamma   90.00000000
_symmetry_Int_Tables_number   1
_chemical_formula_structural   LaEr3Sb10
_chemical_formula_sum   'La2 Er6 Sb20'
_cell_volume   820.83109333
_cell_formula_units_Z   2
loop_
 _symmetry_equiv_pos_site_id
 _symmetry_equiv_pos_as_xyz
  1  'x, y, z'
loop_
 _atom_site_type_symbol
 _atom_site_label
 _atom_site_symmetry_multiplicity
 _atom_site_fract_x
 _atom_site_fract_y
 _atom_site_fract_z
 _atom_site_occupancy
  La  La0  1  0.250000  0.952695  0.360878  1
  La  La1  1  0.750000  0.047305  0.639122  1
  Er  Er2  1  0.250000  0.400164  0.772936  1
  Er  Er3  1  0.750000  0.599836  0.227064  1
  Er  Er4  1  0.250000  0.661176  0.857178  1
  Er  Er5  1  0.750000  0.338824  0.142822  1
  Er  Er6  1  0.250000  0.664114  0.578021  1
  Er  Er7  1  0.750000  0.335886  0.421979  1
  Sb  Sb8  1  0.250000  0.148102  0.784944  1
  Sb  Sb9  1  0.750000  0.851898  0.215056  1
  Sb  Sb10  1  0.250000  0.154936  0.475272  1
  Sb  Sb11  1  0.750000  0.845064  0.524728  1
  Sb  Sb12  1  0.250000  0.156819  0.170886  1
  Sb  Sb13  1  0.750000  0.843181  0.829114  1
  Sb  Sb14  1  0.250000  0.421128  0.976477  1
  Sb  Sb15  1  0.750000  0.578872  0.023523  1
  Sb  Sb16  1  0.750000  0.032328  0.897953  1
  Sb  Sb17  1  0.250000  0.967672  0.102047  1
  Sb  Sb18  1  0.750000  0.147630  0.319511  1
  Sb  Sb19  1  0.250000  0.852370  0.680489  1
  Sb  Sb20  1  0.750000  0.284413  0.937158  1
  Sb  Sb21  1  0.250000  0.715587  0.062842  1
  Sb  Sb22  1  0.750000  0.296033  0.649795  1
  Sb  Sb23  1  0.250000  0.703967  0.350205  1
  Sb  Sb24  1  0.750000  0.576860  0.736004  1
  Sb  Sb25  1  0.250000  0.423140  0.263996  1
  Sb  Sb26  1  0.750000  0.573757  0.443718  1
  Sb  Sb27  1  0.250000  0.426243  0.556282  1
