# generated using pymatgen
data_ZrSc4P12Ru19
_symmetry_space_group_name_H-M   'P 1'
_cell_length_a   12.40673100
_cell_length_b   12.40673056
_cell_length_c   3.93389400
_cell_angle_alpha   90.00000000
_cell_angle_beta   90.00000000
_cell_angle_gamma   119.99999852
_symmetry_Int_Tables_number   1
_chemical_formula_structural   ZrSc4P12Ru19
_chemical_formula_sum   'Zr1 Sc4 P12 Ru19'
_cell_volume   524.40643018
_cell_formula_units_Z   1
loop_
 _symmetry_equiv_pos_site_id
 _symmetry_equiv_pos_as_xyz
  1  'x, y, z'
loop_
 _atom_site_type_symbol
 _atom_site_label
 _atom_site_symmetry_multiplicity
 _atom_site_fract_x
 _atom_site_fract_y
 _atom_site_fract_z
 _atom_site_occupancy
  Zr  Zr0  1  0.333333  0.666667  0.000000  1
  Sc  Sc1  1  0.816474  0.000267  0.500000  1
  Sc  Sc2  1  0.999733  0.816207  0.500000  1
  Sc  Sc3  1  0.183793  0.183526  0.500000  1
  Sc  Sc4  1  0.666667  0.333333  0.000000  1
  P  P5  1  0.181259  0.999391  0.000000  1
  P  P6  1  0.000609  0.181868  0.000000  1
  P  P7  1  0.818132  0.818741  0.000000  1
  P  P8  1  0.522307  0.695257  0.500000  1
  P  P9  1  0.304743  0.827050  0.500000  1
  P  P10  1  0.172950  0.477693  0.500000  1
  P  P11  1  0.478272  0.171370  0.500000  1
  P  P12  1  0.693098  0.521728  0.500000  1
  P  P13  1  0.828630  0.306902  0.500000  1
  P  P14  1  0.629419  0.001524  0.000000  1
  P  P15  1  0.998476  0.627896  0.000000  1
  P  P16  1  0.372104  0.370581  0.000000  1
  Ru  Ru17  1  0.444336  0.999024  0.000000  1
  Ru  Ru18  1  0.000976  0.445312  0.000000  1
  Ru  Ru19  1  0.554688  0.555664  0.000000  1
  Ru  Ru20  1  0.279013  0.999207  0.500000  1
  Ru  Ru21  1  0.000793  0.279807  0.500000  1
  Ru  Ru22  1  0.720193  0.720987  0.500000  1
  Ru  Ru23  1  0.624901  0.811364  0.000000  1
  Ru  Ru24  1  0.188636  0.813537  0.000000  1
  Ru  Ru25  1  0.186463  0.375099  0.000000  1
  Ru  Ru26  1  0.374519  0.184200  0.000000  1
  Ru  Ru27  1  0.809682  0.625481  0.000000  1
  Ru  Ru28  1  0.815800  0.190318  0.000000  1
  Ru  Ru29  1  0.504199  0.871431  0.500000  1
  Ru  Ru30  1  0.128569  0.632768  0.500000  1
  Ru  Ru31  1  0.367232  0.495801  0.500000  1
  Ru  Ru32  1  0.492788  0.365459  0.500000  1
  Ru  Ru33  1  0.872671  0.507212  0.500000  1
  Ru  Ru34  1  0.634541  0.127329  0.500000  1
  Ru  Ru35  1  0.000000  0.000000  0.000000  1
