# generated using pymatgen
data_Tm7Lu5(Zn3C)4
_symmetry_space_group_name_H-M   'P 1'
_cell_length_a   8.99907037
_cell_length_b   8.99906980
_cell_length_c   8.99672100
_cell_angle_alpha   60.00863725
_cell_angle_beta   60.00863935
_cell_angle_gamma   60.07144257
_symmetry_Int_Tables_number   1
_chemical_formula_structural   Tm7Lu5(Zn3C)4
_chemical_formula_sum   'Tm7 Lu5 Zn12 C4'
_cell_volume   515.53151026
_cell_formula_units_Z   1
loop_
 _symmetry_equiv_pos_site_id
 _symmetry_equiv_pos_as_xyz
  1  'x, y, z'
loop_
 _atom_site_type_symbol
 _atom_site_label
 _atom_site_symmetry_multiplicity
 _atom_site_fract_x
 _atom_site_fract_y
 _atom_site_fract_z
 _atom_site_occupancy
  Tm  Tm0  1  0.447176  0.447176  0.052824  1
  Tm  Tm1  1  0.053549  0.446481  0.053039  1
  Tm  Tm2  1  0.446481  0.053549  0.053039  1
  Tm  Tm3  1  0.053152  0.053152  0.446848  1
  Tm  Tm4  1  0.446481  0.053549  0.446931  1
  Tm  Tm5  1  0.053549  0.446481  0.446931  1
  Tm  Tm6  1  0.803742  0.803742  0.196258  1
  Lu  Lu7  1  0.196011  0.804061  0.195761  1
  Lu  Lu8  1  0.804061  0.196011  0.195761  1
  Lu  Lu9  1  0.195758  0.195758  0.804242  1
  Lu  Lu10  1  0.804061  0.196011  0.804167  1
  Lu  Lu11  1  0.196011  0.804061  0.804167  1
  Zn  Zn12  1  0.827538  0.827538  0.517656  1
  Zn  Zn13  1  0.827737  0.517332  0.827466  1
  Zn  Zn14  1  0.517332  0.827737  0.827466  1
  Zn  Zn15  1  0.827538  0.827538  0.827270  1
  Zn  Zn16  1  0.422785  0.422785  0.731755  1
  Zn  Zn17  1  0.422360  0.731656  0.422991  1
  Zn  Zn18  1  0.731656  0.422360  0.422991  1
  Zn  Zn19  1  0.422785  0.422785  0.422674  1
  Zn  Zn20  1  0.624863  0.624863  0.124758  1
  Zn  Zn21  1  0.624967  0.124941  0.625046  1
  Zn  Zn22  1  0.124941  0.624967  0.625046  1
  Zn  Zn23  1  0.624863  0.624863  0.625517  1
  C  C24  1  0.123794  0.123794  0.628613  1
  C  C25  1  0.125359  0.627658  0.123492  1
  C  C26  1  0.627658  0.125359  0.123492  1
  C  C27  1  0.123794  0.123794  0.123800  1
