# generated using pymatgen
data_Mn3NiCl7O
_symmetry_space_group_name_H-M   'P 1'
_cell_length_a   7.27590634
_cell_length_b   7.42778707
_cell_length_c   7.43915100
_cell_angle_alpha   56.75690243
_cell_angle_beta   56.99448447
_cell_angle_gamma   57.14152263
_symmetry_Int_Tables_number   1
_chemical_formula_structural   Mn3NiCl7O
_chemical_formula_sum   'Mn3 Ni1 Cl7 O1'
_cell_volume   264.37655186
_cell_formula_units_Z   1
loop_
 _symmetry_equiv_pos_site_id
 _symmetry_equiv_pos_as_xyz
  1  'x, y, z'
loop_
 _atom_site_type_symbol
 _atom_site_label
 _atom_site_symmetry_multiplicity
 _atom_site_fract_x
 _atom_site_fract_y
 _atom_site_fract_z
 _atom_site_occupancy
  Mn  Mn0  1  0.520499  0.983743  0.521794  1
  Mn  Mn1  1  0.520571  0.520991  0.984041  1
  Mn  Mn2  1  0.975491  0.513488  0.513071  1
  Ni  Ni3  1  0.497724  0.503628  0.503440  1
  Cl  Cl4  1  0.249895  0.277622  0.278465  1
  Cl  Cl5  1  0.743214  0.265421  0.264894  1
  Cl  Cl6  1  0.250522  0.263657  0.743716  1
  Cl  Cl7  1  0.252301  0.743979  0.262865  1
  Cl  Cl8  1  0.744326  0.253984  0.741468  1
  Cl  Cl9  1  0.745600  0.741908  0.254016  1
  Cl  Cl10  1  0.257670  0.739558  0.740426  1
  O  O11  1  0.742187  0.692024  0.691806  1
