# generated using pymatgen
data_Y8Ho12Cd3Hg3Ru2
_symmetry_space_group_name_H-M   'P 1'
_cell_length_a   9.59153300
_cell_length_b   9.59153238
_cell_length_c   9.75994120
_cell_angle_alpha   89.95068542
_cell_angle_beta   90.04931314
_cell_angle_gamma   119.98291979
_symmetry_Int_Tables_number   1
_chemical_formula_structural   Y8Ho12Cd3Hg3Ru2
_chemical_formula_sum   'Y8 Ho12 Cd3 Hg3 Ru2'
_cell_volume   777.72912375
_cell_formula_units_Z   1
loop_
 _symmetry_equiv_pos_site_id
 _symmetry_equiv_pos_as_xyz
  1  'x, y, z'
loop_
 _atom_site_type_symbol
 _atom_site_label
 _atom_site_symmetry_multiplicity
 _atom_site_fract_x
 _atom_site_fract_y
 _atom_site_fract_z
 _atom_site_occupancy
  Y  Y0  1  0.208975  0.418155  0.060543  1
  Y  Y1  1  0.581845  0.791025  0.060543  1
  Y  Y2  1  0.541308  0.458692  0.250239  1
  Y  Y3  1  0.541063  0.082355  0.250130  1
  Y  Y4  1  0.917645  0.458937  0.250130  1
  Y  Y5  1  0.459028  0.540972  0.749620  1
  Y  Y6  1  0.458858  0.917957  0.749782  1
  Y  Y7  1  0.082043  0.541142  0.749782  1
  Ho  Ho8  1  0.000003  0.999997  0.491233  1
  Ho  Ho9  1  0.000168  0.999832  0.008544  1
  Ho  Ho10  1  0.209519  0.790481  0.439080  1
  Ho  Ho11  1  0.209535  0.419086  0.439256  1
  Ho  Ho12  1  0.580914  0.790465  0.439256  1
  Ho  Ho13  1  0.790286  0.209714  0.559911  1
  Ho  Ho14  1  0.790344  0.580608  0.559907  1
  Ho  Ho15  1  0.419392  0.209656  0.559907  1
  Ho  Ho16  1  0.790213  0.209787  0.939896  1
  Ho  Ho17  1  0.790409  0.580482  0.939972  1
  Ho  Ho18  1  0.419518  0.209591  0.939972  1
  Ho  Ho19  1  0.209394  0.790606  0.060993  1
  Cd  Cd20  1  0.113110  0.886890  0.749950  1
  Cd  Cd21  1  0.113112  0.226194  0.749978  1
  Cd  Cd22  1  0.773806  0.886888  0.749978  1
  Hg  Hg23  1  0.880003  0.119997  0.250026  1
  Hg  Hg24  1  0.880039  0.760003  0.250054  1
  Hg  Hg25  1  0.239997  0.119961  0.250054  1
  Ru  Ru26  1  0.332819  0.667181  0.251354  1
  Ru  Ru27  1  0.666652  0.333348  0.749909  1
