# generated using pymatgen
data_Ca3Tb(SiPt2)4
_symmetry_space_group_name_H-M   'P 1'
_cell_length_a   5.54393475
_cell_length_b   6.94310300
_cell_length_c   7.40826685
_cell_angle_alpha   90.00000000
_cell_angle_beta   89.86780974
_cell_angle_gamma   90.00000000
_symmetry_Int_Tables_number   1
_chemical_formula_structural   Ca3Tb(SiPt2)4
_chemical_formula_sum   'Ca3 Tb1 Si4 Pt8'
_cell_volume   285.15906344
_cell_formula_units_Z   1
loop_
 _symmetry_equiv_pos_site_id
 _symmetry_equiv_pos_as_xyz
  1  'x, y, z'
loop_
 _atom_site_type_symbol
 _atom_site_label
 _atom_site_symmetry_multiplicity
 _atom_site_fract_x
 _atom_site_fract_y
 _atom_site_fract_z
 _atom_site_occupancy
  Ca  Ca0  1  0.127695  0.750000  0.522621  1
  Ca  Ca1  1  0.871923  0.250000  0.476633  1
  Ca  Ca2  1  0.629588  0.250000  0.976145  1
  Tb  Tb3  1  0.368919  0.750000  0.024837  1
  Si  Si4  1  0.869729  0.750000  0.873494  1
  Si  Si5  1  0.128637  0.250000  0.124517  1
  Si  Si6  1  0.371030  0.250000  0.623457  1
  Si  Si7  1  0.629834  0.750000  0.377488  1
  Pt  Pt8  1  0.594937  0.552841  0.673818  1
  Pt  Pt9  1  0.400915  0.448641  0.324048  1
  Pt  Pt10  1  0.105442  0.448294  0.829983  1
  Pt  Pt11  1  0.400915  0.051359  0.324048  1
  Pt  Pt12  1  0.900030  0.552899  0.172554  1
  Pt  Pt13  1  0.594937  0.947159  0.673818  1
  Pt  Pt14  1  0.900030  0.947101  0.172554  1
  Pt  Pt15  1  0.105442  0.051706  0.829983  1
