# generated using pymatgen
data_LuB2CF
_symmetry_space_group_name_H-M   'P 1'
_cell_length_a   3.93747900
_cell_length_b   4.00453000
_cell_length_c   6.88039700
_cell_angle_alpha   90.00000000
_cell_angle_beta   90.00000000
_cell_angle_gamma   90.00000000
_symmetry_Int_Tables_number   1
_chemical_formula_structural   LuB2CF
_chemical_formula_sum   'Lu2 B4 C2 F2'
_cell_volume   108.48839892
_cell_formula_units_Z   2
loop_
 _symmetry_equiv_pos_site_id
 _symmetry_equiv_pos_as_xyz
  1  'x, y, z'
loop_
 _atom_site_type_symbol
 _atom_site_label
 _atom_site_symmetry_multiplicity
 _atom_site_fract_x
 _atom_site_fract_y
 _atom_site_fract_z
 _atom_site_occupancy
  Lu  Lu0  1  0.000000  0.000000  0.731430  1
  Lu  Lu1  1  0.000000  0.000000  0.268570  1
  B  B2  1  0.184154  0.500000  0.000000  1
  B  B3  1  0.815846  0.500000  0.000000  1
  B  B4  1  0.500000  0.217388  0.500000  1
  B  B5  1  0.500000  0.782612  0.500000  1
  C  C6  1  0.812849  0.500000  0.500000  1
  C  C7  1  0.187151  0.500000  0.500000  1
  F  F8  1  0.500000  0.748341  0.000000  1
  F  F9  1  0.500000  0.251659  0.000000  1
