# generated using pymatgen
data_Nd3Ho(Si5Os3)2
_symmetry_space_group_name_H-M   'P 1'
_cell_length_a   8.19618568
_cell_length_b   8.20946191
_cell_length_c   5.86324829
_cell_angle_alpha   70.39831677
_cell_angle_beta   70.42814463
_cell_angle_gamma   93.76916529
_symmetry_Int_Tables_number   1
_chemical_formula_structural   Nd3Ho(Si5Os3)2
_chemical_formula_sum   'Nd3 Ho1 Si10 Os6'
_cell_volume   343.05658235
_cell_formula_units_Z   1
loop_
 _symmetry_equiv_pos_site_id
 _symmetry_equiv_pos_as_xyz
  1  'x, y, z'
loop_
 _atom_site_type_symbol
 _atom_site_label
 _atom_site_symmetry_multiplicity
 _atom_site_fract_x
 _atom_site_fract_y
 _atom_site_fract_z
 _atom_site_occupancy
  Nd  Nd0  1  0.398093  0.132340  0.745242  1
  Nd  Nd1  1  0.132314  0.397395  0.245978  1
  Nd  Nd2  1  0.602075  0.867820  0.254596  1
  Ho  Ho3  1  0.867549  0.603125  0.753543  1
  Si  Si4  1  0.062101  0.259747  0.837382  1
  Si  Si5  1  0.739545  0.933358  0.665049  1
  Si  Si6  1  0.936322  0.739280  0.164212  1
  Si  Si7  1  0.262147  0.063885  0.335914  1
  Si  Si8  1  0.206261  0.790639  0.749115  1
  Si  Si9  1  0.791555  0.207201  0.253234  1
  Si  Si10  1  0.514354  0.489842  0.747017  1
  Si  Si11  1  0.488894  0.512340  0.249769  1
  Si  Si12  1  0.773728  0.229675  0.748120  1
  Si  Si13  1  0.224898  0.773177  0.252957  1
  Os  Os14  1  0.253926  0.541876  0.632098  1
  Os  Os15  1  0.456241  0.742513  0.869972  1
  Os  Os16  1  0.744971  0.459374  0.365040  1
  Os  Os17  1  0.545248  0.259196  0.128993  1
  Os  Os18  1  0.002360  0.996051  0.750482  1
  Os  Os19  1  0.997418  0.001168  0.251289  1
