# generated using pymatgen
data_Ho5Nb3(P3Rh4)4
_symmetry_space_group_name_H-M   'P 1'
_cell_length_a   12.76688000
_cell_length_b   12.76688101
_cell_length_c   3.92671400
_cell_angle_alpha   90.00000000
_cell_angle_beta   90.00000000
_cell_angle_gamma   120.00000256
_symmetry_Int_Tables_number   1
_chemical_formula_structural   Ho5Nb3(P3Rh4)4
_chemical_formula_sum   'Ho5 Nb3 P12 Rh16'
_cell_volume   554.28034482
_cell_formula_units_Z   1
loop_
 _symmetry_equiv_pos_site_id
 _symmetry_equiv_pos_as_xyz
  1  'x, y, z'
loop_
 _atom_site_type_symbol
 _atom_site_label
 _atom_site_symmetry_multiplicity
 _atom_site_fract_x
 _atom_site_fract_y
 _atom_site_fract_z
 _atom_site_occupancy
  Ho  Ho0  1  0.813771  0.000000  0.500000  1
  Ho  Ho1  1  0.000000  0.813771  0.500000  1
  Ho  Ho2  1  0.186229  0.186229  0.500000  1
  Ho  Ho3  1  0.333333  0.666667  0.000000  1
  Ho  Ho4  1  0.666667  0.333333  0.000000  1
  Nb  Nb5  1  0.449876  0.000000  0.000000  1
  Nb  Nb6  1  0.000000  0.449876  0.000000  1
  Nb  Nb7  1  0.550124  0.550124  0.000000  1
  P  P8  1  0.175860  0.000000  0.000000  1
  P  P9  1  0.000000  0.175860  0.000000  1
  P  P10  1  0.824140  0.824140  0.000000  1
  P  P11  1  0.517532  0.682962  0.500000  1
  P  P12  1  0.317038  0.834569  0.500000  1
  P  P13  1  0.165431  0.482468  0.500000  1
  P  P14  1  0.482468  0.165431  0.500000  1
  P  P15  1  0.682962  0.517532  0.500000  1
  P  P16  1  0.834569  0.317038  0.500000  1
  P  P17  1  0.641568  0.000000  0.000000  1
  P  P18  1  0.000000  0.641568  0.000000  1
  P  P19  1  0.358432  0.358432  0.000000  1
  Rh  Rh20  1  0.279492  0.000000  0.500000  1
  Rh  Rh21  1  0.000000  0.279492  0.500000  1
  Rh  Rh22  1  0.720508  0.720508  0.500000  1
  Rh  Rh23  1  0.626645  0.803949  0.000000  1
  Rh  Rh24  1  0.196051  0.822696  0.000000  1
  Rh  Rh25  1  0.177304  0.373355  0.000000  1
  Rh  Rh26  1  0.373355  0.177304  0.000000  1
  Rh  Rh27  1  0.803949  0.626645  0.000000  1
  Rh  Rh28  1  0.822696  0.196051  0.000000  1
  Rh  Rh29  1  0.512458  0.866791  0.500000  1
  Rh  Rh30  1  0.133209  0.645667  0.500000  1
  Rh  Rh31  1  0.354333  0.487542  0.500000  1
  Rh  Rh32  1  0.487542  0.354333  0.500000  1
  Rh  Rh33  1  0.866791  0.512458  0.500000  1
  Rh  Rh34  1  0.645667  0.133209  0.500000  1
  Rh  Rh35  1  0.000000  0.000000  0.000000  1
