# generated using pymatgen
data_Hf6Ga6IrPd4Ru
_symmetry_space_group_name_H-M   'P 1'
_cell_length_a   7.35478400
_cell_length_b   7.35478369
_cell_length_c   6.63469100
_cell_angle_alpha   90.00000000
_cell_angle_beta   90.00000000
_cell_angle_gamma   119.99999241
_symmetry_Int_Tables_number   1
_chemical_formula_structural   Hf6Ga6IrPd4Ru
_chemical_formula_sum   'Hf6 Ga6 Ir1 Pd4 Ru1'
_cell_volume   310.80728725
_cell_formula_units_Z   1
loop_
 _symmetry_equiv_pos_site_id
 _symmetry_equiv_pos_as_xyz
  1  'x, y, z'
loop_
 _atom_site_type_symbol
 _atom_site_label
 _atom_site_symmetry_multiplicity
 _atom_site_fract_x
 _atom_site_fract_y
 _atom_site_fract_z
 _atom_site_occupancy
  Hf  Hf0  1  0.733200  0.052044  0.998340  1
  Hf  Hf1  1  0.318844  0.266800  0.998340  1
  Hf  Hf2  1  0.947956  0.681156  0.998340  1
  Hf  Hf3  1  0.321702  0.267411  0.501622  1
  Hf  Hf4  1  0.732589  0.054291  0.501622  1
  Hf  Hf5  1  0.945709  0.678298  0.501622  1
  Ga  Ga6  1  0.606072  0.662311  0.749851  1
  Ga  Ga7  1  0.056239  0.393928  0.749851  1
  Ga  Ga8  1  0.337689  0.943761  0.749851  1
  Ga  Ga9  1  0.604480  0.660743  0.250151  1
  Ga  Ga10  1  0.056264  0.395520  0.250151  1
  Ga  Ga11  1  0.339257  0.943736  0.250151  1
  Ir  Ir12  1  0.000000  0.000000  0.251260  1
  Pd  Pd13  1  0.333333  0.666667  0.000477  1
  Pd  Pd14  1  0.333333  0.666667  0.499502  1
  Pd  Pd15  1  0.666667  0.333333  0.753239  1
  Pd  Pd16  1  0.666667  0.333333  0.246727  1
  Ru  Ru17  1  0.000000  0.000000  0.748904  1
