# generated using pymatgen
data_LiNd8Al2Si12Pd
_symmetry_space_group_name_H-M   'P 1'
_cell_length_a   8.27985400
_cell_length_b   8.27985445
_cell_length_c   8.44975800
_cell_angle_alpha   90.00000000
_cell_angle_beta   90.00000000
_cell_angle_gamma   119.99999021
_symmetry_Int_Tables_number   1
_chemical_formula_structural   LiNd8Al2Si12Pd
_chemical_formula_sum   'Li1 Nd8 Al2 Si12 Pd1'
_cell_volume   501.67253663
_cell_formula_units_Z   1
loop_
 _symmetry_equiv_pos_site_id
 _symmetry_equiv_pos_as_xyz
  1  'x, y, z'
loop_
 _atom_site_type_symbol
 _atom_site_label
 _atom_site_symmetry_multiplicity
 _atom_site_fract_x
 _atom_site_fract_y
 _atom_site_fract_z
 _atom_site_occupancy
  Li  Li0  1  0.666667  0.333333  0.997331  1
  Nd  Nd1  1  0.498309  0.501691  0.750936  1
  Nd  Nd2  1  0.499567  0.500433  0.249164  1
  Nd  Nd3  1  0.003383  0.501691  0.750936  1
  Nd  Nd4  1  0.000867  0.500433  0.249164  1
  Nd  Nd5  1  0.498309  0.996617  0.750936  1
  Nd  Nd6  1  0.499567  0.999133  0.249164  1
  Nd  Nd7  1  0.000000  0.000000  0.750250  1
  Nd  Nd8  1  0.000000  0.000000  0.249736  1
  Al  Al9  1  0.333333  0.666667  0.002362  1
  Al  Al10  1  0.333333  0.666667  0.497919  1
  Si  Si11  1  0.831700  0.168300  0.999997  1
  Si  Si12  1  0.163157  0.836843  0.999893  1
  Si  Si13  1  0.336600  0.168300  0.999997  1
  Si  Si14  1  0.162403  0.837597  0.500063  1
  Si  Si15  1  0.673686  0.836843  0.999893  1
  Si  Si16  1  0.832059  0.167941  0.500090  1
  Si  Si17  1  0.831700  0.663400  0.999997  1
  Si  Si18  1  0.675193  0.837597  0.500063  1
  Si  Si19  1  0.163157  0.326314  0.999893  1
  Si  Si20  1  0.335883  0.167941  0.500090  1
  Si  Si21  1  0.162403  0.324807  0.500063  1
  Si  Si22  1  0.832059  0.664117  0.500090  1
  Pd  Pd23  1  0.666667  0.333333  0.501968  1
