# generated using pymatgen
data_CsCa(BH4)3
_symmetry_space_group_name_H-M   'P 1'
_cell_length_a   5.85316200
_cell_length_b   8.08436800
_cell_length_c   8.01392300
_cell_angle_alpha   90.00000000
_cell_angle_beta   90.00000000
_cell_angle_gamma   90.00000000
_symmetry_Int_Tables_number   1
_chemical_formula_structural   CsCa(BH4)3
_chemical_formula_sum   'Cs2 Ca2 B6 H24'
_cell_volume   379.21174862
_cell_formula_units_Z   2
loop_
 _symmetry_equiv_pos_site_id
 _symmetry_equiv_pos_as_xyz
  1  'x, y, z'
loop_
 _atom_site_type_symbol
 _atom_site_label
 _atom_site_symmetry_multiplicity
 _atom_site_fract_x
 _atom_site_fract_y
 _atom_site_fract_z
 _atom_site_occupancy
  Cs  Cs0  1  0.466236  0.500000  0.000000  1
  Cs  Cs1  1  0.533764  0.000000  0.500000  1
  Ca  Ca2  1  0.988701  0.500000  0.500000  1
  Ca  Ca3  1  0.011299  0.000000  0.000000  1
  B  B4  1  0.944366  0.719555  0.769223  1
  B  B5  1  0.944366  0.280445  0.230777  1
  B  B6  1  0.055634  0.219555  0.730777  1
  B  B7  1  0.055634  0.780445  0.269223  1
  B  B8  1  0.513555  0.000000  0.000000  1
  B  B9  1  0.486445  0.500000  0.500000  1
  H  H10  1  0.938480  0.568706  0.790536  1
  H  H11  1  0.938480  0.431294  0.209464  1
  H  H12  1  0.061520  0.068706  0.709464  1
  H  H13  1  0.061520  0.931294  0.290536  1
  H  H14  1  0.912891  0.757028  0.622239  1
  H  H15  1  0.912891  0.242972  0.377761  1
  H  H16  1  0.087109  0.257028  0.877761  1
  H  H17  1  0.087109  0.742972  0.122239  1
  H  H18  1  0.791159  0.781710  0.851587  1
  H  H19  1  0.791159  0.218290  0.148413  1
  H  H20  1  0.208841  0.281710  0.648413  1
  H  H21  1  0.208841  0.718290  0.351587  1
  H  H22  1  0.132665  0.770633  0.810591  1
  H  H23  1  0.132665  0.229367  0.189409  1
  H  H24  1  0.867335  0.270633  0.689409  1
  H  H25  1  0.867335  0.729367  0.310591  1
  H  H26  1  0.631965  0.923413  0.100813  1
  H  H27  1  0.631965  0.076587  0.899187  1
  H  H28  1  0.368035  0.423413  0.399187  1
  H  H29  1  0.368035  0.576587  0.600813  1
  H  H30  1  0.396901  0.899963  0.922830  1
  H  H31  1  0.396901  0.100037  0.077170  1
  H  H32  1  0.603099  0.399963  0.577170  1
  H  H33  1  0.603099  0.600037  0.422830  1
