# generated using pymatgen
data_Nd2Be3SiRh6
_symmetry_space_group_name_H-M   'P 1'
_cell_length_a   6.55120159
_cell_length_b   6.53110482
_cell_length_c   6.55120215
_cell_angle_alpha   129.78789945
_cell_angle_beta   116.66702686
_cell_angle_gamma   85.00571607
_symmetry_Int_Tables_number   1
_chemical_formula_structural   Nd2Be3SiRh6
_chemical_formula_sum   'Nd2 Be3 Si1 Rh6'
_cell_volume   184.12123165
_cell_formula_units_Z   1
loop_
 _symmetry_equiv_pos_site_id
 _symmetry_equiv_pos_as_xyz
  1  'x, y, z'
loop_
 _atom_site_type_symbol
 _atom_site_label
 _atom_site_symmetry_multiplicity
 _atom_site_fract_x
 _atom_site_fract_y
 _atom_site_fract_z
 _atom_site_occupancy
  Nd  Nd0  1  0.743905  0.008221  0.264316  1
  Nd  Nd1  1  0.256833  0.996533  0.739700  1
  Be  Be2  1  0.590077  0.360157  0.770080  1
  Be  Be3  1  0.418696  0.647846  0.229150  1
  Be  Be4  1  0.074605  0.302175  0.227570  1
  Si  Si5  1  0.916080  0.686771  0.770691  1
  Rh  Rh6  1  0.243147  0.497422  0.739757  1
  Rh  Rh7  1  0.734003  0.002665  0.734634  1
  Rh  Rh8  1  0.757665  0.497422  0.254275  1
  Rh  Rh9  1  0.268031  0.002665  0.268663  1
  Rh  Rh10  1  0.489569  0.499061  0.491672  1
  Rh  Rh11  1  0.007389  0.499061  0.009493  1
