# generated using pymatgen
data_Mn2Be8SiMo
_symmetry_space_group_name_H-M   'P 1'
_cell_length_a   4.24469200
_cell_length_b   4.24469191
_cell_length_c   6.94145400
_cell_angle_alpha   90.00000000
_cell_angle_beta   90.00000000
_cell_angle_gamma   120.00000070
_symmetry_Int_Tables_number   1
_chemical_formula_structural   Mn2Be8SiMo
_chemical_formula_sum   'Mn2 Be8 Si1 Mo1'
_cell_volume   108.31121686
_cell_formula_units_Z   1
loop_
 _symmetry_equiv_pos_site_id
 _symmetry_equiv_pos_as_xyz
  1  'x, y, z'
loop_
 _atom_site_type_symbol
 _atom_site_label
 _atom_site_symmetry_multiplicity
 _atom_site_fract_x
 _atom_site_fract_y
 _atom_site_fract_z
 _atom_site_occupancy
  Mn  Mn0  1  0.666667  0.333333  0.938103  1
  Mn  Mn1  1  0.333333  0.666667  0.441357  1
  Be  Be2  1  0.000000  0.000000  0.001266  1
  Be  Be3  1  0.000000  0.000000  0.492556  1
  Be  Be4  1  0.829454  0.658906  0.244473  1
  Be  Be5  1  0.167528  0.832472  0.756748  1
  Be  Be6  1  0.664944  0.832472  0.756748  1
  Be  Be7  1  0.341094  0.170546  0.244473  1
  Be  Be8  1  0.829454  0.170546  0.244473  1
  Be  Be9  1  0.167528  0.335056  0.756748  1
  Si  Si10  1  0.333333  0.666667  0.060867  1
  Mo  Mo11  1  0.666667  0.333333  0.562186  1
