# generated using pymatgen
data_Mn13Cr7Ga(MoC3)2
_symmetry_space_group_name_H-M   'P 1'
_cell_length_a   7.45179670
_cell_length_b   7.45236132
_cell_length_c   7.45330098
_cell_angle_alpha   60.11165133
_cell_angle_beta   60.00683965
_cell_angle_gamma   60.00288273
_symmetry_Int_Tables_number   1
_chemical_formula_structural   Mn13Cr7Ga(MoC3)2
_chemical_formula_sum   'Mn13 Cr7 Ga1 Mo2 C6'
_cell_volume   292.94469818
_cell_formula_units_Z   1
loop_
 _symmetry_equiv_pos_site_id
 _symmetry_equiv_pos_as_xyz
  1  'x, y, z'
loop_
 _atom_site_type_symbol
 _atom_site_label
 _atom_site_symmetry_multiplicity
 _atom_site_fract_x
 _atom_site_fract_y
 _atom_site_fract_z
 _atom_site_occupancy
  Mn  Mn0  1  0.616478  0.614839  0.152200  1
  Mn  Mn1  1  0.616835  0.152040  0.614291  1
  Mn  Mn2  1  0.152265  0.616068  0.616191  1
  Mn  Mn3  1  0.615472  0.616074  0.616186  1
  Mn  Mn4  1  0.384262  0.383589  0.847882  1
  Mn  Mn5  1  0.384441  0.848078  0.383048  1
  Mn  Mn6  1  0.848244  0.383804  0.383357  1
  Mn  Mn7  1  0.384595  0.383805  0.383356  1
  Mn  Mn8  1  0.999779  0.999484  0.342504  1
  Mn  Mn9  1  0.658224  0.999485  0.342513  1
  Mn  Mn10  1  0.998874  0.659152  0.343101  1
  Mn  Mn11  1  0.658045  0.342029  0.999684  1
  Mn  Mn12  1  0.000240  0.342040  0.999684  1
  Cr  Cr13  1  0.999502  0.343479  0.657520  1
  Cr  Cr14  1  0.343121  0.656099  0.000624  1
  Cr  Cr15  1  0.343015  0.000971  0.656131  1
  Cr  Cr16  1  0.341687  0.000026  0.000746  1
  Cr  Cr17  1  0.999885  0.000970  0.656125  1
  Cr  Cr18  1  0.000156  0.656099  0.000626  1
  Cr  Cr19  1  0.657542  0.000024  0.000748  1
  Ga  Ga20  1  0.998192  0.000860  0.002757  1
  Mo  Mo21  1  0.750272  0.750356  0.749092  1
  Mo  Mo22  1  0.249525  0.250110  0.250845  1
  C  C23  1  0.720495  0.720722  0.281654  1
  C  C24  1  0.277130  0.720721  0.281661  1
  C  C25  1  0.723188  0.277011  0.276614  1
  C  C26  1  0.279809  0.281138  0.720902  1
  C  C27  1  0.718142  0.281148  0.720900  1
  C  C28  1  0.280582  0.719777  0.719056  1
