# generated using pymatgen
data_Y3Tm3Ru2
_symmetry_space_group_name_H-M   'P 1'
_cell_length_a   6.27753461
_cell_length_b   7.32379435
_cell_length_c   9.09263921
_cell_angle_alpha   89.89878435
_cell_angle_beta   89.47185305
_cell_angle_gamma   89.85974658
_symmetry_Int_Tables_number   1
_chemical_formula_structural   Y3Tm3Ru2
_chemical_formula_sum   'Y6 Tm6 Ru4'
_cell_volume   418.01782643
_cell_formula_units_Z   2
loop_
 _symmetry_equiv_pos_site_id
 _symmetry_equiv_pos_as_xyz
  1  'x, y, z'
loop_
 _atom_site_type_symbol
 _atom_site_label
 _atom_site_symmetry_multiplicity
 _atom_site_fract_x
 _atom_site_fract_y
 _atom_site_fract_z
 _atom_site_occupancy
  Y  Y0  1  0.631675  0.040134  0.252831  1
  Y  Y1  1  0.368325  0.959866  0.747169  1
  Y  Y2  1  0.130293  0.459518  0.748043  1
  Y  Y3  1  0.869707  0.540482  0.251957  1
  Y  Y4  1  0.169096  0.177313  0.064578  1
  Y  Y5  1  0.830904  0.822687  0.935422  1
  Tm  Tm6  1  0.667754  0.325200  0.935153  1
  Tm  Tm7  1  0.832119  0.824470  0.562905  1
  Tm  Tm8  1  0.332246  0.674800  0.064847  1
  Tm  Tm9  1  0.167881  0.175530  0.437095  1
  Tm  Tm10  1  0.333353  0.676022  0.435683  1
  Tm  Tm11  1  0.666647  0.323978  0.564317  1
  Ru  Ru12  1  0.459260  0.386824  0.251089  1
  Ru  Ru13  1  0.540740  0.613176  0.748911  1
  Ru  Ru14  1  0.955637  0.115482  0.744689  1
  Ru  Ru15  1  0.044363  0.884518  0.255311  1
