# generated using pymatgen
data_Mg3Sc5Tc(B8Rh)3
_symmetry_space_group_name_H-M   'P 1'
_cell_length_a   3.47416800
_cell_length_b   8.83936000
_cell_length_c   11.16629500
_cell_angle_alpha   89.99853079
_cell_angle_beta   90.00000000
_cell_angle_gamma   90.00000000
_symmetry_Int_Tables_number   1
_chemical_formula_structural   Mg3Sc5Tc(B8Rh)3
_chemical_formula_sum   'Mg3 Sc5 Tc1 B24 Rh3'
_cell_volume   342.91046142
_cell_formula_units_Z   1
loop_
 _symmetry_equiv_pos_site_id
 _symmetry_equiv_pos_as_xyz
  1  'x, y, z'
loop_
 _atom_site_type_symbol
 _atom_site_label
 _atom_site_symmetry_multiplicity
 _atom_site_fract_x
 _atom_site_fract_y
 _atom_site_fract_z
 _atom_site_occupancy
  Mg  Mg0  1  0.000000  0.946605  0.376451  1
  Mg  Mg1  1  0.000000  0.054816  0.623578  1
  Mg  Mg2  1  0.000000  0.554143  0.876153  1
  Sc  Sc3  1  0.000000  0.181730  0.920960  1
  Sc  Sc4  1  0.000000  0.822606  0.086602  1
  Sc  Sc5  1  0.000000  0.679856  0.585573  1
  Sc  Sc6  1  0.000000  0.313711  0.408963  1
  Sc  Sc7  1  0.000000  0.443024  0.124248  1
  Tc  Tc8  1  0.000000  0.138345  0.180987  1
  B  B9  1  0.500000  0.370790  0.818734  1
  B  B10  1  0.500000  0.978352  0.212807  1
  B  B11  1  0.500000  0.555235  0.435801  1
  B  B12  1  0.500000  0.295164  0.236640  1
  B  B13  1  0.500000  0.205649  0.737553  1
  B  B14  1  0.500000  0.099170  0.474103  1
  B  B15  1  0.500000  0.795150  0.263475  1
  B  B16  1  0.500000  0.444686  0.564297  1
  B  B17  1  0.500000  0.245368  0.578156  1
  B  B18  1  0.500000  0.480493  0.287059  1
  B  B19  1  0.500000  0.705045  0.762873  1
  B  B20  1  0.500000  0.754807  0.422424  1
  B  B21  1  0.500000  0.520129  0.712809  1
  B  B22  1  0.500000  0.900874  0.527228  1
  B  B23  1  0.500000  0.052934  0.064516  1
  B  B24  1  0.500000  0.603400  0.027006  1
  B  B25  1  0.500000  0.746852  0.921162  1
  B  B26  1  0.500000  0.020591  0.786090  1
  B  B27  1  0.500000  0.399731  0.971165  1
  B  B28  1  0.500000  0.945610  0.934037  1
  B  B29  1  0.500000  0.631314  0.180679  1
  B  B30  1  0.500000  0.252810  0.077980  1
  B  B31  1  0.500000  0.870736  0.680879  1
  B  B32  1  0.500000  0.129031  0.319095  1
  Rh  Rh33  1  0.000000  0.360575  0.680742  1
  Rh  Rh34  1  0.000000  0.859926  0.818799  1
  Rh  Rh35  1  0.000000  0.640746  0.320376  1
