# generated using pymatgen
data_Hf6Fe2B4Ir7Ru
_symmetry_space_group_name_H-M   'P 1'
_cell_length_a   9.31869045
_cell_length_b   9.31138346
_cell_length_c   3.22978500
_cell_angle_alpha   90.00000000
_cell_angle_beta   90.00000000
_cell_angle_gamma   90.09869726
_symmetry_Int_Tables_number   1
_chemical_formula_structural   Hf6Fe2B4Ir7Ru
_chemical_formula_sum   'Hf6 Fe2 B4 Ir7 Ru1'
_cell_volume   280.24770609
_cell_formula_units_Z   1
loop_
 _symmetry_equiv_pos_site_id
 _symmetry_equiv_pos_as_xyz
  1  'x, y, z'
loop_
 _atom_site_type_symbol
 _atom_site_label
 _atom_site_symmetry_multiplicity
 _atom_site_fract_x
 _atom_site_fract_y
 _atom_site_fract_z
 _atom_site_occupancy
  Hf  Hf0  1  0.172776  0.674611  0.000000  1
  Hf  Hf1  1  0.327142  0.169216  0.000000  1
  Hf  Hf2  1  0.828651  0.328293  0.000000  1
  Hf  Hf3  1  0.499343  0.499778  0.000000  1
  Hf  Hf4  1  0.671585  0.827787  0.000000  1
  Hf  Hf5  1  0.002623  0.999559  0.000000  1
  Fe  Fe6  1  0.999954  0.501389  0.500000  1
  Fe  Fe7  1  0.501480  0.999694  0.500000  1
  B  B8  1  0.386827  0.888831  0.000000  1
  B  B9  1  0.108790  0.390654  0.000000  1
  B  B10  1  0.890255  0.610554  0.000000  1
  B  B11  1  0.611587  0.109443  0.000000  1
  Ir  Ir12  1  0.930682  0.773794  0.500000  1
  Ir  Ir13  1  0.433137  0.726279  0.500000  1
  Ir  Ir14  1  0.567787  0.273113  0.500000  1
  Ir  Ir15  1  0.725982  0.566595  0.500000  1
  Ir  Ir16  1  0.273402  0.432528  0.500000  1
  Ir  Ir17  1  0.066954  0.227332  0.500000  1
  Ir  Ir18  1  0.774575  0.067905  0.500000  1
  Ru  Ru19  1  0.226469  0.932643  0.500000  1
