# generated using pymatgen
data_TbEr7Hf6O24
_symmetry_space_group_name_H-M   'P 1'
_cell_length_a   6.33596971
_cell_length_b   6.41150647
_cell_length_c   12.75489531
_cell_angle_alpha   99.12827297
_cell_angle_beta   99.38215470
_cell_angle_gamma   99.34351834
_symmetry_Int_Tables_number   1
_chemical_formula_structural   TbEr7Hf6O24
_chemical_formula_sum   'Tb1 Er7 Hf6 O24'
_cell_volume   495.22714161
_cell_formula_units_Z   1
loop_
 _symmetry_equiv_pos_site_id
 _symmetry_equiv_pos_as_xyz
  1  'x, y, z'
loop_
 _atom_site_type_symbol
 _atom_site_label
 _atom_site_symmetry_multiplicity
 _atom_site_fract_x
 _atom_site_fract_y
 _atom_site_fract_z
 _atom_site_occupancy
  Tb  Tb0  1  0.297679  0.610665  0.818455  1
  Er  Er1  1  0.388966  0.863610  0.595526  1
  Er  Er2  1  0.858943  0.692387  0.947791  1
  Er  Er3  1  0.311164  0.610604  0.318040  1
  Er  Er4  1  0.140431  0.306942  0.053701  1
  Er  Er5  1  0.702072  0.390536  0.182285  1
  Er  Er6  1  0.690840  0.387642  0.681062  1
  Er  Er7  1  0.611507  0.135291  0.402550  1
  Hf  Hf8  1  0.006500  0.005817  0.252996  1
  Hf  Hf9  1  0.391705  0.858041  0.095146  1
  Hf  Hf10  1  0.991701  0.993574  0.746460  1
  Hf  Hf11  1  0.854838  0.674977  0.446820  1
  Hf  Hf12  1  0.145526  0.324948  0.551640  1
  Hf  Hf13  1  0.608318  0.144237  0.908162  1
  O  O14  1  0.317468  0.968658  0.797993  1
  O  O15  1  0.074570  0.922210  0.095464  1
  O  O16  1  0.319261  0.945120  0.285469  1
  O  O17  1  0.032313  0.888255  0.589254  1
  O  O18  1  0.570020  0.834459  0.965498  1
  O  O19  1  0.590206  0.818036  0.461607  1
  O  O20  1  0.186189  0.596608  0.972931  1
  O  O21  1  0.924304  0.683988  0.778479  1
  O  O22  1  0.428950  0.586273  0.158476  1
  O  O23  1  0.170769  0.573532  0.463875  1
  O  O24  1  0.923014  0.696782  0.291875  1
  O  O25  1  0.576954  0.413830  0.842198  1
  O  O26  1  0.406440  0.563528  0.655005  1
  O  O27  1  0.074993  0.316674  0.222562  1
  O  O28  1  0.812884  0.404918  0.030573  1
  O  O29  1  0.594484  0.434659  0.342975  1
  O  O30  1  0.072615  0.301529  0.705089  1
  O  O31  1  0.828454  0.425484  0.534068  1
  O  O32  1  0.431716  0.167934  0.037657  1
  O  O33  1  0.409246  0.180242  0.536623  1
  O  O34  1  0.924332  0.082080  0.904427  1
  O  O35  1  0.682707  0.037512  0.204217  1
  O  O36  1  0.967939  0.106481  0.411059  1
  O  O37  1  0.679983  0.051939  0.711988  1
