# generated using pymatgen
data_Tm3Al2InGePt2
_symmetry_space_group_name_H-M   'P 1'
_cell_length_a   7.25115626
_cell_length_b   7.15615931
_cell_length_c   4.07883100
_cell_angle_alpha   90.00000000
_cell_angle_beta   90.00000000
_cell_angle_gamma   120.75383152
_symmetry_Int_Tables_number   1
_chemical_formula_structural   Tm3Al2InGePt2
_chemical_formula_sum   'Tm3 Al2 In1 Ge1 Pt2'
_cell_volume   181.88809963
_cell_formula_units_Z   1
loop_
 _symmetry_equiv_pos_site_id
 _symmetry_equiv_pos_as_xyz
  1  'x, y, z'
loop_
 _atom_site_type_symbol
 _atom_site_label
 _atom_site_symmetry_multiplicity
 _atom_site_fract_x
 _atom_site_fract_y
 _atom_site_fract_z
 _atom_site_occupancy
  Tm  Tm0  1  0.409327  0.416821  0.500000  1
  Tm  Tm1  1  0.586085  0.992979  0.500000  1
  Tm  Tm2  1  0.007117  0.587838  0.500000  1
  Al  Al3  1  0.009120  0.248201  0.000000  1
  Al  Al4  1  0.748055  0.763573  0.000000  1
  In  In5  1  0.244740  0.991597  0.000000  1
  Ge  Ge6  1  0.679155  0.344302  0.000000  1
  Pt  Pt7  1  0.979481  0.000640  0.500000  1
  Pt  Pt8  1  0.336920  0.654048  0.000000  1
