# generated using pymatgen
data_Pa4Ta2Zn6Pt
_symmetry_space_group_name_H-M   'P 1'
_cell_length_a   10.64093219
_cell_length_b   10.64093246
_cell_length_c   10.64093223
_cell_angle_alpha   28.40768756
_cell_angle_beta   28.40768447
_cell_angle_gamma   28.40768753
_symmetry_Int_Tables_number   1
_chemical_formula_structural   Pa4Ta2Zn6Pt
_chemical_formula_sum   'Pa4 Ta2 Zn6 Pt1'
_cell_volume   240.99592290
_cell_formula_units_Z   1
loop_
 _symmetry_equiv_pos_site_id
 _symmetry_equiv_pos_as_xyz
  1  'x, y, z'
loop_
 _atom_site_type_symbol
 _atom_site_label
 _atom_site_symmetry_multiplicity
 _atom_site_fract_x
 _atom_site_fract_y
 _atom_site_fract_z
 _atom_site_occupancy
  Pa  Pa0  1  0.832553  0.832553  0.832553  1
  Pa  Pa1  1  0.167447  0.167447  0.167447  1
  Pa  Pa2  1  0.651201  0.651201  0.651201  1
  Pa  Pa3  1  0.348799  0.348799  0.348799  1
  Ta  Ta4  1  0.543193  0.543193  0.543193  1
  Ta  Ta5  1  0.456807  0.456807  0.456807  1
  Zn  Zn6  1  0.909526  0.410616  0.909526  1
  Zn  Zn7  1  0.909526  0.909526  0.410616  1
  Zn  Zn8  1  0.410616  0.909526  0.909526  1
  Zn  Zn9  1  0.090474  0.589384  0.090474  1
  Zn  Zn10  1  0.090474  0.090474  0.589384  1
  Zn  Zn11  1  0.589384  0.090474  0.090474  1
  Pt  Pt12  1  0.000000  0.000000  0.000000  1
