# generated using pymatgen
data_Tb3In3SnRh2
_symmetry_space_group_name_H-M   'P 1'
_cell_length_a   7.88511000
_cell_length_b   7.88510914
_cell_length_c   3.85627900
_cell_angle_alpha   90.00000000
_cell_angle_beta   90.00000000
_cell_angle_gamma   120.00000474
_symmetry_Int_Tables_number   1
_chemical_formula_structural   Tb3In3SnRh2
_chemical_formula_sum   'Tb3 In3 Sn1 Rh2'
_cell_volume   207.64167493
_cell_formula_units_Z   1
loop_
 _symmetry_equiv_pos_site_id
 _symmetry_equiv_pos_as_xyz
  1  'x, y, z'
loop_
 _atom_site_type_symbol
 _atom_site_label
 _atom_site_symmetry_multiplicity
 _atom_site_fract_x
 _atom_site_fract_y
 _atom_site_fract_z
 _atom_site_occupancy
  Tb  Tb0  1  0.971593  0.583562  0.500000  1
  Tb  Tb1  1  0.416438  0.388031  0.500000  1
  Tb  Tb2  1  0.611969  0.028407  0.500000  1
  In  In3  1  0.752553  0.743069  0.000000  1
  In  In4  1  0.990516  0.247447  0.000000  1
  In  In5  1  0.256931  0.009484  0.000000  1
  Sn  Sn6  1  0.333333  0.666667  0.000000  1
  Rh  Rh7  1  0.000000  0.000000  0.500000  1
  Rh  Rh8  1  0.666667  0.333333  0.000000  1
