# generated using pymatgen
data_NdGd4(RhO6)2
_symmetry_space_group_name_H-M   'P 1'
_cell_length_a   6.98310630
_cell_length_b   6.98310578
_cell_length_c   7.44845600
_cell_angle_alpha   74.56057963
_cell_angle_beta   74.56057230
_cell_angle_gamma   50.97845360
_symmetry_Int_Tables_number   1
_chemical_formula_structural   NdGd4(RhO6)2
_chemical_formula_sum   'Nd1 Gd4 Rh2 O12'
_cell_volume   269.63340399
_cell_formula_units_Z   1
loop_
 _symmetry_equiv_pos_site_id
 _symmetry_equiv_pos_as_xyz
  1  'x, y, z'
loop_
 _atom_site_type_symbol
 _atom_site_label
 _atom_site_symmetry_multiplicity
 _atom_site_fract_x
 _atom_site_fract_y
 _atom_site_fract_z
 _atom_site_occupancy
  Nd  Nd0  1  0.000000  0.000000  0.500000  1
  Gd  Gd1  1  0.304653  0.304653  0.358617  1
  Gd  Gd2  1  0.695347  0.695347  0.641383  1
  Gd  Gd3  1  0.692946  0.692946  0.167050  1
  Gd  Gd4  1  0.307054  0.307054  0.832950  1
  Rh  Rh5  1  0.753136  0.246864  0.000000  1
  Rh  Rh6  1  0.246864  0.753136  0.000000  1
  O  O7  1  0.095661  0.591468  0.578048  1
  O  O8  1  0.999181  0.999181  0.177003  1
  O  O9  1  0.408532  0.904339  0.421952  1
  O  O10  1  0.500327  0.500327  0.185834  1
  O  O11  1  0.100159  0.572150  0.081684  1
  O  O12  1  0.904339  0.408532  0.421952  1
  O  O13  1  0.000819  0.000819  0.822997  1
  O  O14  1  0.591468  0.095660  0.578048  1
  O  O15  1  0.499673  0.499673  0.814166  1
  O  O16  1  0.572150  0.100159  0.081684  1
  O  O17  1  0.427850  0.899841  0.918316  1
  O  O18  1  0.899841  0.427850  0.918316  1
