# generated using pymatgen
data_Ag2OsSeF12
_symmetry_space_group_name_H-M   'P 1'
_cell_length_a   5.53225395
_cell_length_b   5.52936181
_cell_length_c   10.73504698
_cell_angle_alpha   75.19174948
_cell_angle_beta   75.12900136
_cell_angle_gamma   59.94409025
_symmetry_Int_Tables_number   1
_chemical_formula_structural   Ag2OsSeF12
_chemical_formula_sum   'Ag2 Os1 Se1 F12'
_cell_volume   271.52154667
_cell_formula_units_Z   1
loop_
 _symmetry_equiv_pos_site_id
 _symmetry_equiv_pos_as_xyz
  1  'x, y, z'
loop_
 _atom_site_type_symbol
 _atom_site_label
 _atom_site_symmetry_multiplicity
 _atom_site_fract_x
 _atom_site_fract_y
 _atom_site_fract_z
 _atom_site_occupancy
  Ag  Ag0  1  0.500260  0.495859  0.504828  1
  Ag  Ag1  1  0.003405  0.999440  0.995333  1
  Os  Os2  1  0.245478  0.256905  0.249953  1
  Se  Se3  1  0.754041  0.743840  0.750017  1
  F  F4  1  0.221478  0.498298  0.358261  1
  F  F5  1  0.745471  0.526224  0.642070  1
  F  F6  1  0.919161  0.233560  0.357415  1
  F  F7  1  0.087890  0.734998  0.641322  1
  F  F8  1  0.570457  0.280098  0.141946  1
  F  F9  1  0.421587  0.752883  0.858141  1
  F  F10  1  0.269446  0.015804  0.141447  1
  F  F11  1  0.762772  0.960745  0.858318  1
  F  F12  1  0.972344  0.409908  0.858136  1
  F  F13  1  0.003083  0.583529  0.142173  1
  F  F14  1  0.537750  0.076197  0.642247  1
  F  F15  1  0.485378  0.931710  0.358392  1
