# generated using pymatgen
data_Nd3EuH10
_symmetry_space_group_name_H-M   'P 1'
_cell_length_a   6.73899181
_cell_length_b   6.73899207
_cell_length_c   6.73899224
_cell_angle_alpha   131.86316899
_cell_angle_beta   131.88463137
_cell_angle_gamma   70.42826046
_symmetry_Int_Tables_number   1
_chemical_formula_structural   Nd3EuH10
_chemical_formula_sum   'Nd3 Eu1 H10'
_cell_volume   166.27943170
_cell_formula_units_Z   1
loop_
 _symmetry_equiv_pos_site_id
 _symmetry_equiv_pos_as_xyz
  1  'x, y, z'
loop_
 _atom_site_type_symbol
 _atom_site_label
 _atom_site_symmetry_multiplicity
 _atom_site_fract_x
 _atom_site_fract_y
 _atom_site_fract_z
 _atom_site_occupancy
  Nd  Nd0  1  0.742592  0.742592  0.000000  1
  Nd  Nd1  1  0.007266  0.507266  0.500000  1
  Nd  Nd2  1  0.258726  0.258726  0.000000  1
  Eu  Eu3  1  0.492725  0.992725  0.500000  1
  H  H4  1  0.372673  0.356511  0.476583  1
  H  H5  1  0.879928  0.896089  0.523417  1
  H  H6  1  0.648926  0.125672  0.026952  1
  H  H7  1  0.098721  0.621974  0.973048  1
  H  H8  1  0.372673  0.896089  0.016162  1
  H  H9  1  0.879928  0.356511  0.983838  1
  H  H10  1  0.648926  0.621974  0.523254  1
  H  H11  1  0.098721  0.125672  0.476746  1
  H  H12  1  0.248622  0.748622  0.500000  1
  H  H13  1  0.499574  0.499574  0.000000  1
