# generated using pymatgen
data_YLu(Pa2Ga5)2
_symmetry_space_group_name_H-M   'P 1'
_cell_length_a   6.06075700
_cell_length_b   9.49053500
_cell_length_c   11.61036400
_cell_angle_alpha   90.00000000
_cell_angle_beta   90.00000000
_cell_angle_gamma   90.00000000
_symmetry_Int_Tables_number   1
_chemical_formula_structural   YLu(Pa2Ga5)2
_chemical_formula_sum   'Y2 Lu2 Pa8 Ga20'
_cell_volume   667.82612213
_cell_formula_units_Z   2
loop_
 _symmetry_equiv_pos_site_id
 _symmetry_equiv_pos_as_xyz
  1  'x, y, z'
loop_
 _atom_site_type_symbol
 _atom_site_label
 _atom_site_symmetry_multiplicity
 _atom_site_fract_x
 _atom_site_fract_y
 _atom_site_fract_z
 _atom_site_occupancy
  Y  Y0  1  0.855831  0.750000  0.072287  1
  Y  Y1  1  0.644169  0.750000  0.572287  1
  Lu  Lu2  1  0.143786  0.250000  0.927524  1
  Lu  Lu3  1  0.356214  0.250000  0.427524  1
  Pa  Pa4  1  0.882570  0.503488  0.351938  1
  Pa  Pa5  1  0.617430  0.996512  0.851938  1
  Pa  Pa6  1  0.119496  0.004330  0.647487  1
  Pa  Pa7  1  0.380504  0.495670  0.147487  1
  Pa  Pa8  1  0.119496  0.495670  0.647487  1
  Pa  Pa9  1  0.380504  0.004330  0.147487  1
  Pa  Pa10  1  0.882570  0.996512  0.351938  1
  Pa  Pa11  1  0.617430  0.503488  0.851938  1
  Ga  Ga12  1  0.871986  0.053661  0.090079  1
  Ga  Ga13  1  0.628014  0.446339  0.590079  1
  Ga  Ga14  1  0.126198  0.549967  0.909319  1
  Ga  Ga15  1  0.373802  0.950033  0.409319  1
  Ga  Ga16  1  0.126198  0.950033  0.909319  1
  Ga  Ga17  1  0.373802  0.549967  0.409319  1
  Ga  Ga18  1  0.871986  0.446339  0.090079  1
  Ga  Ga19  1  0.628014  0.053661  0.590079  1
  Ga  Ga20  1  0.158742  0.750000  0.263334  1
  Ga  Ga21  1  0.341258  0.750000  0.763334  1
  Ga  Ga22  1  0.844233  0.250000  0.738005  1
  Ga  Ga23  1  0.655767  0.250000  0.238005  1
  Ga  Ga24  1  0.386117  0.750000  0.995099  1
  Ga  Ga25  1  0.113883  0.750000  0.495099  1
  Ga  Ga26  1  0.607100  0.250000  0.004588  1
  Ga  Ga27  1  0.892900  0.250000  0.504588  1
  Ga  Ga28  1  0.596525  0.750000  0.293059  1
  Ga  Ga29  1  0.903475  0.750000  0.793059  1
  Ga  Ga30  1  0.403981  0.250000  0.708460  1
  Ga  Ga31  1  0.096019  0.250000  0.208460  1
