# generated using pymatgen
data_Dy5Tm11Cd4NiRu3
_symmetry_space_group_name_H-M   'P 1'
_cell_length_a   9.51124144
_cell_length_b   9.56364133
_cell_length_c   9.56364080
_cell_angle_alpha   59.59475442
_cell_angle_beta   59.40251477
_cell_angle_gamma   59.40252078
_symmetry_Int_Tables_number   1
_chemical_formula_structural   Dy5Tm11Cd4NiRu3
_chemical_formula_sum   'Dy5 Tm11 Cd4 Ni1 Ru3'
_cell_volume   607.66426203
_cell_formula_units_Z   1
loop_
 _symmetry_equiv_pos_site_id
 _symmetry_equiv_pos_as_xyz
  1  'x, y, z'
loop_
 _atom_site_type_symbol
 _atom_site_label
 _atom_site_symmetry_multiplicity
 _atom_site_fract_x
 _atom_site_fract_y
 _atom_site_fract_z
 _atom_site_occupancy
  Dy  Dy0  1  0.807886  0.188083  0.188083  1
  Dy  Dy1  1  0.807962  0.187890  0.815689  1
  Dy  Dy2  1  0.190812  0.808407  0.190049  1
  Dy  Dy3  1  0.807962  0.815689  0.187890  1
  Dy  Dy4  1  0.190812  0.190049  0.808407  1
  Tm  Tm5  1  0.600497  0.596081  0.596081  1
  Tm  Tm6  1  0.601074  0.595835  0.210369  1
  Tm  Tm7  1  0.601074  0.210369  0.595835  1
  Tm  Tm8  1  0.209585  0.597202  0.597202  1
  Tm  Tm9  1  0.061428  0.437081  0.437081  1
  Tm  Tm10  1  0.434109  0.062278  0.062278  1
  Tm  Tm11  1  0.436642  0.061239  0.438588  1
  Tm  Tm12  1  0.060664  0.438883  0.061221  1
  Tm  Tm13  1  0.436642  0.438588  0.061239  1
  Tm  Tm14  1  0.060664  0.061221  0.438883  1
  Tm  Tm15  1  0.190154  0.809129  0.809129  1
  Cd  Cd16  1  0.829661  0.830559  0.830559  1
  Cd  Cd17  1  0.829407  0.830741  0.508292  1
  Cd  Cd18  1  0.829407  0.508292  0.830741  1
  Cd  Cd19  1  0.506771  0.830632  0.830632  1
  Ni  Ni20  1  0.828117  0.392103  0.392103  1
  Ru  Ru21  1  0.392383  0.389760  0.389760  1
  Ru  Ru22  1  0.393141  0.392328  0.827560  1
  Ru  Ru23  1  0.393141  0.827560  0.392328  1
