# generated using pymatgen
data_Li6Si6Ni11Os
_symmetry_space_group_name_H-M   'P 1'
_cell_length_a   3.89623902
_cell_length_b   5.63215000
_cell_length_c   11.70585304
_cell_angle_alpha   89.99934697
_cell_angle_beta   90.00996296
_cell_angle_gamma   89.99857299
_symmetry_Int_Tables_number   1
_chemical_formula_structural   Li6Si6Ni11Os
_chemical_formula_sum   'Li6 Si6 Ni11 Os1'
_cell_volume   256.87560649
_cell_formula_units_Z   1
loop_
 _symmetry_equiv_pos_site_id
 _symmetry_equiv_pos_as_xyz
  1  'x, y, z'
loop_
 _atom_site_type_symbol
 _atom_site_label
 _atom_site_symmetry_multiplicity
 _atom_site_fract_x
 _atom_site_fract_y
 _atom_site_fract_z
 _atom_site_occupancy
  Li  Li0  1  0.999997  0.518219  0.000010  1
  Li  Li1  1  0.500106  0.992839  0.172699  1
  Li  Li2  1  0.000097  0.499023  0.334165  1
  Li  Li3  1  0.500000  0.000906  0.500003  1
  Li  Li4  1  0.999919  0.498955  0.665803  1
  Li  Li5  1  0.499896  0.992813  0.827285  1
  Si  Si6  1  0.999977  0.997960  0.999999  1
  Si  Si7  1  0.500075  0.500488  0.168256  1
  Si  Si8  1  0.000093  0.999271  0.335216  1
  Si  Si9  1  0.499996  0.500255  0.499996  1
  Si  Si10  1  0.999912  0.999263  0.664783  1
  Si  Si11  1  0.499926  0.500507  0.831741  1
  Ni  Ni12  1  0.500016  0.753686  0.000005  1
  Ni  Ni13  1  0.000070  0.250320  0.170220  1
  Ni  Ni14  1  0.000088  0.749633  0.170111  1
  Ni  Ni15  1  0.500109  0.249783  0.334274  1
  Ni  Ni16  1  0.500120  0.748268  0.334732  1
  Ni  Ni17  1  0.999994  0.250965  0.499994  1
  Ni  Ni18  1  0.000001  0.748920  0.500012  1
  Ni  Ni19  1  0.499877  0.249755  0.665734  1
  Ni  Ni20  1  0.499896  0.748235  0.665260  1
  Ni  Ni21  1  0.999899  0.250327  0.829775  1
  Ni  Ni22  1  0.999900  0.749592  0.829917  1
  Os  Os23  1  0.500033  0.250013  0.000008  1
