# generated using pymatgen
data_Ba2Tl3SnPt4
_symmetry_space_group_name_H-M   'P 1'
_cell_length_a   4.95815002
_cell_length_b   4.74680600
_cell_length_c   10.74444400
_cell_angle_alpha   90.00000000
_cell_angle_beta   92.58003994
_cell_angle_gamma   90.00000000
_symmetry_Int_Tables_number   1
_chemical_formula_structural   Ba2Tl3SnPt4
_chemical_formula_sum   'Ba2 Tl3 Sn1 Pt4'
_cell_volume   252.61819626
_cell_formula_units_Z   1
loop_
 _symmetry_equiv_pos_site_id
 _symmetry_equiv_pos_as_xyz
  1  'x, y, z'
loop_
 _atom_site_type_symbol
 _atom_site_label
 _atom_site_symmetry_multiplicity
 _atom_site_fract_x
 _atom_site_fract_y
 _atom_site_fract_z
 _atom_site_occupancy
  Ba  Ba0  1  0.728181  0.750000  0.241379  1
  Ba  Ba1  1  0.264657  0.250001  0.756225  1
  Tl  Tl2  1  0.192405  0.250001  0.112568  1
  Tl  Tl3  1  0.746359  0.250001  0.500177  1
  Tl  Tl4  1  0.252678  0.750000  0.504778  1
  Sn  Sn5  1  0.812934  0.750000  0.891868  1
  Pt  Pt6  1  0.323802  0.750000  0.989261  1
  Pt  Pt7  1  0.232929  0.250001  0.366631  1
  Pt  Pt8  1  0.766887  0.750000  0.645083  1
  Pt  Pt9  1  0.679168  0.250001  0.992034  1
