# generated using pymatgen
data_Li2TaNi9P7W2
_symmetry_space_group_name_H-M   'P 1'
_cell_length_a   9.16109000
_cell_length_b   9.15393456
_cell_length_c   3.62773100
_cell_angle_alpha   90.00000000
_cell_angle_beta   90.00000000
_cell_angle_gamma   120.07963295
_symmetry_Int_Tables_number   1
_chemical_formula_structural   Li2TaNi9P7W2
_chemical_formula_sum   'Li2 Ta1 Ni9 P7 W2'
_cell_volume   263.25195721
_cell_formula_units_Z   1
loop_
 _symmetry_equiv_pos_site_id
 _symmetry_equiv_pos_as_xyz
  1  'x, y, z'
loop_
 _atom_site_type_symbol
 _atom_site_label
 _atom_site_symmetry_multiplicity
 _atom_site_fract_x
 _atom_site_fract_y
 _atom_site_fract_z
 _atom_site_occupancy
  Li  Li0  1  0.332950  0.666699  0.000000  1
  Li  Li1  1  0.667585  0.333822  0.500000  1
  Ta  Ta2  1  0.875146  0.773989  0.500000  1
  Ni  Ni3  1  0.711556  0.874965  0.000000  1
  Ni  Ni4  1  0.162273  0.286675  0.000000  1
  Ni  Ni5  1  0.126479  0.840217  0.000000  1
  Ni  Ni6  1  0.626944  0.562782  0.000000  1
  Ni  Ni7  1  0.936042  0.370582  0.000000  1
  Ni  Ni8  1  0.436925  0.065312  0.000000  1
  Ni  Ni9  1  0.556580  0.944221  0.500000  1
  Ni  Ni10  1  0.385019  0.441935  0.500000  1
  Ni  Ni11  1  0.058360  0.613260  0.500000  1
  P  P12  1  0.577524  0.707515  0.500000  1
  P  P13  1  0.125398  0.415974  0.500000  1
  P  P14  1  0.290812  0.875285  0.500000  1
  P  P15  1  0.001420  0.002772  0.000000  1
  P  P16  1  0.880645  0.578905  0.000000  1
  P  P17  1  0.702297  0.119764  0.000000  1
  P  P18  1  0.418671  0.298613  0.000000  1
  W  W19  1  0.900743  0.124998  0.500000  1
  W  W20  1  0.226629  0.101717  0.500000  1
