# generated using pymatgen
data_Dy4Y12TlIn3Rh4
_symmetry_space_group_name_H-M   'P 1'
_cell_length_a   9.69616527
_cell_length_b   9.69616473
_cell_length_c   9.69004153
_cell_angle_alpha   59.96018023
_cell_angle_beta   59.96018095
_cell_angle_gamma   60.04166727
_symmetry_Int_Tables_number   1
_chemical_formula_structural   Dy4Y12TlIn3Rh4
_chemical_formula_sum   'Dy4 Y12 Tl1 In3 Rh4'
_cell_volume   643.99929420
_cell_formula_units_Z   1
loop_
 _symmetry_equiv_pos_site_id
 _symmetry_equiv_pos_as_xyz
  1  'x, y, z'
loop_
 _atom_site_type_symbol
 _atom_site_label
 _atom_site_symmetry_multiplicity
 _atom_site_fract_x
 _atom_site_fract_y
 _atom_site_fract_z
 _atom_site_occupancy
  Dy  Dy0  1  0.148703  0.549877  0.148098  1
  Dy  Dy1  1  0.311193  0.689579  0.688912  1
  Dy  Dy2  1  0.689579  0.311193  0.688912  1
  Dy  Dy3  1  0.549877  0.148703  0.148098  1
  Y  Y4  1  0.689919  0.311097  0.309896  1
  Y  Y5  1  0.689567  0.689567  0.310070  1
  Y  Y6  1  0.311097  0.689919  0.309896  1
  Y  Y7  1  0.937502  0.937502  0.562372  1
  Y  Y8  1  0.147421  0.147421  0.553329  1
  Y  Y9  1  0.559890  0.938037  0.560702  1
  Y  Y10  1  0.152171  0.152171  0.151103  1
  Y  Y11  1  0.310483  0.310483  0.689827  1
  Y  Y12  1  0.938037  0.559890  0.560702  1
  Y  Y13  1  0.560098  0.560098  0.938165  1
  Y  Y14  1  0.562140  0.937530  0.937162  1
  Y  Y15  1  0.937530  0.562140  0.937162  1
  Tl  Tl16  1  0.916323  0.916323  0.253784  1
  In  In17  1  0.250069  0.917772  0.917267  1
  In  In18  1  0.917772  0.250069  0.917267  1
  In  In19  1  0.916578  0.916578  0.916324  1
  Rh  Rh20  1  0.357207  0.357207  0.354810  1
  Rh  Rh21  1  0.927007  0.359066  0.359960  1
  Rh  Rh22  1  0.360769  0.360769  0.926224  1
  Rh  Rh23  1  0.359066  0.927007  0.359960  1
