# generated using pymatgen
data_ThPd2Pt2Au
_symmetry_space_group_name_H-M   'P 1'
_cell_length_a   5.42551714
_cell_length_b   5.40465825
_cell_length_c   5.40465852
_cell_angle_alpha   59.71678307
_cell_angle_beta   59.87225456
_cell_angle_gamma   59.87225857
_symmetry_Int_Tables_number   1
_chemical_formula_structural   ThPd2Pt2Au
_chemical_formula_sum   'Th1 Pd2 Pt2 Au1'
_cell_volume   111.60580137
_cell_formula_units_Z   1
loop_
 _symmetry_equiv_pos_site_id
 _symmetry_equiv_pos_as_xyz
  1  'x, y, z'
loop_
 _atom_site_type_symbol
 _atom_site_label
 _atom_site_symmetry_multiplicity
 _atom_site_fract_x
 _atom_site_fract_y
 _atom_site_fract_z
 _atom_site_occupancy
  Th  Th0  1  0.001443  0.998557  0.998557  1
  Pd  Pd1  1  0.624072  0.624766  0.127088  1
  Pd  Pd2  1  0.624072  0.127088  0.624766  1
  Pt  Pt3  1  0.125985  0.624988  0.624988  1
  Pt  Pt4  1  0.624039  0.624988  0.624988  1
  Au  Au5  1  0.250388  0.249612  0.249612  1
