# generated using pymatgen
data_GdHo3(Al8Pt3)3
_symmetry_space_group_name_H-M   'P 1'
_cell_length_a   7.51975735
_cell_length_b   7.53945424
_cell_length_c   13.14586100
_cell_angle_alpha   84.56814771
_cell_angle_beta   79.10043334
_cell_angle_gamma   59.97873001
_symmetry_Int_Tables_number   1
_chemical_formula_structural   GdHo3(Al8Pt3)3
_chemical_formula_sum   'Gd1 Ho3 Al24 Pt9'
_cell_volume   633.67145097
_cell_formula_units_Z   1
loop_
 _symmetry_equiv_pos_site_id
 _symmetry_equiv_pos_as_xyz
  1  'x, y, z'
loop_
 _atom_site_type_symbol
 _atom_site_label
 _atom_site_symmetry_multiplicity
 _atom_site_fract_x
 _atom_site_fract_y
 _atom_site_fract_z
 _atom_site_occupancy
  Gd  Gd0  1  0.266120  0.501423  0.192225  1
  Ho  Ho1  1  0.393418  0.168458  0.807745  1
  Ho  Ho2  1  0.606600  0.831465  0.192207  1
  Ho  Ho3  1  0.734144  0.498486  0.807465  1
  Al  Al4  1  0.684352  0.833704  0.944318  1
  Al  Al5  1  0.315753  0.165901  0.055413  1
  Al  Al6  1  0.146767  0.832478  0.561408  1
  Al  Al7  1  0.853214  0.167579  0.438656  1
  Al  Al8  1  0.479736  0.166796  0.558749  1
  Al  Al9  1  0.520304  0.833158  0.441285  1
  Al  Al10  1  0.217204  0.164895  0.330083  1
  Al  Al11  1  0.782685  0.834738  0.670202  1
  Al  Al12  1  0.437858  0.506113  0.670248  1
  Al  Al13  1  0.562447  0.493906  0.330021  1
  Al  Al14  1  0.109613  0.160108  0.669412  1
  Al  Al15  1  0.889877  0.840290  0.330886  1
  Al  Al16  1  0.353375  0.499029  0.944270  1
  Al  Al17  1  0.647133  0.501000  0.055306  1
  Al  Al18  1  0.015173  0.167904  0.952848  1
  Al  Al19  1  0.984550  0.832448  0.046854  1
  Al  Al20  1  0.186644  0.499028  0.441402  1
  Al  Al21  1  0.813243  0.501001  0.558761  1
  Al  Al22  1  0.734904  0.163349  0.183352  1
  Al  Al23  1  0.265763  0.836163  0.816585  1
  Al  Al24  1  0.061714  0.631328  0.815370  1
  Al  Al25  1  0.937732  0.368567  0.184585  1
  Al  Al26  1  0.854967  0.041761  0.815978  1
  Al  Al27  1  0.144918  0.958944  0.183994  1
  Pt  Pt28  1  0.120057  0.491682  0.638899  1
  Pt  Pt29  1  0.879223  0.508219  0.361480  1
  Pt  Pt30  1  0.657248  0.171244  0.999721  1
  Pt  Pt31  1  0.343059  0.828738  0.999809  1
  Pt  Pt32  1  0.538205  0.166095  0.361480  1
  Pt  Pt33  1  0.462314  0.833355  0.638891  1
  Pt  Pt34  1  0.778581  0.175375  0.637325  1
  Pt  Pt35  1  0.221181  0.825313  0.363050  1
  Pt  Pt36  1  0.999926  0.499964  0.999719  1
