# generated using pymatgen
data_Li2Co2Ni7Mo3P7
_symmetry_space_group_name_H-M   'P 1'
_cell_length_a   9.11146624
_cell_length_b   9.09487017
_cell_length_c   3.64004400
_cell_angle_alpha   90.00000000
_cell_angle_beta   90.00000000
_cell_angle_gamma   120.12032564
_symmetry_Int_Tables_number   1
_chemical_formula_structural   Li2Co2Ni7Mo3P7
_chemical_formula_sum   'Li2 Co2 Ni7 Mo3 P7'
_cell_volume   260.91208018
_cell_formula_units_Z   1
loop_
 _symmetry_equiv_pos_site_id
 _symmetry_equiv_pos_as_xyz
  1  'x, y, z'
loop_
 _atom_site_type_symbol
 _atom_site_label
 _atom_site_symmetry_multiplicity
 _atom_site_fract_x
 _atom_site_fract_y
 _atom_site_fract_z
 _atom_site_occupancy
  Li  Li0  1  0.333536  0.665921  0.000000  1
  Li  Li1  1  0.666875  0.333524  0.500000  1
  Co  Co2  1  0.713085  0.876483  0.000000  1
  Co  Co3  1  0.162818  0.286758  0.000000  1
  Ni  Ni4  1  0.123870  0.835967  0.000000  1
  Ni  Ni5  1  0.625444  0.563605  0.000000  1
  Ni  Ni6  1  0.937774  0.373571  0.000000  1
  Ni  Ni7  1  0.436870  0.061812  0.000000  1
  Ni  Ni8  1  0.556780  0.946685  0.500000  1
  Ni  Ni9  1  0.390266  0.444321  0.500000  1
  Ni  Ni10  1  0.055026  0.610685  0.500000  1
  Mo  Mo11  1  0.875978  0.778111  0.500000  1
  Mo  Mo12  1  0.901590  0.124376  0.500000  1
  Mo  Mo13  1  0.222109  0.097837  0.500000  1
  P  P14  1  0.587003  0.714153  0.500000  1
  P  P15  1  0.127699  0.413957  0.500000  1
  P  P16  1  0.288813  0.873509  0.500000  1
  P  P17  1  0.997853  0.002238  0.000000  1
  P  P18  1  0.878579  0.581199  0.000000  1
  P  P19  1  0.703002  0.118267  0.000000  1
  P  P20  1  0.415032  0.297023  0.000000  1
