# generated using pymatgen
data_Ac3(Al5Hg)2
_symmetry_space_group_name_H-M   'P 1'
_cell_length_a   9.08830690
_cell_length_b   9.08830583
_cell_length_c   9.08830608
_cell_angle_alpha   150.73092044
_cell_angle_beta   104.38320688
_cell_angle_gamma   83.06522724
_symmetry_Int_Tables_number   1
_chemical_formula_structural   Ac3(Al5Hg)2
_chemical_formula_sum   'Ac3 Al10 Hg2'
_cell_volume   348.13422875
_cell_formula_units_Z   1
loop_
 _symmetry_equiv_pos_site_id
 _symmetry_equiv_pos_as_xyz
  1  'x, y, z'
loop_
 _atom_site_type_symbol
 _atom_site_label
 _atom_site_symmetry_multiplicity
 _atom_site_fract_x
 _atom_site_fract_y
 _atom_site_fract_z
 _atom_site_occupancy
  Ac  Ac0  1  0.000432  0.000000  0.000432  1
  Ac  Ac1  1  0.331177  0.330300  0.000877  1
  Ac  Ac2  1  0.670576  0.669700  0.000877  1
  Al  Al3  1  0.242495  0.500000  0.742495  1
  Al  Al4  1  0.759155  0.500000  0.259155  1
  Al  Al5  1  0.581722  0.827368  0.754354  1
  Al  Al6  1  0.926986  0.172632  0.754354  1
  Al  Al7  1  0.286090  0.667398  0.618691  1
  Al  Al8  1  0.951293  0.332602  0.618691  1
  Al  Al9  1  0.050199  0.667726  0.382473  1
  Al  Al10  1  0.714745  0.332274  0.382473  1
  Al  Al11  1  0.074901  0.827924  0.246978  1
  Al  Al12  1  0.419054  0.172076  0.246978  1
  Hg  Hg13  1  0.628742  0.000000  0.628742  1
  Hg  Hg14  1  0.373434  0.000000  0.373434  1
