# generated using pymatgen
data_Ac5Nd2Eu13Pb16
_symmetry_space_group_name_H-M   'P 1'
_cell_length_a   8.58736650
_cell_length_b   8.67794931
_cell_length_c   16.42889200
_cell_angle_alpha   89.96880339
_cell_angle_beta   90.43850813
_cell_angle_gamma   89.75418488
_symmetry_Int_Tables_number   1
_chemical_formula_structural   Ac5Nd2Eu13Pb16
_chemical_formula_sum   'Ac5 Nd2 Eu13 Pb16'
_cell_volume   1224.24571746
_cell_formula_units_Z   1
loop_
 _symmetry_equiv_pos_site_id
 _symmetry_equiv_pos_as_xyz
  1  'x, y, z'
loop_
 _atom_site_type_symbol
 _atom_site_label
 _atom_site_symmetry_multiplicity
 _atom_site_fract_x
 _atom_site_fract_y
 _atom_site_fract_z
 _atom_site_occupancy
  Ac  Ac0  1  0.998128  0.815319  0.905344  1
  Ac  Ac1  1  0.500800  0.321039  0.090335  1
  Ac  Ac2  1  0.001626  0.179123  0.410129  1
  Ac  Ac3  1  0.499719  0.319265  0.410895  1
  Ac  Ac4  1  0.998729  0.183539  0.091937  1
  Nd  Nd5  1  0.500014  0.689062  0.900166  1
  Nd  Nd6  1  0.996352  0.810664  0.598468  1
  Eu  Eu7  1  0.656459  0.167464  0.625525  1
  Eu  Eu8  1  0.159654  0.332392  0.874219  1
  Eu  Eu9  1  0.344063  0.831649  0.123471  1
  Eu  Eu10  1  0.844679  0.669005  0.376061  1
  Eu  Eu11  1  0.345227  0.832103  0.379000  1
  Eu  Eu12  1  0.840049  0.665806  0.122981  1
  Eu  Eu13  1  0.660816  0.165575  0.871156  1
  Eu  Eu14  1  0.160606  0.336569  0.627738  1
  Eu  Eu15  1  0.493870  0.685492  0.596853  1
  Eu  Eu16  1  0.829207  0.491890  0.748538  1
  Eu  Eu17  1  0.331125  0.006655  0.748977  1
  Eu  Eu18  1  0.170790  0.510073  0.250980  1
  Eu  Eu19  1  0.671165  0.990111  0.249870  1
  Pb  Pb20  1  0.680709  0.960823  0.462920  1
  Pb  Pb21  1  0.176375  0.539281  0.038073  1
  Pb  Pb22  1  0.330887  0.030909  0.956044  1
  Pb  Pb23  1  0.824071  0.472155  0.542578  1
  Pb  Pb24  1  0.315891  0.032177  0.544284  1
  Pb  Pb25  1  0.817761  0.464813  0.955878  1
  Pb  Pb26  1  0.671246  0.957976  0.036115  1
  Pb  Pb27  1  0.171970  0.542565  0.464168  1
  Pb  Pb28  1  0.461196  0.403451  0.752709  1
  Pb  Pb29  1  0.961740  0.095722  0.746231  1
  Pb  Pb30  1  0.541213  0.603469  0.251106  1
  Pb  Pb31  1  0.042803  0.896066  0.248432  1
  Pb  Pb32  1  0.698122  0.848798  0.748296  1
  Pb  Pb33  1  0.199141  0.649959  0.750509  1
  Pb  Pb34  1  0.302414  0.145992  0.250175  1
  Pb  Pb35  1  0.801380  0.353048  0.249842  1
