# generated using pymatgen
data_Tb4Ga18IrPt2Rh3
_symmetry_space_group_name_H-M   'P 1'
_cell_length_a   7.63343002
_cell_length_b   7.63343328
_cell_length_c   9.51066400
_cell_angle_alpha   90.00079174
_cell_angle_beta   90.00089610
_cell_angle_gamma   119.91254312
_symmetry_Int_Tables_number   1
_chemical_formula_structural   Tb4Ga18IrPt2Rh3
_chemical_formula_sum   'Tb4 Ga18 Ir1 Pt2 Rh3'
_cell_volume   480.35594620
_cell_formula_units_Z   1
loop_
 _symmetry_equiv_pos_site_id
 _symmetry_equiv_pos_as_xyz
  1  'x, y, z'
loop_
 _atom_site_type_symbol
 _atom_site_label
 _atom_site_symmetry_multiplicity
 _atom_site_fract_x
 _atom_site_fract_y
 _atom_site_fract_z
 _atom_site_occupancy
  Tb  Tb0  1  0.996318  0.670652  0.249888  1
  Tb  Tb1  1  0.003245  0.329067  0.749985  1
  Tb  Tb2  1  0.670933  0.996756  0.250013  1
  Tb  Tb3  1  0.329348  0.003680  0.750114  1
  Ga  Ga4  1  0.133181  0.133196  0.249944  1
  Ga  Ga5  1  0.866804  0.866819  0.750056  1
  Ga  Ga6  1  0.998764  0.338339  0.080642  1
  Ga  Ga7  1  0.001558  0.661605  0.919429  1
  Ga  Ga8  1  0.002191  0.662219  0.580848  1
  Ga  Ga9  1  0.337781  0.997810  0.419152  1
  Ga  Ga10  1  0.999767  0.338661  0.419079  1
  Ga  Ga11  1  0.661339  0.000233  0.580921  1
  Ga  Ga12  1  0.661661  0.001236  0.919358  1
  Ga  Ga13  1  0.338394  0.998442  0.080572  1
  Ga  Ga14  1  0.336155  0.336778  0.567212  1
  Ga  Ga15  1  0.663222  0.663846  0.432788  1
  Ga  Ga16  1  0.663154  0.663172  0.067086  1
  Ga  Ga17  1  0.336828  0.336846  0.932914  1
  Ga  Ga18  1  0.336810  0.547925  0.249925  1
  Ga  Ga19  1  0.663097  0.453031  0.750799  1
  Ga  Ga20  1  0.546969  0.336902  0.249201  1
  Ga  Ga21  1  0.452075  0.663190  0.750075  1
  Ir  Ir22  1  0.671242  0.328759  0.500001  1
  Pt  Pt23  1  0.000121  0.999880  0.000000  1
  Pt  Pt24  1  0.999863  0.000137  0.500000  1
  Rh  Rh25  1  0.670975  0.329026  0.000001  1
  Rh  Rh26  1  0.329205  0.670789  0.999999  1
  Rh  Rh27  1  0.329002  0.671002  0.499999  1
