# generated using pymatgen
data_Ce2DyHo13(MgCo)4
_symmetry_space_group_name_H-M   'P 1'
_cell_length_a   9.40979768
_cell_length_b   9.60451708
_cell_length_c   9.60451695
_cell_angle_alpha   58.45471704
_cell_angle_beta   60.68029209
_cell_angle_gamma   60.68028503
_symmetry_Int_Tables_number   1
_chemical_formula_structural   Ce2DyHo13(MgCo)4
_chemical_formula_sum   'Ce2 Dy1 Ho13 Mg4 Co4'
_cell_volume   612.31935209
_cell_formula_units_Z   1
loop_
 _symmetry_equiv_pos_site_id
 _symmetry_equiv_pos_as_xyz
  1  'x, y, z'
loop_
 _atom_site_type_symbol
 _atom_site_label
 _atom_site_symmetry_multiplicity
 _atom_site_fract_x
 _atom_site_fract_y
 _atom_site_fract_z
 _atom_site_occupancy
  Ce  Ce0  1  0.817570  0.182997  0.182997  1
  Ce  Ce1  1  0.184368  0.817704  0.817704  1
  Dy  Dy2  1  0.968868  0.350991  0.350991  1
  Ho  Ho3  1  0.186269  0.811084  0.189790  1
  Ho  Ho4  1  0.810555  0.187452  0.811811  1
  Ho  Ho5  1  0.186269  0.189790  0.811084  1
  Ho  Ho6  1  0.810555  0.811811  0.187452  1
  Ho  Ho7  1  0.921654  0.577920  0.577920  1
  Ho  Ho8  1  0.574446  0.924310  0.924310  1
  Ho  Ho9  1  0.557993  0.942505  0.559165  1
  Ho  Ho10  1  0.943025  0.559036  0.941383  1
  Ho  Ho11  1  0.557993  0.559165  0.942505  1
  Ho  Ho12  1  0.943025  0.941383  0.559036  1
  Ho  Ho13  1  0.330598  0.348406  0.348406  1
  Ho  Ho14  1  0.350436  0.332040  0.969611  1
  Ho  Ho15  1  0.350436  0.969611  0.332040  1
  Mg  Mg16  1  0.582857  0.576560  0.576560  1
  Mg  Mg17  1  0.577881  0.581574  0.260297  1
  Mg  Mg18  1  0.577881  0.260297  0.581574  1
  Mg  Mg19  1  0.263031  0.576598  0.576598  1
  Co  Co20  1  0.093893  0.156861  0.156861  1
  Co  Co21  1  0.156196  0.092565  0.594369  1
  Co  Co22  1  0.156196  0.594369  0.092565  1
  Co  Co23  1  0.598004  0.154973  0.154973  1
