# generated using pymatgen
data_CoBi3(Rh2O7)2
_symmetry_space_group_name_H-M   'P 1'
_cell_length_a   7.32509221
_cell_length_b   7.15325045
_cell_length_c   7.32509300
_cell_angle_alpha   59.20209672
_cell_angle_beta   60.00000095
_cell_angle_gamma   59.20209639
_symmetry_Int_Tables_number   1
_chemical_formula_structural   CoBi3(Rh2O7)2
_chemical_formula_sum   'Co1 Bi3 Rh4 O14'
_cell_volume   268.08362454
_cell_formula_units_Z   1
loop_
 _symmetry_equiv_pos_site_id
 _symmetry_equiv_pos_as_xyz
  1  'x, y, z'
loop_
 _atom_site_type_symbol
 _atom_site_label
 _atom_site_symmetry_multiplicity
 _atom_site_fract_x
 _atom_site_fract_y
 _atom_site_fract_z
 _atom_site_occupancy
  Co  Co0  1  0.125000  0.625000  0.125000  1
  Bi  Bi1  1  0.125000  0.125000  0.125000  1
  Bi  Bi2  1  0.625000  0.125000  0.125000  1
  Bi  Bi3  1  0.125000  0.125000  0.625000  1
  Rh  Rh4  1  0.625000  0.625000  0.625000  1
  Rh  Rh5  1  0.625000  0.625000  0.125000  1
  Rh  Rh6  1  0.125000  0.625000  0.625000  1
  Rh  Rh7  1  0.625000  0.125000  0.625000  1
  O  O8  1  0.240193  0.279422  0.240193  1
  O  O9  1  0.291370  0.705431  0.291370  1
  O  O10  1  0.958539  0.962557  0.539452  1
  O  O11  1  0.539452  0.962557  0.539452  1
  O  O12  1  0.711829  0.705431  0.291370  1
  O  O13  1  0.958630  0.544569  0.538171  1
  O  O14  1  0.710548  0.287443  0.710548  1
  O  O15  1  0.291461  0.287443  0.710548  1
  O  O16  1  0.710548  0.287443  0.291461  1
  O  O17  1  0.291370  0.705431  0.711829  1
  O  O18  1  0.958630  0.544569  0.958630  1
  O  O19  1  0.538171  0.544569  0.958630  1
  O  O20  1  0.009807  0.970578  0.009807  1
  O  O21  1  0.539452  0.962557  0.958539  1
