# generated using pymatgen
data_Pd4I3Br5
_symmetry_space_group_name_H-M   'P 1'
_cell_length_a   8.66219941
_cell_length_b   6.82347012
_cell_length_c   6.80394352
_cell_angle_alpha   75.73778032
_cell_angle_beta   89.71658320
_cell_angle_gamma   88.98384588
_symmetry_Int_Tables_number   1
_chemical_formula_structural   Pd4I3Br5
_chemical_formula_sum   'Pd4 I3 Br5'
_cell_volume   389.69919684
_cell_formula_units_Z   1
loop_
 _symmetry_equiv_pos_site_id
 _symmetry_equiv_pos_as_xyz
  1  'x, y, z'
loop_
 _atom_site_type_symbol
 _atom_site_label
 _atom_site_symmetry_multiplicity
 _atom_site_fract_x
 _atom_site_fract_y
 _atom_site_fract_z
 _atom_site_occupancy
  Pd  Pd0  1  0.368225  0.223385  0.004221  1
  Pd  Pd1  1  0.865180  0.772699  0.498494  1
  Pd  Pd2  1  0.634442  0.777726  0.999893  1
  Pd  Pd3  1  0.135512  0.226399  0.503146  1
  I  I4  1  0.920709  0.014700  0.730389  1
  I  I5  1  0.420237  0.986103  0.764885  1
  I  I6  1  0.077593  0.984544  0.269556  1
  Br  Br7  1  0.573707  0.013181  0.218513  1
  Br  Br8  1  0.675970  0.572142  0.748185  1
  Br  Br9  1  0.179264  0.429997  0.760938  1
  Br  Br10  1  0.324130  0.432463  0.255433  1
  Br  Br11  1  0.825032  0.566661  0.246346  1
