# generated using pymatgen
data_Tb3CuBiAuO10
_symmetry_space_group_name_H-M   'P 1'
_cell_length_a   8.41458633
_cell_length_b   8.41458558
_cell_length_c   5.74454821
_cell_angle_alpha   88.77292389
_cell_angle_beta   91.22707008
_cell_angle_gamma   89.74182525
_symmetry_Int_Tables_number   1
_chemical_formula_structural   Tb3CuBiAuO10
_chemical_formula_sum   'Tb6 Cu2 Bi2 Au2 O20'
_cell_volume   406.55266583
_cell_formula_units_Z   2
loop_
 _symmetry_equiv_pos_site_id
 _symmetry_equiv_pos_as_xyz
  1  'x, y, z'
loop_
 _atom_site_type_symbol
 _atom_site_label
 _atom_site_symmetry_multiplicity
 _atom_site_fract_x
 _atom_site_fract_y
 _atom_site_fract_z
 _atom_site_occupancy
  Tb  Tb0  1  0.355316  0.660515  0.247910  1
  Tb  Tb1  1  0.839485  0.144684  0.747910  1
  Tb  Tb2  1  0.646797  0.659766  0.750253  1
  Tb  Tb3  1  0.650667  0.346295  0.252333  1
  Tb  Tb4  1  0.840234  0.853203  0.250253  1
  Tb  Tb5  1  0.153705  0.849333  0.752333  1
  Cu  Cu6  1  0.495147  0.998876  0.405737  1
  Cu  Cu7  1  0.501124  0.004853  0.905737  1
  Bi  Bi8  1  0.362577  0.348873  0.746925  1
  Bi  Bi9  1  0.151127  0.137423  0.246925  1
  Au  Au10  1  0.998621  0.495100  0.095065  1
  Au  Au11  1  0.004900  0.501379  0.595065  1
  O  O12  1  0.115318  0.289019  0.600433  1
  O  O13  1  0.905851  0.276808  0.115499  1
  O  O14  1  0.904285  0.719643  0.610395  1
  O  O15  1  0.704053  0.919588  0.894890  1
  O  O16  1  0.223192  0.594149  0.615499  1
  O  O17  1  0.415763  0.803809  0.897414  1
  O  O18  1  0.404839  0.198941  0.398788  1
  O  O19  1  0.780357  0.595715  0.110395  1
  O  O20  1  0.291984  0.918442  0.387621  1
  O  O21  1  0.581558  0.208016  0.887621  1
  O  O22  1  0.490185  0.497630  0.991892  1
  O  O23  1  0.497954  0.491323  0.499981  1
  O  O24  1  0.787598  0.402327  0.604862  1
  O  O25  1  0.097673  0.712402  0.104862  1
  O  O26  1  0.301059  0.095161  0.898788  1
  O  O27  1  0.580412  0.795947  0.394890  1
  O  O28  1  0.210981  0.384682  0.100433  1
  O  O29  1  0.008677  0.002046  0.999981  1
  O  O30  1  0.002370  0.009815  0.491892  1
  O  O31  1  0.696191  0.084237  0.397414  1
