# generated using pymatgen
data_Sr3AgRhO6
_symmetry_space_group_name_H-M   'P 1'
_cell_length_a   6.84516789
_cell_length_b   6.84516810
_cell_length_c   6.85888194
_cell_angle_alpha   90.57970669
_cell_angle_beta   90.57970267
_cell_angle_gamma   89.51885205
_symmetry_Int_Tables_number   1
_chemical_formula_structural   Sr3AgRhO6
_chemical_formula_sum   'Sr6 Ag2 Rh2 O12'
_cell_volume   321.33804349
_cell_formula_units_Z   2
loop_
 _symmetry_equiv_pos_site_id
 _symmetry_equiv_pos_as_xyz
  1  'x, y, z'
loop_
 _atom_site_type_symbol
 _atom_site_label
 _atom_site_symmetry_multiplicity
 _atom_site_fract_x
 _atom_site_fract_y
 _atom_site_fract_z
 _atom_site_occupancy
  Sr  Sr0  1  0.109405  0.890595  0.750000  1
  Sr  Sr1  1  0.890595  0.109405  0.250000  1
  Sr  Sr2  1  0.750385  0.609920  0.109051  1
  Sr  Sr3  1  0.390080  0.249615  0.390949  1
  Sr  Sr4  1  0.249615  0.390080  0.890949  1
  Sr  Sr5  1  0.609920  0.750385  0.609051  1
  Ag  Ag6  1  0.748397  0.251603  0.750000  1
  Ag  Ag7  1  0.251603  0.748397  0.250000  1
  Rh  Rh8  1  0.000000  0.500000  0.500000  1
  Rh  Rh9  1  0.500000  0.000000  0.000000  1
  O  O10  1  0.279441  0.574191  0.560179  1
  O  O11  1  0.425809  0.720559  0.939821  1
  O  O12  1  0.720559  0.425809  0.439821  1
  O  O13  1  0.574191  0.279441  0.060179  1
  O  O14  1  0.055562  0.220777  0.577654  1
  O  O15  1  0.779223  0.944438  0.922346  1
  O  O16  1  0.944438  0.779223  0.422346  1
  O  O17  1  0.220777  0.055562  0.077654  1
  O  O18  1  0.077560  0.440034  0.221356  1
  O  O19  1  0.559966  0.922440  0.278644  1
  O  O20  1  0.440034  0.077560  0.721356  1
  O  O21  1  0.922440  0.559966  0.778644  1
