# generated using pymatgen
data_Ho2Ga9FePd2
_symmetry_space_group_name_H-M   'P 1'
_cell_length_a   7.58026790
_cell_length_b   7.58026631
_cell_length_c   9.47818000
_cell_angle_alpha   90.00000000
_cell_angle_beta   90.00000000
_cell_angle_gamma   119.89043417
_symmetry_Int_Tables_number   1
_chemical_formula_structural   Ho2Ga9FePd2
_chemical_formula_sum   'Ho4 Ga18 Fe2 Pd4'
_cell_volume   472.17504485
_cell_formula_units_Z   2
loop_
 _symmetry_equiv_pos_site_id
 _symmetry_equiv_pos_as_xyz
  1  'x, y, z'
loop_
 _atom_site_type_symbol
 _atom_site_label
 _atom_site_symmetry_multiplicity
 _atom_site_fract_x
 _atom_site_fract_y
 _atom_site_fract_z
 _atom_site_occupancy
  Ho  Ho0  1  0.996941  0.658983  0.250000  1
  Ho  Ho1  1  0.003059  0.341017  0.750000  1
  Ho  Ho2  1  0.658983  0.996941  0.250000  1
  Ho  Ho3  1  0.341017  0.003059  0.750000  1
  Ga  Ga4  1  0.103075  0.103075  0.250000  1
  Ga  Ga5  1  0.896925  0.896925  0.750000  1
  Ga  Ga6  1  0.999198  0.321068  0.078628  1
  Ga  Ga7  1  0.000802  0.678932  0.921372  1
  Ga  Ga8  1  0.000802  0.678932  0.578628  1
  Ga  Ga9  1  0.321068  0.999198  0.421372  1
  Ga  Ga10  1  0.999198  0.321068  0.421372  1
  Ga  Ga11  1  0.678932  0.000802  0.578628  1
  Ga  Ga12  1  0.678932  0.000802  0.921372  1
  Ga  Ga13  1  0.321068  0.999198  0.078628  1
  Ga  Ga14  1  0.317828  0.317828  0.565063  1
  Ga  Ga15  1  0.682172  0.682173  0.434937  1
  Ga  Ga16  1  0.682172  0.682173  0.065063  1
  Ga  Ga17  1  0.317828  0.317828  0.934937  1
  Ga  Ga18  1  0.341120  0.540213  0.250000  1
  Ga  Ga19  1  0.658880  0.459787  0.750000  1
  Ga  Ga20  1  0.540213  0.341120  0.250000  1
  Ga  Ga21  1  0.459787  0.658880  0.750000  1
  Fe  Fe22  1  0.000000  0.000000  0.000000  1
  Fe  Fe23  1  0.000000  0.000000  0.500000  1
  Pd  Pd24  1  0.671365  0.328635  0.000000  1
  Pd  Pd25  1  0.328635  0.671365  0.000000  1
  Pd  Pd26  1  0.328635  0.671365  0.500000  1
  Pd  Pd27  1  0.671365  0.328635  0.500000  1
