# generated using pymatgen
data_Y3Lu7GaSb5
_symmetry_space_group_name_H-M   'P 1'
_cell_length_a   6.26876000
_cell_length_b   8.80800751
_cell_length_c   8.78110600
_cell_angle_alpha   119.79373798
_cell_angle_beta   90.00008226
_cell_angle_gamma   89.99988107
_symmetry_Int_Tables_number   1
_chemical_formula_structural   Y3Lu7GaSb5
_chemical_formula_sum   'Y3 Lu7 Ga1 Sb5'
_cell_volume   420.76351634
_cell_formula_units_Z   1
loop_
 _symmetry_equiv_pos_site_id
 _symmetry_equiv_pos_as_xyz
  1  'x, y, z'
loop_
 _atom_site_type_symbol
 _atom_site_label
 _atom_site_symmetry_multiplicity
 _atom_site_fract_x
 _atom_site_fract_y
 _atom_site_fract_z
 _atom_site_occupancy
  Y  Y0  1  0.749991  0.988565  0.233325  1
  Y  Y1  1  0.250007  0.246829  0.243915  1
  Y  Y2  1  0.249998  0.001854  0.758841  1
  Lu  Lu3  1  0.502355  0.338288  0.673505  1
  Lu  Lu4  1  0.502419  0.666114  0.325785  1
  Lu  Lu5  1  0.997623  0.666111  0.325810  1
  Lu  Lu6  1  0.997609  0.338317  0.673553  1
  Lu  Lu7  1  0.750005  0.249406  0.999706  1
  Lu  Lu8  1  0.750000  0.751611  0.765858  1
  Lu  Lu9  1  0.249997  0.755701  0.999383  1
  Ga  Ga10  1  0.749994  0.601031  0.998057  1
  Sb  Sb11  1  0.750014  0.391782  0.390803  1
  Sb  Sb12  1  0.749986  0.997285  0.610160  1
  Sb  Sb13  1  0.250016  0.396961  0.000694  1
  Sb  Sb14  1  0.250003  0.608427  0.607923  1
  Sb  Sb15  1  0.249983  0.001720  0.392685  1
