# generated using pymatgen
data_YBiPd2O7
_symmetry_space_group_name_H-M   'P 1'
_cell_length_a   7.34632715
_cell_length_b   7.34632787
_cell_length_c   7.34632812
_cell_angle_alpha   120.24994168
_cell_angle_beta   119.89905222
_cell_angle_gamma   89.87128317
_symmetry_Int_Tables_number   1
_chemical_formula_structural   YBiPd2O7
_chemical_formula_sum   'Y2 Bi2 Pd4 O14'
_cell_volume   280.02725996
_cell_formula_units_Z   2
loop_
 _symmetry_equiv_pos_site_id
 _symmetry_equiv_pos_as_xyz
  1  'x, y, z'
loop_
 _atom_site_type_symbol
 _atom_site_label
 _atom_site_symmetry_multiplicity
 _atom_site_fract_x
 _atom_site_fract_y
 _atom_site_fract_z
 _atom_site_occupancy
  Y  Y0  1  0.000000  0.500000  0.500000  1
  Y  Y1  1  0.500000  0.500000  0.000000  1
  Bi  Bi2  1  0.000000  0.500000  0.000000  1
  Bi  Bi3  1  0.000000  0.000000  0.500000  1
  Pd  Pd4  1  0.500000  0.000000  0.000000  1
  Pd  Pd5  1  0.500000  0.500000  0.500000  1
  Pd  Pd6  1  0.500000  0.000000  0.500000  1
  Pd  Pd7  1  0.000000  0.000000  0.000000  1
  O  O8  1  0.866062  0.616062  0.250000  1
  O  O9  1  0.133938  0.383938  0.750000  1
  O  O10  1  0.833681  0.083681  0.750000  1
  O  O11  1  0.412138  0.662138  0.750000  1
  O  O12  1  0.835593  0.663066  0.743975  1
  O  O13  1  0.419091  0.091619  0.756025  1
  O  O14  1  0.835593  0.091619  0.172528  1
  O  O15  1  0.419091  0.663066  0.327472  1
  O  O16  1  0.166319  0.916319  0.250000  1
  O  O17  1  0.587862  0.337862  0.250000  1
  O  O18  1  0.164407  0.336934  0.256025  1
  O  O19  1  0.580909  0.908381  0.243975  1
  O  O20  1  0.164407  0.908381  0.827472  1
  O  O21  1  0.580909  0.336934  0.672528  1
