# generated using pymatgen
data_LiDy3Si2Ag2Hg
_symmetry_space_group_name_H-M   'P 1'
_cell_length_a   7.28371548
_cell_length_b   7.28371617
_cell_length_c   4.19143800
_cell_angle_alpha   90.00000000
_cell_angle_beta   90.00000000
_cell_angle_gamma   120.91752585
_symmetry_Int_Tables_number   1
_chemical_formula_structural   LiDy3Si2Ag2Hg
_chemical_formula_sum   'Li1 Dy3 Si2 Ag2 Hg1'
_cell_volume   190.76980692
_cell_formula_units_Z   1
loop_
 _symmetry_equiv_pos_site_id
 _symmetry_equiv_pos_as_xyz
  1  'x, y, z'
loop_
 _atom_site_type_symbol
 _atom_site_label
 _atom_site_symmetry_multiplicity
 _atom_site_fract_x
 _atom_site_fract_y
 _atom_site_fract_z
 _atom_site_occupancy
  Li  Li0  1  0.748906  0.748906  0.000000  1
  Dy  Dy1  1  0.420078  0.420078  0.500000  1
  Dy  Dy2  1  0.576156  0.000800  0.500000  1
  Dy  Dy3  1  0.000800  0.576156  0.500000  1
  Si  Si4  1  0.666235  0.339759  0.000000  1
  Si  Si5  1  0.339759  0.666235  0.000000  1
  Ag  Ag6  1  0.266979  0.998311  0.000000  1
  Ag  Ag7  1  0.998311  0.266979  0.000000  1
  Hg  Hg8  1  0.982776  0.982776  0.500000  1
