# generated using pymatgen
data_Tb11Cd9PdPt3
_symmetry_space_group_name_H-M   'P 1'
_cell_length_a   13.20868014
_cell_length_b   13.20702010
_cell_length_c   3.72130900
_cell_angle_alpha   90.00000000
_cell_angle_beta   90.00000000
_cell_angle_gamma   112.45037967
_symmetry_Int_Tables_number   1
_chemical_formula_structural   Tb11Cd9PdPt3
_chemical_formula_sum   'Tb11 Cd9 Pd1 Pt3'
_cell_volume   599.97194490
_cell_formula_units_Z   1
loop_
 _symmetry_equiv_pos_site_id
 _symmetry_equiv_pos_as_xyz
  1  'x, y, z'
loop_
 _atom_site_type_symbol
 _atom_site_label
 _atom_site_symmetry_multiplicity
 _atom_site_fract_x
 _atom_site_fract_y
 _atom_site_fract_z
 _atom_site_occupancy
  Tb  Tb0  1  0.415907  0.076339  0.000000  1
  Tb  Tb1  1  0.584197  0.923617  0.000000  1
  Tb  Tb2  1  0.076593  0.416078  0.000000  1
  Tb  Tb3  1  0.924899  0.584275  0.000000  1
  Tb  Tb4  1  0.163304  0.837229  0.000000  1
  Tb  Tb5  1  0.836849  0.162215  0.000000  1
  Tb  Tb6  1  0.372679  0.627008  0.000000  1
  Tb  Tb7  1  0.625851  0.370928  0.000000  1
  Tb  Tb8  1  0.308308  0.308475  0.000000  1
  Tb  Tb9  1  0.690689  0.693138  0.000000  1
  Tb  Tb10  1  0.000134  0.000623  0.000000  1
  Cd  Cd11  1  0.365478  0.842461  0.500000  1
  Cd  Cd12  1  0.634560  0.157234  0.500000  1
  Cd  Cd13  1  0.842469  0.366396  0.500000  1
  Cd  Cd14  1  0.157263  0.634444  0.500000  1
  Cd  Cd15  1  0.213123  0.068242  0.500000  1
  Cd  Cd16  1  0.786658  0.931580  0.500000  1
  Cd  Cd17  1  0.068256  0.213232  0.500000  1
  Cd  Cd18  1  0.931014  0.785851  0.500000  1
  Cd  Cd19  1  0.500576  0.500209  0.500000  1
  Pd  Pd20  1  0.750925  0.549114  0.500000  1
  Pt  Pt21  1  0.451481  0.249380  0.500000  1
  Pt  Pt22  1  0.549992  0.751197  0.500000  1
  Pt  Pt23  1  0.248796  0.450735  0.500000  1
