# generated using pymatgen
data_Tb12TcPdRh2
_symmetry_space_group_name_H-M   'P 1'
_cell_length_a   6.30858005
_cell_length_b   7.27401895
_cell_length_c   9.53083300
_cell_angle_alpha   90.00000000
_cell_angle_beta   90.00000000
_cell_angle_gamma   90.13906742
_symmetry_Int_Tables_number   1
_chemical_formula_structural   Tb12TcPdRh2
_chemical_formula_sum   'Tb12 Tc1 Pd1 Rh2'
_cell_volume   437.35654195
_cell_formula_units_Z   1
loop_
 _symmetry_equiv_pos_site_id
 _symmetry_equiv_pos_as_xyz
  1  'x, y, z'
loop_
 _atom_site_type_symbol
 _atom_site_label
 _atom_site_symmetry_multiplicity
 _atom_site_fract_x
 _atom_site_fract_y
 _atom_site_fract_z
 _atom_site_occupancy
  Tb  Tb0  1  0.334034  0.673528  0.062602  1
  Tb  Tb1  1  0.173774  0.182313  0.439721  1
  Tb  Tb2  1  0.666986  0.322047  0.560631  1
  Tb  Tb3  1  0.830486  0.822347  0.934299  1
  Tb  Tb4  1  0.666986  0.322047  0.939369  1
  Tb  Tb5  1  0.830486  0.822347  0.565701  1
  Tb  Tb6  1  0.334034  0.673528  0.437398  1
  Tb  Tb7  1  0.173774  0.182313  0.060279  1
  Tb  Tb8  1  0.864360  0.526014  0.250000  1
  Tb  Tb9  1  0.628345  0.037038  0.250000  1
  Tb  Tb10  1  0.135340  0.464938  0.750000  1
  Tb  Tb11  1  0.361628  0.965060  0.750000  1
  Tc  Tc12  1  0.441041  0.383907  0.250000  1
  Pd  Pd13  1  0.059782  0.885411  0.250000  1
  Rh  Rh14  1  0.941523  0.118074  0.750000  1
  Rh  Rh15  1  0.557424  0.619087  0.750000  1
