# generated using pymatgen
data_Y8Co3Si12Rh
_symmetry_space_group_name_H-M   'P 1'
_cell_length_a   8.05524200
_cell_length_b   8.05524182
_cell_length_c   8.01372700
_cell_angle_alpha   90.00000000
_cell_angle_beta   90.00000000
_cell_angle_gamma   120.00000073
_symmetry_Int_Tables_number   1
_chemical_formula_structural   Y8Co3Si12Rh
_chemical_formula_sum   'Y8 Co3 Si12 Rh1'
_cell_volume   450.32115221
_cell_formula_units_Z   1
loop_
 _symmetry_equiv_pos_site_id
 _symmetry_equiv_pos_as_xyz
  1  'x, y, z'
loop_
 _atom_site_type_symbol
 _atom_site_label
 _atom_site_symmetry_multiplicity
 _atom_site_fract_x
 _atom_site_fract_y
 _atom_site_fract_z
 _atom_site_occupancy
  Y  Y0  1  0.000000  0.000000  0.248969  1
  Y  Y1  1  0.000000  0.000000  0.751302  1
  Y  Y2  1  0.012027  0.506013  0.248467  1
  Y  Y3  1  0.493987  0.506013  0.248467  1
  Y  Y4  1  0.503534  0.007070  0.750100  1
  Y  Y5  1  0.493987  0.987973  0.248467  1
  Y  Y6  1  0.503534  0.496466  0.750100  1
  Y  Y7  1  0.992930  0.496466  0.750100  1
  Co  Co8  1  0.333333  0.666667  0.973657  1
  Co  Co9  1  0.333333  0.666667  0.526857  1
  Co  Co10  1  0.666667  0.333333  0.027024  1
  Si  Si11  1  0.171423  0.342847  0.000135  1
  Si  Si12  1  0.657153  0.828577  0.000135  1
  Si  Si13  1  0.172162  0.344324  0.499134  1
  Si  Si14  1  0.344232  0.172116  0.999389  1
  Si  Si15  1  0.171423  0.828577  0.000135  1
  Si  Si16  1  0.655676  0.827838  0.499134  1
  Si  Si17  1  0.827884  0.655768  0.999389  1
  Si  Si18  1  0.332723  0.166362  0.502097  1
  Si  Si19  1  0.172162  0.827838  0.499134  1
  Si  Si20  1  0.833638  0.667277  0.502097  1
  Si  Si21  1  0.827884  0.172116  0.999389  1
  Si  Si22  1  0.833638  0.166362  0.502097  1
  Rh  Rh23  1  0.666667  0.333333  0.474224  1
