# generated using pymatgen
data_ZrSc5Ti16Ir7
_symmetry_space_group_name_H-M   'P 1'
_cell_length_a   9.00498185
_cell_length_b   8.99184862
_cell_length_c   8.99184860
_cell_angle_alpha   60.09665436
_cell_angle_beta   59.95167251
_cell_angle_gamma   59.95167544
_symmetry_Int_Tables_number   1
_chemical_formula_structural   ZrSc5Ti16Ir7
_chemical_formula_sum   'Zr1 Sc5 Ti16 Ir7'
_cell_volume   514.83014576
_cell_formula_units_Z   1
loop_
 _symmetry_equiv_pos_site_id
 _symmetry_equiv_pos_as_xyz
  1  'x, y, z'
loop_
 _atom_site_type_symbol
 _atom_site_label
 _atom_site_symmetry_multiplicity
 _atom_site_fract_x
 _atom_site_fract_y
 _atom_site_fract_z
 _atom_site_occupancy
  Zr  Zr0  1  0.305154  0.694846  0.694846  1
  Sc  Sc1  1  0.690848  0.694680  0.309152  1
  Sc  Sc2  1  0.305320  0.694680  0.309152  1
  Sc  Sc3  1  0.695286  0.304714  0.304714  1
  Sc  Sc4  1  0.305320  0.309152  0.694680  1
  Sc  Sc5  1  0.690848  0.309152  0.694680  1
  Ti  Ti6  1  0.881802  0.882539  0.353859  1
  Ti  Ti7  1  0.881802  0.353859  0.882539  1
  Ti  Ti8  1  0.354551  0.881141  0.881141  1
  Ti  Ti9  1  0.883169  0.881141  0.881141  1
  Ti  Ti10  1  0.118859  0.116831  0.645449  1
  Ti  Ti11  1  0.118859  0.645449  0.116831  1
  Ti  Ti12  1  0.646141  0.118198  0.118198  1
  Ti  Ti13  1  0.117461  0.118198  0.118198  1
  Ti  Ti14  1  0.670520  0.670312  0.988646  1
  Ti  Ti15  1  0.670520  0.988646  0.670312  1
  Ti  Ti16  1  0.989224  0.670130  0.670130  1
  Ti  Ti17  1  0.670514  0.670130  0.670130  1
  Ti  Ti18  1  0.329870  0.329486  0.010776  1
  Ti  Ti19  1  0.329870  0.010776  0.329486  1
  Ti  Ti20  1  0.011354  0.329480  0.329480  1
  Ti  Ti21  1  0.329688  0.329480  0.329480  1
  Ir  Ir22  1  0.000097  0.999903  0.999903  1
  Ir  Ir23  1  0.999623  0.000377  0.498460  1
  Ir  Ir24  1  0.501540  0.000377  0.498460  1
  Ir  Ir25  1  0.000300  0.499700  0.499700  1
  Ir  Ir26  1  0.501540  0.498460  0.000377  1
  Ir  Ir27  1  0.999623  0.498460  0.000377  1
  Ir  Ir28  1  0.500300  0.999700  0.999700  1
