# generated using pymatgen
data_YbPu(SeO4)2
_symmetry_space_group_name_H-M   'P 1'
_cell_length_a   5.46110528
_cell_length_b   6.53232189
_cell_length_c   10.79601000
_cell_angle_alpha   104.30066024
_cell_angle_beta   93.22343188
_cell_angle_gamma   110.55723861
_symmetry_Int_Tables_number   1
_chemical_formula_structural   YbPu(SeO4)2
_chemical_formula_sum   'Yb2 Pu2 Se4 O16'
_cell_volume   345.06949801
_cell_formula_units_Z   2
loop_
 _symmetry_equiv_pos_site_id
 _symmetry_equiv_pos_as_xyz
  1  'x, y, z'
loop_
 _atom_site_type_symbol
 _atom_site_label
 _atom_site_symmetry_multiplicity
 _atom_site_fract_x
 _atom_site_fract_y
 _atom_site_fract_z
 _atom_site_occupancy
  Yb  Yb0  1  0.660879  0.258297  0.443427  1
  Yb  Yb1  1  0.339120  0.741703  0.556573  1
  Pu  Pu2  1  0.162826  0.259424  0.172724  1
  Pu  Pu3  1  0.837175  0.740576  0.827277  1
  Se  Se4  1  0.321386  0.808964  0.126286  1
  Se  Se5  1  0.744958  0.710523  0.348760  1
  Se  Se6  1  0.255043  0.289477  0.651240  1
  Se  Se7  1  0.678616  0.191037  0.873714  1
  O  O8  1  0.117236  0.876323  0.027680  1
  O  O9  1  0.449355  0.355431  0.097591  1
  O  O10  1  0.097222  0.577514  0.161257  1
  O  O11  1  0.879865  0.167293  0.253380  1
  O  O12  1  0.331635  0.023318  0.260431  1
  O  O13  1  0.437183  0.490116  0.358502  1
  O  O14  1  0.938575  0.620809  0.431945  1
  O  O15  1  0.693133  0.920922  0.458249  1
  O  O16  1  0.306868  0.079079  0.541751  1
  O  O17  1  0.061426  0.379191  0.568055  1
  O  O18  1  0.562818  0.509883  0.641497  1
  O  O19  1  0.668366  0.976681  0.739569  1
  O  O20  1  0.120136  0.832707  0.746620  1
  O  O21  1  0.902779  0.422485  0.838743  1
  O  O22  1  0.550646  0.644569  0.902409  1
  O  O23  1  0.882763  0.123677  0.972320  1
