# generated using pymatgen
data_Nd5CoBiSb
_symmetry_space_group_name_H-M   'P 1'
_cell_length_a   8.28124280
_cell_length_b   9.08800535
_cell_length_c   12.69395568
_cell_angle_alpha   90.03187455
_cell_angle_beta   90.22373182
_cell_angle_gamma   89.99677027
_symmetry_Int_Tables_number   1
_chemical_formula_structural   Nd5CoBiSb
_chemical_formula_sum   'Nd20 Co4 Bi4 Sb4'
_cell_volume   955.33940298
_cell_formula_units_Z   4
loop_
 _symmetry_equiv_pos_site_id
 _symmetry_equiv_pos_as_xyz
  1  'x, y, z'
loop_
 _atom_site_type_symbol
 _atom_site_label
 _atom_site_symmetry_multiplicity
 _atom_site_fract_x
 _atom_site_fract_y
 _atom_site_fract_z
 _atom_site_occupancy
  Nd  Nd0  1  0.849746  0.744742  0.798750  1
  Nd  Nd1  1  0.154250  0.249629  0.200897  1
  Nd  Nd2  1  0.350825  0.255288  0.702524  1
  Nd  Nd3  1  0.645326  0.750432  0.296848  1
  Nd  Nd4  1  0.376556  0.744984  0.693575  1
  Nd  Nd5  1  0.618141  0.250046  0.305323  1
  Nd  Nd6  1  0.876746  0.255021  0.807015  1
  Nd  Nd7  1  0.128140  0.749901  0.191651  1
  Nd  Nd8  1  0.953686  0.748023  0.503924  1
  Nd  Nd9  1  0.047279  0.252122  0.498817  1
  Nd  Nd10  1  0.455320  0.251838  0.998573  1
  Nd  Nd11  1  0.543998  0.747911  0.003989  1
  Nd  Nd12  1  0.679143  0.033761  0.563095  1
  Nd  Nd13  1  0.320418  0.966504  0.434956  1
  Nd  Nd14  1  0.180728  0.966460  0.938357  1
  Nd  Nd15  1  0.321353  0.533573  0.435463  1
  Nd  Nd16  1  0.818132  0.033150  0.062993  1
  Nd  Nd17  1  0.680051  0.466473  0.565700  1
  Nd  Nd18  1  0.818837  0.466658  0.062289  1
  Nd  Nd19  1  0.181357  0.533305  0.935748  1
  Co  Co20  1  0.566832  0.749049  0.509065  1
  Co  Co21  1  0.432884  0.250372  0.491117  1
  Co  Co22  1  0.065853  0.250915  0.991271  1
  Co  Co23  1  0.934414  0.749767  0.009139  1
  Bi  Bi24  1  0.925652  0.494440  0.324705  1
  Bi  Bi25  1  0.573899  0.005337  0.825818  1
  Bi  Bi26  1  0.925838  0.005565  0.325745  1
  Bi  Bi27  1  0.074599  0.994557  0.675531  1
  Sb  Sb28  1  0.573103  0.494549  0.827760  1
  Sb  Sb29  1  0.426730  0.505426  0.173325  1
  Sb  Sb30  1  0.073473  0.505607  0.673676  1
  Sb  Sb31  1  0.426692  0.994600  0.172360  1
