# generated using pymatgen
data_Tb5Er3Au4
_symmetry_space_group_name_H-M   'P 1'
_cell_length_a   4.93965200
_cell_length_b   7.17823823
_cell_length_c   8.94819855
_cell_angle_alpha   90.14315743
_cell_angle_beta   90.00000000
_cell_angle_gamma   90.00000000
_symmetry_Int_Tables_number   1
_chemical_formula_structural   Tb5Er3Au4
_chemical_formula_sum   'Tb5 Er3 Au4'
_cell_volume   317.28422308
_cell_formula_units_Z   1
loop_
 _symmetry_equiv_pos_site_id
 _symmetry_equiv_pos_as_xyz
  1  'x, y, z'
loop_
 _atom_site_type_symbol
 _atom_site_label
 _atom_site_symmetry_multiplicity
 _atom_site_fract_x
 _atom_site_fract_y
 _atom_site_fract_z
 _atom_site_occupancy
  Tb  Tb0  1  0.750000  0.648331  0.419099  1
  Tb  Tb1  1  0.250000  0.484356  0.176632  1
  Tb  Tb2  1  0.250000  0.987396  0.323552  1
  Tb  Tb3  1  0.750000  0.514804  0.823149  1
  Tb  Tb4  1  0.750000  0.015466  0.677769  1
  Er  Er5  1  0.250000  0.851987  0.921289  1
  Er  Er6  1  0.250000  0.352259  0.580839  1
  Er  Er7  1  0.750000  0.148511  0.078469  1
  Au  Au8  1  0.250000  0.252253  0.899701  1
  Au  Au9  1  0.250000  0.753587  0.603397  1
  Au  Au10  1  0.750000  0.747891  0.096433  1
  Au  Au11  1  0.750000  0.243160  0.399670  1
