# generated using pymatgen
data_Nd5YAl24(Os3Ru)2
_symmetry_space_group_name_H-M   'P 1'
_cell_length_a   8.87166900
_cell_length_b   8.89424678
_cell_length_c   9.68632600
_cell_angle_alpha   90.00000000
_cell_angle_beta   90.00000000
_cell_angle_gamma   119.91606725
_symmetry_Int_Tables_number   1
_chemical_formula_structural   Nd5YAl24(Os3Ru)2
_chemical_formula_sum   'Nd5 Y1 Al24 Os6 Ru2'
_cell_volume   662.47715634
_cell_formula_units_Z   1
loop_
 _symmetry_equiv_pos_site_id
 _symmetry_equiv_pos_as_xyz
  1  'x, y, z'
loop_
 _atom_site_type_symbol
 _atom_site_label
 _atom_site_symmetry_multiplicity
 _atom_site_fract_x
 _atom_site_fract_y
 _atom_site_fract_z
 _atom_site_occupancy
  Nd  Nd0  1  0.807181  0.614364  0.750000  1
  Nd  Nd1  1  0.615961  0.808686  0.250000  1
  Nd  Nd2  1  0.384065  0.191098  0.750000  1
  Nd  Nd3  1  0.192727  0.808686  0.250000  1
  Nd  Nd4  1  0.807031  0.191098  0.750000  1
  Y  Y5  1  0.194075  0.388147  0.250000  1
  Al  Al6  1  0.333143  0.666287  0.013122  1
  Al  Al7  1  0.666534  0.333067  0.989909  1
  Al  Al8  1  0.666534  0.333067  0.510091  1
  Al  Al9  1  0.333143  0.666287  0.486878  1
  Al  Al10  1  0.163382  0.326765  0.572203  1
  Al  Al11  1  0.836472  0.672944  0.424480  1
  Al  Al12  1  0.672607  0.836341  0.573219  1
  Al  Al13  1  0.836472  0.672944  0.075520  1
  Al  Al14  1  0.325998  0.164129  0.425135  1
  Al  Al15  1  0.163382  0.326765  0.927797  1
  Al  Al16  1  0.163733  0.836341  0.573219  1
  Al  Al17  1  0.325998  0.164129  0.074865  1
  Al  Al18  1  0.838132  0.164129  0.425135  1
  Al  Al19  1  0.672607  0.836341  0.926781  1
  Al  Al20  1  0.838132  0.164129  0.074865  1
  Al  Al21  1  0.163733  0.836341  0.926781  1
  Al  Al22  1  0.562773  0.125545  0.250000  1
  Al  Al23  1  0.437206  0.874413  0.750000  1
  Al  Al24  1  0.877867  0.437474  0.250000  1
  Al  Al25  1  0.124461  0.561619  0.750000  1
  Al  Al26  1  0.559608  0.437474  0.250000  1
  Al  Al27  1  0.437156  0.561619  0.750000  1
  Al  Al28  1  0.002329  0.004658  0.250000  1
  Al  Al29  1  0.999447  0.998894  0.750000  1
  Os  Os30  1  0.499912  0.999824  0.000249  1
  Os  Os31  1  0.000784  0.499303  0.001223  1
  Os  Os32  1  0.499912  0.999824  0.499751  1
  Os  Os33  1  0.498519  0.499303  0.001223  1
  Os  Os34  1  0.000784  0.499303  0.498777  1
  Os  Os35  1  0.498519  0.499303  0.498777  1
  Ru  Ru36  1  0.999840  0.999680  0.000276  1
  Ru  Ru37  1  0.999840  0.999680  0.499724  1
