# generated using pymatgen
data_Dy4Y12MgCo4Hg3
_symmetry_space_group_name_H-M   'P 1'
_cell_length_a   9.51108738
_cell_length_b   9.50741483
_cell_length_c   9.50741500
_cell_angle_alpha   60.00000288
_cell_angle_beta   60.01277525
_cell_angle_gamma   60.01276685
_symmetry_Int_Tables_number   1
_chemical_formula_structural   Dy4Y12MgCo4Hg3
_chemical_formula_sum   'Dy4 Y12 Mg1 Co4 Hg3'
_cell_volume   608.02842777
_cell_formula_units_Z   1
loop_
 _symmetry_equiv_pos_site_id
 _symmetry_equiv_pos_as_xyz
  1  'x, y, z'
loop_
 _atom_site_type_symbol
 _atom_site_label
 _atom_site_symmetry_multiplicity
 _atom_site_fract_x
 _atom_site_fract_y
 _atom_site_fract_z
 _atom_site_occupancy
  Dy  Dy0  1  0.347171  0.345308  0.345308  1
  Dy  Dy1  1  0.347171  0.345308  0.962212  1
  Dy  Dy2  1  0.347171  0.962212  0.345308  1
  Dy  Dy3  1  0.953227  0.348924  0.348924  1
  Y  Y4  1  0.809726  0.189685  0.189685  1
  Y  Y5  1  0.185896  0.813299  0.813299  1
  Y  Y6  1  0.185896  0.813299  0.187508  1
  Y  Y7  1  0.809726  0.189685  0.810905  1
  Y  Y8  1  0.185896  0.187508  0.813299  1
  Y  Y9  1  0.809726  0.810905  0.189685  1
  Y  Y10  1  0.936965  0.562233  0.562233  1
  Y  Y11  1  0.561585  0.937735  0.937735  1
  Y  Y12  1  0.561585  0.937735  0.562946  1
  Y  Y13  1  0.936965  0.562233  0.938567  1
  Y  Y14  1  0.561585  0.562946  0.937735  1
  Y  Y15  1  0.936965  0.938567  0.562233  1
  Mg  Mg16  1  0.286216  0.571262  0.571262  1
  Co  Co17  1  0.139386  0.142956  0.142956  1
  Co  Co18  1  0.139386  0.142956  0.574702  1
  Co  Co19  1  0.139386  0.574702  0.142956  1
  Co  Co20  1  0.573934  0.142022  0.142022  1
  Hg  Hg21  1  0.581479  0.585170  0.585170  1
  Hg  Hg22  1  0.581479  0.585170  0.248181  1
  Hg  Hg23  1  0.581479  0.248181  0.585170  1
