# generated using pymatgen
data_Y3CdIn2
_symmetry_space_group_name_H-M   'P 1'
_cell_length_a   5.31270900
_cell_length_b   5.31270842
_cell_length_c   6.55053600
_cell_angle_alpha   90.00000000
_cell_angle_beta   90.00000000
_cell_angle_gamma   120.00000983
_symmetry_Int_Tables_number   1
_chemical_formula_structural   Y3CdIn2
_chemical_formula_sum   'Y3 Cd1 In2'
_cell_volume   160.11773421
_cell_formula_units_Z   1
loop_
 _symmetry_equiv_pos_site_id
 _symmetry_equiv_pos_as_xyz
  1  'x, y, z'
loop_
 _atom_site_type_symbol
 _atom_site_label
 _atom_site_symmetry_multiplicity
 _atom_site_fract_x
 _atom_site_fract_y
 _atom_site_fract_z
 _atom_site_occupancy
  Y  Y0  1  0.000000  0.000000  0.500000  1
  Y  Y1  1  0.333333  0.666667  0.827592  1
  Y  Y2  1  0.666667  0.333333  0.172408  1
  Cd  Cd3  1  0.000000  0.000000  0.000000  1
  In  In4  1  0.333333  0.666667  0.320427  1
  In  In5  1  0.666667  0.333333  0.679573  1
