# generated using pymatgen
data_Lu3MgAs6Ru7
_symmetry_space_group_name_H-M   'P 1'
_cell_length_a   7.10330679
_cell_length_b   7.10330623
_cell_length_c   7.22360600
_cell_angle_alpha   109.81465880
_cell_angle_beta   109.81465717
_cell_angle_gamma   109.12560897
_symmetry_Int_Tables_number   1
_chemical_formula_structural   Lu3MgAs6Ru7
_chemical_formula_sum   'Lu3 Mg1 As6 Ru7'
_cell_volume   279.37976701
_cell_formula_units_Z   1
loop_
 _symmetry_equiv_pos_site_id
 _symmetry_equiv_pos_as_xyz
  1  'x, y, z'
loop_
 _atom_site_type_symbol
 _atom_site_label
 _atom_site_symmetry_multiplicity
 _atom_site_fract_x
 _atom_site_fract_y
 _atom_site_fract_z
 _atom_site_occupancy
  Lu  Lu0  1  0.000000  0.500000  0.000000  1
  Lu  Lu1  1  0.500000  0.000000  0.000000  1
  Lu  Lu2  1  0.500000  0.500000  0.500000  1
  Mg  Mg3  1  0.000000  0.000000  0.500000  1
  As  As4  1  0.689878  0.689878  0.004111  1
  As  As5  1  0.310122  0.000000  0.314233  1
  As  As6  1  0.000000  0.310122  0.314233  1
  As  As7  1  0.310122  0.310122  0.995889  1
  As  As8  1  0.689878  0.000000  0.685767  1
  As  As9  1  0.000000  0.689878  0.685767  1
  Ru  Ru10  1  0.753522  0.246478  0.500000  1
  Ru  Ru11  1  0.753522  0.507043  0.253522  1
  Ru  Ru12  1  0.492957  0.246478  0.746478  1
  Ru  Ru13  1  0.246478  0.492957  0.746478  1
  Ru  Ru14  1  0.246478  0.753522  0.500000  1
  Ru  Ru15  1  0.507043  0.753522  0.253522  1
  Ru  Ru16  1  0.000000  0.000000  0.000000  1
