# generated using pymatgen
data_Li4La4Sn3Sb
_symmetry_space_group_name_H-M   'P 1'
_cell_length_a   9.67170300
_cell_length_b   9.67409680
_cell_length_c   7.84790170
_cell_angle_alpha   90.04195117
_cell_angle_beta   89.99996076
_cell_angle_gamma   119.99265955
_symmetry_Int_Tables_number   1
_chemical_formula_structural   Li4La4Sn3Sb
_chemical_formula_sum   'Li8 La8 Sn6 Sb2'
_cell_volume   635.95960390
_cell_formula_units_Z   2
loop_
 _symmetry_equiv_pos_site_id
 _symmetry_equiv_pos_as_xyz
  1  'x, y, z'
loop_
 _atom_site_type_symbol
 _atom_site_label
 _atom_site_symmetry_multiplicity
 _atom_site_fract_x
 _atom_site_fract_y
 _atom_site_fract_z
 _atom_site_occupancy
  Li  Li0  1  0.166638  0.333277  0.214236  1
  Li  Li1  1  0.167172  0.833766  0.213359  1
  Li  Li2  1  0.666604  0.833771  0.213359  1
  Li  Li3  1  0.666514  0.333027  0.326011  1
  Li  Li4  1  0.833096  0.666207  0.714758  1
  Li  Li5  1  0.333754  0.166768  0.714012  1
  Li  Li6  1  0.833004  0.166767  0.714019  1
  Li  Li7  1  0.333257  0.666521  0.826295  1
  La  La8  1  0.000985  0.001966  0.999299  1
  La  La9  1  0.511853  0.023702  0.004265  1
  La  La10  1  0.509986  0.487574  0.003829  1
  La  La11  1  0.977582  0.487578  0.003841  1
  La  La12  1  0.000867  0.001734  0.502096  1
  La  La13  1  0.490346  0.980699  0.507165  1
  La  La14  1  0.019976  0.507879  0.508385  1
  La  La15  1  0.487908  0.507875  0.508374  1
  Sn  Sn16  1  0.334021  0.167549  0.269143  1
  Sn  Sn17  1  0.833527  0.167548  0.269144  1
  Sn  Sn18  1  0.667111  0.334223  0.736476  1
  Sn  Sn19  1  0.167118  0.334210  0.767900  1
  Sn  Sn20  1  0.166556  0.832433  0.768498  1
  Sn  Sn21  1  0.665882  0.832443  0.768476  1
  Sb  Sb22  1  0.333103  0.666207  0.237874  1
  Sb  Sb23  1  0.833137  0.666274  0.267167  1
