# generated using pymatgen
data_KEuTlB2Pt7
_symmetry_space_group_name_H-M   'P 1'
_cell_length_a   8.42893754
_cell_length_b   8.42893741
_cell_length_c   8.42893685
_cell_angle_alpha   39.08942588
_cell_angle_beta   39.08943990
_cell_angle_gamma   39.08943351
_symmetry_Int_Tables_number   1
_chemical_formula_structural   KEuTlB2Pt7
_chemical_formula_sum   'K1 Eu1 Tl1 B2 Pt7'
_cell_volume   214.15042021
_cell_formula_units_Z   1
loop_
 _symmetry_equiv_pos_site_id
 _symmetry_equiv_pos_as_xyz
  1  'x, y, z'
loop_
 _atom_site_type_symbol
 _atom_site_label
 _atom_site_symmetry_multiplicity
 _atom_site_fract_x
 _atom_site_fract_y
 _atom_site_fract_z
 _atom_site_occupancy
  K  K0  1  0.853978  0.853978  0.853978  1
  Eu  Eu1  1  0.003196  0.003196  0.003196  1
  Tl  Tl2  1  0.150721  0.150721  0.150721  1
  B  B3  1  0.667227  0.667227  0.667227  1
  B  B4  1  0.330669  0.330669  0.330669  1
  Pt  Pt5  1  0.437715  0.930392  0.437715  1
  Pt  Pt6  1  0.437715  0.437715  0.930392  1
  Pt  Pt7  1  0.930392  0.437715  0.437715  1
  Pt  Pt8  1  0.560313  0.068839  0.560313  1
  Pt  Pt9  1  0.560313  0.560313  0.068839  1
  Pt  Pt10  1  0.068839  0.560313  0.560313  1
  Pt  Pt11  1  0.498919  0.498919  0.498919  1
