# generated using pymatgen
data_Hf8Ta10NbSi16Mo
_symmetry_space_group_name_H-M   'P 1'
_cell_length_a   6.68735210
_cell_length_b   6.88027876
_cell_length_c   13.11099500
_cell_angle_alpha   90.00008328
_cell_angle_beta   90.00980154
_cell_angle_gamma   89.97298545
_symmetry_Int_Tables_number   1
_chemical_formula_structural   Hf8Ta10NbSi16Mo
_chemical_formula_sum   'Hf8 Ta10 Nb1 Si16 Mo1'
_cell_volume   603.24790425
_cell_formula_units_Z   1
loop_
 _symmetry_equiv_pos_site_id
 _symmetry_equiv_pos_as_xyz
  1  'x, y, z'
loop_
 _atom_site_type_symbol
 _atom_site_label
 _atom_site_symmetry_multiplicity
 _atom_site_fract_x
 _atom_site_fract_y
 _atom_site_fract_z
 _atom_site_occupancy
  Hf  Hf0  1  0.495010  0.327068  0.092669  1
  Hf  Hf1  1  0.997402  0.171535  0.407283  1
  Hf  Hf2  1  0.502702  0.672649  0.593448  1
  Hf  Hf3  1  0.003761  0.826876  0.906517  1
  Hf  Hf4  1  0.503237  0.672095  0.906766  1
  Hf  Hf5  1  0.003469  0.826704  0.593467  1
  Hf  Hf6  1  0.495023  0.327211  0.407194  1
  Hf  Hf7  1  0.996986  0.171576  0.092148  1
  Ta  Ta8  1  0.333694  0.170648  0.876615  1
  Ta  Ta9  1  0.166744  0.670577  0.124048  1
  Ta  Ta10  1  0.665870  0.831349  0.375978  1
  Ta  Ta11  1  0.166931  0.670686  0.375943  1
  Ta  Ta12  1  0.665881  0.831412  0.124087  1
  Ta  Ta13  1  0.834957  0.329453  0.877540  1
  Ta  Ta14  1  0.333880  0.170567  0.623549  1
  Ta  Ta15  1  0.660078  0.002589  0.750327  1
  Ta  Ta16  1  0.161147  0.496462  0.750325  1
  Ta  Ta17  1  0.339904  0.998675  0.249957  1
  Nb  Nb18  1  0.834683  0.329850  0.622168  1
  Si  Si19  1  0.670444  0.035687  0.539472  1
  Si  Si20  1  0.171135  0.464273  0.961350  1
  Si  Si21  1  0.329053  0.963972  0.039316  1
  Si  Si22  1  0.828684  0.536045  0.458485  1
  Si  Si23  1  0.329037  0.963922  0.460778  1
  Si  Si24  1  0.828363  0.536231  0.041209  1
  Si  Si25  1  0.670973  0.035645  0.960726  1
  Si  Si26  1  0.171504  0.464022  0.538621  1
  Si  Si27  1  0.536484  0.386737  0.750031  1
  Si  Si28  1  0.034689  0.113085  0.749820  1
  Si  Si29  1  0.469064  0.610659  0.249998  1
  Si  Si30  1  0.963760  0.886376  0.249982  1
  Si  Si31  1  0.794605  0.638683  0.750167  1
  Si  Si32  1  0.294539  0.861031  0.750130  1
  Si  Si33  1  0.200932  0.362221  0.249907  1
  Si  Si34  1  0.706360  0.143945  0.249995  1
  Mo  Mo35  1  0.839014  0.499484  0.249986  1
