# generated using pymatgen
data_Ce(HoCo)5
_symmetry_space_group_name_H-M   'P 1'
_cell_length_a   5.69795100
_cell_length_b   5.69795088
_cell_length_c   20.91874100
_cell_angle_alpha   90.00000000
_cell_angle_beta   90.00000000
_cell_angle_gamma   139.83719717
_symmetry_Int_Tables_number   1
_chemical_formula_structural   Ce(HoCo)5
_chemical_formula_sum   'Ce2 Ho10 Co10'
_cell_volume   438.03303965
_cell_formula_units_Z   2
loop_
 _symmetry_equiv_pos_site_id
 _symmetry_equiv_pos_as_xyz
  1  'x, y, z'
loop_
 _atom_site_type_symbol
 _atom_site_label
 _atom_site_symmetry_multiplicity
 _atom_site_fract_x
 _atom_site_fract_y
 _atom_site_fract_z
 _atom_site_occupancy
  Ce  Ce0  1  0.000000  0.000000  0.500000  1
  Ce  Ce1  1  0.000000  0.000000  0.000000  1
  Ho  Ho2  1  0.283268  0.716732  0.250000  1
  Ho  Ho3  1  0.282333  0.717667  0.074495  1
  Ho  Ho4  1  0.997186  0.002814  0.836273  1
  Ho  Ho5  1  0.716732  0.283268  0.750000  1
  Ho  Ho6  1  0.717667  0.282333  0.574495  1
  Ho  Ho7  1  0.002814  0.997186  0.336273  1
  Ho  Ho8  1  0.997186  0.002814  0.663727  1
  Ho  Ho9  1  0.717667  0.282333  0.925505  1
  Ho  Ho10  1  0.002814  0.997186  0.163727  1
  Ho  Ho11  1  0.282333  0.717667  0.425505  1
  Co  Co12  1  0.298300  0.701700  0.655617  1
  Co  Co13  1  0.573742  0.426258  0.442343  1
  Co  Co14  1  0.416483  0.583517  0.750000  1
  Co  Co15  1  0.426258  0.573742  0.942343  1
  Co  Co16  1  0.583517  0.416483  0.250000  1
  Co  Co17  1  0.426258  0.573742  0.557657  1
  Co  Co18  1  0.701700  0.298300  0.344383  1
  Co  Co19  1  0.701700  0.298300  0.155617  1
  Co  Co20  1  0.573742  0.426258  0.057657  1
  Co  Co21  1  0.298300  0.701700  0.844383  1
