# generated using pymatgen
data_DyEr4Pb3
_symmetry_space_group_name_H-M   'P 1'
_cell_length_a   9.01092170
_cell_length_b   9.01705911
_cell_length_c   6.56429100
_cell_angle_alpha   90.00000000
_cell_angle_beta   90.00000000
_cell_angle_gamma   120.02253772
_symmetry_Int_Tables_number   1
_chemical_formula_structural   DyEr4Pb3
_chemical_formula_sum   'Dy2 Er8 Pb6'
_cell_volume   461.79998477
_cell_formula_units_Z   2
loop_
 _symmetry_equiv_pos_site_id
 _symmetry_equiv_pos_as_xyz
  1  'x, y, z'
loop_
 _atom_site_type_symbol
 _atom_site_label
 _atom_site_symmetry_multiplicity
 _atom_site_fract_x
 _atom_site_fract_y
 _atom_site_fract_z
 _atom_site_occupancy
  Dy  Dy0  1  0.762386  0.762265  0.750000  1
  Dy  Dy1  1  0.237614  0.999879  0.750000  1
  Er  Er2  1  0.666459  0.333431  0.000057  1
  Er  Er3  1  0.333541  0.666973  0.000057  1
  Er  Er4  1  0.333541  0.666973  0.499943  1
  Er  Er5  1  0.666459  0.333431  0.499943  1
  Er  Er6  1  0.000000  0.237724  0.750000  1
  Er  Er7  1  0.237211  0.237400  0.250000  1
  Er  Er8  1  0.762789  0.000188  0.250000  1
  Er  Er9  1  0.000000  0.761574  0.250000  1
  Pb  Pb10  1  0.393850  0.394849  0.750000  1
  Pb  Pb11  1  0.606150  0.000999  0.750000  1
  Pb  Pb12  1  0.000000  0.603701  0.750000  1
  Pb  Pb13  1  0.606043  0.606334  0.250000  1
  Pb  Pb14  1  0.393957  0.000291  0.250000  1
  Pb  Pb15  1  0.000000  0.393988  0.250000  1
