# generated using pymatgen
data_Lu12CoTc2Pd
_symmetry_space_group_name_H-M   'P 1'
_cell_length_a   6.15149300
_cell_length_b   7.27738302
_cell_length_c   8.95083800
_cell_angle_alpha   90.00000000
_cell_angle_beta   90.00000000
_cell_angle_gamma   90.63150076
_symmetry_Int_Tables_number   1
_chemical_formula_structural   Lu12CoTc2Pd
_chemical_formula_sum   'Lu12 Co1 Tc2 Pd1'
_cell_volume   400.67577430
_cell_formula_units_Z   1
loop_
 _symmetry_equiv_pos_site_id
 _symmetry_equiv_pos_as_xyz
  1  'x, y, z'
loop_
 _atom_site_type_symbol
 _atom_site_label
 _atom_site_symmetry_multiplicity
 _atom_site_fract_x
 _atom_site_fract_y
 _atom_site_fract_z
 _atom_site_occupancy
  Lu  Lu0  1  0.336782  0.672514  0.059166  1
  Lu  Lu1  1  0.165548  0.183548  0.443705  1
  Lu  Lu2  1  0.666746  0.326665  0.564878  1
  Lu  Lu3  1  0.826016  0.818406  0.931642  1
  Lu  Lu4  1  0.666746  0.326665  0.935122  1
  Lu  Lu5  1  0.826016  0.818406  0.568358  1
  Lu  Lu6  1  0.336782  0.672514  0.440834  1
  Lu  Lu7  1  0.165548  0.183548  0.056295  1
  Lu  Lu8  1  0.874543  0.532171  0.250000  1
  Lu  Lu9  1  0.624591  0.043156  0.250000  1
  Lu  Lu10  1  0.135989  0.462405  0.750000  1
  Lu  Lu11  1  0.374341  0.954447  0.750000  1
  Co  Co12  1  0.533206  0.617834  0.750000  1
  Tc  Tc13  1  0.459087  0.387228  0.250000  1
  Tc  Tc14  1  0.962881  0.112595  0.750000  1
  Pd  Pd15  1  0.045178  0.887897  0.250000  1
