# generated using pymatgen
data_Ac4Pd5
_symmetry_space_group_name_H-M   'P 1'
_cell_length_a   6.01750622
_cell_length_b   6.01750547
_cell_length_c   11.13416591
_cell_angle_alpha   112.88317378
_cell_angle_beta   112.88316953
_cell_angle_gamma   40.91675058
_symmetry_Int_Tables_number   1
_chemical_formula_structural   Ac4Pd5
_chemical_formula_sum   'Ac4 Pd5'
_cell_volume   240.24596612
_cell_formula_units_Z   1
loop_
 _symmetry_equiv_pos_site_id
 _symmetry_equiv_pos_as_xyz
  1  'x, y, z'
loop_
 _atom_site_type_symbol
 _atom_site_label
 _atom_site_symmetry_multiplicity
 _atom_site_fract_x
 _atom_site_fract_y
 _atom_site_fract_z
 _atom_site_occupancy
  Ac  Ac0  1  0.410934  0.410934  0.116273  1
  Ac  Ac1  1  0.781717  0.781717  0.357103  1
  Ac  Ac2  1  0.218282  0.218282  0.642897  1
  Ac  Ac3  1  0.589066  0.589066  0.883727  1
  Pd  Pd4  1  0.134168  0.134168  0.117893  1
  Pd  Pd5  1  0.057188  0.057188  0.338860  1
  Pd  Pd6  1  0.500000  0.500000  0.500000  1
  Pd  Pd7  1  0.942812  0.942812  0.661141  1
  Pd  Pd8  1  0.865831  0.865831  0.882107  1
