# generated using pymatgen
data_Sr5Sn2BiH
_symmetry_space_group_name_H-M   'P 1'
_cell_length_a   10.04347469
_cell_length_b   10.04347544
_cell_length_c   10.04348329
_cell_angle_alpha   128.69389865
_cell_angle_beta   128.69390209
_cell_angle_gamma   75.50360581
_symmetry_Int_Tables_number   1
_chemical_formula_structural   Sr5Sn2BiH
_chemical_formula_sum   'Sr10 Sn4 Bi2 H2'
_cell_volume   600.51550791
_cell_formula_units_Z   2
loop_
 _symmetry_equiv_pos_site_id
 _symmetry_equiv_pos_as_xyz
  1  'x, y, z'
loop_
 _atom_site_type_symbol
 _atom_site_label
 _atom_site_symmetry_multiplicity
 _atom_site_fract_x
 _atom_site_fract_y
 _atom_site_fract_z
 _atom_site_occupancy
  Sr  Sr0  1  0.500000  0.500000  0.000000  1
  Sr  Sr1  1  0.000000  0.000000  0.000000  1
  Sr  Sr2  1  0.514163  0.014163  0.821417  1
  Sr  Sr3  1  0.192747  0.692747  0.178585  1
  Sr  Sr4  1  0.014162  0.192744  0.499999  1
  Sr  Sr5  1  0.692744  0.514162  0.499999  1
  Sr  Sr6  1  0.485837  0.985837  0.178583  1
  Sr  Sr7  1  0.807253  0.307253  0.821415  1
  Sr  Sr8  1  0.985838  0.807256  0.500001  1
  Sr  Sr9  1  0.307256  0.485838  0.500001  1
  Sn  Sn10  1  0.874563  0.374563  0.249126  1
  Sn  Sn11  1  0.125437  0.625437  0.750874  1
  Sn  Sn12  1  0.374560  0.125440  0.500000  1
  Sn  Sn13  1  0.625440  0.874560  0.500000  1
  Bi  Bi14  1  0.250000  0.250000  0.000000  1
  Bi  Bi15  1  0.750000  0.750000  0.000000  1
  H  H16  1  0.250000  0.750000  0.500000  1
  H  H17  1  0.750000  0.250000  0.500000  1
