# generated using pymatgen
data_U4ReTcB12
_symmetry_space_group_name_H-M   'P 1'
_cell_length_a   3.64432400
_cell_length_b   9.27932973
_cell_length_c   11.37271089
_cell_angle_alpha   90.04529640
_cell_angle_beta   90.00000000
_cell_angle_gamma   90.00000000
_symmetry_Int_Tables_number   1
_chemical_formula_structural   U4ReTcB12
_chemical_formula_sum   'U8 Re2 Tc2 B24'
_cell_volume   384.58952493
_cell_formula_units_Z   2
loop_
 _symmetry_equiv_pos_site_id
 _symmetry_equiv_pos_as_xyz
  1  'x, y, z'
loop_
 _atom_site_type_symbol
 _atom_site_label
 _atom_site_symmetry_multiplicity
 _atom_site_fract_x
 _atom_site_fract_y
 _atom_site_fract_z
 _atom_site_occupancy
  U  U0  1  0.000000  0.336397  0.407215  1
  U  U1  1  0.000000  0.663603  0.592785  1
  U  U2  1  0.000000  0.836092  0.092324  1
  U  U3  1  0.000000  0.163908  0.907676  1
  U  U4  1  0.000000  0.955827  0.395611  1
  U  U5  1  0.000000  0.044173  0.604389  1
  U  U6  1  0.000000  0.456376  0.104523  1
  U  U7  1  0.000000  0.543624  0.895477  1
  Re  Re8  1  0.000000  0.143903  0.179630  1
  Re  Re9  1  0.000000  0.856097  0.820370  1
  Tc  Tc10  1  0.000000  0.643453  0.319988  1
  Tc  Tc11  1  0.000000  0.356547  0.680012  1
  B  B12  1  0.500000  0.549746  0.432804  1
  B  B13  1  0.500000  0.450254  0.567196  1
  B  B14  1  0.500000  0.049603  0.067241  1
  B  B15  1  0.500000  0.950397  0.932759  1
  B  B16  1  0.500000  0.742201  0.423518  1
  B  B17  1  0.500000  0.257799  0.576482  1
  B  B18  1  0.500000  0.242807  0.076301  1
  B  B19  1  0.500000  0.757193  0.923699  1
  B  B20  1  0.500000  0.803452  0.273194  1
  B  B21  1  0.500000  0.196548  0.726806  1
  B  B22  1  0.500000  0.303581  0.226812  1
  B  B23  1  0.500000  0.696419  0.773188  1
  B  B24  1  0.500000  0.644245  0.188215  1
  B  B25  1  0.500000  0.355755  0.811785  1
  B  B26  1  0.500000  0.144234  0.311910  1
  B  B27  1  0.500000  0.855766  0.688090  1
  B  B28  1  0.500000  0.985087  0.219047  1
  B  B29  1  0.500000  0.014913  0.780953  1
  B  B30  1  0.500000  0.485478  0.280951  1
  B  B31  1  0.500000  0.514522  0.719049  1
  B  B32  1  0.500000  0.643062  0.039655  1
  B  B33  1  0.500000  0.356938  0.960345  1
  B  B34  1  0.500000  0.143249  0.460542  1
  B  B35  1  0.500000  0.856751  0.539458  1
