# generated using pymatgen
data_Lu10In8Hg2PtRh
_symmetry_space_group_name_H-M   'P 1'
_cell_length_a   3.58007500
_cell_length_b   8.15322391
_cell_length_c   18.20620114
_cell_angle_alpha   89.56602833
_cell_angle_beta   90.00000000
_cell_angle_gamma   90.00000000
_symmetry_Int_Tables_number   1
_chemical_formula_structural   Lu10In8Hg2PtRh
_chemical_formula_sum   'Lu10 In8 Hg2 Pt1 Rh1'
_cell_volume   531.40834863
_cell_formula_units_Z   1
loop_
 _symmetry_equiv_pos_site_id
 _symmetry_equiv_pos_as_xyz
  1  'x, y, z'
loop_
 _atom_site_type_symbol
 _atom_site_label
 _atom_site_symmetry_multiplicity
 _atom_site_fract_x
 _atom_site_fract_y
 _atom_site_fract_z
 _atom_site_occupancy
  Lu  Lu0  1  0.000000  0.123183  0.423972  1
  Lu  Lu1  1  0.000000  0.876981  0.575717  1
  Lu  Lu2  1  0.000000  0.385024  0.915539  1
  Lu  Lu3  1  0.000000  0.617896  0.082655  1
  Lu  Lu4  1  0.000000  0.261020  0.213774  1
  Lu  Lu5  1  0.000000  0.732394  0.786718  1
  Lu  Lu6  1  0.000000  0.288954  0.724096  1
  Lu  Lu7  1  0.000000  0.714206  0.277683  1
  Lu  Lu8  1  0.000000  0.999198  0.999955  1
  Lu  Lu9  1  0.000000  0.500041  0.500065  1
  In  In10  1  0.500000  0.418285  0.353553  1
  In  In11  1  0.500000  0.580503  0.647872  1
  In  In12  1  0.500000  0.083599  0.854377  1
  In  In13  1  0.500000  0.919217  0.145175  1
  In  In14  1  0.500000  0.293082  0.063064  1
  In  In15  1  0.500000  0.705270  0.935332  1
  In  In16  1  0.500000  0.213002  0.568457  1
  In  In17  1  0.500000  0.787078  0.431463  1
  Hg  Hg18  1  0.500000  0.025318  0.301048  1
  Hg  Hg19  1  0.500000  0.974566  0.699036  1
  Pt  Pt20  1  0.500000  0.525907  0.194224  1
  Rh  Rh21  1  0.500000  0.475276  0.806225  1
