# generated using pymatgen
data_CsHo10(C2Cl9)2
_symmetry_space_group_name_H-M   'P 1'
_cell_length_a   10.17030217
_cell_length_b   10.26581384
_cell_length_c   10.46908500
_cell_angle_alpha   112.94550856
_cell_angle_beta   88.19127994
_cell_angle_gamma   117.92965532
_symmetry_Int_Tables_number   1
_chemical_formula_structural   CsHo10(C2Cl9)2
_chemical_formula_sum   'Cs1 Ho10 C4 Cl18'
_cell_volume   873.85566899
_cell_formula_units_Z   1
loop_
 _symmetry_equiv_pos_site_id
 _symmetry_equiv_pos_as_xyz
  1  'x, y, z'
loop_
 _atom_site_type_symbol
 _atom_site_label
 _atom_site_symmetry_multiplicity
 _atom_site_fract_x
 _atom_site_fract_y
 _atom_site_fract_z
 _atom_site_occupancy
  Cs  Cs0  1  0.500000  0.000000  0.500000  1
  Ho  Ho1  1  0.653181  0.713044  0.698229  1
  Ho  Ho2  1  0.282958  0.373724  0.009086  1
  Ho  Ho3  1  0.093184  0.416582  0.305765  1
  Ho  Ho4  1  0.956842  0.035701  0.338662  1
  Ho  Ho5  1  0.906816  0.583418  0.694235  1
  Ho  Ho6  1  0.116804  0.939915  0.001395  1
  Ho  Ho7  1  0.043158  0.964299  0.661338  1
  Ho  Ho8  1  0.346819  0.286956  0.301771  1
  Ho  Ho9  1  0.717042  0.626276  0.990914  1
  Ho  Ho10  1  0.883196  0.060085  0.998605  1
  C  C11  1  0.159802  0.233434  0.124124  1
  C  C12  1  0.840198  0.766566  0.875876  1
  C  C13  1  0.920592  0.848430  0.791544  1
  C  C14  1  0.079408  0.151570  0.208456  1
  Cl  Cl15  1  0.456389  0.531617  0.836106  1
  Cl  Cl16  1  0.381483  0.039942  0.163515  1
  Cl  Cl17  1  0.779541  0.861023  0.503654  1
  Cl  Cl18  1  0.840465  0.312726  0.155690  1
  Cl  Cl19  1  0.543611  0.468383  0.163894  1
  Cl  Cl20  1  0.220459  0.138977  0.496346  1
  Cl  Cl21  1  0.309547  0.103792  0.830301  1
  Cl  Cl22  1  0.690453  0.896208  0.169699  1
  Cl  Cl23  1  0.974302  0.765907  0.175544  1
  Cl  Cl24  1  0.931262  0.302836  0.497272  1
  Cl  Cl25  1  0.025698  0.234093  0.824456  1
  Cl  Cl26  1  0.068738  0.697164  0.502728  1
  Cl  Cl27  1  0.260317  0.623757  0.191048  1
  Cl  Cl28  1  0.739683  0.376243  0.808952  1
  Cl  Cl29  1  0.636930  0.435542  0.502826  1
  Cl  Cl30  1  0.159535  0.687274  0.844310  1
  Cl  Cl31  1  0.618517  0.960058  0.836485  1
  Cl  Cl32  1  0.363070  0.564458  0.497174  1
