# generated using pymatgen
data_Dy3Y(HoAu)4
_symmetry_space_group_name_H-M   'P 1'
_cell_length_a   4.93871600
_cell_length_b   7.13953171
_cell_length_c   8.96027040
_cell_angle_alpha   90.06707416
_cell_angle_beta   90.00000000
_cell_angle_gamma   90.00000000
_symmetry_Int_Tables_number   1
_chemical_formula_structural   Dy3Y(HoAu)4
_chemical_formula_sum   'Dy3 Y1 Ho4 Au4'
_cell_volume   315.93998843
_cell_formula_units_Z   1
loop_
 _symmetry_equiv_pos_site_id
 _symmetry_equiv_pos_as_xyz
  1  'x, y, z'
loop_
 _atom_site_type_symbol
 _atom_site_label
 _atom_site_symmetry_multiplicity
 _atom_site_fract_x
 _atom_site_fract_y
 _atom_site_fract_z
 _atom_site_occupancy
  Dy  Dy0  1  0.250000  0.486673  0.176554  1
  Dy  Dy1  1  0.750000  0.513179  0.823371  1
  Dy  Dy2  1  0.250000  0.986738  0.323511  1
  Y  Y3  1  0.750000  0.013477  0.677060  1
  Ho  Ho4  1  0.750000  0.648305  0.419539  1
  Ho  Ho5  1  0.250000  0.351790  0.580204  1
  Ho  Ho6  1  0.750000  0.148554  0.080441  1
  Ho  Ho7  1  0.250000  0.851274  0.919684  1
  Au  Au8  1  0.250000  0.256367  0.900478  1
  Au  Au9  1  0.750000  0.743631  0.099395  1
  Au  Au10  1  0.250000  0.756232  0.599332  1
  Au  Au11  1  0.750000  0.243780  0.400430  1
