# generated using pymatgen
data_Dy4Y2MnB14Os
_symmetry_space_group_name_H-M   'P 1'
_cell_length_a   8.05057701
_cell_length_b   8.05057768
_cell_length_c   9.30779500
_cell_angle_alpha   90.00000000
_cell_angle_beta   90.00000000
_cell_angle_gamma   154.99882030
_symmetry_Int_Tables_number   1
_chemical_formula_structural   Dy4Y2MnB14Os
_chemical_formula_sum   'Dy4 Y2 Mn1 B14 Os1'
_cell_volume   254.95779741
_cell_formula_units_Z   1
loop_
 _symmetry_equiv_pos_site_id
 _symmetry_equiv_pos_as_xyz
  1  'x, y, z'
loop_
 _atom_site_type_symbol
 _atom_site_label
 _atom_site_symmetry_multiplicity
 _atom_site_fract_x
 _atom_site_fract_y
 _atom_site_fract_z
 _atom_site_occupancy
  Dy  Dy0  1  0.894771  0.105229  0.442416  1
  Dy  Dy1  1  0.104658  0.895342  0.563641  1
  Dy  Dy2  1  0.894771  0.105229  0.057584  1
  Dy  Dy3  1  0.104658  0.895342  0.936359  1
  Y  Y4  1  0.244248  0.755752  0.250000  1
  Y  Y5  1  0.759119  0.240881  0.750000  1
  Mn  Mn6  1  0.947009  0.052991  0.750000  1
  B  B7  1  0.727076  0.272924  0.466461  1
  B  B8  1  0.272312  0.727688  0.533920  1
  B  B9  1  0.727076  0.272924  0.033539  1
  B  B10  1  0.272312  0.727688  0.966080  1
  B  B11  1  0.631755  0.368245  0.150162  1
  B  B12  1  0.370135  0.629865  0.846420  1
  B  B13  1  0.631755  0.368245  0.349838  1
  B  B14  1  0.370135  0.629865  0.653580  1
  B  B15  1  0.520540  0.479460  0.095610  1
  B  B16  1  0.478201  0.521799  0.901656  1
  B  B17  1  0.520540  0.479460  0.404390  1
  B  B18  1  0.478201  0.521799  0.598344  1
  B  B19  1  0.456818  0.543182  0.250000  1
  B  B20  1  0.540002  0.459998  0.750000  1
  Os  Os21  1  0.053905  0.946095  0.250000  1
