# generated using pymatgen
data_Tb2Y2GeI6
_symmetry_space_group_name_H-M   'P 1'
_cell_length_a   4.23713800
_cell_length_b   14.06714200
_cell_length_c   14.83934500
_cell_angle_alpha   90.00000000
_cell_angle_beta   90.00000000
_cell_angle_gamma   90.00000000
_symmetry_Int_Tables_number   1
_chemical_formula_structural   Tb2Y2GeI6
_chemical_formula_sum   'Tb4 Y4 Ge2 I12'
_cell_volume   884.49058039
_cell_formula_units_Z   2
loop_
 _symmetry_equiv_pos_site_id
 _symmetry_equiv_pos_as_xyz
  1  'x, y, z'
loop_
 _atom_site_type_symbol
 _atom_site_label
 _atom_site_symmetry_multiplicity
 _atom_site_fract_x
 _atom_site_fract_y
 _atom_site_fract_z
 _atom_site_occupancy
  Tb  Tb0  1  0.000000  0.112445  0.575048  1
  Tb  Tb1  1  0.000000  0.887555  0.424952  1
  Tb  Tb2  1  0.000000  0.612445  0.924952  1
  Tb  Tb3  1  0.000000  0.387555  0.075048  1
  Y  Y4  1  0.500000  0.114808  0.346468  1
  Y  Y5  1  0.500000  0.885192  0.653532  1
  Y  Y6  1  0.500000  0.614808  0.153532  1
  Y  Y7  1  0.500000  0.385192  0.846468  1
  Ge  Ge8  1  0.500000  0.000000  0.500000  1
  Ge  Ge9  1  0.500000  0.500000  0.000000  1
  I  I10  1  0.500000  0.244514  0.161391  1
  I  I11  1  0.500000  0.755486  0.838609  1
  I  I12  1  0.500000  0.744514  0.338609  1
  I  I13  1  0.500000  0.255486  0.661391  1
  I  I14  1  0.000000  0.258253  0.413454  1
  I  I15  1  0.000000  0.741747  0.586546  1
  I  I16  1  0.000000  0.758253  0.086546  1
  I  I17  1  0.000000  0.241747  0.913454  1
  I  I18  1  0.000000  0.999365  0.240784  1
  I  I19  1  0.000000  0.000635  0.759216  1
  I  I20  1  0.000000  0.499365  0.259216  1
  I  I21  1  0.000000  0.500635  0.740784  1
