# generated using pymatgen
data_LaDy(CoB)8
_symmetry_space_group_name_H-M   'P 1'
_cell_length_a   7.02546400
_cell_length_b   7.02546400
_cell_length_c   3.80152700
_cell_angle_alpha   90.00000000
_cell_angle_beta   90.00000000
_cell_angle_gamma   90.00000000
_symmetry_Int_Tables_number   1
_chemical_formula_structural   LaDy(CoB)8
_chemical_formula_sum   'La1 Dy1 Co8 B8'
_cell_volume   187.63251714
_cell_formula_units_Z   1
loop_
 _symmetry_equiv_pos_site_id
 _symmetry_equiv_pos_as_xyz
  1  'x, y, z'
loop_
 _atom_site_type_symbol
 _atom_site_label
 _atom_site_symmetry_multiplicity
 _atom_site_fract_x
 _atom_site_fract_y
 _atom_site_fract_z
 _atom_site_occupancy
  La  La0  1  0.500000  0.500000  0.500000  1
  Dy  Dy1  1  0.000000  0.000000  0.000000  1
  Co  Co2  1  0.380904  0.137762  0.891127  1
  Co  Co3  1  0.619096  0.862238  0.891127  1
  Co  Co4  1  0.354098  0.885210  0.393403  1
  Co  Co5  1  0.645902  0.114790  0.393403  1
  Co  Co6  1  0.114790  0.354098  0.606597  1
  Co  Co7  1  0.885210  0.645902  0.606597  1
  Co  Co8  1  0.137762  0.619096  0.108873  1
  Co  Co9  1  0.862238  0.380904  0.108873  1
  B  B10  1  0.804154  0.664694  0.102291  1
  B  B11  1  0.195846  0.335306  0.102291  1
  B  B12  1  0.840641  0.290504  0.607470  1
  B  B13  1  0.159359  0.709496  0.607470  1
  B  B14  1  0.709496  0.840641  0.392530  1
  B  B15  1  0.290504  0.159359  0.392530  1
  B  B16  1  0.664694  0.195846  0.897709  1
  B  B17  1  0.335306  0.804154  0.897709  1
