# generated using pymatgen
data_Yb5SmCuNi13B4
_symmetry_space_group_name_H-M   'P 1'
_cell_length_a   5.02830900
_cell_length_b   5.02830896
_cell_length_c   14.12836900
_cell_angle_alpha   90.00000000
_cell_angle_beta   90.00000000
_cell_angle_gamma   120.00000683
_symmetry_Int_Tables_number   1
_chemical_formula_structural   Yb5SmCuNi13B4
_chemical_formula_sum   'Yb5 Sm1 Cu1 Ni13 B4'
_cell_volume   309.36169884
_cell_formula_units_Z   1
loop_
 _symmetry_equiv_pos_site_id
 _symmetry_equiv_pos_as_xyz
  1  'x, y, z'
loop_
 _atom_site_type_symbol
 _atom_site_label
 _atom_site_symmetry_multiplicity
 _atom_site_fract_x
 _atom_site_fract_y
 _atom_site_fract_z
 _atom_site_occupancy
  Yb  Yb0  1  0.333333  0.666667  0.462556  1
  Yb  Yb1  1  0.333333  0.666667  0.037264  1
  Yb  Yb2  1  0.666667  0.333333  0.752992  1
  Yb  Yb3  1  0.666667  0.333333  0.964171  1
  Yb  Yb4  1  0.333333  0.666667  0.250606  1
  Sm  Sm5  1  0.666667  0.333333  0.534342  1
  Cu  Cu6  1  0.000000  0.000000  0.000007  1
  Ni  Ni7  1  0.165667  0.331335  0.651118  1
  Ni  Ni8  1  0.330844  0.165422  0.348686  1
  Ni  Ni9  1  0.332792  0.166396  0.150196  1
  Ni  Ni10  1  0.166417  0.833583  0.850084  1
  Ni  Ni11  1  0.834578  0.669156  0.348686  1
  Ni  Ni12  1  0.833604  0.166396  0.150196  1
  Ni  Ni13  1  0.668665  0.834333  0.651118  1
  Ni  Ni14  1  0.667166  0.833583  0.850084  1
  Ni  Ni15  1  0.165667  0.834333  0.651118  1
  Ni  Ni16  1  0.833604  0.667208  0.150196  1
  Ni  Ni17  1  0.166417  0.332834  0.850084  1
  Ni  Ni18  1  0.834578  0.165422  0.348686  1
  Ni  Ni19  1  0.000000  0.000000  0.498716  1
  B  B20  1  0.666667  0.333333  0.249230  1
  B  B21  1  0.000000  0.000000  0.750745  1
  B  B22  1  0.333333  0.666667  0.750616  1
  B  B23  1  0.000000  0.000000  0.248501  1
