# generated using pymatgen
data_Hf2Zr6Fe5Co11P12
_symmetry_space_group_name_H-M   'P 1'
_cell_length_a   12.11687073
_cell_length_b   12.09392782
_cell_length_c   3.67426500
_cell_angle_alpha   90.00000000
_cell_angle_beta   90.00000000
_cell_angle_gamma   120.08969607
_symmetry_Int_Tables_number   1
_chemical_formula_structural   Hf2Zr6Fe5Co11P12
_chemical_formula_sum   'Hf2 Zr6 Fe5 Co11 P12'
_cell_volume   465.87103871
_cell_formula_units_Z   1
loop_
 _symmetry_equiv_pos_site_id
 _symmetry_equiv_pos_as_xyz
  1  'x, y, z'
loop_
 _atom_site_type_symbol
 _atom_site_label
 _atom_site_symmetry_multiplicity
 _atom_site_fract_x
 _atom_site_fract_y
 _atom_site_fract_z
 _atom_site_occupancy
  Hf  Hf0  1  0.442526  0.442809  0.000000  1
  Hf  Hf1  1  0.557129  0.000300  0.000000  1
  Zr  Zr2  1  0.999683  0.556481  0.000000  1
  Zr  Zr3  1  0.666347  0.333343  0.000000  1
  Zr  Zr4  1  0.332292  0.666267  0.000000  1
  Zr  Zr5  1  0.818941  0.818882  0.500000  1
  Zr  Zr6  1  0.182079  0.000134  0.500000  1
  Zr  Zr7  1  0.000046  0.181306  0.500000  1
  Fe  Fe8  1  0.194925  0.373051  0.000000  1
  Fe  Fe9  1  0.179557  0.806699  0.000000  1
  Fe  Fe10  1  0.821059  0.627507  0.000000  1
  Fe  Fe11  1  0.805177  0.177146  0.000000  1
  Fe  Fe12  1  0.373429  0.194931  0.000000  1
  Co  Co13  1  0.126096  0.481825  0.500000  1
  Co  Co14  1  0.357364  0.874468  0.500000  1
  Co  Co15  1  0.517223  0.644465  0.500000  1
  Co  Co16  1  0.642684  0.518883  0.500000  1
  Co  Co17  1  0.873366  0.355565  0.500000  1
  Co  Co18  1  0.482571  0.125623  0.500000  1
  Co  Co19  1  0.999978  0.999622  0.000000  1
  Co  Co20  1  0.721520  0.997489  0.500000  1
  Co  Co21  1  0.000094  0.724050  0.500000  1
  Co  Co22  1  0.627946  0.821176  0.000000  1
  Co  Co23  1  0.277276  0.277158  0.500000  1
  P  P24  1  0.653527  0.651925  0.000000  1
  P  P25  1  0.347424  0.000735  0.000000  1
  P  P26  1  0.000099  0.345678  0.000000  1
  P  P27  1  0.480270  0.306642  0.500000  1
  P  P28  1  0.692924  0.173353  0.500000  1
  P  P29  1  0.825317  0.520038  0.500000  1
  P  P30  1  0.517693  0.826552  0.500000  1
  P  P31  1  0.174358  0.694410  0.500000  1
  P  P32  1  0.824758  0.001615  0.000000  1
  P  P33  1  0.000715  0.823112  0.000000  1
  P  P34  1  0.306301  0.479959  0.500000  1
  P  P35  1  0.177308  0.176803  0.000000  1
