# generated using pymatgen
data_LiY6Si6Pd
_symmetry_space_group_name_H-M   'P 1'
_cell_length_a   5.72581075
_cell_length_b   5.72580986
_cell_length_c   13.66730189
_cell_angle_alpha   71.22276099
_cell_angle_beta   71.22276531
_cell_angle_gamma   43.56391869
_symmetry_Int_Tables_number   1
_chemical_formula_structural   LiY6Si6Pd
_chemical_formula_sum   'Li1 Y6 Si6 Pd1'
_cell_volume   289.65507697
_cell_formula_units_Z   1
loop_
 _symmetry_equiv_pos_site_id
 _symmetry_equiv_pos_as_xyz
  1  'x, y, z'
loop_
 _atom_site_type_symbol
 _atom_site_label
 _atom_site_symmetry_multiplicity
 _atom_site_fract_x
 _atom_site_fract_y
 _atom_site_fract_z
 _atom_site_occupancy
  Li  Li0  1  0.755440  0.755440  0.409591  1
  Y  Y1  1  0.604803  0.604803  0.077560  1
  Y  Y2  1  0.395927  0.395927  0.923272  1
  Y  Y3  1  0.525112  0.525112  0.623853  1
  Y  Y4  1  0.471352  0.471352  0.379354  1
  Y  Y5  1  0.257134  0.257134  0.221968  1
  Y  Y6  1  0.744124  0.744124  0.772974  1
  Si  Si7  1  0.964425  0.964425  0.227642  1
  Si  Si8  1  0.040026  0.040026  0.769225  1
  Si  Si9  1  0.876891  0.876891  0.548717  1
  Si  Si10  1  0.118867  0.118867  0.454714  1
  Si  Si11  1  0.111491  0.111491  0.923949  1
  Si  Si12  1  0.890565  0.890565  0.074734  1
  Pd  Pd13  1  0.243843  0.243843  0.592449  1
