# generated using pymatgen
data_TbHfCrB6
_symmetry_space_group_name_H-M   'P 1'
_cell_length_a   3.46764400
_cell_length_b   9.01275400
_cell_length_c   11.40244100
_cell_angle_alpha   90.00000000
_cell_angle_beta   90.00000000
_cell_angle_gamma   90.00000000
_symmetry_Int_Tables_number   1
_chemical_formula_structural   TbHfCrB6
_chemical_formula_sum   'Tb4 Hf4 Cr4 B24'
_cell_volume   356.36074321
_cell_formula_units_Z   4
loop_
 _symmetry_equiv_pos_site_id
 _symmetry_equiv_pos_as_xyz
  1  'x, y, z'
loop_
 _atom_site_type_symbol
 _atom_site_label
 _atom_site_symmetry_multiplicity
 _atom_site_fract_x
 _atom_site_fract_y
 _atom_site_fract_z
 _atom_site_occupancy
  Tb  Tb0  1  0.000000  0.822183  0.085303  1
  Tb  Tb1  1  0.000000  0.177817  0.914697  1
  Tb  Tb2  1  0.000000  0.322183  0.414697  1
  Tb  Tb3  1  0.000000  0.677817  0.585303  1
  Hf  Hf4  1  0.000000  0.444174  0.129321  1
  Hf  Hf5  1  0.000000  0.555826  0.870679  1
  Hf  Hf6  1  0.000000  0.944174  0.370679  1
  Hf  Hf7  1  0.000000  0.055826  0.629321  1
  Cr  Cr8  1  0.000000  0.142197  0.182752  1
  Cr  Cr9  1  0.000000  0.857803  0.817248  1
  Cr  Cr10  1  0.000000  0.642197  0.317248  1
  Cr  Cr11  1  0.000000  0.357803  0.682752  1
  B  B12  1  0.500000  0.054711  0.068056  1
  B  B13  1  0.500000  0.945289  0.931944  1
  B  B14  1  0.500000  0.554711  0.431944  1
  B  B15  1  0.500000  0.445289  0.568056  1
  B  B16  1  0.500000  0.252325  0.082970  1
  B  B17  1  0.500000  0.747675  0.917030  1
  B  B18  1  0.500000  0.752325  0.417030  1
  B  B19  1  0.500000  0.247675  0.582970  1
  B  B20  1  0.500000  0.294848  0.235510  1
  B  B21  1  0.500000  0.705152  0.764490  1
  B  B22  1  0.500000  0.794848  0.264490  1
  B  B23  1  0.500000  0.205152  0.735510  1
  B  B24  1  0.500000  0.129961  0.316304  1
  B  B25  1  0.500000  0.870039  0.683696  1
  B  B26  1  0.500000  0.629961  0.183696  1
  B  B27  1  0.500000  0.370039  0.816304  1
  B  B28  1  0.500000  0.482728  0.286767  1
  B  B29  1  0.500000  0.517272  0.713233  1
  B  B30  1  0.500000  0.982728  0.213233  1
  B  B31  1  0.500000  0.017272  0.786767  1
  B  B32  1  0.500000  0.098607  0.473612  1
  B  B33  1  0.500000  0.901393  0.526388  1
  B  B34  1  0.500000  0.598607  0.026388  1
  B  B35  1  0.500000  0.401393  0.973612  1
