# generated using pymatgen
data_Pr9ThAl4(Os2Ru)2
_symmetry_space_group_name_H-M   'P 1'
_cell_length_a   8.69200386
_cell_length_b   8.62011428
_cell_length_c   8.61878400
_cell_angle_alpha   109.09431184
_cell_angle_beta   109.96745874
_cell_angle_gamma   109.28070731
_symmetry_Int_Tables_number   1
_chemical_formula_structural   Pr9ThAl4(Os2Ru)2
_chemical_formula_sum   'Pr9 Th1 Al4 Os4 Ru2'
_cell_volume   497.52734935
_cell_formula_units_Z   1
loop_
 _symmetry_equiv_pos_site_id
 _symmetry_equiv_pos_as_xyz
  1  'x, y, z'
loop_
 _atom_site_type_symbol
 _atom_site_label
 _atom_site_symmetry_multiplicity
 _atom_site_fract_x
 _atom_site_fract_y
 _atom_site_fract_z
 _atom_site_occupancy
  Pr  Pr0  1  0.750772  0.817806  0.064855  1
  Pr  Pr1  1  0.434625  0.249670  0.683450  1
  Pr  Pr2  1  0.680814  0.434195  0.250000  1
  Pr  Pr3  1  0.065387  0.750931  0.818927  1
  Pr  Pr4  1  0.819159  0.067381  0.750527  1
  Pr  Pr5  1  0.214079  0.212296  0.215799  1
  Pr  Pr6  1  0.502616  0.999808  0.289067  1
  Pr  Pr7  1  0.287379  0.500400  0.999795  1
  Pr  Pr8  1  0.996071  0.285081  0.497730  1
  Th  Th9  1  0.247887  0.685211  0.439467  1
  Al  Al10  1  0.592662  0.590799  0.589664  1
  Al  Al11  1  0.501504  0.004954  0.912171  1
  Al  Al12  1  0.909290  0.497422  0.000299  1
  Al  Al13  1  0.001258  0.910229  0.501551  1
  Os  Os14  1  0.250207  0.118251  0.868548  1
  Os  Os15  1  0.749469  0.383027  0.633458  1
  Os  Os16  1  0.869448  0.250956  0.120356  1
  Os  Os17  1  0.121981  0.856179  0.256839  1
  Ru  Ru18  1  0.630451  0.750350  0.380345  1
  Ru  Ru19  1  0.374938  0.635055  0.727152  1
