# generated using pymatgen
data_LaSmCd2(SiPt2)2
_symmetry_space_group_name_H-M   'P 1'
_cell_length_a   4.19009500
_cell_length_b   4.19009500
_cell_length_c   11.43911100
_cell_angle_alpha   90.00000000
_cell_angle_beta   90.00000000
_cell_angle_gamma   90.00000000
_symmetry_Int_Tables_number   1
_chemical_formula_structural   LaSmCd2(SiPt2)2
_chemical_formula_sum   'La1 Sm1 Cd2 Si2 Pt4'
_cell_volume   200.83528341
_cell_formula_units_Z   1
loop_
 _symmetry_equiv_pos_site_id
 _symmetry_equiv_pos_as_xyz
  1  'x, y, z'
loop_
 _atom_site_type_symbol
 _atom_site_label
 _atom_site_symmetry_multiplicity
 _atom_site_fract_x
 _atom_site_fract_y
 _atom_site_fract_z
 _atom_site_occupancy
  La  La0  1  0.000000  0.500000  0.764626  1
  Sm  Sm1  1  0.500000  0.000000  0.232767  1
  Cd  Cd2  1  0.500000  0.500000  0.497513  1
  Cd  Cd3  1  0.000000  0.000000  0.497513  1
  Si  Si4  1  0.000000  0.500000  0.116113  1
  Si  Si5  1  0.500000  0.000000  0.887802  1
  Pt  Pt6  1  0.500000  0.000000  0.678704  1
  Pt  Pt7  1  0.000000  0.000000  0.002049  1
  Pt  Pt8  1  0.500000  0.500000  0.002049  1
  Pt  Pt9  1  0.000000  0.500000  0.320865  1
