# generated using pymatgen
data_TbHoTm14(Ga3Co)2
_symmetry_space_group_name_H-M   'P 1'
_cell_length_a   9.88047500
_cell_length_b   9.88047445
_cell_length_c   6.87770000
_cell_angle_alpha   90.00000000
_cell_angle_beta   90.00000000
_cell_angle_gamma   119.99999851
_symmetry_Int_Tables_number   1
_chemical_formula_structural   TbHoTm14(Ga3Co)2
_chemical_formula_sum   'Tb1 Ho1 Tm14 Ga6 Co2'
_cell_volume   581.47291408
_cell_formula_units_Z   1
loop_
 _symmetry_equiv_pos_site_id
 _symmetry_equiv_pos_as_xyz
  1  'x, y, z'
loop_
 _atom_site_type_symbol
 _atom_site_label
 _atom_site_symmetry_multiplicity
 _atom_site_fract_x
 _atom_site_fract_y
 _atom_site_fract_z
 _atom_site_occupancy
  Tb  Tb0  1  0.000000  0.000000  0.269260  1
  Ho  Ho1  1  0.000000  0.000000  0.768836  1
  Tm  Tm2  1  0.825951  0.651903  0.489009  1
  Tm  Tm3  1  0.348097  0.174049  0.489009  1
  Tm  Tm4  1  0.825951  0.174049  0.489009  1
  Tm  Tm5  1  0.174063  0.348126  0.988639  1
  Tm  Tm6  1  0.651874  0.825937  0.988639  1
  Tm  Tm7  1  0.174063  0.825937  0.988639  1
  Tm  Tm8  1  0.666667  0.333333  0.171960  1
  Tm  Tm9  1  0.333333  0.666667  0.672180  1
  Tm  Tm10  1  0.536638  0.073277  0.792701  1
  Tm  Tm11  1  0.926723  0.463362  0.792701  1
  Tm  Tm12  1  0.536638  0.463362  0.792701  1
  Tm  Tm13  1  0.463355  0.926710  0.292693  1
  Tm  Tm14  1  0.073290  0.536645  0.292693  1
  Tm  Tm15  1  0.463355  0.536645  0.292693  1
  Ga  Ga16  1  0.836050  0.672102  0.040120  1
  Ga  Ga17  1  0.327898  0.163950  0.040120  1
  Ga  Ga18  1  0.836050  0.163950  0.040120  1
  Ga  Ga19  1  0.163927  0.327854  0.540551  1
  Ga  Ga20  1  0.672146  0.836073  0.540551  1
  Ga  Ga21  1  0.163927  0.836073  0.540551  1
  Co  Co22  1  0.666667  0.333333  0.556225  1
  Co  Co23  1  0.333333  0.666667  0.056471  1
