# generated using pymatgen
data_Tb4Y12Cd4Ir3Pd
_symmetry_space_group_name_H-M   'P 1'
_cell_length_a   9.66955830
_cell_length_b   9.66955714
_cell_length_c   9.66955617
_cell_angle_alpha   60.21464222
_cell_angle_beta   60.21464636
_cell_angle_gamma   60.21464599
_symmetry_Int_Tables_number   1
_chemical_formula_structural   Tb4Y12Cd4Ir3Pd
_chemical_formula_sum   'Tb4 Y12 Cd4 Ir3 Pd1'
_cell_volume   642.40702541
_cell_formula_units_Z   1
loop_
 _symmetry_equiv_pos_site_id
 _symmetry_equiv_pos_as_xyz
  1  'x, y, z'
loop_
 _atom_site_type_symbol
 _atom_site_label
 _atom_site_symmetry_multiplicity
 _atom_site_fract_x
 _atom_site_fract_y
 _atom_site_fract_z
 _atom_site_occupancy
  Tb  Tb0  1  0.347793  0.347793  0.347793  1
  Tb  Tb1  1  0.353268  0.353268  0.947707  1
  Tb  Tb2  1  0.353268  0.947707  0.353268  1
  Tb  Tb3  1  0.947707  0.353268  0.353268  1
  Y  Y4  1  0.804893  0.190247  0.190247  1
  Y  Y5  1  0.188729  0.810684  0.810684  1
  Y  Y6  1  0.190247  0.804893  0.190247  1
  Y  Y7  1  0.810684  0.188729  0.810684  1
  Y  Y8  1  0.190247  0.190247  0.804893  1
  Y  Y9  1  0.810684  0.810684  0.188729  1
  Y  Y10  1  0.938104  0.563189  0.563189  1
  Y  Y11  1  0.565336  0.936857  0.936857  1
  Y  Y12  1  0.563189  0.938104  0.563189  1
  Y  Y13  1  0.936857  0.565336  0.936857  1
  Y  Y14  1  0.563189  0.563189  0.938104  1
  Y  Y15  1  0.936857  0.936857  0.565336  1
  Cd  Cd16  1  0.580881  0.580881  0.580881  1
  Cd  Cd17  1  0.580604  0.580604  0.256768  1
  Cd  Cd18  1  0.580604  0.256768  0.580604  1
  Cd  Cd19  1  0.256768  0.580604  0.580604  1
  Ir  Ir20  1  0.142068  0.142068  0.572554  1
  Ir  Ir21  1  0.142068  0.572554  0.142068  1
  Ir  Ir22  1  0.572554  0.142068  0.142068  1
  Pd  Pd23  1  0.143404  0.143404  0.143404  1
