# generated using pymatgen
data_Dy2HoIn3Ga2Pt
_symmetry_space_group_name_H-M   'P 1'
_cell_length_a   7.26086500
_cell_length_b   7.26031832
_cell_length_c   4.42470900
_cell_angle_alpha   90.00000000
_cell_angle_beta   90.00000000
_cell_angle_gamma   120.00249537
_symmetry_Int_Tables_number   1
_chemical_formula_structural   Dy2HoIn3Ga2Pt
_chemical_formula_sum   'Dy2 Ho1 In3 Ga2 Pt1'
_cell_volume   201.99864168
_cell_formula_units_Z   1
loop_
 _symmetry_equiv_pos_site_id
 _symmetry_equiv_pos_as_xyz
  1  'x, y, z'
loop_
 _atom_site_type_symbol
 _atom_site_label
 _atom_site_symmetry_multiplicity
 _atom_site_fract_x
 _atom_site_fract_y
 _atom_site_fract_z
 _atom_site_occupancy
  Dy  Dy0  1  0.409074  0.409066  0.500000  1
  Dy  Dy1  1  0.000009  0.590934  0.500000  1
  Ho  Ho2  1  0.590988  0.000000  0.500000  1
  In  In3  1  0.749640  0.749669  0.000000  1
  In  In4  1  0.999970  0.250331  0.000000  1
  In  In5  1  0.250386  0.000000  0.000000  1
  Ga  Ga6  1  0.333376  0.666729  0.000000  1
  Ga  Ga7  1  0.666648  0.333271  0.000000  1
  Pt  Pt8  1  0.999909  0.000000  0.500000  1
