# generated using pymatgen
data_Rb3GaSe3
_symmetry_space_group_name_H-M   'P 1'
_cell_length_a   10.83085631
_cell_length_b   10.83085058
_cell_length_c   13.74136200
_cell_angle_alpha   90.00000000
_cell_angle_beta   90.00000000
_cell_angle_gamma   140.69631964
_symmetry_Int_Tables_number   1
_chemical_formula_structural   Rb3GaSe3
_chemical_formula_sum   'Rb12 Ga4 Se12'
_cell_volume   1021.06682067
_cell_formula_units_Z   4
loop_
 _symmetry_equiv_pos_site_id
 _symmetry_equiv_pos_as_xyz
  1  'x, y, z'
loop_
 _atom_site_type_symbol
 _atom_site_label
 _atom_site_symmetry_multiplicity
 _atom_site_fract_x
 _atom_site_fract_y
 _atom_site_fract_z
 _atom_site_occupancy
  Rb  Rb0  1  0.845321  0.845319  0.334851  1
  Rb  Rb1  1  0.154679  0.154681  0.665149  1
  Rb  Rb2  1  0.654679  0.654681  0.834851  1
  Rb  Rb3  1  0.345321  0.345319  0.165149  1
  Rb  Rb4  1  0.839659  0.484671  0.127560  1
  Rb  Rb5  1  0.515332  0.160347  0.872438  1
  Rb  Rb6  1  0.015332  0.660347  0.627562  1
  Rb  Rb7  1  0.339659  0.984671  0.372440  1
  Rb  Rb8  1  0.160341  0.515329  0.872440  1
  Rb  Rb9  1  0.484668  0.839653  0.127562  1
  Rb  Rb10  1  0.984668  0.339653  0.372438  1
  Rb  Rb11  1  0.660341  0.015329  0.627560  1
  Ga  Ga12  1  0.084141  0.915860  0.000000  1
  Ga  Ga13  1  0.584141  0.415860  0.500000  1
  Ga  Ga14  1  0.915859  0.084140  0.000000  1
  Ga  Ga15  1  0.415859  0.584140  0.500000  1
  Se  Se16  1  0.013287  0.314979  0.116404  1
  Se  Se17  1  0.685020  0.986713  0.883596  1
  Se  Se18  1  0.185020  0.486713  0.616404  1
  Se  Se19  1  0.513287  0.814979  0.383596  1
  Se  Se20  1  0.986713  0.685021  0.883596  1
  Se  Se21  1  0.314980  0.013287  0.116404  1
  Se  Se22  1  0.814980  0.513287  0.383596  1
  Se  Se23  1  0.486713  0.185021  0.616404  1
  Se  Se24  1  0.800577  0.800578  0.081669  1
  Se  Se25  1  0.199423  0.199422  0.918331  1
  Se  Se26  1  0.699423  0.699422  0.581669  1
  Se  Se27  1  0.300577  0.300578  0.418331  1
