# generated using pymatgen
data_Lu8Sc4Co4SbOs
_symmetry_space_group_name_H-M   'P 1'
_cell_length_a   7.96594071
_cell_length_b   7.96597097
_cell_length_c   7.96593823
_cell_angle_alpha   111.23206188
_cell_angle_beta   111.02187850
_cell_angle_gamma   106.20808872
_symmetry_Int_Tables_number   1
_chemical_formula_structural   Lu8Sc4Co4SbOs
_chemical_formula_sum   'Lu8 Sc4 Co4 Sb1 Os1'
_cell_volume   388.18622277
_cell_formula_units_Z   1
loop_
 _symmetry_equiv_pos_site_id
 _symmetry_equiv_pos_as_xyz
  1  'x, y, z'
loop_
 _atom_site_type_symbol
 _atom_site_label
 _atom_site_symmetry_multiplicity
 _atom_site_fract_x
 _atom_site_fract_y
 _atom_site_fract_z
 _atom_site_occupancy
  Lu  Lu0  1  0.183978  0.277160  0.461152  1
  Lu  Lu1  1  0.816022  0.722840  0.538848  1
  Lu  Lu2  1  0.183992  0.722840  0.906819  1
  Lu  Lu3  1  0.816008  0.277160  0.093181  1
  Lu  Lu4  1  0.311543  0.617361  0.305818  1
  Lu  Lu5  1  0.688457  0.382639  0.694182  1
  Lu  Lu6  1  0.311538  0.005726  0.694189  1
  Lu  Lu7  1  0.688462  0.994274  0.305811  1
  Sc  Sc8  1  0.413409  0.217305  0.196075  1
  Sc  Sc9  1  0.586591  0.782695  0.803925  1
  Sc  Sc10  1  0.021230  0.217305  0.803897  1
  Sc  Sc11  1  0.978770  0.782695  0.196103  1
  Co  Co12  1  0.366396  0.000000  0.366396  1
  Co  Co13  1  0.633604  0.000000  0.633604  1
  Co  Co14  1  0.113342  0.613339  0.499997  1
  Co  Co15  1  0.886658  0.386661  0.500003  1
  Sb  Sb16  1  0.500000  0.500000  0.000000  1
  Os  Os17  1  0.000000  0.000000  0.000000  1
