# generated using pymatgen
data_Lu5Bi2Os
_symmetry_space_group_name_H-M   'P 1'
_cell_length_a   7.81147800
_cell_length_b   8.93392100
_cell_length_c   12.30092500
_cell_angle_alpha   90.00000000
_cell_angle_beta   90.00000000
_cell_angle_gamma   90.00000000
_symmetry_Int_Tables_number   1
_chemical_formula_structural   Lu5Bi2Os
_chemical_formula_sum   'Lu20 Bi8 Os4'
_cell_volume   858.44621944
_cell_formula_units_Z   4
loop_
 _symmetry_equiv_pos_site_id
 _symmetry_equiv_pos_as_xyz
  1  'x, y, z'
loop_
 _atom_site_type_symbol
 _atom_site_label
 _atom_site_symmetry_multiplicity
 _atom_site_fract_x
 _atom_site_fract_y
 _atom_site_fract_z
 _atom_site_occupancy
  Lu  Lu0  1  0.838600  0.750000  0.791501  1
  Lu  Lu1  1  0.161400  0.250000  0.208499  1
  Lu  Lu2  1  0.338600  0.250000  0.708499  1
  Lu  Lu3  1  0.661400  0.750000  0.291501  1
  Lu  Lu4  1  0.378432  0.750000  0.688921  1
  Lu  Lu5  1  0.621568  0.250000  0.311079  1
  Lu  Lu6  1  0.878432  0.250000  0.811079  1
  Lu  Lu7  1  0.121568  0.750000  0.188921  1
  Lu  Lu8  1  0.938723  0.750000  0.504274  1
  Lu  Lu9  1  0.061277  0.250000  0.495726  1
  Lu  Lu10  1  0.438723  0.250000  0.995726  1
  Lu  Lu11  1  0.561277  0.750000  0.004274  1
  Lu  Lu12  1  0.671748  0.042992  0.564670  1
  Lu  Lu13  1  0.328252  0.957008  0.435330  1
  Lu  Lu14  1  0.171748  0.957008  0.935330  1
  Lu  Lu15  1  0.328252  0.542992  0.435330  1
  Lu  Lu16  1  0.828252  0.042992  0.064670  1
  Lu  Lu17  1  0.671748  0.457008  0.564670  1
  Lu  Lu18  1  0.828252  0.457008  0.064670  1
  Lu  Lu19  1  0.171748  0.542992  0.935330  1
  Bi  Bi20  1  0.565151  0.492928  0.828289  1
  Bi  Bi21  1  0.434849  0.507072  0.171711  1
  Bi  Bi22  1  0.065151  0.507072  0.671711  1
  Bi  Bi23  1  0.434849  0.992928  0.171711  1
  Bi  Bi24  1  0.934849  0.492928  0.328289  1
  Bi  Bi25  1  0.565151  0.007072  0.828289  1
  Bi  Bi26  1  0.934849  0.007072  0.328289  1
  Bi  Bi27  1  0.065151  0.992928  0.671711  1
  Os  Os28  1  0.574996  0.750000  0.508330  1
  Os  Os29  1  0.425004  0.250000  0.491670  1
  Os  Os30  1  0.074996  0.250000  0.991670  1
  Os  Os31  1  0.925004  0.750000  0.008330  1
