# generated using pymatgen
data_SmHo5(NiRh8)2
_symmetry_space_group_name_H-M   'P 1'
_cell_length_a   5.27217200
_cell_length_b   5.27217210
_cell_length_c   17.32260100
_cell_angle_alpha   90.00000000
_cell_angle_beta   90.00000000
_cell_angle_gamma   119.99999938
_symmetry_Int_Tables_number   1
_chemical_formula_structural   SmHo5(NiRh8)2
_chemical_formula_sum   'Sm1 Ho5 Ni2 Rh16'
_cell_volume   416.98735505
_cell_formula_units_Z   1
loop_
 _symmetry_equiv_pos_site_id
 _symmetry_equiv_pos_as_xyz
  1  'x, y, z'
loop_
 _atom_site_type_symbol
 _atom_site_label
 _atom_site_symmetry_multiplicity
 _atom_site_fract_x
 _atom_site_fract_y
 _atom_site_fract_z
 _atom_site_occupancy
  Sm  Sm0  1  0.666667  0.333333  0.250000  1
  Ho  Ho1  1  0.333333  0.666667  0.957721  1
  Ho  Ho2  1  0.666667  0.333333  0.041435  1
  Ho  Ho3  1  0.666667  0.333333  0.458565  1
  Ho  Ho4  1  0.333333  0.666667  0.542279  1
  Ho  Ho5  1  0.333333  0.666667  0.750000  1
  Ni  Ni6  1  0.333333  0.666667  0.250000  1
  Ni  Ni7  1  0.666667  0.333333  0.750000  1
  Rh  Rh8  1  0.168917  0.831083  0.373703  1
  Rh  Rh9  1  0.168917  0.337833  0.373703  1
  Rh  Rh10  1  0.662167  0.831083  0.373703  1
  Rh  Rh11  1  0.831145  0.168855  0.627349  1
  Rh  Rh12  1  0.831145  0.662290  0.627349  1
  Rh  Rh13  1  0.337710  0.168855  0.627349  1
  Rh  Rh14  1  0.831145  0.168855  0.872651  1
  Rh  Rh15  1  0.831145  0.662290  0.872651  1
  Rh  Rh16  1  0.337710  0.168855  0.872651  1
  Rh  Rh17  1  0.168917  0.831083  0.126297  1
  Rh  Rh18  1  0.168917  0.337833  0.126297  1
  Rh  Rh19  1  0.662167  0.831083  0.126297  1
  Rh  Rh20  1  0.000000  0.000000  0.250000  1
  Rh  Rh21  1  0.000000  0.000000  0.750000  1
  Rh  Rh22  1  0.000000  0.000000  0.500478  1
  Rh  Rh23  1  0.000000  0.000000  0.999522  1
