# generated using pymatgen
data_Ta12Al3Ga5Co3CuC4
_symmetry_space_group_name_H-M   'P 1'
_cell_length_a   8.19747975
_cell_length_b   8.19741158
_cell_length_c   8.19748000
_cell_angle_alpha   60.00839155
_cell_angle_beta   60.02616886
_cell_angle_gamma   60.00838753
_symmetry_Int_Tables_number   1
_chemical_formula_structural   Ta12Al3Ga5Co3CuC4
_chemical_formula_sum   'Ta12 Al3 Ga5 Co3 Cu1 C4'
_cell_volume   389.63984404
_cell_formula_units_Z   1
loop_
 _symmetry_equiv_pos_site_id
 _symmetry_equiv_pos_as_xyz
  1  'x, y, z'
loop_
 _atom_site_type_symbol
 _atom_site_label
 _atom_site_symmetry_multiplicity
 _atom_site_fract_x
 _atom_site_fract_y
 _atom_site_fract_z
 _atom_site_occupancy
  Ta  Ta0  1  0.563074  0.936634  0.563074  1
  Ta  Ta1  1  0.312495  0.689147  0.688251  1
  Ta  Ta2  1  0.681787  0.313963  0.314576  1
  Ta  Ta3  1  0.314465  0.681810  0.314465  1
  Ta  Ta4  1  0.688251  0.689147  0.312495  1
  Ta  Ta5  1  0.314576  0.313963  0.681787  1
  Ta  Ta6  1  0.561615  0.562421  0.937666  1
  Ta  Ta7  1  0.937666  0.562421  0.561615  1
  Ta  Ta8  1  0.565699  0.936096  0.936019  1
  Ta  Ta9  1  0.936019  0.936096  0.565699  1
  Ta  Ta10  1  0.688962  0.311873  0.688962  1
  Ta  Ta11  1  0.936701  0.565935  0.936701  1
  Al  Al12  1  0.914563  0.915619  0.246889  1
  Al  Al13  1  0.246889  0.915619  0.914563  1
  Al  Al14  1  0.330537  0.330278  0.330537  1
  Ga  Ga15  1  0.917501  0.917566  0.917501  1
  Ga  Ga16  1  0.997917  0.336212  0.335989  1
  Ga  Ga17  1  0.336230  0.998370  0.336230  1
  Ga  Ga18  1  0.335989  0.336212  0.997917  1
  Ga  Ga19  1  0.914448  0.251109  0.914448  1
  Co  Co20  1  0.624253  0.125402  0.127095  1
  Co  Co21  1  0.126112  0.626227  0.126112  1
  Co  Co22  1  0.127095  0.125402  0.624253  1
  Cu  Cu23  1  0.125413  0.122568  0.125413  1
  C  C24  1  0.625174  0.624154  0.625174  1
  C  C25  1  0.124786  0.625190  0.626101  1
  C  C26  1  0.625680  0.125373  0.625680  1
  C  C27  1  0.626101  0.625190  0.124786  1
