# generated using pymatgen
data_LiEu3Ta4O14
_symmetry_space_group_name_H-M   'P 1'
_cell_length_a   7.43954598
_cell_length_b   7.43954658
_cell_length_c   7.43954635
_cell_angle_alpha   60.71482304
_cell_angle_beta   60.71482184
_cell_angle_gamma   60.71481049
_symmetry_Int_Tables_number   1
_chemical_formula_structural   LiEu3Ta4O14
_chemical_formula_sum   'Li1 Eu3 Ta4 O14'
_cell_volume   295.85198054
_cell_formula_units_Z   1
loop_
 _symmetry_equiv_pos_site_id
 _symmetry_equiv_pos_as_xyz
  1  'x, y, z'
loop_
 _atom_site_type_symbol
 _atom_site_label
 _atom_site_symmetry_multiplicity
 _atom_site_fract_x
 _atom_site_fract_y
 _atom_site_fract_z
 _atom_site_occupancy
  Li  Li0  1  0.500000  0.500000  0.500000  1
  Eu  Eu1  1  0.500000  0.500000  0.000000  1
  Eu  Eu2  1  0.000000  0.500000  0.500000  1
  Eu  Eu3  1  0.500000  0.000000  0.500000  1
  Ta  Ta4  1  0.000000  0.500000  0.000000  1
  Ta  Ta5  1  0.000000  0.000000  0.000000  1
  Ta  Ta6  1  0.500000  0.000000  0.000000  1
  Ta  Ta7  1  0.000000  0.000000  0.500000  1
  O  O8  1  0.068404  0.683496  0.068404  1
  O  O9  1  0.931596  0.316504  0.931596  1
  O  O10  1  0.686943  0.686943  0.058781  1
  O  O11  1  0.058781  0.686943  0.686943  1
  O  O12  1  0.683496  0.068404  0.068404  1
  O  O13  1  0.068404  0.068404  0.683496  1
  O  O14  1  0.686943  0.058781  0.686943  1
  O  O15  1  0.941219  0.313057  0.313057  1
  O  O16  1  0.931596  0.931596  0.316504  1
  O  O17  1  0.313057  0.313057  0.941219  1
  O  O18  1  0.316504  0.931596  0.931596  1
  O  O19  1  0.313057  0.941219  0.313057  1
  O  O20  1  0.619726  0.619726  0.619726  1
  O  O21  1  0.380274  0.380274  0.380274  1
