# generated using pymatgen
data_Dy8BSCl12
_symmetry_space_group_name_H-M   'P 1'
_cell_length_a   3.88859600
_cell_length_b   12.67899335
_cell_length_c   13.15343444
_cell_angle_alpha   89.93024877
_cell_angle_beta   90.00000000
_cell_angle_gamma   90.00000000
_symmetry_Int_Tables_number   1
_chemical_formula_structural   Dy8BSCl12
_chemical_formula_sum   'Dy8 B1 S1 Cl12'
_cell_volume   648.50964822
_cell_formula_units_Z   1
loop_
 _symmetry_equiv_pos_site_id
 _symmetry_equiv_pos_as_xyz
  1  'x, y, z'
loop_
 _atom_site_type_symbol
 _atom_site_label
 _atom_site_symmetry_multiplicity
 _atom_site_fract_x
 _atom_site_fract_y
 _atom_site_fract_z
 _atom_site_occupancy
  Dy  Dy0  1  0.000000  0.108982  0.086328  1
  Dy  Dy1  1  0.000000  0.891018  0.913672  1
  Dy  Dy2  1  0.000000  0.604673  0.417191  1
  Dy  Dy3  1  0.000000  0.395327  0.582809  1
  Dy  Dy4  1  0.500000  0.130234  0.846844  1
  Dy  Dy5  1  0.500000  0.869766  0.153156  1
  Dy  Dy6  1  0.500000  0.625147  0.647222  1
  Dy  Dy7  1  0.500000  0.374853  0.352778  1
  B  B8  1  0.500000  0.500000  0.500000  1
  S  S9  1  0.500000  0.000000  0.000000  1
  Cl  Cl10  1  0.500000  0.266958  0.683728  1
  Cl  Cl11  1  0.500000  0.733042  0.316272  1
  Cl  Cl12  1  0.500000  0.768733  0.818362  1
  Cl  Cl13  1  0.500000  0.231267  0.181638  1
  Cl  Cl14  1  0.000000  0.255725  0.929364  1
  Cl  Cl15  1  0.000000  0.744275  0.070636  1
  Cl  Cl16  1  0.000000  0.478211  0.243875  1
  Cl  Cl17  1  0.000000  0.521789  0.756125  1
  Cl  Cl18  1  0.000000  0.978083  0.255722  1
  Cl  Cl19  1  0.000000  0.021917  0.744278  1
  Cl  Cl20  1  0.000000  0.243781  0.429492  1
  Cl  Cl21  1  0.000000  0.756219  0.570508  1
