# generated using pymatgen
data_Ac2CoO4
_symmetry_space_group_name_H-M   'P 1'
_cell_length_a   4.00735300
_cell_length_b   11.33267900
_cell_length_c   11.81069300
_cell_angle_alpha   90.00000000
_cell_angle_beta   90.00000000
_cell_angle_gamma   90.00000000
_symmetry_Int_Tables_number   1
_chemical_formula_structural   Ac2CoO4
_chemical_formula_sum   'Ac8 Co4 O16'
_cell_volume   536.37134561
_cell_formula_units_Z   4
loop_
 _symmetry_equiv_pos_site_id
 _symmetry_equiv_pos_as_xyz
  1  'x, y, z'
loop_
 _atom_site_type_symbol
 _atom_site_label
 _atom_site_symmetry_multiplicity
 _atom_site_fract_x
 _atom_site_fract_y
 _atom_site_fract_z
 _atom_site_occupancy
  Ac  Ac0  1  0.250000  0.302888  0.910026  1
  Ac  Ac1  1  0.250000  0.911794  0.880148  1
  Ac  Ac2  1  0.750000  0.411794  0.619852  1
  Ac  Ac3  1  0.750000  0.802888  0.589974  1
  Ac  Ac4  1  0.250000  0.197112  0.410026  1
  Ac  Ac5  1  0.250000  0.588206  0.380148  1
  Ac  Ac6  1  0.750000  0.088206  0.119852  1
  Ac  Ac7  1  0.750000  0.697112  0.089974  1
  Co  Co8  1  0.250000  0.619609  0.806790  1
  Co  Co9  1  0.750000  0.119609  0.693210  1
  Co  Co10  1  0.250000  0.880391  0.306790  1
  Co  Co11  1  0.750000  0.380391  0.193210  1
  O  O12  1  0.250000  0.105252  0.989517  1
  O  O13  1  0.250000  0.684446  0.955843  1
  O  O14  1  0.750000  0.258580  0.783709  1
  O  O15  1  0.250000  0.467706  0.754571  1
  O  O16  1  0.750000  0.967706  0.745429  1
  O  O17  1  0.250000  0.758580  0.716291  1
  O  O18  1  0.750000  0.184446  0.544157  1
  O  O19  1  0.750000  0.605252  0.510483  1
  O  O20  1  0.250000  0.394748  0.489517  1
  O  O21  1  0.250000  0.815554  0.455843  1
  O  O22  1  0.750000  0.241420  0.283709  1
  O  O23  1  0.250000  0.032294  0.254571  1
  O  O24  1  0.750000  0.532294  0.245429  1
  O  O25  1  0.250000  0.741420  0.216291  1
  O  O26  1  0.750000  0.315554  0.044157  1
  O  O27  1  0.750000  0.894748  0.010483  1
