# generated using pymatgen
data_Co20Cu(B3Mo)2
_symmetry_space_group_name_H-M   'P 1'
_cell_length_a   7.41236400
_cell_length_b   7.41236311
_cell_length_c   7.41236400
_cell_angle_alpha   119.99999506
_cell_angle_beta   90.00000000
_cell_angle_gamma   119.99999506
_symmetry_Int_Tables_number   1
_chemical_formula_structural   Co20Cu(B3Mo)2
_chemical_formula_sum   'Co20 Cu1 B6 Mo2'
_cell_volume   287.97529316
_cell_formula_units_Z   1
loop_
 _symmetry_equiv_pos_site_id
 _symmetry_equiv_pos_as_xyz
  1  'x, y, z'
loop_
 _atom_site_type_symbol
 _atom_site_label
 _atom_site_symmetry_multiplicity
 _atom_site_fract_x
 _atom_site_fract_y
 _atom_site_fract_z
 _atom_site_occupancy
  Co  Co0  1  0.341203  0.000000  0.000000  1
  Co  Co1  1  0.658797  0.000000  0.000000  1
  Co  Co2  1  0.000000  0.341203  0.000000  1
  Co  Co3  1  0.341203  0.341203  0.000000  1
  Co  Co4  1  0.000000  0.658797  0.000000  1
  Co  Co5  1  0.658797  0.658797  0.000000  1
  Co  Co6  1  0.381930  0.763860  0.145789  1
  Co  Co7  1  0.000000  0.000000  0.341203  1
  Co  Co8  1  0.000000  0.341203  0.341203  1
  Co  Co9  1  0.341203  0.341203  0.341203  1
  Co  Co10  1  0.618070  0.236140  0.381930  1
  Co  Co11  1  0.145789  0.763860  0.381930  1
  Co  Co12  1  0.618070  0.763860  0.381930  1
  Co  Co13  1  0.381930  0.236140  0.618070  1
  Co  Co14  1  0.854211  0.236140  0.618070  1
  Co  Co15  1  0.381930  0.763860  0.618070  1
  Co  Co16  1  0.000000  0.000000  0.658797  1
  Co  Co17  1  0.000000  0.658797  0.658797  1
  Co  Co18  1  0.658797  0.658797  0.658797  1
  Co  Co19  1  0.618070  0.236140  0.854211  1
  Cu  Cu20  1  0.000000  0.000000  0.000000  1
  B  B21  1  0.275077  0.000000  0.275077  1
  B  B22  1  0.724923  0.000000  0.275077  1
  B  B23  1  0.275077  0.550155  0.275077  1
  B  B24  1  0.724923  0.000000  0.724923  1
  B  B25  1  0.275077  0.000000  0.724923  1
  B  B26  1  0.724923  0.449846  0.724923  1
  Mo  Mo27  1  0.750000  0.500000  0.250000  1
  Mo  Mo28  1  0.250000  0.500000  0.750000  1
