# generated using pymatgen
data_Tb4OsRu6W
_symmetry_space_group_name_H-M   'P 1'
_cell_length_a   5.18303371
_cell_length_b   5.18303267
_cell_length_c   9.10395100
_cell_angle_alpha   90.00000000
_cell_angle_beta   90.00000000
_cell_angle_gamma   115.61372382
_symmetry_Int_Tables_number   1
_chemical_formula_structural   Tb4OsRu6W
_chemical_formula_sum   'Tb4 Os1 Ru6 W1'
_cell_volume   220.53317539
_cell_formula_units_Z   1
loop_
 _symmetry_equiv_pos_site_id
 _symmetry_equiv_pos_as_xyz
  1  'x, y, z'
loop_
 _atom_site_type_symbol
 _atom_site_label
 _atom_site_symmetry_multiplicity
 _atom_site_fract_x
 _atom_site_fract_y
 _atom_site_fract_z
 _atom_site_occupancy
  Tb  Tb0  1  0.327359  0.672641  0.436359  1
  Tb  Tb1  1  0.664897  0.335103  0.567977  1
  Tb  Tb2  1  0.664897  0.335103  0.932023  1
  Tb  Tb3  1  0.327359  0.672641  0.063641  1
  Os  Os4  1  0.174035  0.825965  0.750000  1
  Ru  Ru5  1  0.992513  0.007487  0.501388  1
  Ru  Ru6  1  0.992513  0.007487  0.998612  1
  Ru  Ru7  1  0.830014  0.648134  0.250000  1
  Ru  Ru8  1  0.351866  0.169986  0.250000  1
  Ru  Ru9  1  0.165808  0.334087  0.750000  1
  Ru  Ru10  1  0.665913  0.834192  0.750000  1
  W  W11  1  0.842825  0.157175  0.250000  1
