# generated using pymatgen
data_V2B4MoW
_symmetry_space_group_name_H-M   'P 1'
_cell_length_a   3.03522900
_cell_length_b   3.12136200
_cell_length_c   8.30637500
_cell_angle_alpha   90.00000000
_cell_angle_beta   90.00000000
_cell_angle_gamma   90.00000000
_symmetry_Int_Tables_number   1
_chemical_formula_structural   V2B4MoW
_chemical_formula_sum   'V2 B4 Mo1 W1'
_cell_volume   78.69499929
_cell_formula_units_Z   1
loop_
 _symmetry_equiv_pos_site_id
 _symmetry_equiv_pos_as_xyz
  1  'x, y, z'
loop_
 _atom_site_type_symbol
 _atom_site_label
 _atom_site_symmetry_multiplicity
 _atom_site_fract_x
 _atom_site_fract_y
 _atom_site_fract_z
 _atom_site_occupancy
  V  V0  1  0.500000  0.500000  0.357539  1
  V  V1  1  0.500000  0.000000  0.857420  1
  B  B2  1  0.000000  0.000000  0.436315  1
  B  B3  1  0.000000  0.500000  0.935815  1
  B  B4  1  0.500000  0.500000  0.057773  1
  B  B5  1  0.500000  0.000000  0.558089  1
  Mo  Mo6  1  0.000000  0.500000  0.648330  1
  W  W7  1  0.000000  0.000000  0.148717  1
