# generated using pymatgen
data_Y5HoCoRh
_symmetry_space_group_name_H-M   'P 1'
_cell_length_a   6.30475684
_cell_length_b   7.09469919
_cell_length_c   9.46376439
_cell_angle_alpha   89.92134112
_cell_angle_beta   90.10784592
_cell_angle_gamma   90.58876298
_symmetry_Int_Tables_number   1
_chemical_formula_structural   Y5HoCoRh
_chemical_formula_sum   'Y10 Ho2 Co2 Rh2'
_cell_volume   423.29403679
_cell_formula_units_Z   2
loop_
 _symmetry_equiv_pos_site_id
 _symmetry_equiv_pos_as_xyz
  1  'x, y, z'
loop_
 _atom_site_type_symbol
 _atom_site_label
 _atom_site_symmetry_multiplicity
 _atom_site_fract_x
 _atom_site_fract_y
 _atom_site_fract_z
 _atom_site_occupancy
  Y  Y0  1  0.628014  0.045545  0.249434  1
  Y  Y1  1  0.371986  0.954455  0.750566  1
  Y  Y2  1  0.142380  0.467086  0.750353  1
  Y  Y3  1  0.857620  0.532914  0.249647  1
  Y  Y4  1  0.673218  0.330274  0.933724  1
  Y  Y5  1  0.823255  0.820480  0.564968  1
  Y  Y6  1  0.326782  0.669726  0.066276  1
  Y  Y7  1  0.176745  0.179520  0.435032  1
  Y  Y8  1  0.326917  0.669610  0.433572  1
  Y  Y9  1  0.673083  0.330390  0.566428  1
  Ho  Ho10  1  0.176513  0.178853  0.065550  1
  Ho  Ho11  1  0.823487  0.821147  0.934450  1
  Co  Co12  1  0.449671  0.384084  0.249382  1
  Co  Co13  1  0.550329  0.615916  0.750618  1
  Rh  Rh14  1  0.950900  0.112202  0.751292  1
  Rh  Rh15  1  0.049100  0.887798  0.248708  1
