# generated using pymatgen
data_Ho2TaSb5O18
_symmetry_space_group_name_H-M   'P 1'
_cell_length_a   7.51926506
_cell_length_b   5.36074763
_cell_length_c   8.21254832
_cell_angle_alpha   86.27194278
_cell_angle_beta   89.82290405
_cell_angle_gamma   90.01632366
_symmetry_Int_Tables_number   1
_chemical_formula_structural   Ho2TaSb5O18
_chemical_formula_sum   'Ho2 Ta1 Sb5 O18'
_cell_volume   330.33651547
_cell_formula_units_Z   1
loop_
 _symmetry_equiv_pos_site_id
 _symmetry_equiv_pos_as_xyz
  1  'x, y, z'
loop_
 _atom_site_type_symbol
 _atom_site_label
 _atom_site_symmetry_multiplicity
 _atom_site_fract_x
 _atom_site_fract_y
 _atom_site_fract_z
 _atom_site_occupancy
  Ho  Ho0  1  0.249764  0.965357  0.431681  1
  Ho  Ho1  1  0.750236  0.034643  0.568319  1
  Ta  Ta2  1  0.500000  0.000000  0.000000  1
  Sb  Sb3  1  0.000000  0.000000  0.000000  1
  Sb  Sb4  1  0.494612  0.534482  0.694643  1
  Sb  Sb5  1  0.005007  0.530845  0.696455  1
  Sb  Sb6  1  0.994993  0.469155  0.303545  1
  Sb  Sb7  1  0.505388  0.465518  0.305357  1
  O  O8  1  0.250220  0.900818  0.984186  1
  O  O9  1  0.936818  0.858149  0.778778  1
  O  O10  1  0.564332  0.855278  0.779480  1
  O  O11  1  0.959130  0.739743  0.472541  1
  O  O12  1  0.540533  0.740001  0.470638  1
  O  O13  1  0.249617  0.670315  0.654961  1
  O  O14  1  0.932208  0.673833  0.113905  1
  O  O15  1  0.555916  0.679347  0.117633  1
  O  O16  1  0.249792  0.592610  0.312261  1
  O  O17  1  0.750208  0.407390  0.687739  1
  O  O18  1  0.067792  0.326167  0.886095  1
  O  O19  1  0.444084  0.320653  0.882367  1
  O  O20  1  0.750383  0.329685  0.345039  1
  O  O21  1  0.040870  0.260257  0.527459  1
  O  O22  1  0.459467  0.259999  0.529362  1
  O  O23  1  0.063182  0.141851  0.221222  1
  O  O24  1  0.435668  0.144722  0.220520  1
  O  O25  1  0.749780  0.099182  0.015814  1
