# generated using pymatgen
data_NdHoLu2(Si3Rh)2
_symmetry_space_group_name_H-M   'P 1'
_cell_length_a   8.16191087
_cell_length_b   8.16191085
_cell_length_c   7.89996100
_cell_angle_alpha   90.00000000
_cell_angle_beta   90.00000000
_cell_angle_gamma   119.94704724
_symmetry_Int_Tables_number   1
_chemical_formula_structural   NdHoLu2(Si3Rh)2
_chemical_formula_sum   'Nd2 Ho2 Lu4 Si12 Rh4'
_cell_volume   456.00621337
_cell_formula_units_Z   2
loop_
 _symmetry_equiv_pos_site_id
 _symmetry_equiv_pos_as_xyz
  1  'x, y, z'
loop_
 _atom_site_type_symbol
 _atom_site_label
 _atom_site_symmetry_multiplicity
 _atom_site_fract_x
 _atom_site_fract_y
 _atom_site_fract_z
 _atom_site_occupancy
  Nd  Nd0  1  0.000084  0.999916  0.250000  1
  Nd  Nd1  1  0.999865  0.000135  0.750000  1
  Ho  Ho2  1  0.491279  0.981973  0.750000  1
  Ho  Ho3  1  0.018027  0.508721  0.750000  1
  Lu  Lu4  1  0.508913  0.491087  0.250000  1
  Lu  Lu5  1  0.508863  0.017833  0.250000  1
  Lu  Lu6  1  0.982167  0.491137  0.250000  1
  Lu  Lu7  1  0.491684  0.508316  0.750000  1
  Si  Si8  1  0.168787  0.831213  0.499748  1
  Si  Si9  1  0.169092  0.337527  0.500651  1
  Si  Si10  1  0.662473  0.830908  0.500651  1
  Si  Si11  1  0.831229  0.168771  0.497559  1
  Si  Si12  1  0.831403  0.663029  0.497718  1
  Si  Si13  1  0.336971  0.168597  0.497718  1
  Si  Si14  1  0.831229  0.168771  0.002441  1
  Si  Si15  1  0.831403  0.663029  0.002282  1
  Si  Si16  1  0.336971  0.168597  0.002282  1
  Si  Si17  1  0.168787  0.831213  0.000252  1
  Si  Si18  1  0.169092  0.337527  0.999349  1
  Si  Si19  1  0.662473  0.830908  0.999349  1
  Rh  Rh20  1  0.333707  0.666293  0.460240  1
  Rh  Rh21  1  0.665895  0.334105  0.532645  1
  Rh  Rh22  1  0.665895  0.334105  0.967355  1
  Rh  Rh23  1  0.333707  0.666293  0.039760  1
