# generated using pymatgen
data_Ho6MnFeB14
_symmetry_space_group_name_H-M   'P 1'
_cell_length_a   7.98440614
_cell_length_b   7.98440627
_cell_length_c   9.24835300
_cell_angle_alpha   90.00000000
_cell_angle_beta   90.00000000
_cell_angle_gamma   155.29345474
_symmetry_Int_Tables_number   1
_chemical_formula_structural   Ho6MnFeB14
_chemical_formula_sum   'Ho6 Mn1 Fe1 B14'
_cell_volume   246.43117355
_cell_formula_units_Z   1
loop_
 _symmetry_equiv_pos_site_id
 _symmetry_equiv_pos_as_xyz
  1  'x, y, z'
loop_
 _atom_site_type_symbol
 _atom_site_label
 _atom_site_symmetry_multiplicity
 _atom_site_fract_x
 _atom_site_fract_y
 _atom_site_fract_z
 _atom_site_occupancy
  Ho  Ho0  1  0.895386  0.104614  0.438612  1
  Ho  Ho1  1  0.104674  0.895326  0.559497  1
  Ho  Ho2  1  0.895386  0.104614  0.061388  1
  Ho  Ho3  1  0.104674  0.895326  0.940503  1
  Ho  Ho4  1  0.241615  0.758385  0.250000  1
  Ho  Ho5  1  0.757911  0.242089  0.750000  1
  Mn  Mn6  1  0.053308  0.946692  0.250000  1
  Fe  Fe7  1  0.946023  0.053977  0.750000  1
  B  B8  1  0.727818  0.272182  0.467428  1
  B  B9  1  0.272688  0.727312  0.533617  1
  B  B10  1  0.727818  0.272182  0.032572  1
  B  B11  1  0.272688  0.727312  0.966383  1
  B  B12  1  0.630263  0.369737  0.153076  1
  B  B13  1  0.370044  0.629956  0.846981  1
  B  B14  1  0.630263  0.369737  0.346924  1
  B  B15  1  0.370044  0.629956  0.653019  1
  B  B16  1  0.521387  0.478613  0.098181  1
  B  B17  1  0.478643  0.521357  0.901951  1
  B  B18  1  0.521387  0.478613  0.401819  1
  B  B19  1  0.478643  0.521357  0.598049  1
  B  B20  1  0.458775  0.541225  0.250000  1
  B  B21  1  0.540561  0.459439  0.750000  1
