# generated using pymatgen
data_Nd2CoSi(PIr)3
_symmetry_space_group_name_H-M   'P 1'
_cell_length_a   4.14261900
_cell_length_b   4.14261900
_cell_length_c   9.55472800
_cell_angle_alpha   90.00000000
_cell_angle_beta   90.00000000
_cell_angle_gamma   90.00000000
_symmetry_Int_Tables_number   1
_chemical_formula_structural   Nd2CoSi(PIr)3
_chemical_formula_sum   'Nd2 Co1 Si1 P3 Ir3'
_cell_volume   163.97147890
_cell_formula_units_Z   1
loop_
 _symmetry_equiv_pos_site_id
 _symmetry_equiv_pos_as_xyz
  1  'x, y, z'
loop_
 _atom_site_type_symbol
 _atom_site_label
 _atom_site_symmetry_multiplicity
 _atom_site_fract_x
 _atom_site_fract_y
 _atom_site_fract_z
 _atom_site_occupancy
  Nd  Nd0  1  0.000000  0.500000  0.263534  1
  Nd  Nd1  1  0.500000  0.000000  0.737369  1
  Co  Co2  1  0.000000  0.500000  0.611403  1
  Si  Si3  1  0.500000  0.000000  0.134313  1
  P  P4  1  0.000000  0.000000  0.510906  1
  P  P5  1  0.500000  0.500000  0.510906  1
  P  P6  1  0.000000  0.500000  0.854584  1
  Ir  Ir7  1  0.000000  0.000000  0.992705  1
  Ir  Ir8  1  0.500000  0.500000  0.992705  1
  Ir  Ir9  1  0.500000  0.000000  0.391575  1
