# generated using pymatgen
data_Yb2Sm2Sb6Rh7
_symmetry_space_group_name_H-M   'P 1'
_cell_length_a   7.64937391
_cell_length_b   7.64937493
_cell_length_c   7.63252592
_cell_angle_alpha   109.46717479
_cell_angle_beta   109.46717528
_cell_angle_gamma   109.56856613
_symmetry_Int_Tables_number   1
_chemical_formula_structural   Yb2Sm2Sb6Rh7
_chemical_formula_sum   'Yb2 Sm2 Sb6 Rh7'
_cell_volume   343.41446845
_cell_formula_units_Z   1
loop_
 _symmetry_equiv_pos_site_id
 _symmetry_equiv_pos_as_xyz
  1  'x, y, z'
loop_
 _atom_site_type_symbol
 _atom_site_label
 _atom_site_symmetry_multiplicity
 _atom_site_fract_x
 _atom_site_fract_y
 _atom_site_fract_z
 _atom_site_occupancy
  Yb  Yb0  1  0.500000  0.000000  0.000000  1
  Yb  Yb1  1  0.000000  0.500000  0.000000  1
  Sm  Sm2  1  0.000000  0.000000  0.500000  1
  Sm  Sm3  1  0.500000  0.500000  0.500000  1
  Sb  Sb4  1  0.319394  0.996998  0.316392  1
  Sb  Sb5  1  0.003002  0.680606  0.683608  1
  Sb  Sb6  1  0.680556  0.680556  0.000000  1
  Sb  Sb7  1  0.680606  0.003002  0.683608  1
  Sb  Sb8  1  0.996998  0.319394  0.316392  1
  Sb  Sb9  1  0.319444  0.319444  0.000000  1
  Rh  Rh10  1  0.250041  0.500148  0.750189  1
  Rh  Rh11  1  0.500148  0.250041  0.750189  1
  Rh  Rh12  1  0.750000  0.250000  0.500000  1
  Rh  Rh13  1  0.499852  0.749959  0.249811  1
  Rh  Rh14  1  0.000000  0.000000  0.000000  1
  Rh  Rh15  1  0.250000  0.750000  0.500000  1
  Rh  Rh16  1  0.749959  0.499852  0.249811  1
