# generated using pymatgen
data_La2Ce2Ru3
_symmetry_space_group_name_H-M   'P 1'
_cell_length_a   8.29867994
_cell_length_b   8.24703596
_cell_length_c   6.21699193
_cell_angle_alpha   77.63729438
_cell_angle_beta   74.08731513
_cell_angle_gamma   118.22871866
_symmetry_Int_Tables_number   1
_chemical_formula_structural   La2Ce2Ru3
_chemical_formula_sum   'La4 Ce4 Ru6'
_cell_volume   329.51001316
_cell_formula_units_Z   2
loop_
 _symmetry_equiv_pos_site_id
 _symmetry_equiv_pos_as_xyz
  1  'x, y, z'
loop_
 _atom_site_type_symbol
 _atom_site_label
 _atom_site_symmetry_multiplicity
 _atom_site_fract_x
 _atom_site_fract_y
 _atom_site_fract_z
 _atom_site_occupancy
  La  La0  1  0.877730  0.610295  0.161470  1
  La  La1  1  0.348063  0.341851  0.285935  1
  La  La2  1  0.111702  0.386382  0.840475  1
  La  La3  1  0.384661  0.110343  0.846874  1
  Ce  Ce4  1  0.160878  0.825792  0.502189  1
  Ce  Ce5  1  0.661545  0.670668  0.695305  1
  Ce  Ce6  1  0.837786  0.169610  0.500854  1
  Ce  Ce7  1  0.607023  0.880595  0.166166  1
  Ru  Ru8  1  0.807160  0.447066  0.735684  1
  Ru  Ru9  1  0.993256  0.002000  0.253865  1
  Ru  Ru10  1  0.436958  0.806684  0.748177  1
  Ru  Ru11  1  0.590902  0.149594  0.251188  1
  Ru  Ru12  1  0.993904  0.001221  0.751312  1
  Ru  Ru13  1  0.188434  0.597898  0.260506  1
