# generated using pymatgen
data_Rb13Hf2(In3As5)2
_symmetry_space_group_name_H-M   'P 1'
_cell_length_a   9.72543401
_cell_length_b   9.72726838
_cell_length_c   13.84453157
_cell_angle_alpha   81.16298604
_cell_angle_beta   78.43708505
_cell_angle_gamma   63.14613263
_symmetry_Int_Tables_number   1
_chemical_formula_structural   Rb13Hf2(In3As5)2
_chemical_formula_sum   'Rb13 Hf2 In6 As10'
_cell_volume   1141.78173787
_cell_formula_units_Z   1
loop_
 _symmetry_equiv_pos_site_id
 _symmetry_equiv_pos_as_xyz
  1  'x, y, z'
loop_
 _atom_site_type_symbol
 _atom_site_label
 _atom_site_symmetry_multiplicity
 _atom_site_fract_x
 _atom_site_fract_y
 _atom_site_fract_z
 _atom_site_occupancy
  Rb  Rb0  1  0.493223  0.868331  0.353682  1
  Rb  Rb1  1  0.506777  0.131669  0.646318  1
  Rb  Rb2  1  0.852877  0.586588  0.884566  1
  Rb  Rb3  1  0.147123  0.413412  0.115434  1
  Rb  Rb4  1  0.090656  0.784411  0.429540  1
  Rb  Rb5  1  0.909344  0.215589  0.570460  1
  Rb  Rb6  1  0.744311  0.684656  0.595121  1
  Rb  Rb7  1  0.255689  0.315344  0.404879  1
  Rb  Rb8  1  0.500000  0.500000  0.000000  1
  Rb  Rb9  1  0.318937  0.930822  0.085526  1
  Rb  Rb10  1  0.681063  0.069178  0.914474  1
  Rb  Rb11  1  0.888626  0.858023  0.165149  1
  Rb  Rb12  1  0.111374  0.141977  0.834851  1
  Hf  Hf13  1  0.380310  0.739381  0.775757  1
  Hf  Hf14  1  0.619690  0.260619  0.224243  1
  In  In15  1  0.027356  0.811091  0.707847  1
  In  In16  1  0.972644  0.188909  0.292153  1
  In  In17  1  0.600845  0.444412  0.409315  1
  In  In18  1  0.399155  0.555588  0.590685  1
  In  In19  1  0.725163  0.562603  0.168727  1
  In  In20  1  0.274837  0.437397  0.831273  1
  As  As21  1  0.430538  0.556377  0.252984  1
  As  As22  1  0.569462  0.443623  0.747016  1
  As  As23  1  0.129099  0.744946  0.897028  1
  As  As24  1  0.870901  0.255054  0.102972  1
  As  As25  1  0.710862  0.127410  0.396137  1
  As  As26  1  0.289138  0.872590  0.603863  1
  As  As27  1  0.857905  0.508867  0.351812  1
  As  As28  1  0.142095  0.491133  0.648188  1
  As  As29  1  0.506124  0.870591  0.843560  1
  As  As30  1  0.493876  0.129409  0.156440  1
