# generated using pymatgen
data_Er6Al24GaFe4Ru2Rh
_symmetry_space_group_name_H-M   'P 1'
_cell_length_a   8.72342508
_cell_length_b   8.72342299
_cell_length_c   9.39228400
_cell_angle_alpha   90.15538685
_cell_angle_beta   89.84461319
_cell_angle_gamma   119.76863298
_symmetry_Int_Tables_number   1
_chemical_formula_structural   Er6Al24GaFe4Ru2Rh
_chemical_formula_sum   'Er6 Al24 Ga1 Fe4 Ru2 Rh1'
_cell_volume   620.41384911
_cell_formula_units_Z   1
loop_
 _symmetry_equiv_pos_site_id
 _symmetry_equiv_pos_as_xyz
  1  'x, y, z'
loop_
 _atom_site_type_symbol
 _atom_site_label
 _atom_site_symmetry_multiplicity
 _atom_site_fract_x
 _atom_site_fract_y
 _atom_site_fract_z
 _atom_site_occupancy
  Er  Er0  1  0.194140  0.387499  0.243329  1
  Er  Er1  1  0.805860  0.612501  0.756671  1
  Er  Er2  1  0.612983  0.805587  0.243374  1
  Er  Er3  1  0.387017  0.194413  0.756626  1
  Er  Er4  1  0.194418  0.803850  0.252868  1
  Er  Er5  1  0.805582  0.196150  0.747132  1
  Al  Al6  1  0.324180  0.676372  0.019111  1
  Al  Al7  1  0.675820  0.323628  0.980889  1
  Al  Al8  1  0.667652  0.335342  0.519560  1
  Al  Al9  1  0.332348  0.664658  0.480440  1
  Al  Al10  1  0.158913  0.318711  0.573935  1
  Al  Al11  1  0.841087  0.681289  0.426065  1
  Al  Al12  1  0.682069  0.840107  0.574180  1
  Al  Al13  1  0.856601  0.682221  0.079490  1
  Al  Al14  1  0.317931  0.159893  0.425820  1
  Al  Al15  1  0.143399  0.317779  0.920510  1
  Al  Al16  1  0.158333  0.838873  0.578987  1
  Al  Al17  1  0.317707  0.142765  0.079444  1
  Al  Al18  1  0.841667  0.161127  0.421013  1
  Al  Al19  1  0.682293  0.857235  0.920556  1
  Al  Al20  1  0.838948  0.160485  0.077550  1
  Al  Al21  1  0.161052  0.839515  0.922450  1
  Al  Al22  1  0.560734  0.118201  0.242873  1
  Al  Al23  1  0.439266  0.881799  0.757127  1
  Al  Al24  1  0.882115  0.439492  0.244391  1
  Al  Al25  1  0.117885  0.560508  0.755609  1
  Al  Al26  1  0.566234  0.434075  0.257324  1
  Al  Al27  1  0.433766  0.565925  0.742676  1
  Al  Al28  1  0.998632  0.000641  0.250805  1
  Al  Al29  1  0.001368  0.999359  0.749195  1
  Ga  Ga30  1  0.500000  0.500000  0.000000  1
  Fe  Fe31  1  0.500000  0.000000  0.000000  1
  Fe  Fe32  1  0.000000  0.500000  0.000000  1
  Fe  Fe33  1  0.000000  0.000000  0.000000  1
  Fe  Fe34  1  0.000000  0.000000  0.500000  1
  Ru  Ru35  1  0.000000  0.500000  0.500000  1
  Ru  Ru36  1  0.500000  0.500000  0.500000  1
  Rh  Rh37  1  0.500000  0.000000  0.500000  1
