# generated using pymatgen
data_Li3Hf(NiP)4
_symmetry_space_group_name_H-M   'P 1'
_cell_length_a   3.73565300
_cell_length_b   6.16389595
_cell_length_c   6.70674257
_cell_angle_alpha   88.88472348
_cell_angle_beta   90.00000000
_cell_angle_gamma   90.00000000
_symmetry_Int_Tables_number   1
_chemical_formula_structural   Li3Hf(NiP)4
_chemical_formula_sum   'Li3 Hf1 Ni4 P4'
_cell_volume   154.40138178
_cell_formula_units_Z   1
loop_
 _symmetry_equiv_pos_site_id
 _symmetry_equiv_pos_as_xyz
  1  'x, y, z'
loop_
 _atom_site_type_symbol
 _atom_site_label
 _atom_site_symmetry_multiplicity
 _atom_site_fract_x
 _atom_site_fract_y
 _atom_site_fract_z
 _atom_site_occupancy
  Li  Li0  1  0.250000  0.015515  0.822303  1
  Li  Li1  1  0.250000  0.512097  0.688396  1
  Li  Li2  1  0.750000  0.982015  0.172378  1
  Hf  Hf3  1  0.750000  0.483282  0.324517  1
  Ni  Ni4  1  0.250000  0.145325  0.437882  1
  Ni  Ni5  1  0.250000  0.660666  0.051699  1
  Ni  Ni6  1  0.750000  0.859149  0.563447  1
  Ni  Ni7  1  0.750000  0.346330  0.935983  1
  P  P8  1  0.250000  0.780751  0.382141  1
  P  P9  1  0.250000  0.281763  0.115908  1
  P  P10  1  0.750000  0.218780  0.626942  1
  P  P11  1  0.750000  0.714328  0.878404  1
