# generated using pymatgen
data_Ho4TmIr2
_symmetry_space_group_name_H-M   'P 1'
_cell_length_a   6.46163592
_cell_length_b   7.18606904
_cell_length_c   8.46672767
_cell_angle_alpha   96.38309716
_cell_angle_beta   112.43220333
_cell_angle_gamma   90.00000320
_symmetry_Int_Tables_number   1
_chemical_formula_structural   Ho4TmIr2
_chemical_formula_sum   'Ho8 Tm2 Ir4'
_cell_volume   360.75553063
_cell_formula_units_Z   2
loop_
 _symmetry_equiv_pos_site_id
 _symmetry_equiv_pos_as_xyz
  1  'x, y, z'
loop_
 _atom_site_type_symbol
 _atom_site_label
 _atom_site_symmetry_multiplicity
 _atom_site_fract_x
 _atom_site_fract_y
 _atom_site_fract_z
 _atom_site_occupancy
  Ho  Ho0  1  0.970048  0.918903  0.181671  1
  Ho  Ho1  1  0.788376  0.581097  0.818329  1
  Ho  Ho2  1  0.029952  0.081097  0.818329  1
  Ho  Ho3  1  0.211624  0.418903  0.181671  1
  Ho  Ho4  1  0.654057  0.817585  0.441568  1
  Ho  Ho5  1  0.212488  0.682415  0.558432  1
  Ho  Ho6  1  0.345943  0.182415  0.558432  1
  Ho  Ho7  1  0.787512  0.317585  0.441568  1
  Tm  Tm8  1  0.428144  0.750000  0.000000  1
  Tm  Tm9  1  0.571856  0.250000  0.000000  1
  Ir  Ir10  1  0.824237  0.572887  0.217488  1
  Ir  Ir11  1  0.606749  0.927113  0.782512  1
  Ir  Ir12  1  0.175764  0.427113  0.782512  1
  Ir  Ir13  1  0.393251  0.072887  0.217488  1
