# generated using pymatgen
data_Nb6Al2GaPtN2
_symmetry_space_group_name_H-M   'P 1'
_cell_length_a   7.05453567
_cell_length_b   7.07264293
_cell_length_c   7.07952500
_cell_angle_alpha   90.00000000
_cell_angle_beta   90.00000000
_cell_angle_gamma   90.39900648
_symmetry_Int_Tables_number   1
_chemical_formula_structural   Nb6Al2GaPtN2
_chemical_formula_sum   'Nb12 Al4 Ga2 Pt2 N4'
_cell_volume   353.21875501
_cell_formula_units_Z   2
loop_
 _symmetry_equiv_pos_site_id
 _symmetry_equiv_pos_as_xyz
  1  'x, y, z'
loop_
 _atom_site_type_symbol
 _atom_site_label
 _atom_site_symmetry_multiplicity
 _atom_site_fract_x
 _atom_site_fract_y
 _atom_site_fract_z
 _atom_site_occupancy
  Nb  Nb0  1  0.789731  0.957387  0.377542  1
  Nb  Nb1  1  0.710269  0.042613  0.877542  1
  Nb  Nb2  1  0.207944  0.453109  0.125581  1
  Nb  Nb3  1  0.292056  0.546891  0.625581  1
  Nb  Nb4  1  0.955353  0.380384  0.790044  1
  Nb  Nb5  1  0.041998  0.869963  0.709664  1
  Nb  Nb6  1  0.458002  0.130037  0.209664  1
  Nb  Nb7  1  0.544647  0.619616  0.290044  1
  Nb  Nb8  1  0.379581  0.788715  0.955133  1
  Nb  Nb9  1  0.872539  0.708392  0.043032  1
  Nb  Nb10  1  0.120419  0.211285  0.455133  1
  Nb  Nb11  1  0.627461  0.291608  0.543032  1
  Al  Al12  1  0.563298  0.421940  0.926597  1
  Al  Al13  1  0.420581  0.933763  0.569741  1
  Al  Al14  1  0.936702  0.578060  0.426597  1
  Al  Al15  1  0.079419  0.066237  0.069741  1
  Ga  Ga16  1  0.823503  0.320652  0.176441  1
  Ga  Ga17  1  0.676497  0.679348  0.676441  1
  Pt  Pt18  1  0.182284  0.823261  0.317515  1
  Pt  Pt19  1  0.317716  0.176739  0.817515  1
  N  N20  1  0.878341  0.121904  0.628687  1
  N  N21  1  0.621659  0.878096  0.128687  1
  N  N22  1  0.127087  0.624756  0.880023  1
  N  N23  1  0.372913  0.375244  0.380023  1
