# generated using pymatgen
data_Y3HoSc2(AlPt2)2
_symmetry_space_group_name_H-M   'P 1'
_cell_length_a   4.40060300
_cell_length_b   7.11614291
_cell_length_c   8.04356400
_cell_angle_alpha   90.06728658
_cell_angle_beta   90.00000000
_cell_angle_gamma   90.00000000
_symmetry_Int_Tables_number   1
_chemical_formula_structural   Y3HoSc2(AlPt2)2
_chemical_formula_sum   'Y3 Ho1 Sc2 Al2 Pt4'
_cell_volume   251.88660550
_cell_formula_units_Z   1
loop_
 _symmetry_equiv_pos_site_id
 _symmetry_equiv_pos_as_xyz
  1  'x, y, z'
loop_
 _atom_site_type_symbol
 _atom_site_label
 _atom_site_symmetry_multiplicity
 _atom_site_fract_x
 _atom_site_fract_y
 _atom_site_fract_z
 _atom_site_occupancy
  Y  Y0  1  0.750000  0.449885  0.177613  1
  Y  Y1  1  0.250000  0.050365  0.677682  1
  Y  Y2  1  0.750000  0.982071  0.327806  1
  Ho  Ho3  1  0.250000  0.518048  0.828088  1
  Sc  Sc4  1  0.750000  0.871048  0.935932  1
  Sc  Sc5  1  0.250000  0.628752  0.436246  1
  Al  Al6  1  0.750000  0.360283  0.564840  1
  Al  Al7  1  0.250000  0.139801  0.064661  1
  Pt  Pt8  1  0.750000  0.732246  0.616753  1
  Pt  Pt9  1  0.750000  0.242022  0.877379  1
  Pt  Pt10  1  0.250000  0.259296  0.377790  1
  Pt  Pt11  1  0.250000  0.766182  0.115207  1
