# generated using pymatgen
data_Tb2GaNiRu
_symmetry_space_group_name_H-M   'P 1'
_cell_length_a   4.15593183
_cell_length_b   5.59919190
_cell_length_c   5.45875872
_cell_angle_alpha   120.85474618
_cell_angle_beta   112.37495491
_cell_angle_gamma   89.99999770
_symmetry_Int_Tables_number   1
_chemical_formula_structural   Tb2GaNiRu
_chemical_formula_sum   'Tb2 Ga1 Ni1 Ru1'
_cell_volume   97.73995806
_cell_formula_units_Z   1
loop_
 _symmetry_equiv_pos_site_id
 _symmetry_equiv_pos_as_xyz
  1  'x, y, z'
loop_
 _atom_site_type_symbol
 _atom_site_label
 _atom_site_symmetry_multiplicity
 _atom_site_fract_x
 _atom_site_fract_y
 _atom_site_fract_z
 _atom_site_occupancy
  Tb  Tb0  1  0.796232  0.287904  0.592465  1
  Tb  Tb1  1  0.203768  0.695439  0.407535  1
  Ga  Ga2  1  0.000000  0.996220  0.000000  1
  Ni  Ni3  1  0.500000  0.739180  0.000000  1
  Ru  Ru4  1  0.500000  0.281257  0.000000  1
