# generated using pymatgen
data_Dy6Mn2Co15NiP12
_symmetry_space_group_name_H-M   'P 1'
_cell_length_a   3.69027000
_cell_length_b   10.52661100
_cell_length_c   12.20842200
_cell_angle_alpha   90.00000000
_cell_angle_beta   90.00000000
_cell_angle_gamma   90.00000000
_symmetry_Int_Tables_number   1
_chemical_formula_structural   Dy6Mn2Co15NiP12
_chemical_formula_sum   'Dy6 Mn2 Co15 Ni1 P12'
_cell_volume   474.24880998
_cell_formula_units_Z   1
loop_
 _symmetry_equiv_pos_site_id
 _symmetry_equiv_pos_as_xyz
  1  'x, y, z'
loop_
 _atom_site_type_symbol
 _atom_site_label
 _atom_site_symmetry_multiplicity
 _atom_site_fract_x
 _atom_site_fract_y
 _atom_site_fract_z
 _atom_site_occupancy
  Dy  Dy0  1  0.000000  0.500000  0.520691  1
  Dy  Dy1  1  0.500000  0.000000  0.478012  1
  Dy  Dy2  1  0.500000  0.817966  0.205274  1
  Dy  Dy3  1  0.500000  0.182034  0.205274  1
  Dy  Dy4  1  0.000000  0.683492  0.795611  1
  Dy  Dy5  1  0.000000  0.316508  0.795611  1
  Mn  Mn6  1  0.500000  0.500000  0.158456  1
  Mn  Mn7  1  0.000000  0.000000  0.841330  1
  Co  Co8  1  0.000000  0.000000  0.297204  1
  Co  Co9  1  0.000000  0.500000  0.986372  1
  Co  Co10  1  0.500000  0.000000  0.014408  1
  Co  Co11  1  0.500000  0.333070  0.993970  1
  Co  Co12  1  0.500000  0.666930  0.993970  1
  Co  Co13  1  0.000000  0.166482  0.005743  1
  Co  Co14  1  0.000000  0.833518  0.005743  1
  Co  Co15  1  0.500000  0.296978  0.430505  1
  Co  Co16  1  0.500000  0.703022  0.430505  1
  Co  Co17  1  0.000000  0.202896  0.569200  1
  Co  Co18  1  0.000000  0.797104  0.569200  1
  Co  Co19  1  0.500000  0.879126  0.709767  1
  Co  Co20  1  0.500000  0.120874  0.709767  1
  Co  Co21  1  0.000000  0.620570  0.290339  1
  Co  Co22  1  0.000000  0.379430  0.290339  1
  Ni  Ni23  1  0.500000  0.500000  0.702545  1
  P  P24  1  0.500000  0.500000  0.883805  1
  P  P25  1  0.000000  0.000000  0.117620  1
  P  P26  1  0.500000  0.500000  0.344517  1
  P  P27  1  0.000000  0.000000  0.655366  1
  P  P28  1  0.500000  0.309914  0.615245  1
  P  P29  1  0.500000  0.690086  0.615245  1
  P  P30  1  0.000000  0.188851  0.383869  1
  P  P31  1  0.000000  0.811149  0.383869  1
  P  P32  1  0.500000  0.847904  0.893360  1
  P  P33  1  0.500000  0.152096  0.893360  1
  P  P34  1  0.000000  0.653086  0.106956  1
  P  P35  1  0.000000  0.346914  0.106956  1
