# generated using pymatgen
data_Sr2CeSnO6
_symmetry_space_group_name_H-M   'P 1'
_cell_length_a   5.98711417
_cell_length_b   6.07401900
_cell_length_c   8.51787100
_cell_angle_alpha   90.00000000
_cell_angle_beta   90.54026427
_cell_angle_gamma   90.00000000
_symmetry_Int_Tables_number   1
_chemical_formula_structural   Sr2CeSnO6
_chemical_formula_sum   'Sr4 Ce2 Sn2 O12'
_cell_volume   309.74580740
_cell_formula_units_Z   2
loop_
 _symmetry_equiv_pos_site_id
 _symmetry_equiv_pos_as_xyz
  1  'x, y, z'
loop_
 _atom_site_type_symbol
 _atom_site_label
 _atom_site_symmetry_multiplicity
 _atom_site_fract_x
 _atom_site_fract_y
 _atom_site_fract_z
 _atom_site_occupancy
  Sr  Sr0  1  0.010202  0.037975  0.248888  1
  Sr  Sr1  1  0.489797  0.537976  0.251112  1
  Sr  Sr2  1  0.510203  0.462025  0.748887  1
  Sr  Sr3  1  0.989797  0.962025  0.751113  1
  Ce  Ce4  1  0.500001  0.000000  0.000000  1
  Ce  Ce5  1  0.000000  0.500000  0.500000  1
  Sn  Sn6  1  0.000000  0.500000  0.000000  1
  Sn  Sn7  1  0.500001  0.000000  0.500000  1
  O  O8  1  0.281130  0.296454  0.044537  1
  O  O9  1  0.200968  0.782242  0.045099  1
  O  O10  1  0.916334  0.473541  0.241447  1
  O  O11  1  0.583665  0.973541  0.258554  1
  O  O12  1  0.299031  0.282242  0.454901  1
  O  O13  1  0.218869  0.796454  0.455463  1
  O  O14  1  0.781131  0.203545  0.544536  1
  O  O15  1  0.700969  0.717757  0.545098  1
  O  O16  1  0.416334  0.026459  0.741447  1
  O  O17  1  0.083666  0.526460  0.758553  1
  O  O18  1  0.799032  0.217758  0.954901  1
  O  O19  1  0.718870  0.703545  0.955464  1
