# generated using pymatgen
data_CeTh7H30
_symmetry_space_group_name_H-M   'P 1'
_cell_length_a   7.88563469
_cell_length_b   7.87851078
_cell_length_c   7.87851040
_cell_angle_alpha   109.45289581
_cell_angle_beta   109.48953294
_cell_angle_gamma   109.48953780
_symmetry_Int_Tables_number   1
_chemical_formula_structural   CeTh7H30
_chemical_formula_sum   'Ce1 Th7 H30'
_cell_volume   376.70797764
_cell_formula_units_Z   1
loop_
 _symmetry_equiv_pos_site_id
 _symmetry_equiv_pos_as_xyz
  1  'x, y, z'
loop_
 _atom_site_type_symbol
 _atom_site_label
 _atom_site_symmetry_multiplicity
 _atom_site_fract_x
 _atom_site_fract_y
 _atom_site_fract_z
 _atom_site_occupancy
  Ce  Ce0  1  0.081245  0.000000  0.000000  1
  Th  Th1  1  0.582063  0.000000  0.000000  1
  Th  Th2  1  0.000580  0.500047  0.081555  1
  Th  Th3  1  0.919024  0.918444  0.418492  1
  Th  Th4  1  0.500533  0.581508  0.499953  1
  Th  Th5  1  0.498662  0.081896  0.498242  1
  Th  Th6  1  0.000419  0.501759  0.583655  1
  Th  Th7  1  0.416766  0.416346  0.918105  1
  H  H8  1  0.409031  0.189245  0.035770  1
  H  H9  1  0.782024  0.629874  0.095926  1
  H  H10  1  0.252825  0.380782  0.126237  1
  H  H11  1  0.595334  0.781796  0.131364  1
  H  H12  1  0.373263  0.964231  0.153476  1
  H  H13  1  0.901119  0.035501  0.188821  1
  H  H14  1  0.813537  0.349567  0.218203  1
  H  H15  1  0.126588  0.873763  0.254544  1
  H  H16  1  0.630898  0.595858  0.282259  1
  H  H17  1  0.348639  0.717741  0.313599  1
  H  H18  1  0.316235  0.220094  0.352540  1
  H  H19  1  0.152150  0.466052  0.370126  1
  H  H20  1  0.749729  0.125063  0.375783  1
  H  H21  1  0.035040  0.686401  0.404142  1
  H  H22  1  0.651722  0.368961  0.464815  1
  H  H23  1  0.686098  0.904076  0.533949  1
  H  H24  1  0.131285  0.283457  0.595753  1
  H  H25  1  0.872043  0.745455  0.619218  1
  H  H26  1  0.282760  0.095853  0.631038  1
  H  H27  1  0.463971  0.868637  0.650433  1
  H  H28  1  0.535532  0.404247  0.687703  1
  H  H29  1  0.847827  0.312296  0.716543  1
  H  H30  1  0.373946  0.624216  0.749279  1
  H  H31  1  0.096142  0.132446  0.779906  1
  H  H32  1  0.219787  0.846525  0.810755  1
  H  H33  1  0.712298  0.811179  0.846680  1
  H  H34  1  0.963696  0.647460  0.867555  1
  H  H35  1  0.624667  0.250721  0.874939  1
  H  H36  1  0.186908  0.535186  0.904147  1
  H  H37  1  0.865618  0.153320  0.964500  1
