# generated using pymatgen
data_Ba2N2Cl
_symmetry_space_group_name_H-M   'P 1'
_cell_length_a   8.04200170
_cell_length_b   8.04200165
_cell_length_c   7.20197413
_cell_angle_alpha   99.94198714
_cell_angle_beta   99.94198764
_cell_angle_gamma   32.72943114
_symmetry_Int_Tables_number   1
_chemical_formula_structural   Ba2N2Cl
_chemical_formula_sum   'Ba4 N4 Cl2'
_cell_volume   247.72331135
_cell_formula_units_Z   2
loop_
 _symmetry_equiv_pos_site_id
 _symmetry_equiv_pos_as_xyz
  1  'x, y, z'
loop_
 _atom_site_type_symbol
 _atom_site_label
 _atom_site_symmetry_multiplicity
 _atom_site_fract_x
 _atom_site_fract_y
 _atom_site_fract_z
 _atom_site_occupancy
  Ba  Ba0  1  0.853351  0.439958  0.145360  1
  Ba  Ba1  1  0.560042  0.146649  0.354641  1
  Ba  Ba2  1  0.439959  0.853351  0.645360  1
  Ba  Ba3  1  0.146649  0.560042  0.854641  1
  N  N4  1  0.368235  0.086596  0.023585  1
  N  N5  1  0.913404  0.631765  0.476416  1
  N  N6  1  0.086596  0.368236  0.523585  1
  N  N7  1  0.631765  0.913404  0.976416  1
  Cl  Cl8  1  0.218490  0.781510  0.250000  1
  Cl  Cl9  1  0.781510  0.218490  0.750000  1
