# generated using pymatgen
data_Yb11Ho7(TmSn8)2
_symmetry_space_group_name_H-M   'P 1'
_cell_length_a   7.81928157
_cell_length_b   8.41551347
_cell_length_c   15.94495528
_cell_angle_alpha   90.01523647
_cell_angle_beta   90.01507986
_cell_angle_gamma   89.91087740
_symmetry_Int_Tables_number   1
_chemical_formula_structural   Yb11Ho7(TmSn8)2
_chemical_formula_sum   'Yb11 Ho7 Tm2 Sn16'
_cell_volume   1049.22884399
_cell_formula_units_Z   1
loop_
 _symmetry_equiv_pos_site_id
 _symmetry_equiv_pos_as_xyz
  1  'x, y, z'
loop_
 _atom_site_type_symbol
 _atom_site_label
 _atom_site_symmetry_multiplicity
 _atom_site_fract_x
 _atom_site_fract_y
 _atom_site_fract_z
 _atom_site_occupancy
  Yb  Yb0  1  0.504459  0.687438  0.593658  1
  Yb  Yb1  1  0.004034  0.814859  0.908066  1
  Yb  Yb2  1  0.494026  0.311643  0.092133  1
  Yb  Yb3  1  0.995550  0.187288  0.408258  1
  Yb  Yb4  1  0.494251  0.311696  0.408026  1
  Yb  Yb5  1  0.995559  0.187300  0.091725  1
  Yb  Yb6  1  0.504510  0.687431  0.906284  1
  Yb  Yb7  1  0.004034  0.814922  0.591866  1
  Yb  Yb8  1  0.336745  0.989562  0.749905  1
  Yb  Yb9  1  0.162861  0.488082  0.249999  1
  Yb  Yb10  1  0.662624  0.009982  0.250093  1
  Ho  Ho11  1  0.175891  0.335360  0.876894  1
  Ho  Ho12  1  0.325784  0.833567  0.121995  1
  Ho  Ho13  1  0.825964  0.664045  0.378571  1
  Ho  Ho14  1  0.325919  0.833603  0.378164  1
  Ho  Ho15  1  0.825957  0.664000  0.121647  1
  Ho  Ho16  1  0.674403  0.163687  0.877494  1
  Ho  Ho17  1  0.175956  0.335273  0.622897  1
  Tm  Tm18  1  0.674533  0.163466  0.622535  1
  Tm  Tm19  1  0.838615  0.509544  0.749820  1
  Sn  Sn20  1  0.672380  0.963347  0.459858  1
  Sn  Sn21  1  0.171729  0.536065  0.040305  1
  Sn  Sn22  1  0.328372  0.037415  0.959160  1
  Sn  Sn23  1  0.827803  0.465016  0.544347  1
  Sn  Sn24  1  0.329724  0.037545  0.541092  1
  Sn  Sn25  1  0.828744  0.465655  0.955682  1
  Sn  Sn26  1  0.672079  0.962840  0.040673  1
  Sn  Sn27  1  0.171500  0.536030  0.459811  1
  Sn  Sn28  1  0.477478  0.379614  0.749681  1
  Sn  Sn29  1  0.971881  0.132753  0.749545  1
  Sn  Sn30  1  0.527150  0.624962  0.250063  1
  Sn  Sn31  1  0.026429  0.872280  0.250067  1
  Sn  Sn32  1  0.722517  0.865094  0.749697  1
  Sn  Sn33  1  0.209348  0.631152  0.749907  1
  Sn  Sn34  1  0.279935  0.126382  0.250037  1
  Sn  Sn35  1  0.781258  0.371104  0.250041  1
