# generated using pymatgen
data_Er2Si2PdRu
_symmetry_space_group_name_H-M   'P 1'
_cell_length_a   4.26261600
_cell_length_b   6.89874869
_cell_length_c   7.39122995
_cell_angle_alpha   90.48078105
_cell_angle_beta   90.00000000
_cell_angle_gamma   90.00000000
_symmetry_Int_Tables_number   1
_chemical_formula_structural   Er2Si2PdRu
_chemical_formula_sum   'Er4 Si4 Pd2 Ru2'
_cell_volume   217.34415191
_cell_formula_units_Z   2
loop_
 _symmetry_equiv_pos_site_id
 _symmetry_equiv_pos_as_xyz
  1  'x, y, z'
loop_
 _atom_site_type_symbol
 _atom_site_label
 _atom_site_symmetry_multiplicity
 _atom_site_fract_x
 _atom_site_fract_y
 _atom_site_fract_z
 _atom_site_occupancy
  Er  Er0  1  0.250000  0.993850  0.807064  1
  Er  Er1  1  0.750000  0.006150  0.192936  1
  Er  Er2  1  0.250000  0.500005  0.689520  1
  Er  Er3  1  0.750000  0.499995  0.310480  1
  Si  Si4  1  0.250000  0.299696  0.090557  1
  Si  Si5  1  0.750000  0.700304  0.909443  1
  Si  Si6  1  0.250000  0.788161  0.381034  1
  Si  Si7  1  0.750000  0.211839  0.618966  1
  Pd  Pd8  1  0.750000  0.835124  0.573855  1
  Pd  Pd9  1  0.250000  0.164876  0.426145  1
  Ru  Ru10  1  0.750000  0.345343  0.933906  1
  Ru  Ru11  1  0.250000  0.654657  0.066094  1
