# generated using pymatgen
data_BaSrVH9
_symmetry_space_group_name_H-M   'P 1'
_cell_length_a   9.04488000
_cell_length_b   9.04487889
_cell_length_c   5.29756200
_cell_angle_alpha   90.00000000
_cell_angle_beta   90.00000000
_cell_angle_gamma   120.00001136
_symmetry_Int_Tables_number   1
_chemical_formula_structural   BaSrVH9
_chemical_formula_sum   'Ba3 Sr3 V3 H27'
_cell_volume   375.32906405
_cell_formula_units_Z   3
loop_
 _symmetry_equiv_pos_site_id
 _symmetry_equiv_pos_as_xyz
  1  'x, y, z'
loop_
 _atom_site_type_symbol
 _atom_site_label
 _atom_site_symmetry_multiplicity
 _atom_site_fract_x
 _atom_site_fract_y
 _atom_site_fract_z
 _atom_site_occupancy
  Ba  Ba0  1  0.000000  0.592290  0.000000  1
  Ba  Ba1  1  0.407710  0.407710  0.000000  1
  Ba  Ba2  1  0.592290  0.000000  0.000000  1
  Sr  Sr3  1  0.000000  0.265442  0.500000  1
  Sr  Sr4  1  0.734558  0.734558  0.500000  1
  Sr  Sr5  1  0.265442  0.000000  0.500000  1
  V  V6  1  0.666667  0.333333  0.500000  1
  V  V7  1  0.333333  0.666667  0.500000  1
  V  V8  1  0.000000  0.000000  0.000000  1
  H  H9  1  0.786633  0.307164  0.737021  1
  H  H10  1  0.692836  0.479468  0.737021  1
  H  H11  1  0.520532  0.213367  0.737021  1
  H  H12  1  0.213367  0.520532  0.262979  1
  H  H13  1  0.520532  0.213367  0.262979  1
  H  H14  1  0.786633  0.307164  0.262979  1
  H  H15  1  0.692836  0.479468  0.262979  1
  H  H16  1  0.307164  0.786633  0.737021  1
  H  H17  1  0.479468  0.692836  0.737021  1
  H  H18  1  0.190967  0.000000  0.000000  1
  H  H19  1  0.809033  0.809033  0.000000  1
  H  H20  1  0.000000  0.190967  0.000000  1
  H  H21  1  0.863398  0.000000  0.231125  1
  H  H22  1  0.136602  0.136602  0.768875  1
  H  H23  1  0.000000  0.863398  0.768875  1
  H  H24  1  0.000000  0.863398  0.231125  1
  H  H25  1  0.136602  0.136602  0.231125  1
  H  H26  1  0.863398  0.000000  0.768875  1
  H  H27  1  0.131745  0.634389  0.500000  1
  H  H28  1  0.502644  0.868255  0.500000  1
  H  H29  1  0.365611  0.497356  0.500000  1
  H  H30  1  0.497356  0.365611  0.500000  1
  H  H31  1  0.868255  0.502644  0.500000  1
  H  H32  1  0.634389  0.131745  0.500000  1
  H  H33  1  0.213367  0.520532  0.737021  1
  H  H34  1  0.307164  0.786633  0.262979  1
  H  H35  1  0.479468  0.692836  0.262979  1
