# generated using pymatgen
data_KNb6FeSe12
_symmetry_space_group_name_H-M   'P 1'
_cell_length_a   6.05818500
_cell_length_b   6.05818379
_cell_length_c   14.73472000
_cell_angle_alpha   90.00000000
_cell_angle_beta   90.00000000
_cell_angle_gamma   120.00000116
_symmetry_Int_Tables_number   1
_chemical_formula_structural   KNb6FeSe12
_chemical_formula_sum   'K1 Nb6 Fe1 Se12'
_cell_volume   468.33594342
_cell_formula_units_Z   1
loop_
 _symmetry_equiv_pos_site_id
 _symmetry_equiv_pos_as_xyz
  1  'x, y, z'
loop_
 _atom_site_type_symbol
 _atom_site_label
 _atom_site_symmetry_multiplicity
 _atom_site_fract_x
 _atom_site_fract_y
 _atom_site_fract_z
 _atom_site_occupancy
  K  K0  1  0.333333  0.666667  0.250000  1
  Nb  Nb1  1  0.000000  0.000000  0.545400  1
  Nb  Nb2  1  0.000000  0.000000  0.954600  1
  Nb  Nb3  1  0.333333  0.666667  0.955030  1
  Nb  Nb4  1  0.666667  0.333333  0.955676  1
  Nb  Nb5  1  0.666667  0.333333  0.544324  1
  Nb  Nb6  1  0.333333  0.666667  0.544970  1
  Fe  Fe7  1  0.666667  0.333333  0.750000  1
  Se  Se8  1  0.332723  0.331191  0.430073  1
  Se  Se9  1  0.668809  0.001531  0.430073  1
  Se  Se10  1  0.998469  0.667277  0.430073  1
  Se  Se11  1  0.333381  0.333680  0.657277  1
  Se  Se12  1  0.000300  0.666619  0.657277  1
  Se  Se13  1  0.666320  0.999700  0.657277  1
  Se  Se14  1  0.666320  0.666619  0.842723  1
  Se  Se15  1  0.333381  0.999700  0.842723  1
  Se  Se16  1  0.000300  0.333680  0.842723  1
  Se  Se17  1  0.668809  0.667277  0.069927  1
  Se  Se18  1  0.998469  0.331191  0.069927  1
  Se  Se19  1  0.332723  0.001531  0.069927  1
