# generated using pymatgen
data_Er10Ga3Bi2Rh
_symmetry_space_group_name_H-M   'P 1'
_cell_length_a   8.57874365
_cell_length_b   8.57874394
_cell_length_c   8.71415784
_cell_angle_alpha   124.72502061
_cell_angle_beta   124.72502250
_cell_angle_gamma   80.95208614
_symmetry_Int_Tables_number   1
_chemical_formula_structural   Er10Ga3Bi2Rh
_chemical_formula_sum   'Er10 Ga3 Bi2 Rh1'
_cell_volume   419.73277268
_cell_formula_units_Z   1
loop_
 _symmetry_equiv_pos_site_id
 _symmetry_equiv_pos_as_xyz
  1  'x, y, z'
loop_
 _atom_site_type_symbol
 _atom_site_label
 _atom_site_symmetry_multiplicity
 _atom_site_fract_x
 _atom_site_fract_y
 _atom_site_fract_z
 _atom_site_occupancy
  Er  Er0  1  0.995770  0.997828  0.993598  1
  Er  Er1  1  0.502172  0.504230  0.006402  1
  Er  Er2  1  0.780739  0.297989  0.796655  1
  Er  Er3  1  0.202011  0.719261  0.203345  1
  Er  Er4  1  0.484083  0.001333  0.203345  1
  Er  Er5  1  0.304833  0.461134  0.500000  1
  Er  Er6  1  0.038866  0.195167  0.500000  1
  Er  Er7  1  0.498667  0.015917  0.796655  1
  Er  Er8  1  0.708209  0.514751  0.500000  1
  Er  Er9  1  0.985249  0.791791  0.500000  1
  Ga  Ga10  1  0.145219  0.645414  0.790635  1
  Ga  Ga11  1  0.854586  0.354781  0.209365  1
  Ga  Ga12  1  0.636429  0.863571  0.500000  1
  Bi  Bi13  1  0.243881  0.256119  0.000000  1
  Bi  Bi14  1  0.743881  0.756119  0.000000  1
  Rh  Rh15  1  0.375403  0.124597  0.500000  1
