# generated using pymatgen
data_Ba3Yb2(SiN3)2
_symmetry_space_group_name_H-M   'P 1'
_cell_length_a   6.10743613
_cell_length_b   6.10743597
_cell_length_c   13.35012386
_cell_angle_alpha   80.38818103
_cell_angle_beta   80.38817950
_cell_angle_gamma   68.55886316
_symmetry_Int_Tables_number   1
_chemical_formula_structural   Ba3Yb2(SiN3)2
_chemical_formula_sum   'Ba6 Yb4 Si4 N12'
_cell_volume   453.94542221
_cell_formula_units_Z   2
loop_
 _symmetry_equiv_pos_site_id
 _symmetry_equiv_pos_as_xyz
  1  'x, y, z'
loop_
 _atom_site_type_symbol
 _atom_site_label
 _atom_site_symmetry_multiplicity
 _atom_site_fract_x
 _atom_site_fract_y
 _atom_site_fract_z
 _atom_site_occupancy
  Ba  Ba0  1  0.597987  0.402013  0.750000  1
  Ba  Ba1  1  0.402013  0.597987  0.250000  1
  Ba  Ba2  1  0.202003  0.679130  0.992257  1
  Ba  Ba3  1  0.320870  0.797997  0.507743  1
  Ba  Ba4  1  0.797997  0.320870  0.007743  1
  Ba  Ba5  1  0.679130  0.202003  0.492257  1
  Yb  Yb6  1  0.908412  0.788170  0.717424  1
  Yb  Yb7  1  0.211830  0.091588  0.782576  1
  Yb  Yb8  1  0.091588  0.211830  0.282576  1
  Yb  Yb9  1  0.788170  0.908412  0.217424  1
  Si  Si10  1  0.072188  0.369828  0.580248  1
  Si  Si11  1  0.630172  0.927812  0.919752  1
  Si  Si12  1  0.927812  0.630172  0.419752  1
  Si  Si13  1  0.369828  0.072188  0.080248  1
  N  N14  1  0.018091  0.108606  0.631403  1
  N  N15  1  0.891394  0.981909  0.868597  1
  N  N16  1  0.981909  0.891394  0.368597  1
  N  N17  1  0.108606  0.018091  0.131403  1
  N  N18  1  0.804062  0.623331  0.554045  1
  N  N19  1  0.376669  0.195938  0.945955  1
  N  N20  1  0.195938  0.376669  0.445955  1
  N  N21  1  0.623331  0.804062  0.054045  1
  N  N22  1  0.227008  0.437711  0.662752  1
  N  N23  1  0.562289  0.772992  0.837248  1
  N  N24  1  0.772992  0.562289  0.337248  1
  N  N25  1  0.437711  0.227008  0.162752  1
