# generated using pymatgen
data_Eu2Dy3Tl(SbO7)2
_symmetry_space_group_name_H-M   'P 1'
_cell_length_a   6.58065505
_cell_length_b   6.46260180
_cell_length_c   7.63360200
_cell_angle_alpha   90.00000000
_cell_angle_beta   90.00000000
_cell_angle_gamma   109.54945725
_symmetry_Int_Tables_number   1
_chemical_formula_structural   Eu2Dy3Tl(SbO7)2
_chemical_formula_sum   'Eu2 Dy3 Tl1 Sb2 O14'
_cell_volume   305.92830033
_cell_formula_units_Z   1
loop_
 _symmetry_equiv_pos_site_id
 _symmetry_equiv_pos_as_xyz
  1  'x, y, z'
loop_
 _atom_site_type_symbol
 _atom_site_label
 _atom_site_symmetry_multiplicity
 _atom_site_fract_x
 _atom_site_fract_y
 _atom_site_fract_z
 _atom_site_occupancy
  Eu  Eu0  1  0.501550  0.503846  0.495866  1
  Eu  Eu1  1  0.501550  0.503846  0.004134  1
  Dy  Dy2  1  0.999902  0.530774  0.250000  1
  Dy  Dy3  1  0.468765  0.001242  0.250000  1
  Dy  Dy4  1  0.996100  0.460962  0.750000  1
  Tl  Tl5  1  0.511719  0.995981  0.750000  1
  Sb  Sb6  1  0.999246  0.998804  0.499659  1
  Sb  Sb7  1  0.999246  0.998804  0.000341  1
  O  O8  1  0.683689  0.929845  0.464098  1
  O  O9  1  0.932132  0.676399  0.532175  1
  O  O10  1  0.683689  0.929845  0.035902  1
  O  O11  1  0.932132  0.676399  0.967825  1
  O  O12  1  0.321041  0.074765  0.517715  1
  O  O13  1  0.065415  0.321758  0.470320  1
  O  O14  1  0.321041  0.074765  0.982285  1
  O  O15  1  0.065415  0.321758  0.029680  1
  O  O16  1  0.953823  0.073569  0.750000  1
  O  O17  1  0.066452  0.926014  0.250000  1
  O  O18  1  0.367611  0.638193  0.750000  1
  O  O19  1  0.634756  0.372387  0.250000  1
  O  O20  1  0.635487  0.352638  0.750000  1
  O  O21  1  0.359238  0.637408  0.250000  1
