# generated using pymatgen
data_Ca3(InPt)2
_symmetry_space_group_name_H-M   'P 1'
_cell_length_a   5.97111600
_cell_length_b   8.13374100
_cell_length_c   14.61354900
_cell_angle_alpha   90.00000000
_cell_angle_beta   90.00000000
_cell_angle_gamma   90.00000000
_symmetry_Int_Tables_number   1
_chemical_formula_structural   Ca3(InPt)2
_chemical_formula_sum   'Ca12 In8 Pt8'
_cell_volume   709.74370217
_cell_formula_units_Z   4
loop_
 _symmetry_equiv_pos_site_id
 _symmetry_equiv_pos_as_xyz
  1  'x, y, z'
loop_
 _atom_site_type_symbol
 _atom_site_label
 _atom_site_symmetry_multiplicity
 _atom_site_fract_x
 _atom_site_fract_y
 _atom_site_fract_z
 _atom_site_occupancy
  Ca  Ca0  1  0.157732  0.602821  0.092916  1
  Ca  Ca1  1  0.157732  0.897179  0.907084  1
  Ca  Ca2  1  0.842268  0.102821  0.407084  1
  Ca  Ca3  1  0.842268  0.397179  0.592916  1
  Ca  Ca4  1  0.842268  0.397179  0.907084  1
  Ca  Ca5  1  0.842268  0.102821  0.092916  1
  Ca  Ca6  1  0.157732  0.897179  0.592916  1
  Ca  Ca7  1  0.157732  0.602821  0.407084  1
  Ca  Ca8  1  0.388454  0.244911  0.250000  1
  Ca  Ca9  1  0.388454  0.255089  0.750000  1
  Ca  Ca10  1  0.611546  0.744911  0.250000  1
  Ca  Ca11  1  0.611546  0.755089  0.750000  1
  In  In12  1  0.355926  0.250000  0.000000  1
  In  In13  1  0.644074  0.750000  0.500000  1
  In  In14  1  0.644074  0.750000  0.000000  1
  In  In15  1  0.355926  0.250000  0.500000  1
  In  In16  1  0.890141  0.400767  0.250000  1
  In  In17  1  0.890141  0.099233  0.750000  1
  In  In18  1  0.109859  0.900767  0.250000  1
  In  In19  1  0.109859  0.599233  0.750000  1
  Pt  Pt20  1  0.643052  0.460813  0.096487  1
  Pt  Pt21  1  0.643052  0.039187  0.903513  1
  Pt  Pt22  1  0.356948  0.960813  0.403513  1
  Pt  Pt23  1  0.356948  0.539187  0.596487  1
  Pt  Pt24  1  0.356948  0.539187  0.903513  1
  Pt  Pt25  1  0.356948  0.960813  0.096487  1
  Pt  Pt26  1  0.643052  0.039187  0.596487  1
  Pt  Pt27  1  0.643052  0.460813  0.403513  1
