# generated using pymatgen
data_Yb3Sm2Si12Ir19
_symmetry_space_group_name_H-M   'P 1'
_cell_length_a   12.80502500
_cell_length_b   12.80502584
_cell_length_c   3.99160000
_cell_angle_alpha   90.00000000
_cell_angle_beta   90.00000000
_cell_angle_gamma   120.02237982
_symmetry_Int_Tables_number   1
_chemical_formula_structural   Yb3Sm2Si12Ir19
_chemical_formula_sum   'Yb3 Sm2 Si12 Ir19'
_cell_volume   566.68347978
_cell_formula_units_Z   1
loop_
 _symmetry_equiv_pos_site_id
 _symmetry_equiv_pos_as_xyz
  1  'x, y, z'
loop_
 _atom_site_type_symbol
 _atom_site_label
 _atom_site_symmetry_multiplicity
 _atom_site_fract_x
 _atom_site_fract_y
 _atom_site_fract_z
 _atom_site_occupancy
  Yb  Yb0  1  0.667007  0.333353  0.000000  1
  Yb  Yb1  1  0.333353  0.667007  0.000000  1
  Yb  Yb2  1  0.815133  0.815133  0.500000  1
  Sm  Sm3  1  0.182896  0.999427  0.500000  1
  Sm  Sm4  1  0.999427  0.182896  0.500000  1
  Si  Si5  1  0.687478  0.168609  0.500000  1
  Si  Si6  1  0.831153  0.519421  0.500000  1
  Si  Si7  1  0.481730  0.312762  0.500000  1
  Si  Si8  1  0.168609  0.687478  0.500000  1
  Si  Si9  1  0.519421  0.831153  0.500000  1
  Si  Si10  1  0.312762  0.481730  0.500000  1
  Si  Si11  1  0.630702  0.630702  0.000000  1
  Si  Si12  1  0.370058  0.999965  0.000000  1
  Si  Si13  1  0.999965  0.370058  0.000000  1
  Si  Si14  1  0.183024  0.183024  0.000000  1
  Si  Si15  1  0.815958  0.997790  0.000000  1
  Si  Si16  1  0.997790  0.815958  0.000000  1
  Ir  Ir17  1  0.805607  0.183284  0.000000  1
  Ir  Ir18  1  0.815714  0.621269  0.000000  1
  Ir  Ir19  1  0.377777  0.194666  0.000000  1
  Ir  Ir20  1  0.183284  0.805607  0.000000  1
  Ir  Ir21  1  0.621269  0.815714  0.000000  1
  Ir  Ir22  1  0.194666  0.377777  0.000000  1
  Ir  Ir23  1  0.446517  0.446517  0.000000  1
  Ir  Ir24  1  0.554383  0.001671  0.000000  1
  Ir  Ir25  1  0.001671  0.554383  0.000000  1
  Ir  Ir26  1  0.284436  0.284436  0.500000  1
  Ir  Ir27  1  0.716597  0.000289  0.500000  1
  Ir  Ir28  1  0.000289  0.716597  0.500000  1
  Ir  Ir29  1  0.873468  0.361364  0.500000  1
  Ir  Ir30  1  0.639042  0.513115  0.500000  1
  Ir  Ir31  1  0.487361  0.126756  0.500000  1
  Ir  Ir32  1  0.361364  0.873468  0.500000  1
  Ir  Ir33  1  0.513115  0.639042  0.500000  1
  Ir  Ir34  1  0.126756  0.487361  0.500000  1
  Ir  Ir35  1  0.000215  0.000215  0.000000  1
