# generated using pymatgen
data_Dy9Er(Bi2Te)2
_symmetry_space_group_name_H-M   'P 1'
_cell_length_a   8.17213200
_cell_length_b   9.44303301
_cell_length_c   11.92691200
_cell_angle_alpha   90.03738199
_cell_angle_beta   90.00000000
_cell_angle_gamma   90.00000000
_symmetry_Int_Tables_number   1
_chemical_formula_structural   Dy9Er(Bi2Te)2
_chemical_formula_sum   'Dy18 Er2 Bi8 Te4'
_cell_volume   920.39617102
_cell_formula_units_Z   2
loop_
 _symmetry_equiv_pos_site_id
 _symmetry_equiv_pos_as_xyz
  1  'x, y, z'
loop_
 _atom_site_type_symbol
 _atom_site_label
 _atom_site_symmetry_multiplicity
 _atom_site_fract_x
 _atom_site_fract_y
 _atom_site_fract_z
 _atom_site_occupancy
  Dy  Dy0  1  0.354084  0.750334  0.213705  1
  Dy  Dy1  1  0.854084  0.749666  0.286295  1
  Dy  Dy2  1  0.645638  0.250166  0.786478  1
  Dy  Dy3  1  0.145638  0.249834  0.713522  1
  Dy  Dy4  1  0.310904  0.062573  0.942691  1
  Dy  Dy5  1  0.810904  0.437427  0.557309  1
  Dy  Dy6  1  0.310578  0.437855  0.942584  1
  Dy  Dy7  1  0.810578  0.062145  0.557416  1
  Dy  Dy8  1  0.689300  0.937603  0.057540  1
  Dy  Dy9  1  0.189300  0.562397  0.442460  1
  Dy  Dy10  1  0.476653  0.249951  0.488518  1
  Dy  Dy11  1  0.976653  0.250049  0.011482  1
  Dy  Dy12  1  0.523011  0.750286  0.511235  1
  Dy  Dy13  1  0.023011  0.749714  0.988765  1
  Dy  Dy14  1  0.320151  0.249828  0.217789  1
  Dy  Dy15  1  0.820151  0.250172  0.282211  1
  Dy  Dy16  1  0.679551  0.749756  0.782537  1
  Dy  Dy17  1  0.179551  0.750244  0.717463  1
  Er  Er18  1  0.689492  0.564093  0.057467  1
  Er  Er19  1  0.189492  0.935907  0.442533  1
  Bi  Bi20  1  0.569271  0.995843  0.325373  1
  Bi  Bi21  1  0.069271  0.504157  0.174627  1
  Bi  Bi22  1  0.430539  0.495927  0.674653  1
  Bi  Bi23  1  0.930539  0.004073  0.825347  1
  Bi  Bi24  1  0.430522  0.004324  0.674444  1
  Bi  Bi25  1  0.930522  0.495676  0.825556  1
  Bi  Bi26  1  0.569456  0.504296  0.325187  1
  Bi  Bi27  1  0.069456  0.995704  0.174813  1
  Te  Te28  1  0.406586  0.749813  0.957988  1
  Te  Te29  1  0.906586  0.750187  0.542012  1
  Te  Te30  1  0.594263  0.251928  0.042665  1
  Te  Te31  1  0.094263  0.248072  0.457335  1
