# generated using pymatgen
data_LaSbAsIrRh
_symmetry_space_group_name_H-M   'P 1'
_cell_length_a   4.51038000
_cell_length_b   4.51038000
_cell_length_c   10.23779600
_cell_angle_alpha   90.00000000
_cell_angle_beta   90.00000000
_cell_angle_gamma   90.00000000
_symmetry_Int_Tables_number   1
_chemical_formula_structural   LaSbAsIrRh
_chemical_formula_sum   'La2 Sb2 As2 Ir2 Rh2'
_cell_volume   208.27288697
_cell_formula_units_Z   2
loop_
 _symmetry_equiv_pos_site_id
 _symmetry_equiv_pos_as_xyz
  1  'x, y, z'
loop_
 _atom_site_type_symbol
 _atom_site_label
 _atom_site_symmetry_multiplicity
 _atom_site_fract_x
 _atom_site_fract_y
 _atom_site_fract_z
 _atom_site_occupancy
  La  La0  1  0.000000  0.500000  0.267648  1
  La  La1  1  0.500000  0.000000  0.732352  1
  Sb  Sb2  1  0.000000  0.500000  0.861542  1
  Sb  Sb3  1  0.500000  0.000000  0.138458  1
  As  As4  1  0.000000  0.000000  0.500000  1
  As  As5  1  0.500000  0.500000  0.500000  1
  Ir  Ir6  1  0.000000  0.500000  0.602936  1
  Ir  Ir7  1  0.500000  0.000000  0.397064  1
  Rh  Rh8  1  0.000000  0.000000  0.000000  1
  Rh  Rh9  1  0.500000  0.500000  0.000000  1
