# generated using pymatgen
data_Tb2NdSbO7
_symmetry_space_group_name_H-M   'P 1'
_cell_length_a   6.52706400
_cell_length_b   6.52706421
_cell_length_c   7.60836800
_cell_angle_alpha   90.00000000
_cell_angle_beta   90.00000000
_cell_angle_gamma   109.31583400
_symmetry_Int_Tables_number   1
_chemical_formula_structural   Tb2NdSbO7
_chemical_formula_sum   'Tb4 Nd2 Sb2 O14'
_cell_volume   305.89024588
_cell_formula_units_Z   2
loop_
 _symmetry_equiv_pos_site_id
 _symmetry_equiv_pos_as_xyz
  1  'x, y, z'
loop_
 _atom_site_type_symbol
 _atom_site_label
 _atom_site_symmetry_multiplicity
 _atom_site_fract_x
 _atom_site_fract_y
 _atom_site_fract_z
 _atom_site_occupancy
  Tb  Tb0  1  0.531646  0.000217  0.750000  1
  Tb  Tb1  1  0.000217  0.531646  0.250000  1
  Tb  Tb2  1  0.468354  0.999783  0.250000  1
  Tb  Tb3  1  0.999783  0.468354  0.750000  1
  Nd  Nd4  1  0.500000  0.500000  0.500000  1
  Nd  Nd5  1  0.500000  0.500000  0.000000  1
  Sb  Sb6  1  0.000000  0.000000  0.500000  1
  Sb  Sb7  1  0.000000  0.000000  0.000000  1
  O  O8  1  0.680121  0.930851  0.470715  1
  O  O9  1  0.930851  0.680121  0.529285  1
  O  O10  1  0.680121  0.930851  0.029285  1
  O  O11  1  0.930851  0.680121  0.970715  1
  O  O12  1  0.319879  0.069149  0.529285  1
  O  O13  1  0.069149  0.319879  0.470715  1
  O  O14  1  0.319879  0.069149  0.970715  1
  O  O15  1  0.069149  0.319879  0.029285  1
  O  O16  1  0.931968  0.068032  0.750000  1
  O  O17  1  0.068032  0.931968  0.250000  1
  O  O18  1  0.364674  0.635326  0.750000  1
  O  O19  1  0.635326  0.364674  0.250000  1
  O  O20  1  0.640873  0.359127  0.750000  1
  O  O21  1  0.359127  0.640873  0.250000  1
