# generated using pymatgen
data_CeEr3(Si3Rh)2
_symmetry_space_group_name_H-M   'P 1'
_cell_length_a   8.15668400
_cell_length_b   8.15668439
_cell_length_c   7.94609800
_cell_angle_alpha   90.00000000
_cell_angle_beta   90.00000000
_cell_angle_gamma   119.99999844
_symmetry_Int_Tables_number   1
_chemical_formula_structural   CeEr3(Si3Rh)2
_chemical_formula_sum   'Ce2 Er6 Si12 Rh4'
_cell_volume   457.83801616
_cell_formula_units_Z   2
loop_
 _symmetry_equiv_pos_site_id
 _symmetry_equiv_pos_as_xyz
  1  'x, y, z'
loop_
 _atom_site_type_symbol
 _atom_site_label
 _atom_site_symmetry_multiplicity
 _atom_site_fract_x
 _atom_site_fract_y
 _atom_site_fract_z
 _atom_site_occupancy
  Ce  Ce0  1  0.000000  0.000000  0.250000  1
  Ce  Ce1  1  0.000000  0.000000  0.750000  1
  Er  Er2  1  0.493850  0.506150  0.250000  1
  Er  Er3  1  0.493850  0.987699  0.250000  1
  Er  Er4  1  0.012301  0.506150  0.250000  1
  Er  Er5  1  0.506150  0.493850  0.750000  1
  Er  Er6  1  0.987699  0.493850  0.750000  1
  Er  Er7  1  0.506150  0.012301  0.750000  1
  Si  Si8  1  0.832728  0.167272  0.502191  1
  Si  Si9  1  0.832728  0.665457  0.502191  1
  Si  Si10  1  0.334543  0.167272  0.502191  1
  Si  Si11  1  0.832728  0.167272  0.997809  1
  Si  Si12  1  0.832728  0.665457  0.997809  1
  Si  Si13  1  0.334543  0.167272  0.997809  1
  Si  Si14  1  0.167272  0.832728  0.002191  1
  Si  Si15  1  0.665457  0.832728  0.002191  1
  Si  Si16  1  0.167272  0.334543  0.002191  1
  Si  Si17  1  0.167272  0.832728  0.497809  1
  Si  Si18  1  0.665457  0.832728  0.497809  1
  Si  Si19  1  0.167272  0.334543  0.497809  1
  Rh  Rh20  1  0.666667  0.333333  0.474016  1
  Rh  Rh21  1  0.666667  0.333333  0.025984  1
  Rh  Rh22  1  0.333333  0.666667  0.974016  1
  Rh  Rh23  1  0.333333  0.666667  0.525984  1
