# generated using pymatgen
data_CeEr(AlIr)2
_symmetry_space_group_name_H-M   'P 1'
_cell_length_a   6.83092300
_cell_length_b   4.30341200
_cell_length_c   7.92315500
_cell_angle_alpha   90.00000000
_cell_angle_beta   90.00000000
_cell_angle_gamma   90.00000000
_symmetry_Int_Tables_number   1
_chemical_formula_structural   CeEr(AlIr)2
_chemical_formula_sum   'Ce2 Er2 Al4 Ir4'
_cell_volume   232.91125124
_cell_formula_units_Z   2
loop_
 _symmetry_equiv_pos_site_id
 _symmetry_equiv_pos_as_xyz
  1  'x, y, z'
loop_
 _atom_site_type_symbol
 _atom_site_label
 _atom_site_symmetry_multiplicity
 _atom_site_fract_x
 _atom_site_fract_y
 _atom_site_fract_z
 _atom_site_occupancy
  Ce  Ce0  1  0.033316  0.750000  0.822258  1
  Ce  Ce1  1  0.533316  0.750000  0.677742  1
  Er  Er2  1  0.964678  0.250000  0.185154  1
  Er  Er3  1  0.464678  0.250000  0.314846  1
  Al  Al4  1  0.862973  0.250000  0.557107  1
  Al  Al5  1  0.362973  0.250000  0.942893  1
  Al  Al6  1  0.138492  0.750000  0.432857  1
  Al  Al7  1  0.638492  0.750000  0.067143  1
  Ir  Ir8  1  0.738313  0.250000  0.878155  1
  Ir  Ir9  1  0.238313  0.250000  0.621845  1
  Ir  Ir10  1  0.262228  0.750000  0.115981  1
  Ir  Ir11  1  0.762228  0.750000  0.384019  1
