# generated using pymatgen
data_TmZr(ScPt)2
_symmetry_space_group_name_H-M   'P 1'
_cell_length_a   4.62312000
_cell_length_b   6.82983500
_cell_length_c   8.23221200
_cell_angle_alpha   90.00000000
_cell_angle_beta   90.00000000
_cell_angle_gamma   90.00000000
_symmetry_Int_Tables_number   1
_chemical_formula_structural   TmZr(ScPt)2
_chemical_formula_sum   'Tm2 Zr2 Sc4 Pt4'
_cell_volume   259.93330227
_cell_formula_units_Z   2
loop_
 _symmetry_equiv_pos_site_id
 _symmetry_equiv_pos_as_xyz
  1  'x, y, z'
loop_
 _atom_site_type_symbol
 _atom_site_label
 _atom_site_symmetry_multiplicity
 _atom_site_fract_x
 _atom_site_fract_y
 _atom_site_fract_z
 _atom_site_occupancy
  Tm  Tm0  1  0.250000  0.984544  0.324608  1
  Tm  Tm1  1  0.250000  0.484544  0.175392  1
  Zr  Zr2  1  0.250000  0.854363  0.920403  1
  Zr  Zr3  1  0.250000  0.354363  0.579597  1
  Sc  Sc4  1  0.750000  0.148680  0.074097  1
  Sc  Sc5  1  0.750000  0.648680  0.425903  1
  Sc  Sc6  1  0.750000  0.015329  0.677912  1
  Sc  Sc7  1  0.750000  0.515329  0.822088  1
  Pt  Pt8  1  0.250000  0.244580  0.900230  1
  Pt  Pt9  1  0.250000  0.744580  0.599770  1
  Pt  Pt10  1  0.750000  0.752503  0.090296  1
  Pt  Pt11  1  0.750000  0.252503  0.409704  1
