# generated using pymatgen
data_DySc4P12Ir7Ru12
_symmetry_space_group_name_H-M   'P 1'
_cell_length_a   12.48029429
_cell_length_b   12.45528786
_cell_length_c   3.93092700
_cell_angle_alpha   90.00000000
_cell_angle_beta   90.00000000
_cell_angle_gamma   119.45100569
_symmetry_Int_Tables_number   1
_chemical_formula_structural   DySc4P12Ir7Ru12
_chemical_formula_sum   'Dy1 Sc4 P12 Ir7 Ru12'
_cell_volume   532.08406353
_cell_formula_units_Z   1
loop_
 _symmetry_equiv_pos_site_id
 _symmetry_equiv_pos_as_xyz
  1  'x, y, z'
loop_
 _atom_site_type_symbol
 _atom_site_label
 _atom_site_symmetry_multiplicity
 _atom_site_fract_x
 _atom_site_fract_y
 _atom_site_fract_z
 _atom_site_occupancy
  Dy  Dy0  1  0.333852  0.666980  0.000000  1
  Sc  Sc1  1  0.665880  0.332213  0.000000  1
  Sc  Sc2  1  0.812608  0.000951  0.500000  1
  Sc  Sc3  1  0.186241  0.187708  0.500000  1
  Sc  Sc4  1  0.000435  0.814010  0.500000  1
  P  P5  1  0.632430  0.002803  0.000000  1
  P  P6  1  0.370277  0.370876  0.000000  1
  P  P7  1  0.004830  0.634985  0.000000  1
  P  P8  1  0.685751  0.515554  0.500000  1
  P  P9  1  0.824509  0.302918  0.500000  1
  P  P10  1  0.313235  0.832520  0.500000  1
  P  P11  1  0.520097  0.686187  0.500000  1
  P  P12  1  0.180569  0.004216  0.000000  1
  P  P13  1  0.822002  0.820171  0.000000  1
  P  P14  1  0.996274  0.180054  0.000000  1
  P  P15  1  0.482507  0.170116  0.500000  1
  P  P16  1  0.167812  0.481188  0.500000  1
  Ir  Ir17  1  0.630858  0.812377  0.000000  1
  Ir  Ir18  1  0.182666  0.370896  0.000000  1
  Ir  Ir19  1  0.373341  0.184476  0.000000  1
  Ir  Ir20  1  0.189625  0.820718  0.000000  1
  Ir  Ir21  1  0.813273  0.626560  0.000000  1
  Ir  Ir22  1  0.865882  0.501754  0.500000  1
  Ir  Ir23  1  0.999064  0.000645  0.000000  1
  Ru  Ru24  1  0.491723  0.360765  0.500000  1
  Ru  Ru25  1  0.635407  0.124684  0.500000  1
  Ru  Ru26  1  0.126025  0.640776  0.500000  1
  Ru  Ru27  1  0.360826  0.487732  0.500000  1
  Ru  Ru28  1  0.510959  0.870184  0.500000  1
  Ru  Ru29  1  0.720611  0.716884  0.500000  1
  Ru  Ru30  1  0.000982  0.282396  0.500000  1
  Ru  Ru31  1  0.445761  0.997246  0.000000  1
  Ru  Ru32  1  0.553483  0.552493  0.000000  1
  Ru  Ru33  1  0.001275  0.449820  0.000000  1
  Ru  Ru34  1  0.816951  0.193747  0.000000  1
  Ru  Ru35  1  0.281979  0.002398  0.500000  1
