# generated using pymatgen
data_Ho12ZnCo2Cu2Sn
_symmetry_space_group_name_H-M   'P 1'
_cell_length_a   8.35885665
_cell_length_b   8.35885709
_cell_length_c   8.35885747
_cell_angle_alpha   112.42495429
_cell_angle_beta   109.72174800
_cell_angle_gamma   106.32434220
_symmetry_Int_Tables_number   1
_chemical_formula_structural   Ho12ZnCo2Cu2Sn
_chemical_formula_sum   'Ho12 Zn1 Co2 Cu2 Sn1'
_cell_volume   448.31725941
_cell_formula_units_Z   1
loop_
 _symmetry_equiv_pos_site_id
 _symmetry_equiv_pos_as_xyz
  1  'x, y, z'
loop_
 _atom_site_type_symbol
 _atom_site_label
 _atom_site_symmetry_multiplicity
 _atom_site_fract_x
 _atom_site_fract_y
 _atom_site_fract_z
 _atom_site_occupancy
  Ho  Ho0  1  0.430976  0.234787  0.196189  1
  Ho  Ho1  1  0.569024  0.765213  0.803811  1
  Ho  Ho2  1  0.038598  0.234787  0.803811  1
  Ho  Ho3  1  0.961402  0.765213  0.196189  1
  Ho  Ho4  1  0.179914  0.287095  0.467007  1
  Ho  Ho5  1  0.820086  0.712905  0.532993  1
  Ho  Ho6  1  0.179914  0.712905  0.892819  1
  Ho  Ho7  1  0.820086  0.287095  0.107181  1
  Ho  Ho8  1  0.311788  0.620225  0.308438  1
  Ho  Ho9  1  0.688212  0.379775  0.691562  1
  Ho  Ho10  1  0.311788  0.003349  0.691562  1
  Ho  Ho11  1  0.688212  0.996651  0.308438  1
  Zn  Zn12  1  0.000000  0.000000  0.000000  1
  Co  Co13  1  0.113315  0.613315  0.500000  1
  Co  Co14  1  0.886685  0.386685  0.500000  1
  Cu  Cu15  1  0.352832  0.000000  0.352832  1
  Cu  Cu16  1  0.647168  0.000000  0.647168  1
  Sn  Sn17  1  0.500000  0.500000  0.000000  1
