# generated using pymatgen
data_Ce12Pr8Si15Sn
_symmetry_space_group_name_H-M   'P 1'
_cell_length_a   7.58955105
_cell_length_b   7.87567162
_cell_length_c   15.00205500
_cell_angle_alpha   90.13368615
_cell_angle_beta   89.34756805
_cell_angle_gamma   90.08408858
_symmetry_Int_Tables_number   1
_chemical_formula_structural   Ce12Pr8Si15Sn
_chemical_formula_sum   'Ce12 Pr8 Si15 Sn1'
_cell_volume   896.65350172
_cell_formula_units_Z   1
loop_
 _symmetry_equiv_pos_site_id
 _symmetry_equiv_pos_as_xyz
  1  'x, y, z'
loop_
 _atom_site_type_symbol
 _atom_site_label
 _atom_site_symmetry_multiplicity
 _atom_site_fract_x
 _atom_site_fract_y
 _atom_site_fract_z
 _atom_site_occupancy
  Ce  Ce0  1  0.347486  0.154272  0.636794  1
  Ce  Ce1  1  0.672409  0.818963  0.371078  1
  Ce  Ce2  1  0.624778  0.026838  0.740327  1
  Ce  Ce3  1  0.168291  0.691441  0.367717  1
  Ce  Ce4  1  0.830533  0.328162  0.872118  1
  Ce  Ce5  1  0.818848  0.318653  0.626251  1
  Ce  Ce6  1  0.868902  0.521997  0.249045  1
  Ce  Ce7  1  0.362822  0.976388  0.254658  1
  Ce  Ce8  1  0.317837  0.186255  0.874709  1
  Ce  Ce9  1  0.176751  0.679653  0.126423  1
  Ce  Ce10  1  0.672704  0.820766  0.123060  1
  Ce  Ce11  1  0.125602  0.470597  0.763729  1
  Pr  Pr12  1  0.022251  0.178593  0.396958  1
  Pr  Pr13  1  0.527792  0.313814  0.398713  1
  Pr  Pr14  1  0.469641  0.689427  0.900310  1
  Pr  Pr15  1  0.483452  0.692714  0.602642  1
  Pr  Pr16  1  0.974853  0.814749  0.601194  1
  Pr  Pr17  1  0.965235  0.815883  0.902329  1
  Pr  Pr18  1  0.529367  0.314240  0.099927  1
  Pr  Pr19  1  0.030621  0.189342  0.100202  1
  Si  Si20  1  0.252322  0.861442  0.754954  1
  Si  Si21  1  0.475239  0.591363  0.248843  1
  Si  Si22  1  0.022672  0.088578  0.751754  1
  Si  Si23  1  0.524342  0.412444  0.751083  1
  Si  Si24  1  0.969812  0.910000  0.244570  1
  Si  Si25  1  0.738939  0.130362  0.246883  1
  Si  Si26  1  0.855147  0.528831  0.040107  1
  Si  Si27  1  0.354416  0.974074  0.038185  1
  Si  Si28  1  0.143567  0.476409  0.964790  1
  Si  Si29  1  0.655119  0.029383  0.532754  1
  Si  Si30  1  0.354116  0.971409  0.462668  1
  Si  Si31  1  0.845988  0.529569  0.459424  1
  Si  Si32  1  0.759004  0.632835  0.749557  1
  Si  Si33  1  0.242750  0.369322  0.250141  1
  Si  Si34  1  0.641039  0.034387  0.959021  1
  Sn  Sn35  1  0.175352  0.456841  0.537080  1
