# generated using pymatgen
data_Tb4Os5Ru2W
_symmetry_space_group_name_H-M   'P 1'
_cell_length_a   5.23318881
_cell_length_b   5.23318796
_cell_length_c   9.12869800
_cell_angle_alpha   90.00000000
_cell_angle_beta   90.00000000
_cell_angle_gamma   117.55585763
_symmetry_Int_Tables_number   1
_chemical_formula_structural   Tb4Os5Ru2W
_chemical_formula_sum   'Tb4 Os5 Ru2 W1'
_cell_volume   221.64086404
_cell_formula_units_Z   1
loop_
 _symmetry_equiv_pos_site_id
 _symmetry_equiv_pos_as_xyz
  1  'x, y, z'
loop_
 _atom_site_type_symbol
 _atom_site_label
 _atom_site_symmetry_multiplicity
 _atom_site_fract_x
 _atom_site_fract_y
 _atom_site_fract_z
 _atom_site_occupancy
  Tb  Tb0  1  0.328685  0.671315  0.437273  1
  Tb  Tb1  1  0.665387  0.334613  0.566924  1
  Tb  Tb2  1  0.665387  0.334613  0.933076  1
  Tb  Tb3  1  0.328685  0.671315  0.062727  1
  Os  Os4  1  0.827453  0.649565  0.250000  1
  Os  Os5  1  0.350435  0.172547  0.250000  1
  Os  Os6  1  0.174744  0.825256  0.750000  1
  Os  Os7  1  0.169298  0.335092  0.750000  1
  Os  Os8  1  0.664908  0.830702  0.750000  1
  Ru  Ru9  1  0.991205  0.008795  0.501901  1
  Ru  Ru10  1  0.991205  0.008795  0.998099  1
  W  W11  1  0.842607  0.157393  0.250000  1
