# generated using pymatgen
data_Pr8Lu12Si15Sn
_symmetry_space_group_name_H-M   'P 1'
_cell_length_a   7.45548554
_cell_length_b   7.75702518
_cell_length_c   14.68937090
_cell_angle_alpha   90.01743423
_cell_angle_beta   89.54154640
_cell_angle_gamma   90.10225072
_symmetry_Int_Tables_number   1
_chemical_formula_structural   Pr8Lu12Si15Sn
_chemical_formula_sum   'Pr8 Lu12 Si15 Sn1'
_cell_volume   849.49282895
_cell_formula_units_Z   1
loop_
 _symmetry_equiv_pos_site_id
 _symmetry_equiv_pos_as_xyz
  1  'x, y, z'
loop_
 _atom_site_type_symbol
 _atom_site_label
 _atom_site_symmetry_multiplicity
 _atom_site_fract_x
 _atom_site_fract_y
 _atom_site_fract_z
 _atom_site_occupancy
  Pr  Pr0  1  0.010484  0.168571  0.398466  1
  Pr  Pr1  1  0.514805  0.323095  0.399151  1
  Pr  Pr2  1  0.485274  0.674936  0.902449  1
  Pr  Pr3  1  0.497250  0.682097  0.601231  1
  Pr  Pr4  1  0.985952  0.830354  0.600242  1
  Pr  Pr5  1  0.984785  0.825424  0.902380  1
  Pr  Pr6  1  0.514709  0.325072  0.098326  1
  Pr  Pr7  1  0.015161  0.175015  0.098071  1
  Lu  Lu8  1  0.338449  0.163619  0.629247  1
  Lu  Lu9  1  0.667204  0.824369  0.374315  1
  Lu  Lu10  1  0.662737  0.993467  0.752378  1
  Lu  Lu11  1  0.167993  0.683338  0.370729  1
  Lu  Lu12  1  0.826229  0.323870  0.876918  1
  Lu  Lu13  1  0.819163  0.324757  0.625156  1
  Lu  Lu14  1  0.838686  0.493756  0.249443  1
  Lu  Lu15  1  0.339561  0.006648  0.248741  1
  Lu  Lu16  1  0.326266  0.175124  0.876527  1
  Lu  Lu17  1  0.173045  0.676395  0.123723  1
  Lu  Lu18  1  0.672377  0.822868  0.122966  1
  Lu  Lu19  1  0.160386  0.505371  0.754218  1
  Si  Si20  1  0.284611  0.874145  0.752338  1
  Si  Si21  1  0.466313  0.618880  0.248518  1
  Si  Si22  1  0.032315  0.123239  0.751032  1
  Si  Si23  1  0.531595  0.381517  0.752175  1
  Si  Si24  1  0.964138  0.882106  0.247213  1
  Si  Si25  1  0.715417  0.120774  0.247915  1
  Si  Si26  1  0.849280  0.533451  0.039622  1
  Si  Si27  1  0.348625  0.966665  0.039628  1
  Si  Si28  1  0.150561  0.465886  0.961261  1
  Si  Si29  1  0.656265  0.036408  0.538008  1
  Si  Si30  1  0.344793  0.965680  0.460157  1
  Si  Si31  1  0.836930  0.537802  0.458255  1
  Si  Si32  1  0.786473  0.623091  0.751716  1
  Si  Si33  1  0.215351  0.378792  0.248980  1
  Si  Si34  1  0.650223  0.033933  0.960846  1
  Sn  Sn35  1  0.166596  0.459485  0.537660  1
