# generated using pymatgen
data_Rb2Fe2Ge3O10
_symmetry_space_group_name_H-M   'P 1'
_cell_length_a   9.88215035
_cell_length_b   9.88220828
_cell_length_c   13.12337393
_cell_angle_alpha   48.95921378
_cell_angle_beta   48.95978738
_cell_angle_gamma   40.77462194
_symmetry_Int_Tables_number   1
_chemical_formula_structural   Rb2Fe2Ge3O10
_chemical_formula_sum   'Rb4 Fe4 Ge6 O20'
_cell_volume   597.34503434
_cell_formula_units_Z   2
loop_
 _symmetry_equiv_pos_site_id
 _symmetry_equiv_pos_as_xyz
  1  'x, y, z'
loop_
 _atom_site_type_symbol
 _atom_site_label
 _atom_site_symmetry_multiplicity
 _atom_site_fract_x
 _atom_site_fract_y
 _atom_site_fract_z
 _atom_site_occupancy
  Rb  Rb0  1  0.630857  0.855993  0.126980  1
  Rb  Rb1  1  0.144004  0.369150  0.873019  1
  Rb  Rb2  1  0.272748  0.994523  0.614641  1
  Rb  Rb3  1  0.005471  0.727255  0.385359  1
  Fe  Fe4  1  0.721727  0.436964  0.544467  1
  Fe  Fe5  1  0.563020  0.278306  0.455533  1
  Fe  Fe6  1  0.261319  0.474926  0.065082  1
  Fe  Fe7  1  0.525036  0.738697  0.934927  1
  Ge  Ge8  1  0.702818  0.424808  0.802305  1
  Ge  Ge9  1  0.575188  0.297191  0.197695  1
  Ge  Ge10  1  0.256781  0.743209  0.500001  1
  Ge  Ge11  1  0.007089  0.992910  0.999999  1
  Ge  Ge12  1  0.759103  0.983688  0.704872  1
  Ge  Ge13  1  0.016314  0.240893  0.295133  1
  O  O14  1  0.992761  0.301723  0.408128  1
  O  O15  1  0.698280  0.007225  0.591879  1
  O  O16  1  0.633574  0.246479  0.690227  1
  O  O17  1  0.753543  0.366434  0.309752  1
  O  O18  1  0.052368  0.823906  0.657580  1
  O  O19  1  0.176094  0.947636  0.342417  1
  O  O20  1  0.483188  0.704318  0.472447  1
  O  O21  1  0.295694  0.516791  0.527551  1
  O  O22  1  0.797169  0.481905  0.616679  1
  O  O23  1  0.518097  0.202849  0.383312  1
  O  O24  1  0.150732  0.336881  0.113542  1
  O  O25  1  0.663110  0.849265  0.886465  1
  O  O26  1  0.423845  0.531304  0.868377  1
  O  O27  1  0.468670  0.576182  0.131624  1
  O  O28  1  0.463592  0.256744  0.164418  1
  O  O29  1  0.743244  0.536413  0.835591  1
  O  O30  1  0.872381  0.130491  0.881501  1
  O  O31  1  0.869509  0.127611  0.118501  1
  O  O32  1  0.030769  0.743776  0.105203  1
  O  O33  1  0.256214  0.969245  0.894792  1
