# generated using pymatgen
data_Ho6Al8Fe8Os7
_symmetry_space_group_name_H-M   'P 1'
_cell_length_a   8.69971098
_cell_length_b   8.69971126
_cell_length_c   8.69971100
_cell_angle_alpha   60.00000480
_cell_angle_beta   60.00000374
_cell_angle_gamma   60.00000575
_symmetry_Int_Tables_number   1
_chemical_formula_structural   Ho6Al8Fe8Os7
_chemical_formula_sum   'Ho6 Al8 Fe8 Os7'
_cell_volume   465.58559899
_cell_formula_units_Z   1
loop_
 _symmetry_equiv_pos_site_id
 _symmetry_equiv_pos_as_xyz
  1  'x, y, z'
loop_
 _atom_site_type_symbol
 _atom_site_label
 _atom_site_symmetry_multiplicity
 _atom_site_fract_x
 _atom_site_fract_y
 _atom_site_fract_z
 _atom_site_occupancy
  Ho  Ho0  1  0.199573  0.800427  0.800427  1
  Ho  Ho1  1  0.800427  0.199573  0.199573  1
  Ho  Ho2  1  0.800427  0.199573  0.800427  1
  Ho  Ho3  1  0.800427  0.800427  0.199573  1
  Ho  Ho4  1  0.199573  0.800427  0.199573  1
  Ho  Ho5  1  0.199573  0.199573  0.800427  1
  Al  Al6  1  0.621237  0.621237  0.621237  1
  Al  Al7  1  0.621237  0.621237  0.136290  1
  Al  Al8  1  0.136290  0.621237  0.621237  1
  Al  Al9  1  0.621237  0.136290  0.621237  1
  Al  Al10  1  0.378763  0.378763  0.378763  1
  Al  Al11  1  0.378763  0.378763  0.863710  1
  Al  Al12  1  0.378763  0.863710  0.378763  1
  Al  Al13  1  0.863710  0.378763  0.378763  1
  Fe  Fe14  1  0.822593  0.822593  0.822593  1
  Fe  Fe15  1  0.822593  0.822593  0.532221  1
  Fe  Fe16  1  0.532221  0.822593  0.822593  1
  Fe  Fe17  1  0.822593  0.532221  0.822593  1
  Fe  Fe18  1  0.177407  0.177407  0.177407  1
  Fe  Fe19  1  0.177407  0.177407  0.467779  1
  Fe  Fe20  1  0.177407  0.467779  0.177407  1
  Fe  Fe21  1  0.467779  0.177407  0.177407  1
  Os  Os22  1  0.500000  0.500000  0.500000  1
  Os  Os23  1  0.000000  0.500000  0.500000  1
  Os  Os24  1  0.500000  0.000000  0.000000  1
  Os  Os25  1  0.500000  0.000000  0.500000  1
  Os  Os26  1  0.500000  0.500000  0.000000  1
  Os  Os27  1  0.000000  0.500000  0.000000  1
  Os  Os28  1  0.000000  0.000000  0.500000  1
