# generated using pymatgen
data_TbLu19(CoSb2)4
_symmetry_space_group_name_H-M   'P 1'
_cell_length_a   7.69328137
_cell_length_b   8.70147600
_cell_length_c   11.97420156
_cell_angle_alpha   90.00000000
_cell_angle_beta   90.03534540
_cell_angle_gamma   90.00000000
_symmetry_Int_Tables_number   1
_chemical_formula_structural   TbLu19(CoSb2)4
_chemical_formula_sum   'Tb1 Lu19 Co4 Sb8'
_cell_volume   801.58766366
_cell_formula_units_Z   1
loop_
 _symmetry_equiv_pos_site_id
 _symmetry_equiv_pos_as_xyz
  1  'x, y, z'
loop_
 _atom_site_type_symbol
 _atom_site_label
 _atom_site_symmetry_multiplicity
 _atom_site_fract_x
 _atom_site_fract_y
 _atom_site_fract_z
 _atom_site_occupancy
  Tb  Tb0  1  0.877477  0.750000  0.806437  1
  Lu  Lu1  1  0.155253  0.750000  0.203480  1
  Lu  Lu2  1  0.655244  0.250000  0.296702  1
  Lu  Lu3  1  0.844621  0.250000  0.796368  1
  Lu  Lu4  1  0.345528  0.750000  0.703194  1
  Lu  Lu5  1  0.447610  0.750000  0.997758  1
  Lu  Lu6  1  0.947955  0.250000  0.501675  1
  Lu  Lu7  1  0.551571  0.250000  0.002513  1
  Lu  Lu8  1  0.052823  0.750000  0.497782  1
  Lu  Lu9  1  0.620092  0.750000  0.309098  1
  Lu  Lu10  1  0.120315  0.250000  0.191339  1
  Lu  Lu11  1  0.379882  0.250000  0.690725  1
  Lu  Lu12  1  0.824233  0.964036  0.066094  1
  Lu  Lu13  1  0.324095  0.037163  0.435001  1
  Lu  Lu14  1  0.176678  0.460905  0.935897  1
  Lu  Lu15  1  0.675869  0.536813  0.564604  1
  Lu  Lu16  1  0.176678  0.039095  0.935897  1
  Lu  Lu17  1  0.675869  0.963187  0.564604  1
  Lu  Lu18  1  0.824233  0.535964  0.066094  1
  Lu  Lu19  1  0.324095  0.462837  0.435001  1
  Co  Co20  1  0.431742  0.750000  0.490537  1
  Co  Co21  1  0.931571  0.250000  0.009674  1
  Co  Co22  1  0.568242  0.250000  0.509095  1
  Co  Co23  1  0.068727  0.750000  0.991359  1
  Sb  Sb24  1  0.930744  0.991364  0.328180  1
  Sb  Sb25  1  0.430829  0.008331  0.171957  1
  Sb  Sb26  1  0.071328  0.490076  0.671123  1
  Sb  Sb27  1  0.566896  0.507181  0.828276  1
  Sb  Sb28  1  0.071328  0.009924  0.671123  1
  Sb  Sb29  1  0.566896  0.992819  0.828276  1
  Sb  Sb30  1  0.930744  0.508636  0.328180  1
  Sb  Sb31  1  0.430829  0.491669  0.171957  1
