# generated using pymatgen
data_Li3Hf5ScOs3
_symmetry_space_group_name_H-M   'P 1'
_cell_length_a   4.60482800
_cell_length_b   6.58623500
_cell_length_c   13.80120900
_cell_angle_alpha   90.00039936
_cell_angle_beta   90.00072201
_cell_angle_gamma   89.99992787
_symmetry_Int_Tables_number   1
_chemical_formula_structural   Li3Hf5ScOs3
_chemical_formula_sum   'Li6 Hf10 Sc2 Os6'
_cell_volume   418.56968204
_cell_formula_units_Z   2
loop_
 _symmetry_equiv_pos_site_id
 _symmetry_equiv_pos_as_xyz
  1  'x, y, z'
loop_
 _atom_site_type_symbol
 _atom_site_label
 _atom_site_symmetry_multiplicity
 _atom_site_fract_x
 _atom_site_fract_y
 _atom_site_fract_z
 _atom_site_occupancy
  Li  Li0  1  0.999999  0.000000  0.999529  1
  Li  Li1  1  0.499486  0.500000  0.166682  1
  Li  Li2  1  0.999488  0.000001  0.333347  1
  Li  Li3  1  0.500004  0.500001  0.499999  1
  Li  Li4  1  0.000521  0.000000  0.667131  1
  Li  Li5  1  0.500527  0.500001  0.833316  1
  Hf  Hf6  1  0.499992  0.250208  0.998306  1
  Hf  Hf7  1  0.499992  0.749794  0.998305  1
  Hf  Hf8  1  0.999566  0.250742  0.166132  1
  Hf  Hf9  1  0.999566  0.749259  0.166131  1
  Hf  Hf10  1  0.499555  0.249023  0.333335  1
  Hf  Hf11  1  0.499555  0.750979  0.333335  1
  Hf  Hf12  1  0.000005  0.250756  0.500531  1
  Hf  Hf13  1  0.000006  0.749241  0.500531  1
  Hf  Hf14  1  0.500435  0.250199  0.668366  1
  Hf  Hf15  1  0.500434  0.749802  0.668366  1
  Sc  Sc16  1  0.000459  0.248284  0.833323  1
  Sc  Sc17  1  0.000443  0.751707  0.833325  1
  Os  Os18  1  0.999964  0.500000  0.006450  1
  Os  Os19  1  0.499513  0.000000  0.167306  1
  Os  Os20  1  0.999500  0.500002  0.333352  1
  Os  Os21  1  0.499998  0.000001  0.499377  1
  Os  Os22  1  0.000491  0.500001  0.660202  1
  Os  Os23  1  0.500498  0.999999  0.833320  1
