# generated using pymatgen
data_K3Dy(TaS4)2
_symmetry_space_group_name_H-M   'P 1'
_cell_length_a   9.04676691
_cell_length_b   10.32349443
_cell_length_c   11.14530841
_cell_angle_alpha   107.38472604
_cell_angle_beta   102.61353838
_cell_angle_gamma   113.87140641
_symmetry_Int_Tables_number   1
_chemical_formula_structural   K3Dy(TaS4)2
_chemical_formula_sum   'K6 Dy2 Ta4 S16'
_cell_volume   836.91844806
_cell_formula_units_Z   2
loop_
 _symmetry_equiv_pos_site_id
 _symmetry_equiv_pos_as_xyz
  1  'x, y, z'
loop_
 _atom_site_type_symbol
 _atom_site_label
 _atom_site_symmetry_multiplicity
 _atom_site_fract_x
 _atom_site_fract_y
 _atom_site_fract_z
 _atom_site_occupancy
  K  K0  1  0.000000  0.500000  0.000001  1
  K  K1  1  0.500002  0.500002  0.000001  1
  K  K2  1  0.255359  0.005155  0.010438  1
  K  K3  1  0.488396  0.738512  0.476913  1
  K  K4  1  0.511603  0.261487  0.523086  1
  K  K5  1  0.744640  0.994846  0.989561  1
  Dy  Dy6  1  0.992374  0.242361  0.484730  1
  Dy  Dy7  1  0.007627  0.757640  0.515270  1
  Ta  Ta8  1  0.750730  0.350706  0.255660  1
  Ta  Ta9  1  0.004955  0.904983  0.255625  1
  Ta  Ta10  1  0.995046  0.095018  0.744375  1
  Ta  Ta11  1  0.249270  0.649293  0.744341  1
  S  S12  1  0.645044  0.269688  0.026361  1
  S  S13  1  0.881376  0.756786  0.026339  1
  S  S14  1  0.134575  0.165544  0.297616  1
  S  S15  1  0.663064  0.132069  0.297609  1
  S  S16  1  0.048340  0.489458  0.354011  1
  S  S17  1  0.805722  0.864565  0.354007  1
  S  S18  1  0.656229  0.509782  0.360261  1
  S  S19  1  0.204013  0.850458  0.360228  1
  S  S20  1  0.795988  0.149542  0.639772  1
  S  S21  1  0.343771  0.490218  0.639740  1
  S  S22  1  0.194277  0.135434  0.645991  1
  S  S23  1  0.951661  0.510542  0.645989  1
  S  S24  1  0.336936  0.867930  0.702392  1
  S  S25  1  0.865426  0.834457  0.702384  1
  S  S26  1  0.118624  0.243215  0.973661  1
  S  S27  1  0.354956  0.730313  0.973640  1
