# generated using pymatgen
data_Lu2BeB2Ir5
_symmetry_space_group_name_H-M   'P 1'
_cell_length_a   9.43187100
_cell_length_b   9.43187100
_cell_length_c   3.05092300
_cell_angle_alpha   90.00000000
_cell_angle_beta   90.00000000
_cell_angle_gamma   90.00000000
_symmetry_Int_Tables_number   1
_chemical_formula_structural   Lu2BeB2Ir5
_chemical_formula_sum   'Lu4 Be2 B4 Ir10'
_cell_volume   271.41069147
_cell_formula_units_Z   2
loop_
 _symmetry_equiv_pos_site_id
 _symmetry_equiv_pos_as_xyz
  1  'x, y, z'
loop_
 _atom_site_type_symbol
 _atom_site_label
 _atom_site_symmetry_multiplicity
 _atom_site_fract_x
 _atom_site_fract_y
 _atom_site_fract_z
 _atom_site_occupancy
  Lu  Lu0  1  0.676768  0.176768  0.000000  1
  Lu  Lu1  1  0.323232  0.823232  0.000000  1
  Lu  Lu2  1  0.176768  0.323232  0.000000  1
  Lu  Lu3  1  0.823232  0.676768  0.000000  1
  Be  Be4  1  0.000000  0.000000  0.000000  1
  Be  Be5  1  0.500000  0.500000  0.000000  1
  B  B6  1  0.127603  0.627603  0.000000  1
  B  B7  1  0.872397  0.372397  0.000000  1
  B  B8  1  0.627603  0.872397  0.000000  1
  B  B9  1  0.372397  0.127603  0.000000  1
  Ir  Ir10  1  0.211309  0.066928  0.500000  1
  Ir  Ir11  1  0.788691  0.933072  0.500000  1
  Ir  Ir12  1  0.066928  0.788691  0.500000  1
  Ir  Ir13  1  0.711309  0.433072  0.500000  1
  Ir  Ir14  1  0.933072  0.211309  0.500000  1
  Ir  Ir15  1  0.288691  0.566928  0.500000  1
  Ir  Ir16  1  0.566928  0.711309  0.500000  1
  Ir  Ir17  1  0.433072  0.288691  0.500000  1
  Ir  Ir18  1  0.500000  0.000000  0.500000  1
  Ir  Ir19  1  0.000000  0.500000  0.500000  1
