# generated using pymatgen
data_Ac4Sb3N2
_symmetry_space_group_name_H-M   'P 1'
_cell_length_a   7.78431900
_cell_length_b   11.79016800
_cell_length_c   12.30369200
_cell_angle_alpha   90.00000000
_cell_angle_beta   90.00000000
_cell_angle_gamma   90.00000000
_symmetry_Int_Tables_number   1
_chemical_formula_structural   Ac4Sb3N2
_chemical_formula_sum   'Ac16 Sb12 N8'
_cell_volume   1129.21351990
_cell_formula_units_Z   4
loop_
 _symmetry_equiv_pos_site_id
 _symmetry_equiv_pos_as_xyz
  1  'x, y, z'
loop_
 _atom_site_type_symbol
 _atom_site_label
 _atom_site_symmetry_multiplicity
 _atom_site_fract_x
 _atom_site_fract_y
 _atom_site_fract_z
 _atom_site_occupancy
  Ac  Ac0  1  0.133901  0.380959  0.553212  1
  Ac  Ac1  1  0.366099  0.880959  0.053212  1
  Ac  Ac2  1  0.228799  0.021028  0.750000  1
  Ac  Ac3  1  0.133901  0.380959  0.946788  1
  Ac  Ac4  1  0.271201  0.521028  0.250000  1
  Ac  Ac5  1  0.866099  0.619041  0.446788  1
  Ac  Ac6  1  0.873717  0.344712  0.250000  1
  Ac  Ac7  1  0.126283  0.655288  0.750000  1
  Ac  Ac8  1  0.626283  0.844712  0.750000  1
  Ac  Ac9  1  0.373717  0.155288  0.250000  1
  Ac  Ac10  1  0.728799  0.478972  0.750000  1
  Ac  Ac11  1  0.866099  0.619041  0.053212  1
  Ac  Ac12  1  0.771201  0.978972  0.250000  1
  Ac  Ac13  1  0.633901  0.119041  0.946788  1
  Ac  Ac14  1  0.366099  0.880959  0.446788  1
  Ac  Ac15  1  0.633901  0.119041  0.553212  1
  Sb  Sb16  1  0.911889  0.228067  0.750000  1
  Sb  Sb17  1  0.588111  0.728067  0.250000  1
  Sb  Sb18  1  0.445663  0.603908  0.947009  1
  Sb  Sb19  1  0.445663  0.603908  0.552991  1
  Sb  Sb20  1  0.554337  0.396092  0.447009  1
  Sb  Sb21  1  0.945663  0.896092  0.552991  1
  Sb  Sb22  1  0.054337  0.103908  0.447009  1
  Sb  Sb23  1  0.054337  0.103908  0.052991  1
  Sb  Sb24  1  0.945663  0.896092  0.947009  1
  Sb  Sb25  1  0.554337  0.396092  0.052991  1
  Sb  Sb26  1  0.411889  0.271933  0.750000  1
  Sb  Sb27  1  0.088111  0.771933  0.250000  1
  N  N28  1  0.539666  0.047695  0.375571  1
  N  N29  1  0.460334  0.952305  0.875571  1
  N  N30  1  0.960334  0.547695  0.875571  1
  N  N31  1  0.039666  0.452305  0.375571  1
  N  N32  1  0.460334  0.952305  0.624429  1
  N  N33  1  0.960334  0.547695  0.624429  1
  N  N34  1  0.039666  0.452305  0.124429  1
  N  N35  1  0.539666  0.047695  0.124429  1
