# generated using pymatgen
data_Cs4Tl2S5
_symmetry_space_group_name_H-M   'P 1'
_cell_length_a   9.92533886
_cell_length_b   11.62581824
_cell_length_c   8.06142878
_cell_angle_alpha   111.11416427
_cell_angle_beta   94.89567010
_cell_angle_gamma   103.24253403
_symmetry_Int_Tables_number   1
_chemical_formula_structural   Cs4Tl2S5
_chemical_formula_sum   'Cs8 Tl4 S10'
_cell_volume   830.12753560
_cell_formula_units_Z   2
loop_
 _symmetry_equiv_pos_site_id
 _symmetry_equiv_pos_as_xyz
  1  'x, y, z'
loop_
 _atom_site_type_symbol
 _atom_site_label
 _atom_site_symmetry_multiplicity
 _atom_site_fract_x
 _atom_site_fract_y
 _atom_site_fract_z
 _atom_site_occupancy
  Cs  Cs0  1  0.814883  0.908621  0.020605  1
  Cs  Cs1  1  0.814781  0.543093  0.088745  1
  Cs  Cs2  1  0.210230  0.914492  0.418298  1
  Cs  Cs3  1  0.527717  0.662391  0.435302  1
  Cs  Cs4  1  0.472283  0.337609  0.564697  1
  Cs  Cs5  1  0.789769  0.085507  0.581701  1
  Cs  Cs6  1  0.185219  0.456906  0.911254  1
  Cs  Cs7  1  0.185116  0.091379  0.979395  1
  Tl  Tl8  1  0.591307  0.171225  0.046707  1
  Tl  Tl9  1  0.000412  0.339733  0.371791  1
  Tl  Tl10  1  0.999589  0.660266  0.628208  1
  Tl  Tl11  1  0.408693  0.828775  0.953292  1
  S  S12  1  0.861673  0.231513  0.039332  1
  S  S13  1  0.481267  0.346938  0.073808  1
  S  S14  1  0.519015  0.041719  0.247943  1
  S  S15  1  0.152038  0.562351  0.394875  1
  S  S16  1  0.106962  0.183437  0.439374  1
  S  S17  1  0.893039  0.816562  0.560626  1
  S  S18  1  0.847962  0.437650  0.605124  1
  S  S19  1  0.480985  0.958281  0.752057  1
  S  S20  1  0.518732  0.653062  0.926192  1
  S  S21  1  0.138328  0.768487  0.960667  1
