# generated using pymatgen
data_HoTmFe4(PIr)6
_symmetry_space_group_name_H-M   'P 1'
_cell_length_a   3.84456600
_cell_length_b   10.47808100
_cell_length_c   12.28307600
_cell_angle_alpha   90.00000000
_cell_angle_beta   90.00000000
_cell_angle_gamma   90.00000000
_symmetry_Int_Tables_number   1
_chemical_formula_structural   HoTmFe4(PIr)6
_chemical_formula_sum   'Ho2 Tm2 Fe8 P12 Ir12'
_cell_volume   494.80742878
_cell_formula_units_Z   2
loop_
 _symmetry_equiv_pos_site_id
 _symmetry_equiv_pos_as_xyz
  1  'x, y, z'
loop_
 _atom_site_type_symbol
 _atom_site_label
 _atom_site_symmetry_multiplicity
 _atom_site_fract_x
 _atom_site_fract_y
 _atom_site_fract_z
 _atom_site_occupancy
  Ho  Ho0  1  0.250000  0.578763  0.712841  1
  Ho  Ho1  1  0.250000  0.921237  0.212841  1
  Tm  Tm2  1  0.750000  0.421093  0.287228  1
  Tm  Tm3  1  0.750000  0.078907  0.787228  1
  Fe  Fe4  1  0.250000  0.875211  0.697737  1
  Fe  Fe5  1  0.250000  0.624789  0.197737  1
  Fe  Fe6  1  0.750000  0.125482  0.302558  1
  Fe  Fe7  1  0.750000  0.374518  0.802558  1
  Fe  Fe8  1  0.250000  0.457184  0.936227  1
  Fe  Fe9  1  0.250000  0.042816  0.436227  1
  Fe  Fe10  1  0.750000  0.542208  0.064515  1
  Fe  Fe11  1  0.750000  0.957792  0.564515  1
  P  P12  1  0.250000  0.441679  0.112650  1
  P  P13  1  0.250000  0.058321  0.612650  1
  P  P14  1  0.750000  0.558094  0.888283  1
  P  P15  1  0.750000  0.941906  0.388283  1
  P  P16  1  0.250000  0.271172  0.862696  1
  P  P17  1  0.250000  0.228828  0.362696  1
  P  P18  1  0.750000  0.728557  0.136957  1
  P  P19  1  0.750000  0.771443  0.636957  1
  P  P20  1  0.250000  0.600041  0.376605  1
  P  P21  1  0.250000  0.899959  0.876605  1
  P  P22  1  0.750000  0.399666  0.622987  1
  P  P23  1  0.750000  0.100334  0.122987  1
  Ir  Ir24  1  0.250000  0.718376  0.990439  1
  Ir  Ir25  1  0.250000  0.781624  0.490439  1
  Ir  Ir26  1  0.750000  0.281357  0.009400  1
  Ir  Ir27  1  0.750000  0.218643  0.509400  1
  Ir  Ir28  1  0.250000  0.409341  0.473681  1
  Ir  Ir29  1  0.250000  0.090659  0.973681  1
  Ir  Ir30  1  0.750000  0.590533  0.525148  1
  Ir  Ir31  1  0.750000  0.909467  0.025148  1
  Ir  Ir32  1  0.250000  0.232654  0.173482  1
  Ir  Ir33  1  0.250000  0.267346  0.673482  1
  Ir  Ir34  1  0.750000  0.767711  0.826567  1
  Ir  Ir35  1  0.750000  0.732289  0.326567  1
