# generated using pymatgen
data_Nb6Si6Mo2IrRu3
_symmetry_space_group_name_H-M   'P 1'
_cell_length_a   7.52891338
_cell_length_b   7.52042027
_cell_length_c   7.51692254
_cell_angle_alpha   126.71914881
_cell_angle_beta   123.75762563
_cell_angle_gamma   81.15886817
_symmetry_Int_Tables_number   1
_chemical_formula_structural   Nb6Si6Mo2IrRu3
_chemical_formula_sum   'Nb6 Si6 Mo2 Ir1 Ru3'
_cell_volume   273.27084397
_cell_formula_units_Z   1
loop_
 _symmetry_equiv_pos_site_id
 _symmetry_equiv_pos_as_xyz
  1  'x, y, z'
loop_
 _atom_site_type_symbol
 _atom_site_label
 _atom_site_symmetry_multiplicity
 _atom_site_fract_x
 _atom_site_fract_y
 _atom_site_fract_z
 _atom_site_occupancy
  Nb  Nb0  1  0.560495  0.095690  0.037589  1
  Nb  Nb1  1  0.444461  0.475668  0.535461  1
  Nb  Nb2  1  0.961927  0.489754  0.028579  1
  Nb  Nb3  1  0.036421  0.070620  0.528367  1
  Nb  Nb4  1  0.750595  0.920273  0.667903  1
  Nb  Nb5  1  0.247743  0.914843  0.170217  1
  Si  Si6  1  0.777970  0.549933  0.269033  1
  Si  Si7  1  0.220945  0.493211  0.773471  1
  Si  Si8  1  0.334629  0.818436  0.492222  1
  Si  Si9  1  0.665501  0.156868  0.483575  1
  Si  Si10  1  0.826143  0.817889  0.983803  1
  Si  Si11  1  0.174034  0.157704  0.992106  1
  Mo  Mo12  1  0.498216  0.250096  0.748803  1
  Mo  Mo13  1  0.000693  0.250064  0.249827  1
  Ir  Ir14  1  0.159874  0.747388  0.653778  1
  Ru  Ru15  1  0.839585  0.493678  0.585111  1
  Ru  Ru16  1  0.593594  0.746661  0.088875  1
  Ru  Ru17  1  0.407176  0.493424  0.153482  1
