# generated using pymatgen
data_Ho12ZnTc3
_symmetry_space_group_name_H-M   'P 1'
_cell_length_a   6.29949900
_cell_length_b   7.43331970
_cell_length_c   9.13480000
_cell_angle_alpha   90.00000000
_cell_angle_beta   90.00000000
_cell_angle_gamma   89.67079865
_symmetry_Int_Tables_number   1
_chemical_formula_structural   Ho12ZnTc3
_chemical_formula_sum   'Ho12 Zn1 Tc3'
_cell_volume   427.74081984
_cell_formula_units_Z   1
loop_
 _symmetry_equiv_pos_site_id
 _symmetry_equiv_pos_as_xyz
  1  'x, y, z'
loop_
 _atom_site_type_symbol
 _atom_site_label
 _atom_site_symmetry_multiplicity
 _atom_site_fract_x
 _atom_site_fract_y
 _atom_site_fract_z
 _atom_site_occupancy
  Ho  Ho0  1  0.330372  0.675793  0.068405  1
  Ho  Ho1  1  0.163216  0.180579  0.435632  1
  Ho  Ho2  1  0.664163  0.311321  0.556409  1
  Ho  Ho3  1  0.848444  0.832539  0.941718  1
  Ho  Ho4  1  0.664163  0.311321  0.943591  1
  Ho  Ho5  1  0.848444  0.832539  0.558282  1
  Ho  Ho6  1  0.330372  0.675793  0.431595  1
  Ho  Ho7  1  0.163216  0.180579  0.064368  1
  Ho  Ho8  1  0.866711  0.541711  0.250000  1
  Ho  Ho9  1  0.623572  0.036370  0.250000  1
  Ho  Ho10  1  0.120813  0.452490  0.750000  1
  Ho  Ho11  1  0.368125  0.974860  0.750000  1
  Zn  Zn12  1  0.558815  0.611663  0.750000  1
  Tc  Tc13  1  0.037666  0.885121  0.250000  1
  Tc  Tc14  1  0.461869  0.382520  0.250000  1
  Tc  Tc15  1  0.950039  0.114801  0.750000  1
