# generated using pymatgen
data_TbEr5GaCo2
_symmetry_space_group_name_H-M   'P 1'
_cell_length_a   8.20045397
_cell_length_b   8.23175739
_cell_length_c   8.23175677
_cell_angle_alpha   112.26751246
_cell_angle_beta   109.45643709
_cell_angle_gamma   106.87886430
_symmetry_Int_Tables_number   1
_chemical_formula_structural   TbEr5GaCo2
_chemical_formula_sum   'Tb2 Er10 Ga2 Co4'
_cell_volume   426.05101280
_cell_formula_units_Z   2
loop_
 _symmetry_equiv_pos_site_id
 _symmetry_equiv_pos_as_xyz
  1  'x, y, z'
loop_
 _atom_site_type_symbol
 _atom_site_label
 _atom_site_symmetry_multiplicity
 _atom_site_fract_x
 _atom_site_fract_y
 _atom_site_fract_z
 _atom_site_occupancy
  Tb  Tb0  1  0.958735  0.261390  0.697345  1
  Tb  Tb1  1  0.041265  0.738610  0.302655  1
  Er  Er2  1  0.672187  0.861103  0.186800  1
  Er  Er3  1  0.327813  0.514612  0.188916  1
  Er  Er4  1  0.327813  0.138897  0.813200  1
  Er  Er5  1  0.672187  0.485388  0.811084  1
  Er  Er6  1  0.563222  0.260815  0.302407  1
  Er  Er7  1  0.436778  0.739185  0.697593  1
  Er  Er8  1  0.180477  0.781201  0.960713  1
  Er  Er9  1  0.819523  0.780235  0.600725  1
  Er  Er10  1  0.180477  0.219765  0.399275  1
  Er  Er11  1  0.819523  0.218799  0.039287  1
  Ga  Ga12  1  0.000000  0.500000  0.500000  1
  Ga  Ga13  1  0.500000  0.000000  0.500000  1
  Co  Co14  1  0.117148  0.115276  0.001873  1
  Co  Co15  1  0.882852  0.884724  0.998127  1
  Co  Co16  1  0.662675  0.499375  0.163301  1
  Co  Co17  1  0.337325  0.500625  0.836699  1
