# generated using pymatgen
data_Tb4Ho4AlPd24
_symmetry_space_group_name_H-M   'P 1'
_cell_length_a   8.35190700
_cell_length_b   8.35166701
_cell_length_c   8.35166701
_cell_angle_alpha   90.00384182
_cell_angle_beta   90.00131716
_cell_angle_gamma   90.00131716
_symmetry_Int_Tables_number   1
_chemical_formula_structural   Tb4Ho4AlPd24
_chemical_formula_sum   'Tb4 Ho4 Al1 Pd24'
_cell_volume   582.54836611
_cell_formula_units_Z   1
loop_
 _symmetry_equiv_pos_site_id
 _symmetry_equiv_pos_as_xyz
  1  'x, y, z'
loop_
 _atom_site_type_symbol
 _atom_site_label
 _atom_site_symmetry_multiplicity
 _atom_site_fract_x
 _atom_site_fract_y
 _atom_site_fract_z
 _atom_site_occupancy
  Tb  Tb0  1  0.251530  0.251544  0.251544  1
  Tb  Tb1  1  0.748434  0.748421  0.748421  1
  Tb  Tb2  1  0.748478  0.748473  0.251547  1
  Tb  Tb3  1  0.748478  0.251547  0.748473  1
  Ho  Ho4  1  0.251519  0.251568  0.748417  1
  Ho  Ho5  1  0.251519  0.748417  0.251568  1
  Ho  Ho6  1  0.251489  0.748477  0.748477  1
  Ho  Ho7  1  0.748485  0.251552  0.251552  1
  Al  Al8  1  0.000119  0.999995  0.999995  1
  Pd  Pd9  1  0.259729  0.500320  0.999609  1
  Pd  Pd10  1  0.740337  0.499682  0.000386  1
  Pd  Pd11  1  0.000018  0.259682  0.500009  1
  Pd  Pd12  1  0.499949  0.259690  0.999995  1
  Pd  Pd13  1  0.000803  0.740313  0.499998  1
  Pd  Pd14  1  0.499305  0.740307  0.000005  1
  Pd  Pd15  1  0.499949  0.999995  0.259690  1
  Pd  Pd16  1  0.259729  0.999609  0.500320  1
  Pd  Pd17  1  0.499305  0.000005  0.740307  1
  Pd  Pd18  1  0.740337  0.000386  0.499682  1
  Pd  Pd19  1  0.000018  0.500009  0.259682  1
  Pd  Pd20  1  0.000803  0.499998  0.740313  1
  Pd  Pd21  1  0.252661  0.500385  0.500385  1
  Pd  Pd22  1  0.747334  0.499621  0.499621  1
  Pd  Pd23  1  0.499961  0.252650  0.500001  1
  Pd  Pd24  1  0.499210  0.747349  0.500004  1
  Pd  Pd25  1  0.499961  0.500001  0.252650  1
  Pd  Pd26  1  0.499210  0.500004  0.747349  1
  Pd  Pd27  1  0.289207  0.999655  0.999655  1
  Pd  Pd28  1  0.710702  0.000349  0.000349  1
  Pd  Pd29  1  0.000012  0.289252  0.000001  1
  Pd  Pd30  1  0.000699  0.710749  0.999995  1
  Pd  Pd31  1  0.000012  0.000001  0.289252  1
  Pd  Pd32  1  0.000699  0.999995  0.710749  1
