# generated using pymatgen
data_Y2ScBe2(PPd5)4
_symmetry_space_group_name_H-M   'P 1'
_cell_length_a   8.64430723
_cell_length_b   8.56834648
_cell_length_c   8.56834601
_cell_angle_alpha   60.58739165
_cell_angle_beta   59.70630382
_cell_angle_gamma   59.70630967
_symmetry_Int_Tables_number   1
_chemical_formula_structural   Y2ScBe2(PPd5)4
_chemical_formula_sum   'Y2 Sc1 Be2 P4 Pd20'
_cell_volume   448.68375659
_cell_formula_units_Z   1
loop_
 _symmetry_equiv_pos_site_id
 _symmetry_equiv_pos_as_xyz
  1  'x, y, z'
loop_
 _atom_site_type_symbol
 _atom_site_label
 _atom_site_symmetry_multiplicity
 _atom_site_fract_x
 _atom_site_fract_y
 _atom_site_fract_z
 _atom_site_occupancy
  Y  Y0  1  0.250000  0.250000  0.250000  1
  Y  Y1  1  0.750000  0.750000  0.750000  1
  Sc  Sc2  1  0.000000  0.000000  0.000000  1
  Be  Be3  1  0.733709  0.266291  0.266291  1
  Be  Be4  1  0.266291  0.733709  0.733709  1
  P  P5  1  0.265880  0.734120  0.265880  1
  P  P6  1  0.734120  0.265880  0.734120  1
  P  P7  1  0.265880  0.265880  0.734120  1
  P  P8  1  0.734120  0.734120  0.265880  1
  Pd  Pd9  1  0.387935  0.382463  0.382463  1
  Pd  Pd10  1  0.612065  0.617537  0.617537  1
  Pd  Pd11  1  0.382463  0.387935  0.847141  1
  Pd  Pd12  1  0.382463  0.847141  0.387935  1
  Pd  Pd13  1  0.617537  0.612065  0.152859  1
  Pd  Pd14  1  0.617537  0.152859  0.612065  1
  Pd  Pd15  1  0.847141  0.382463  0.382463  1
  Pd  Pd16  1  0.152859  0.617537  0.617537  1
  Pd  Pd17  1  0.342687  0.000000  0.000000  1
  Pd  Pd18  1  0.657313  0.000000  0.000000  1
  Pd  Pd19  1  0.000000  0.342687  0.657313  1
  Pd  Pd20  1  0.000000  0.657313  0.342687  1
  Pd  Pd21  1  0.997167  0.341810  0.002833  1
  Pd  Pd22  1  0.658190  0.002833  0.341810  1
  Pd  Pd23  1  0.002833  0.658190  0.997167  1
  Pd  Pd24  1  0.341810  0.997167  0.658190  1
  Pd  Pd25  1  0.997167  0.002833  0.341810  1
  Pd  Pd26  1  0.002833  0.997167  0.658190  1
  Pd  Pd27  1  0.658190  0.341810  0.002833  1
  Pd  Pd28  1  0.341810  0.658190  0.997167  1
