# generated using pymatgen
data_Tb5LuAl18(Si3Os4)2
_symmetry_space_group_name_H-M   'P 1'
_cell_length_a   8.71024300
_cell_length_b   8.68481246
_cell_length_c   9.55014300
_cell_angle_alpha   90.00000000
_cell_angle_beta   90.00000000
_cell_angle_gamma   120.09690637
_symmetry_Int_Tables_number   1
_chemical_formula_structural   Tb5LuAl18(Si3Os4)2
_chemical_formula_sum   'Tb5 Lu1 Al18 Si6 Os8'
_cell_volume   625.03783652
_cell_formula_units_Z   1
loop_
 _symmetry_equiv_pos_site_id
 _symmetry_equiv_pos_as_xyz
  1  'x, y, z'
loop_
 _atom_site_type_symbol
 _atom_site_label
 _atom_site_symmetry_multiplicity
 _atom_site_fract_x
 _atom_site_fract_y
 _atom_site_fract_z
 _atom_site_occupancy
  Tb  Tb0  1  0.807206  0.614413  0.750000  1
  Tb  Tb1  1  0.611181  0.807862  0.250000  1
  Tb  Tb2  1  0.388581  0.191677  0.750000  1
  Tb  Tb3  1  0.196680  0.807862  0.250000  1
  Tb  Tb4  1  0.803096  0.191677  0.750000  1
  Lu  Lu5  1  0.195134  0.390269  0.250000  1
  Al  Al6  1  0.165070  0.330138  0.577194  1
  Al  Al7  1  0.834813  0.669629  0.421566  1
  Al  Al8  1  0.670154  0.834424  0.576204  1
  Al  Al9  1  0.834813  0.669629  0.078434  1
  Al  Al10  1  0.329095  0.165583  0.422993  1
  Al  Al11  1  0.165070  0.330138  0.922806  1
  Al  Al12  1  0.164271  0.834424  0.576204  1
  Al  Al13  1  0.329095  0.165583  0.077007  1
  Al  Al14  1  0.836487  0.165583  0.422993  1
  Al  Al15  1  0.670154  0.834424  0.923796  1
  Al  Al16  1  0.836487  0.165583  0.077007  1
  Al  Al17  1  0.164271  0.834424  0.923796  1
  Al  Al18  1  0.872952  0.432417  0.250000  1
  Al  Al19  1  0.127781  0.567016  0.750000  1
  Al  Al20  1  0.559465  0.432417  0.250000  1
  Al  Al21  1  0.439235  0.567016  0.750000  1
  Al  Al22  1  0.000979  0.001957  0.250000  1
  Al  Al23  1  0.000599  0.001198  0.750000  1
  Si  Si24  1  0.331449  0.662900  0.039677  1
  Si  Si25  1  0.667884  0.335765  0.961762  1
  Si  Si26  1  0.667884  0.335765  0.538238  1
  Si  Si27  1  0.331449  0.662900  0.460323  1
  Si  Si28  1  0.563715  0.127431  0.250000  1
  Si  Si29  1  0.436308  0.872615  0.750000  1
  Os  Os30  1  0.499844  0.999689  0.000145  1
  Os  Os31  1  0.000414  0.499632  0.000745  1
  Os  Os32  1  0.499844  0.999689  0.499855  1
  Os  Os33  1  0.499218  0.499632  0.000745  1
  Os  Os34  1  0.000414  0.499632  0.499255  1
  Os  Os35  1  0.499218  0.499632  0.499255  1
  Os  Os36  1  0.999845  0.999689  0.999903  1
  Os  Os37  1  0.999845  0.999689  0.500097  1
