# generated using pymatgen
data_Ca2La7DySi8O3
_symmetry_space_group_name_H-M   'P 1'
_cell_length_a   10.79726900
_cell_length_b   10.75684235
_cell_length_c   4.59299800
_cell_angle_alpha   90.00000000
_cell_angle_beta   90.00000000
_cell_angle_gamma   120.12440229
_symmetry_Int_Tables_number   1
_chemical_formula_structural   Ca2La7DySi8O3
_chemical_formula_sum   'Ca2 La7 Dy1 Si8 O3'
_cell_volume   461.40238253
_cell_formula_units_Z   1
loop_
 _symmetry_equiv_pos_site_id
 _symmetry_equiv_pos_as_xyz
  1  'x, y, z'
loop_
 _atom_site_type_symbol
 _atom_site_label
 _atom_site_symmetry_multiplicity
 _atom_site_fract_x
 _atom_site_fract_y
 _atom_site_fract_z
 _atom_site_occupancy
  Ca  Ca0  1  0.000000  0.500000  0.500000  1
  Ca  Ca1  1  0.500000  0.500000  0.500000  1
  La  La2  1  0.207001  0.782669  0.000000  1
  La  La3  1  0.575668  0.782669  0.000000  1
  La  La4  1  0.786574  0.573147  0.000000  1
  La  La5  1  0.000000  0.000000  0.000000  1
  La  La6  1  0.213426  0.426853  0.000000  1
  La  La7  1  0.424332  0.217331  0.000000  1
  La  La8  1  0.792999  0.217331  0.000000  1
  Dy  Dy9  1  0.500000  0.000000  0.500000  1
  Si  Si10  1  0.999839  0.781224  0.500000  1
  Si  Si11  1  0.000161  0.218776  0.500000  1
  Si  Si12  1  0.218615  0.218776  0.500000  1
  Si  Si13  1  0.777582  0.000000  0.500000  1
  Si  Si14  1  0.336333  0.672668  0.500000  1
  Si  Si15  1  0.222418  0.000000  0.500000  1
  Si  Si16  1  0.663667  0.327332  0.500000  1
  Si  Si17  1  0.781385  0.781224  0.500000  1
  O  O18  1  0.000000  0.500000  0.000000  1
  O  O19  1  0.500000  0.500000  0.000000  1
  O  O20  1  0.500000  0.000000  0.000000  1
