# generated using pymatgen
data_HfSc(B4Ir3)2
_symmetry_space_group_name_H-M   'P 1'
_cell_length_a   7.61666200
_cell_length_b   7.61666132
_cell_length_c   3.49911600
_cell_angle_alpha   90.00000000
_cell_angle_beta   90.00000000
_cell_angle_gamma   120.00000295
_symmetry_Int_Tables_number   1
_chemical_formula_structural   HfSc(B4Ir3)2
_chemical_formula_sum   'Hf1 Sc1 B8 Ir6'
_cell_volume   175.79976386
_cell_formula_units_Z   1
loop_
 _symmetry_equiv_pos_site_id
 _symmetry_equiv_pos_as_xyz
  1  'x, y, z'
loop_
 _atom_site_type_symbol
 _atom_site_label
 _atom_site_symmetry_multiplicity
 _atom_site_fract_x
 _atom_site_fract_y
 _atom_site_fract_z
 _atom_site_occupancy
  Hf  Hf0  1  0.333333  0.666667  0.750000  1
  Sc  Sc1  1  0.666667  0.333333  0.250000  1
  B  B2  1  0.601397  0.548065  0.750000  1
  B  B3  1  0.048423  0.599015  0.250000  1
  B  B4  1  0.550592  0.951577  0.250000  1
  B  B5  1  0.451935  0.053332  0.750000  1
  B  B6  1  0.000000  0.000000  0.000052  1
  B  B7  1  0.400985  0.449408  0.250000  1
  B  B8  1  0.000000  0.000000  0.499948  1
  B  B9  1  0.946668  0.398603  0.750000  1
  Ir  Ir10  1  0.745659  0.075339  0.750000  1
  Ir  Ir11  1  0.329680  0.254341  0.750000  1
  Ir  Ir12  1  0.668864  0.745880  0.250000  1
  Ir  Ir13  1  0.077016  0.331136  0.250000  1
  Ir  Ir14  1  0.254120  0.922984  0.250000  1
  Ir  Ir15  1  0.924661  0.670320  0.750000  1
