# generated using pymatgen
data_Sr2Si(SeS)2
_symmetry_space_group_name_H-M   'P 1'
_cell_length_a   6.85494370
_cell_length_b   6.72460900
_cell_length_c   8.50599681
_cell_angle_alpha   90.00000000
_cell_angle_beta   107.94645690
_cell_angle_gamma   90.00000000
_symmetry_Int_Tables_number   1
_chemical_formula_structural   Sr2Si(SeS)2
_chemical_formula_sum   'Sr4 Si2 Se4 S4'
_cell_volume   373.02172783
_cell_formula_units_Z   2
loop_
 _symmetry_equiv_pos_site_id
 _symmetry_equiv_pos_as_xyz
  1  'x, y, z'
loop_
 _atom_site_type_symbol
 _atom_site_label
 _atom_site_symmetry_multiplicity
 _atom_site_fract_x
 _atom_site_fract_y
 _atom_site_fract_z
 _atom_site_occupancy
  Sr  Sr0  1  0.217454  0.250000  0.049276  1
  Sr  Sr1  1  0.751667  0.750001  0.438026  1
  Sr  Sr2  1  0.248332  0.250000  0.561974  1
  Sr  Sr3  1  0.782546  0.750001  0.950724  1
  Si  Si4  1  0.782510  0.250000  0.201334  1
  Si  Si5  1  0.217489  0.750001  0.798666  1
  Se  Se6  1  0.385078  0.750001  0.075092  1
  Se  Se7  1  0.586218  0.250000  0.375953  1
  Se  Se8  1  0.413782  0.750001  0.624048  1
  Se  Se9  1  0.614922  0.250000  0.924908  1
  S  S10  1  0.986259  0.002248  0.258163  1
  S  S11  1  0.986259  0.497751  0.258163  1
  S  S12  1  0.013742  0.502249  0.741837  1
  S  S13  1  0.013742  0.997751  0.741837  1
