# generated using pymatgen
data_DyEr11OsRh3
_symmetry_space_group_name_H-M   'P 1'
_cell_length_a   6.31920602
_cell_length_b   7.21131483
_cell_length_c   9.13277700
_cell_angle_alpha   90.00000000
_cell_angle_beta   90.00000000
_cell_angle_gamma   90.11284641
_symmetry_Int_Tables_number   1
_chemical_formula_structural   DyEr11OsRh3
_chemical_formula_sum   'Dy1 Er11 Os1 Rh3'
_cell_volume   416.17786913
_cell_formula_units_Z   1
loop_
 _symmetry_equiv_pos_site_id
 _symmetry_equiv_pos_as_xyz
  1  'x, y, z'
loop_
 _atom_site_type_symbol
 _atom_site_label
 _atom_site_symmetry_multiplicity
 _atom_site_fract_x
 _atom_site_fract_y
 _atom_site_fract_z
 _atom_site_occupancy
  Dy  Dy0  1  0.872631  0.535912  0.250000  1
  Er  Er1  1  0.333261  0.677328  0.058522  1
  Er  Er2  1  0.171143  0.177877  0.437304  1
  Er  Er3  1  0.671278  0.323550  0.564138  1
  Er  Er4  1  0.825243  0.820297  0.935309  1
  Er  Er5  1  0.671278  0.323550  0.935862  1
  Er  Er6  1  0.825243  0.820297  0.564691  1
  Er  Er7  1  0.333261  0.677328  0.441478  1
  Er  Er8  1  0.171143  0.177877  0.062696  1
  Er  Er9  1  0.629887  0.034971  0.250000  1
  Er  Er10  1  0.127963  0.465476  0.750000  1
  Er  Er11  1  0.371983  0.965251  0.750000  1
  Os  Os12  1  0.538304  0.615533  0.750000  1
  Rh  Rh13  1  0.046485  0.886180  0.250000  1
  Rh  Rh14  1  0.454369  0.383591  0.250000  1
  Rh  Rh15  1  0.956532  0.114980  0.750000  1
