# generated using pymatgen
data_Ti20Si12F
_symmetry_space_group_name_H-M   'P 1'
_cell_length_a   5.16498800
_cell_length_b   7.48062239
_cell_length_c   12.94998900
_cell_angle_alpha   89.99997702
_cell_angle_beta   90.00000000
_cell_angle_gamma   89.98142638
_symmetry_Int_Tables_number   1
_chemical_formula_structural   Ti20Si12F
_chemical_formula_sum   'Ti20 Si12 F1'
_cell_volume   500.35290606
_cell_formula_units_Z   1
loop_
 _symmetry_equiv_pos_site_id
 _symmetry_equiv_pos_as_xyz
  1  'x, y, z'
loop_
 _atom_site_type_symbol
 _atom_site_label
 _atom_site_symmetry_multiplicity
 _atom_site_fract_x
 _atom_site_fract_y
 _atom_site_fract_z
 _atom_site_occupancy
  Ti  Ti0  1  0.499998  0.000001  0.334846  1
  Ti  Ti1  1  0.499999  0.499999  0.832457  1
  Ti  Ti2  1  0.499999  0.499999  0.167455  1
  Ti  Ti3  1  0.499997  0.000001  0.665226  1
  Ti  Ti4  1  0.000001  0.499999  0.164937  1
  Ti  Ti5  1  0.000003  0.000000  0.667994  1
  Ti  Ti6  1  0.000002  0.000001  0.332120  1
  Ti  Ti7  1  0.000001  0.499999  0.834948  1
  Ti  Ti8  1  0.744309  0.254023  0.999920  1
  Ti  Ti9  1  0.749340  0.752360  0.500072  1
  Ti  Ti10  1  0.750056  0.375870  0.375595  1
  Ti  Ti11  1  0.742440  0.872070  0.872006  1
  Ti  Ti12  1  0.742461  0.872049  0.127890  1
  Ti  Ti13  1  0.750089  0.375919  0.624526  1
  Ti  Ti14  1  0.255691  0.745978  0.999920  1
  Ti  Ti15  1  0.250660  0.247639  0.500073  1
  Ti  Ti16  1  0.257541  0.127951  0.127891  1
  Ti  Ti17  1  0.249911  0.624082  0.624525  1
  Ti  Ti18  1  0.249944  0.624130  0.375596  1
  Ti  Ti19  1  0.257560  0.127929  0.872006  1
  Si  Si20  1  0.743205  0.605884  0.999966  1
  Si  Si21  1  0.753569  0.109506  0.500005  1
  Si  Si22  1  0.746186  0.198108  0.198256  1
  Si  Si23  1  0.750512  0.696008  0.695620  1
  Si  Si24  1  0.750557  0.696033  0.304409  1
  Si  Si25  1  0.746151  0.198086  0.801732  1
  Si  Si26  1  0.256794  0.394117  0.999966  1
  Si  Si27  1  0.246432  0.890494  0.500004  1
  Si  Si28  1  0.249442  0.303968  0.304410  1
  Si  Si29  1  0.253850  0.801914  0.801731  1
  Si  Si30  1  0.253816  0.801891  0.198258  1
  Si  Si31  1  0.249488  0.303993  0.695620  1
  F  F32  1  0.999998  0.999999  0.000019  1
