# generated using pymatgen
data_Lu5Ti2Co17P12
_symmetry_space_group_name_H-M   'P 1'
_cell_length_a   11.93650900
_cell_length_b   11.89402868
_cell_length_c   3.59173500
_cell_angle_alpha   90.00000000
_cell_angle_beta   90.00000000
_cell_angle_gamma   119.88232824
_symmetry_Int_Tables_number   1
_chemical_formula_structural   Lu5Ti2Co17P12
_chemical_formula_sum   'Lu5 Ti2 Co17 P12'
_cell_volume   442.13507502
_cell_formula_units_Z   1
loop_
 _symmetry_equiv_pos_site_id
 _symmetry_equiv_pos_as_xyz
  1  'x, y, z'
loop_
 _atom_site_type_symbol
 _atom_site_label
 _atom_site_symmetry_multiplicity
 _atom_site_fract_x
 _atom_site_fract_y
 _atom_site_fract_z
 _atom_site_occupancy
  Lu  Lu0  1  0.665576  0.332576  0.000000  1
  Lu  Lu1  1  0.334424  0.667000  0.000000  1
  Lu  Lu2  1  0.183797  0.182298  0.500000  1
  Lu  Lu3  1  0.816203  0.998501  0.500000  1
  Lu  Lu4  1  0.000000  0.811926  0.500000  1
  Ti  Ti5  1  0.558946  0.558746  0.000000  1
  Ti  Ti6  1  0.441054  0.999801  0.000000  1
  Co  Co7  1  0.000000  0.449408  0.000000  1
  Co  Co8  1  0.824992  0.201772  0.000000  1
  Co  Co9  1  0.804790  0.623851  0.000000  1
  Co  Co10  1  0.373099  0.177529  0.000000  1
  Co  Co11  1  0.195210  0.819061  0.000000  1
  Co  Co12  1  0.626901  0.804430  0.000000  1
  Co  Co13  1  0.175008  0.376781  0.000000  1
  Co  Co14  1  0.645995  0.126699  0.500000  1
  Co  Co15  1  0.874225  0.515723  0.500000  1
  Co  Co16  1  0.480644  0.355471  0.500000  1
  Co  Co17  1  0.125775  0.641498  0.500000  1
  Co  Co18  1  0.519356  0.874827  0.500000  1
  Co  Co19  1  0.354005  0.480705  0.500000  1
  Co  Co20  1  0.719917  0.718857  0.500000  1
  Co  Co21  1  0.280083  0.998939  0.500000  1
  Co  Co22  1  0.000000  0.284755  0.500000  1
  Co  Co23  1  0.000000  0.001925  0.000000  1
  P  P24  1  0.354513  0.357693  0.000000  1
  P  P25  1  0.645487  0.003179  0.000000  1
  P  P26  1  0.000000  0.634829  0.000000  1
  P  P27  1  0.835028  0.316549  0.500000  1
  P  P28  1  0.686641  0.517261  0.500000  1
  P  P29  1  0.481059  0.167990  0.500000  1
  P  P30  1  0.313359  0.830620  0.500000  1
  P  P31  1  0.518941  0.686931  0.500000  1
  P  P32  1  0.164972  0.481521  0.500000  1
  P  P33  1  0.823702  0.821867  0.000000  1
  P  P34  1  0.176298  0.998164  0.000000  1
  P  P35  1  0.000000  0.180317  0.000000  1
