# generated using pymatgen
data_Ho8Hf2(IrRh)3
_symmetry_space_group_name_H-M   'P 1'
_cell_length_a   10.81615464
_cell_length_b   10.81660901
_cell_length_c   6.23315737
_cell_angle_alpha   89.99641651
_cell_angle_beta   90.03931861
_cell_angle_gamma   90.00369801
_symmetry_Int_Tables_number   1
_chemical_formula_structural   Ho8Hf2(IrRh)3
_chemical_formula_sum   'Ho16 Hf4 Ir6 Rh6'
_cell_volume   729.24256029
_cell_formula_units_Z   2
loop_
 _symmetry_equiv_pos_site_id
 _symmetry_equiv_pos_as_xyz
  1  'x, y, z'
loop_
 _atom_site_type_symbol
 _atom_site_label
 _atom_site_symmetry_multiplicity
 _atom_site_fract_x
 _atom_site_fract_y
 _atom_site_fract_z
 _atom_site_occupancy
  Ho  Ho0  1  0.288409  0.086034  0.375091  1
  Ho  Ho1  1  0.288409  0.913963  0.875096  1
  Ho  Ho2  1  0.710729  0.087807  0.873729  1
  Ho  Ho3  1  0.710730  0.912190  0.373736  1
  Ho  Ho4  1  0.584389  0.787838  0.875330  1
  Ho  Ho5  1  0.584390  0.212154  0.375329  1
  Ho  Ho6  1  0.413388  0.788393  0.374932  1
  Ho  Ho7  1  0.413388  0.211601  0.874928  1
  Ho  Ho8  1  0.211692  0.413648  0.624746  1
  Ho  Ho9  1  0.211689  0.586357  0.124741  1
  Ho  Ho10  1  0.787897  0.415418  0.124996  1
  Ho  Ho11  1  0.787900  0.584585  0.624990  1
  Ho  Ho12  1  0.914263  0.711264  0.125488  1
  Ho  Ho13  1  0.914261  0.288745  0.625492  1
  Ho  Ho14  1  0.088069  0.711072  0.625590  1
  Ho  Ho15  1  0.088066  0.288936  0.125594  1
  Hf  Hf16  1  0.000674  0.999812  0.500078  1
  Hf  Hf17  1  0.000677  0.000207  0.000056  1
  Hf  Hf18  1  0.499876  0.500018  0.999987  1
  Hf  Hf19  1  0.499883  0.499979  0.499995  1
  Ir  Ir20  1  0.143098  0.144311  0.750128  1
  Ir  Ir21  1  0.143093  0.855695  0.250118  1
  Ir  Ir22  1  0.644673  0.355755  0.750022  1
  Ir  Ir23  1  0.644676  0.644239  0.250019  1
  Ir  Ir24  1  0.355954  0.355549  0.250024  1
  Ir  Ir25  1  0.355961  0.644442  0.750016  1
  Rh  Rh26  1  0.855855  0.142605  0.250024  1
  Rh  Rh27  1  0.855870  0.857384  0.750018  1
  Rh  Rh28  1  0.501492  0.000047  0.117572  1
  Rh  Rh29  1  0.501492  0.999948  0.617561  1
  Rh  Rh30  1  0.999530  0.500345  0.882290  1
  Rh  Rh31  1  0.999530  0.499662  0.382286  1
