# generated using pymatgen
data_Pr2Nd(AlI)2
_symmetry_space_group_name_H-M   'P 1'
_cell_length_a   10.00660948
_cell_length_b   10.00660920
_cell_length_c   12.20452543
_cell_angle_alpha   59.59789360
_cell_angle_beta   59.59789553
_cell_angle_gamma   25.12142233
_symmetry_Int_Tables_number   1
_chemical_formula_structural   Pr2Nd(AlI)2
_chemical_formula_sum   'Pr4 Nd2 Al4 I4'
_cell_volume   443.63388324
_cell_formula_units_Z   2
loop_
 _symmetry_equiv_pos_site_id
 _symmetry_equiv_pos_as_xyz
  1  'x, y, z'
loop_
 _atom_site_type_symbol
 _atom_site_label
 _atom_site_symmetry_multiplicity
 _atom_site_fract_x
 _atom_site_fract_y
 _atom_site_fract_z
 _atom_site_occupancy
  Pr  Pr0  1  0.755712  0.755712  0.799929  1
  Pr  Pr1  1  0.244288  0.244288  0.200071  1
  Pr  Pr2  1  0.534614  0.534614  0.311918  1
  Pr  Pr3  1  0.465386  0.465386  0.688082  1
  Nd  Nd4  1  0.831453  0.831453  0.389185  1
  Nd  Nd5  1  0.168547  0.168547  0.610815  1
  Al  Al6  1  0.926463  0.926463  0.533267  1
  Al  Al7  1  0.073537  0.073537  0.466733  1
  Al  Al8  1  0.338510  0.338510  0.584547  1
  Al  Al9  1  0.661490  0.661490  0.415453  1
  I  I10  1  0.422909  0.422909  0.171774  1
  I  I11  1  0.577091  0.577091  0.828226  1
  I  I12  1  0.859265  0.859265  0.940736  1
  I  I13  1  0.140735  0.140735  0.059264  1
