# generated using pymatgen
data_V2CrB2
_symmetry_space_group_name_H-M   'P 1'
_cell_length_a   5.63921300
_cell_length_b   5.63921300
_cell_length_c   3.00816400
_cell_angle_alpha   90.00000000
_cell_angle_beta   90.00000000
_cell_angle_gamma   90.00000000
_symmetry_Int_Tables_number   1
_chemical_formula_structural   V2CrB2
_chemical_formula_sum   'V4 Cr2 B4'
_cell_volume   95.66179088
_cell_formula_units_Z   2
loop_
 _symmetry_equiv_pos_site_id
 _symmetry_equiv_pos_as_xyz
  1  'x, y, z'
loop_
 _atom_site_type_symbol
 _atom_site_label
 _atom_site_symmetry_multiplicity
 _atom_site_fract_x
 _atom_site_fract_y
 _atom_site_fract_z
 _atom_site_occupancy
  V  V0  1  0.321013  0.821013  0.500000  1
  V  V1  1  0.821013  0.678987  0.500000  1
  V  V2  1  0.178987  0.321013  0.500000  1
  V  V3  1  0.678987  0.178987  0.500000  1
  Cr  Cr4  1  0.000000  0.000000  0.000000  1
  Cr  Cr5  1  0.500000  0.500000  0.000000  1
  B  B6  1  0.112833  0.612833  0.000000  1
  B  B7  1  0.612833  0.887167  0.000000  1
  B  B8  1  0.387167  0.112833  0.000000  1
  B  B9  1  0.887167  0.387167  0.000000  1
