# generated using pymatgen
data_Tm4AlGa17Ir6
_symmetry_space_group_name_H-M   'P 1'
_cell_length_a   7.57697916
_cell_length_b   7.57697875
_cell_length_c   9.46139500
_cell_angle_alpha   89.98971499
_cell_angle_beta   89.98971155
_cell_angle_gamma   119.92475813
_symmetry_Int_Tables_number   1
_chemical_formula_structural   Tm4AlGa17Ir6
_chemical_formula_sum   'Tm4 Al1 Ga17 Ir6'
_cell_volume   470.76776434
_cell_formula_units_Z   1
loop_
 _symmetry_equiv_pos_site_id
 _symmetry_equiv_pos_as_xyz
  1  'x, y, z'
loop_
 _atom_site_type_symbol
 _atom_site_label
 _atom_site_symmetry_multiplicity
 _atom_site_fract_x
 _atom_site_fract_y
 _atom_site_fract_z
 _atom_site_occupancy
  Tm  Tm0  1  0.999187  0.668973  0.249812  1
  Tm  Tm1  1  0.001662  0.329458  0.749528  1
  Tm  Tm2  1  0.668973  0.999187  0.249812  1
  Tm  Tm3  1  0.329458  0.001662  0.749528  1
  Al  Al4  1  0.336122  0.336122  0.949310  1
  Ga  Ga5  1  0.126237  0.126237  0.249040  1
  Ga  Ga6  1  0.872022  0.872022  0.748993  1
  Ga  Ga7  1  0.997736  0.334330  0.081091  1
  Ga  Ga8  1  0.000632  0.664787  0.917436  1
  Ga  Ga9  1  0.000237  0.664420  0.582398  1
  Ga  Ga10  1  0.334435  0.999027  0.417196  1
  Ga  Ga11  1  0.999027  0.334435  0.417196  1
  Ga  Ga12  1  0.664420  0.000237  0.582398  1
  Ga  Ga13  1  0.664787  0.000632  0.917436  1
  Ga  Ga14  1  0.334330  0.997736  0.081091  1
  Ga  Ga15  1  0.331268  0.331268  0.565101  1
  Ga  Ga16  1  0.668749  0.668749  0.432568  1
  Ga  Ga17  1  0.673097  0.673097  0.067674  1
  Ga  Ga18  1  0.340733  0.548666  0.249722  1
  Ga  Ga19  1  0.654999  0.449746  0.750136  1
  Ga  Ga20  1  0.548666  0.340733  0.249722  1
  Ga  Ga21  1  0.449746  0.654999  0.750136  1
  Ir  Ir22  1  0.669553  0.328197  0.999064  1
  Ir  Ir23  1  0.328197  0.669553  0.999064  1
  Ir  Ir24  1  0.328217  0.672130  0.499498  1
  Ir  Ir25  1  0.672130  0.328217  0.499498  1
  Ir  Ir26  1  0.005580  0.005580  0.996427  1
  Ir  Ir27  1  0.999798  0.999798  0.499122  1
