# generated using pymatgen
data_Zr(GaI3)2
_symmetry_space_group_name_H-M   'P 1'
_cell_length_a   8.42525330
_cell_length_b   8.42525289
_cell_length_c   8.42525353
_cell_angle_alpha   55.84561469
_cell_angle_beta   55.84561845
_cell_angle_gamma   55.84560421
_symmetry_Int_Tables_number   1
_chemical_formula_structural   Zr(GaI3)2
_chemical_formula_sum   'Zr1 Ga2 I6'
_cell_volume   382.16648369
_cell_formula_units_Z   1
loop_
 _symmetry_equiv_pos_site_id
 _symmetry_equiv_pos_as_xyz
  1  'x, y, z'
loop_
 _atom_site_type_symbol
 _atom_site_label
 _atom_site_symmetry_multiplicity
 _atom_site_fract_x
 _atom_site_fract_y
 _atom_site_fract_z
 _atom_site_occupancy
  Zr  Zr0  1  0.000000  0.000000  0.000000  1
  Ga  Ga1  1  0.330255  0.330255  0.330255  1
  Ga  Ga2  1  0.669745  0.669745  0.669745  1
  I  I3  1  0.224297  0.626825  0.912675  1
  I  I4  1  0.626825  0.912675  0.224297  1
  I  I5  1  0.912675  0.224297  0.626825  1
  I  I6  1  0.775703  0.373175  0.087325  1
  I  I7  1  0.373175  0.087325  0.775703  1
  I  I8  1  0.087325  0.775703  0.373175  1
