# generated using pymatgen
data_Ta5Mn6NbN2
_symmetry_space_group_name_H-M   'P 1'
_cell_length_a   8.03747855
_cell_length_b   8.03740906
_cell_length_c   8.03829800
_cell_angle_alpha   59.99634130
_cell_angle_beta   59.99662734
_cell_angle_gamma   60.00640584
_symmetry_Int_Tables_number   1
_chemical_formula_structural   Ta5Mn6NbN2
_chemical_formula_sum   'Ta10 Mn12 Nb2 N4'
_cell_volume   367.18331791
_cell_formula_units_Z   2
loop_
 _symmetry_equiv_pos_site_id
 _symmetry_equiv_pos_as_xyz
  1  'x, y, z'
loop_
 _atom_site_type_symbol
 _atom_site_label
 _atom_site_symmetry_multiplicity
 _atom_site_fract_x
 _atom_site_fract_y
 _atom_site_fract_z
 _atom_site_occupancy
  Ta  Ta0  1  0.804303  0.195687  0.804306  1
  Ta  Ta1  1  0.195690  0.804298  0.195697  1
  Ta  Ta2  1  0.195690  0.804298  0.804314  1
  Ta  Ta3  1  0.804303  0.195687  0.195703  1
  Ta  Ta4  1  0.445606  0.445588  0.054403  1
  Ta  Ta5  1  0.054408  0.054384  0.445604  1
  Ta  Ta6  1  0.445233  0.054750  0.445239  1
  Ta  Ta7  1  0.054765  0.445222  0.054771  1
  Ta  Ta8  1  0.054765  0.445222  0.445241  1
  Ta  Ta9  1  0.445233  0.054750  0.054778  1
  Mn  Mn10  1  0.125084  0.626138  0.624389  1
  Mn  Mn11  1  0.626130  0.125065  0.624403  1
  Mn  Mn12  1  0.624394  0.624413  0.125086  1
  Mn  Mn13  1  0.624394  0.624413  0.626107  1
  Mn  Mn14  1  0.732386  0.422262  0.422676  1
  Mn  Mn15  1  0.422286  0.732377  0.422669  1
  Mn  Mn16  1  0.422699  0.422669  0.732358  1
  Mn  Mn17  1  0.422699  0.422669  0.422274  1
  Mn  Mn18  1  0.518214  0.827222  0.827282  1
  Mn  Mn19  1  0.827173  0.518273  0.827276  1
  Mn  Mn20  1  0.827274  0.827311  0.518222  1
  Mn  Mn21  1  0.827274  0.827311  0.827193  1
  Nb  Nb22  1  0.804429  0.804423  0.195574  1
  Nb  Nb23  1  0.195569  0.195569  0.804431  1
  N  N24  1  0.623905  0.127028  0.124534  1
  N  N25  1  0.127029  0.623910  0.124531  1
  N  N26  1  0.124532  0.124530  0.623905  1
  N  N27  1  0.124532  0.124530  0.127033  1
