# generated using pymatgen
data_EuDyCuSe3
_symmetry_space_group_name_H-M   'P 1'
_cell_length_a   10.65180000
_cell_length_b   4.06058400
_cell_length_c   13.35219400
_cell_angle_alpha   90.00000000
_cell_angle_beta   90.00000000
_cell_angle_gamma   90.00000000
_symmetry_Int_Tables_number   1
_chemical_formula_structural   EuDyCuSe3
_chemical_formula_sum   'Eu4 Dy4 Cu4 Se12'
_cell_volume   577.51615354
_cell_formula_units_Z   4
loop_
 _symmetry_equiv_pos_site_id
 _symmetry_equiv_pos_as_xyz
  1  'x, y, z'
loop_
 _atom_site_type_symbol
 _atom_site_label
 _atom_site_symmetry_multiplicity
 _atom_site_fract_x
 _atom_site_fract_y
 _atom_site_fract_z
 _atom_site_occupancy
  Eu  Eu0  1  0.273531  0.249999  0.003963  1
  Eu  Eu1  1  0.773530  0.249999  0.496038  1
  Eu  Eu2  1  0.226470  0.750000  0.503963  1
  Eu  Eu3  1  0.726469  0.750000  0.996037  1
  Dy  Dy4  1  0.016833  0.249999  0.243593  1
  Dy  Dy5  1  0.516834  0.249999  0.256407  1
  Dy  Dy6  1  0.483166  0.750000  0.743594  1
  Dy  Dy7  1  0.983167  0.750000  0.756406  1
  Cu  Cu8  1  0.262405  0.750000  0.223910  1
  Cu  Cu9  1  0.762404  0.750000  0.276090  1
  Cu  Cu10  1  0.237596  0.249999  0.723910  1
  Cu  Cu11  1  0.737596  0.249999  0.776090  1
  Se  Se12  1  0.087378  0.750000  0.104653  1
  Se  Se13  1  0.448261  0.750000  0.113270  1
  Se  Se14  1  0.762806  0.249999  0.167314  1
  Se  Se15  1  0.262806  0.249999  0.332687  1
  Se  Se16  1  0.948261  0.750000  0.386730  1
  Se  Se17  1  0.587378  0.750000  0.395348  1
  Se  Se18  1  0.412621  0.249999  0.604652  1
  Se  Se19  1  0.051740  0.249999  0.613270  1
  Se  Se20  1  0.737194  0.750000  0.667313  1
  Se  Se21  1  0.237194  0.750000  0.832687  1
  Se  Se22  1  0.551739  0.249999  0.886730  1
  Se  Se23  1  0.912622  0.249999  0.895348  1
