# generated using pymatgen
data_CaTm5CuRh17
_symmetry_space_group_name_H-M   'P 1'
_cell_length_a   5.25075700
_cell_length_b   5.25075766
_cell_length_c   17.36119200
_cell_angle_alpha   90.00000000
_cell_angle_beta   90.00000000
_cell_angle_gamma   119.99998955
_symmetry_Int_Tables_number   1
_chemical_formula_structural   CaTm5CuRh17
_chemical_formula_sum   'Ca1 Tm5 Cu1 Rh17'
_cell_volume   414.52822995
_cell_formula_units_Z   1
loop_
 _symmetry_equiv_pos_site_id
 _symmetry_equiv_pos_as_xyz
  1  'x, y, z'
loop_
 _atom_site_type_symbol
 _atom_site_label
 _atom_site_symmetry_multiplicity
 _atom_site_fract_x
 _atom_site_fract_y
 _atom_site_fract_z
 _atom_site_occupancy
  Ca  Ca0  1  0.666667  0.333333  0.250000  1
  Tm  Tm1  1  0.333333  0.666667  0.957685  1
  Tm  Tm2  1  0.666667  0.333333  0.041952  1
  Tm  Tm3  1  0.666667  0.333333  0.458048  1
  Tm  Tm4  1  0.333333  0.666667  0.542315  1
  Tm  Tm5  1  0.333333  0.666667  0.750000  1
  Cu  Cu6  1  0.333333  0.666667  0.250000  1
  Rh  Rh7  1  0.168933  0.831067  0.374811  1
  Rh  Rh8  1  0.168933  0.337868  0.374811  1
  Rh  Rh9  1  0.662132  0.831067  0.374811  1
  Rh  Rh10  1  0.832469  0.167531  0.624201  1
  Rh  Rh11  1  0.832469  0.664937  0.624201  1
  Rh  Rh12  1  0.335063  0.167531  0.624201  1
  Rh  Rh13  1  0.832469  0.167531  0.875799  1
  Rh  Rh14  1  0.832469  0.664937  0.875799  1
  Rh  Rh15  1  0.335063  0.167531  0.875799  1
  Rh  Rh16  1  0.168933  0.831067  0.125189  1
  Rh  Rh17  1  0.168933  0.337868  0.125189  1
  Rh  Rh18  1  0.662132  0.831067  0.125189  1
  Rh  Rh19  1  0.666667  0.333333  0.750000  1
  Rh  Rh20  1  0.000000  0.000000  0.250000  1
  Rh  Rh21  1  0.000000  0.000000  0.750000  1
  Rh  Rh22  1  0.000000  0.000000  0.498100  1
  Rh  Rh23  1  0.000000  0.000000  0.001900  1
