# generated using pymatgen
data_KMn(Sb4Ru)3
_symmetry_space_group_name_H-M   'P 1'
_cell_length_a   8.17805523
_cell_length_b   8.19419248
_cell_length_c   8.19419341
_cell_angle_alpha   109.51108340
_cell_angle_beta   109.43132418
_cell_angle_gamma   109.43133623
_symmetry_Int_Tables_number   1
_chemical_formula_structural   KMn(Sb4Ru)3
_chemical_formula_sum   'K1 Mn1 Sb12 Ru3'
_cell_volume   422.91596274
_cell_formula_units_Z   1
loop_
 _symmetry_equiv_pos_site_id
 _symmetry_equiv_pos_as_xyz
  1  'x, y, z'
loop_
 _atom_site_type_symbol
 _atom_site_label
 _atom_site_symmetry_multiplicity
 _atom_site_fract_x
 _atom_site_fract_y
 _atom_site_fract_z
 _atom_site_occupancy
  K  K0  1  0.000000  0.000000  0.000000  1
  Mn  Mn1  1  0.500000  0.000000  0.000000  1
  Sb  Sb2  1  0.158837  0.499031  0.340543  1
  Sb  Sb3  1  0.499452  0.652289  0.839759  1
  Sb  Sb4  1  0.340307  0.839759  0.187471  1
  Sb  Sb5  1  0.818292  0.659457  0.158487  1
  Sb  Sb6  1  0.659806  0.841513  0.500969  1
  Sb  Sb7  1  0.181708  0.340543  0.841513  1
  Sb  Sb8  1  0.659693  0.160241  0.812529  1
  Sb  Sb9  1  0.340194  0.158487  0.499031  1
  Sb  Sb10  1  0.500548  0.347711  0.160241  1
  Sb  Sb11  1  0.841163  0.500969  0.659457  1
  Sb  Sb12  1  0.847162  0.187471  0.347711  1
  Sb  Sb13  1  0.152838  0.812529  0.652289  1
  Ru  Ru14  1  0.500000  0.500000  0.500000  1
  Ru  Ru15  1  0.000000  0.500000  0.000000  1
  Ru  Ru16  1  0.000000  0.000000  0.500000  1
