# generated using pymatgen
data_YbDy4Y15(Cd3Ru)2
_symmetry_space_group_name_H-M   'P 1'
_cell_length_a   9.65286217
_cell_length_b   9.65287086
_cell_length_c   9.84892675
_cell_angle_alpha   90.03864159
_cell_angle_beta   89.96134258
_cell_angle_gamma   119.93352477
_symmetry_Int_Tables_number   1
_chemical_formula_structural   YbDy4Y15(Cd3Ru)2
_chemical_formula_sum   'Yb1 Dy4 Y15 Cd6 Ru2'
_cell_volume   795.28452221
_cell_formula_units_Z   1
loop_
 _symmetry_equiv_pos_site_id
 _symmetry_equiv_pos_as_xyz
  1  'x, y, z'
loop_
 _atom_site_type_symbol
 _atom_site_label
 _atom_site_symmetry_multiplicity
 _atom_site_fract_x
 _atom_site_fract_y
 _atom_site_fract_z
 _atom_site_occupancy
  Yb  Yb0  1  0.999938  0.000061  0.499890  1
  Dy  Dy1  1  0.210803  0.789197  0.439381  1
  Dy  Dy2  1  0.210795  0.421787  0.439425  1
  Dy  Dy3  1  0.578213  0.789205  0.439425  1
  Dy  Dy4  1  0.789228  0.210772  0.560665  1
  Y  Y5  1  0.999987  0.000014  0.000049  1
  Y  Y6  1  0.789480  0.578861  0.560096  1
  Y  Y7  1  0.421139  0.210520  0.560096  1
  Y  Y8  1  0.789863  0.210137  0.940309  1
  Y  Y9  1  0.789803  0.579686  0.940385  1
  Y  Y10  1  0.420314  0.210197  0.940385  1
  Y  Y11  1  0.210151  0.789850  0.059625  1
  Y  Y12  1  0.210112  0.420238  0.059650  1
  Y  Y13  1  0.579762  0.789888  0.059650  1
  Y  Y14  1  0.541568  0.458433  0.251070  1
  Y  Y15  1  0.541576  0.083158  0.251220  1
  Y  Y16  1  0.916842  0.458424  0.251220  1
  Y  Y17  1  0.458296  0.541704  0.748883  1
  Y  Y18  1  0.458417  0.916741  0.748757  1
  Y  Y19  1  0.083259  0.541582  0.748756  1
  Cd  Cd20  1  0.884931  0.115069  0.250145  1
  Cd  Cd21  1  0.884910  0.769823  0.250227  1
  Cd  Cd22  1  0.230177  0.115090  0.250227  1
  Cd  Cd23  1  0.115082  0.884918  0.749799  1
  Cd  Cd24  1  0.115096  0.230161  0.749856  1
  Cd  Cd25  1  0.769838  0.884904  0.749856  1
  Ru  Ru26  1  0.333331  0.666669  0.251795  1
  Ru  Ru27  1  0.667091  0.332909  0.749158  1
