# generated using pymatgen
data_HoBrO4
_symmetry_space_group_name_H-M   'P 1'
_cell_length_a   3.95033164
_cell_length_b   3.95033175
_cell_length_c   11.53817500
_cell_angle_alpha   90.00000000
_cell_angle_beta   90.00000000
_cell_angle_gamma   91.84644198
_symmetry_Int_Tables_number   1
_chemical_formula_structural   HoBrO4
_chemical_formula_sum   'Ho2 Br2 O8'
_cell_volume   179.96112183
_cell_formula_units_Z   2
loop_
 _symmetry_equiv_pos_site_id
 _symmetry_equiv_pos_as_xyz
  1  'x, y, z'
loop_
 _atom_site_type_symbol
 _atom_site_label
 _atom_site_symmetry_multiplicity
 _atom_site_fract_x
 _atom_site_fract_y
 _atom_site_fract_z
 _atom_site_occupancy
  Ho  Ho0  1  0.345293  0.154707  0.096109  1
  Ho  Ho1  1  0.845293  0.654707  0.903891  1
  Br  Br2  1  0.224476  0.275524  0.671005  1
  Br  Br3  1  0.724476  0.775524  0.328995  1
  O  O4  1  0.023741  0.476259  0.568770  1
  O  O5  1  0.523741  0.976259  0.431230  1
  O  O6  1  0.339602  0.660398  0.000000  1
  O  O7  1  0.839602  0.160398  0.000000  1
  O  O8  1  0.410480  0.627591  0.236507  1
  O  O9  1  0.872409  0.089520  0.236507  1
  O  O10  1  0.910480  0.127591  0.763493  1
  O  O11  1  0.372409  0.589520  0.763493  1
