# generated using pymatgen
data_Th4(Ga8Pd3)3
_symmetry_space_group_name_H-M   'P 1'
_cell_length_a   7.68945108
_cell_length_b   7.69338859
_cell_length_c   13.41023697
_cell_angle_alpha   84.58677970
_cell_angle_beta   100.78826751
_cell_angle_gamma   119.95362673
_symmetry_Int_Tables_number   1
_chemical_formula_structural   Th4(Ga8Pd3)3
_chemical_formula_sum   'Th4 Ga24 Pd9'
_cell_volume   675.20876775
_cell_formula_units_Z   1
loop_
 _symmetry_equiv_pos_site_id
 _symmetry_equiv_pos_as_xyz
  1  'x, y, z'
loop_
 _atom_site_type_symbol
 _atom_site_label
 _atom_site_symmetry_multiplicity
 _atom_site_fract_x
 _atom_site_fract_y
 _atom_site_fract_z
 _atom_site_occupancy
  Th  Th0  1  0.436057  0.833521  0.806992  1
  Th  Th1  1  0.563943  0.166479  0.193008  1
  Th  Th2  1  0.768263  0.501246  0.806097  1
  Th  Th3  1  0.231737  0.498754  0.193903  1
  Ga  Ga4  1  0.477785  0.166889  0.941771  1
  Ga  Ga5  1  0.522215  0.833111  0.058229  1
  Ga  Ga6  1  0.019659  0.163306  0.559754  1
  Ga  Ga7  1  0.980341  0.836694  0.440246  1
  Ga  Ga8  1  0.353391  0.832671  0.556932  1
  Ga  Ga9  1  0.646609  0.167329  0.443068  1
  Ga  Ga10  1  0.618372  0.833691  0.331085  1
  Ga  Ga11  1  0.381628  0.166309  0.668915  1
  Ga  Ga12  1  0.057219  0.491901  0.668588  1
  Ga  Ga13  1  0.942781  0.508099  0.331412  1
  Ga  Ga14  1  0.732856  0.842479  0.667113  1
  Ga  Ga15  1  0.267144  0.157521  0.332887  1
  Ga  Ga16  1  0.146616  0.497239  0.942472  1
  Ga  Ga17  1  0.853384  0.502761  0.057528  1
  Ga  Ga18  1  0.815935  0.834491  0.947713  1
  Ga  Ga19  1  0.184065  0.165509  0.052287  1
  Ga  Ga20  1  0.311239  0.498735  0.442603  1
  Ga  Ga21  1  0.688761  0.501265  0.557397  1
  Ga  Ga22  1  0.100554  0.836862  0.183565  1
  Ga  Ga23  1  0.899446  0.163138  0.816435  1
  Ga  Ga24  1  0.303459  0.366667  0.815556  1
  Ga  Ga25  1  0.696541  0.633333  0.184444  1
  Ga  Ga26  1  0.099640  0.963550  0.815950  1
  Ga  Ga27  1  0.900360  0.036450  0.184050  1
  Pd  Pd28  1  0.385847  0.505528  0.638402  1
  Pd  Pd29  1  0.614153  0.494472  0.361598  1
  Pd  Pd30  1  0.169877  0.829839  0.998531  1
  Pd  Pd31  1  0.830123  0.170161  0.001469  1
  Pd  Pd32  1  0.292915  0.832861  0.361759  1
  Pd  Pd33  1  0.707085  0.167139  0.638241  1
  Pd  Pd34  1  0.048909  0.826809  0.638837  1
  Pd  Pd35  1  0.951091  0.173191  0.361163  1
  Pd  Pd36  1  0.500000  0.500000  0.000000  1
