# generated using pymatgen
data_CaLuAl2Au3
_symmetry_space_group_name_H-M   'P 1'
_cell_length_a   4.28958600
_cell_length_b   7.61494000
_cell_length_c   8.81446000
_cell_angle_alpha   90.00000000
_cell_angle_beta   90.00000000
_cell_angle_gamma   90.00000000
_symmetry_Int_Tables_number   1
_chemical_formula_structural   CaLuAl2Au3
_chemical_formula_sum   'Ca2 Lu2 Al4 Au6'
_cell_volume   287.92380716
_cell_formula_units_Z   2
loop_
 _symmetry_equiv_pos_site_id
 _symmetry_equiv_pos_as_xyz
  1  'x, y, z'
loop_
 _atom_site_type_symbol
 _atom_site_label
 _atom_site_symmetry_multiplicity
 _atom_site_fract_x
 _atom_site_fract_y
 _atom_site_fract_z
 _atom_site_occupancy
  Ca  Ca0  1  0.500000  0.000000  0.737532  1
  Ca  Ca1  1  0.000000  0.500000  0.262468  1
  Lu  Lu2  1  0.000000  0.000000  0.340222  1
  Lu  Lu3  1  0.500000  0.500000  0.659778  1
  Al  Al4  1  0.000000  0.311568  0.897013  1
  Al  Al5  1  0.500000  0.188432  0.102987  1
  Al  Al6  1  0.000000  0.688432  0.897013  1
  Al  Al7  1  0.500000  0.811568  0.102987  1
  Au  Au8  1  0.000000  0.742729  0.605728  1
  Au  Au9  1  0.500000  0.757271  0.394272  1
  Au  Au10  1  0.500000  0.500000  0.984994  1
  Au  Au11  1  0.000000  0.000000  0.015006  1
  Au  Au12  1  0.500000  0.242729  0.394272  1
  Au  Au13  1  0.000000  0.257271  0.605728  1
