# generated using pymatgen
data_Li4TmPaS6
_symmetry_space_group_name_H-M   'P 1'
_cell_length_a   6.67051388
_cell_length_b   6.67051407
_cell_length_c   6.47585600
_cell_angle_alpha   99.83295163
_cell_angle_beta   99.83295190
_cell_angle_gamma   119.99995416
_symmetry_Int_Tables_number   1
_chemical_formula_structural   Li4TmPaS6
_chemical_formula_sum   'Li4 Tm1 Pa1 S6'
_cell_volume   234.53684742
_cell_formula_units_Z   1
loop_
 _symmetry_equiv_pos_site_id
 _symmetry_equiv_pos_as_xyz
  1  'x, y, z'
loop_
 _atom_site_type_symbol
 _atom_site_label
 _atom_site_symmetry_multiplicity
 _atom_site_fract_x
 _atom_site_fract_y
 _atom_site_fract_z
 _atom_site_occupancy
  Li  Li0  1  0.500860  0.499141  0.000000  1
  Li  Li1  1  0.998712  0.001286  0.499998  1
  Li  Li2  1  0.663547  0.336453  0.500000  1
  Li  Li3  1  0.338240  0.661760  0.500000  1
  Tm  Tm4  1  0.833035  0.166966  0.000000  1
  Pa  Pa5  1  0.166938  0.833063  0.000000  1
  S  S6  1  0.925100  0.586708  0.245530  1
  S  S7  1  0.577723  0.921718  0.248750  1
  S  S8  1  0.242836  0.238566  0.250667  1
  S  S9  1  0.761434  0.757164  0.749334  1
  S  S10  1  0.078283  0.422279  0.751251  1
  S  S11  1  0.413293  0.074901  0.754471  1
