# generated using pymatgen
data_DyLu3(TiAl3)2
_symmetry_space_group_name_H-M   'P 1'
_cell_length_a   9.52662585
_cell_length_b   9.52662660
_cell_length_c   9.52662670
_cell_angle_alpha   34.25243229
_cell_angle_beta   34.25242351
_cell_angle_gamma   34.25242932
_symmetry_Int_Tables_number   1
_chemical_formula_structural   DyLu3(TiAl3)2
_chemical_formula_sum   'Dy1 Lu3 Ti2 Al6'
_cell_volume   244.24816827
_cell_formula_units_Z   1
loop_
 _symmetry_equiv_pos_site_id
 _symmetry_equiv_pos_as_xyz
  1  'x, y, z'
loop_
 _atom_site_type_symbol
 _atom_site_label
 _atom_site_symmetry_multiplicity
 _atom_site_fract_x
 _atom_site_fract_y
 _atom_site_fract_z
 _atom_site_occupancy
  Dy  Dy0  1  0.686435  0.686435  0.686435  1
  Lu  Lu1  1  0.185852  0.185852  0.185852  1
  Lu  Lu2  1  0.814354  0.814354  0.814354  1
  Lu  Lu3  1  0.313927  0.313927  0.313927  1
  Ti  Ti4  1  0.000016  0.000016  0.000016  1
  Ti  Ti5  1  0.499847  0.499847  0.499847  1
  Al  Al6  1  0.750321  0.249994  0.249994  1
  Al  Al7  1  0.249451  0.749904  0.749904  1
  Al  Al8  1  0.249994  0.750321  0.249994  1
  Al  Al9  1  0.749904  0.249451  0.749904  1
  Al  Al10  1  0.249994  0.249994  0.750321  1
  Al  Al11  1  0.749904  0.749904  0.249451  1
