# generated using pymatgen
data_Be3AlBRu
_symmetry_space_group_name_H-M   'P 1'
_cell_length_a   4.27414599
_cell_length_b   4.27414671
_cell_length_c   4.22053038
_cell_angle_alpha   59.57886696
_cell_angle_beta   59.57885884
_cell_angle_gamma   59.99998769
_symmetry_Int_Tables_number   1
_chemical_formula_structural   Be3AlBRu
_chemical_formula_sum   'Be3 Al1 B1 Ru1'
_cell_volume   54.16973927
_cell_formula_units_Z   1
loop_
 _symmetry_equiv_pos_site_id
 _symmetry_equiv_pos_as_xyz
  1  'x, y, z'
loop_
 _atom_site_type_symbol
 _atom_site_label
 _atom_site_symmetry_multiplicity
 _atom_site_fract_x
 _atom_site_fract_y
 _atom_site_fract_z
 _atom_site_occupancy
  Be  Be0  1  0.624746  0.124648  0.625859  1
  Be  Be1  1  0.124648  0.624746  0.625859  1
  Be  Be2  1  0.624746  0.624746  0.625859  1
  Al  Al3  1  0.250847  0.250847  0.247458  1
  B  B4  1  0.624046  0.624046  0.127861  1
  Ru  Ru5  1  0.000966  0.000966  0.997102  1
