# generated using pymatgen
data_NdSm2Mg3Si2Pt
_symmetry_space_group_name_H-M   'P 1'
_cell_length_a   7.34231811
_cell_length_b   7.34231794
_cell_length_c   4.35647500
_cell_angle_alpha   90.00000000
_cell_angle_beta   90.00000000
_cell_angle_gamma   120.12121655
_symmetry_Int_Tables_number   1
_chemical_formula_structural   NdSm2Mg3Si2Pt
_chemical_formula_sum   'Nd1 Sm2 Mg3 Si2 Pt1'
_cell_volume   203.14234973
_cell_formula_units_Z   1
loop_
 _symmetry_equiv_pos_site_id
 _symmetry_equiv_pos_as_xyz
  1  'x, y, z'
loop_
 _atom_site_type_symbol
 _atom_site_label
 _atom_site_symmetry_multiplicity
 _atom_site_fract_x
 _atom_site_fract_y
 _atom_site_fract_z
 _atom_site_occupancy
  Nd  Nd0  1  0.586464  0.586464  0.000000  1
  Sm  Sm1  1  0.411998  0.999795  0.000000  1
  Sm  Sm2  1  0.999795  0.411998  0.000000  1
  Mg  Mg3  1  0.001143  0.759415  0.500000  1
  Mg  Mg4  1  0.239800  0.239800  0.500000  1
  Mg  Mg5  1  0.759415  0.001143  0.500000  1
  Si  Si6  1  0.331134  0.667467  0.500000  1
  Si  Si7  1  0.667467  0.331134  0.500000  1
  Pt  Pt8  1  0.002783  0.002783  0.000000  1
