# generated using pymatgen
data_Dy8Zn(Si4Pt)3
_symmetry_space_group_name_H-M   'P 1'
_cell_length_a   8.13210400
_cell_length_b   8.13210517
_cell_length_c   8.17169600
_cell_angle_alpha   90.00000000
_cell_angle_beta   90.00000000
_cell_angle_gamma   119.99999524
_symmetry_Int_Tables_number   1
_chemical_formula_structural   Dy8Zn(Si4Pt)3
_chemical_formula_sum   'Dy8 Zn1 Si12 Pt3'
_cell_volume   468.00313791
_cell_formula_units_Z   1
loop_
 _symmetry_equiv_pos_site_id
 _symmetry_equiv_pos_as_xyz
  1  'x, y, z'
loop_
 _atom_site_type_symbol
 _atom_site_label
 _atom_site_symmetry_multiplicity
 _atom_site_fract_x
 _atom_site_fract_y
 _atom_site_fract_z
 _atom_site_occupancy
  Dy  Dy0  1  0.000000  0.000000  0.250460  1
  Dy  Dy1  1  0.000000  0.000000  0.750663  1
  Dy  Dy2  1  0.001730  0.500865  0.248843  1
  Dy  Dy3  1  0.499135  0.500865  0.248843  1
  Dy  Dy4  1  0.499102  0.998203  0.751123  1
  Dy  Dy5  1  0.499135  0.998270  0.248843  1
  Dy  Dy6  1  0.499102  0.500898  0.751123  1
  Dy  Dy7  1  0.001797  0.500898  0.751123  1
  Zn  Zn8  1  0.666667  0.333333  0.496202  1
  Si  Si9  1  0.165563  0.331125  0.998959  1
  Si  Si10  1  0.668875  0.834437  0.998959  1
  Si  Si11  1  0.166471  0.332942  0.499868  1
  Si  Si12  1  0.331396  0.165699  0.001213  1
  Si  Si13  1  0.165563  0.834437  0.998959  1
  Si  Si14  1  0.667058  0.833529  0.499868  1
  Si  Si15  1  0.834301  0.668604  0.001213  1
  Si  Si16  1  0.331089  0.165545  0.501297  1
  Si  Si17  1  0.166471  0.833529  0.499868  1
  Si  Si18  1  0.834455  0.668911  0.501297  1
  Si  Si19  1  0.834301  0.165699  0.001213  1
  Si  Si20  1  0.834455  0.165545  0.501297  1
  Pt  Pt21  1  0.333333  0.666667  0.000920  1
  Pt  Pt22  1  0.333333  0.666667  0.498788  1
  Pt  Pt23  1  0.666667  0.333333  0.999056  1
