# generated using pymatgen
data_YbTmLuNi19B10
_symmetry_space_group_name_H-M   'P 1'
_cell_length_a   7.84512889
_cell_length_b   7.84512918
_cell_length_c   5.73837814
_cell_angle_alpha   88.92559403
_cell_angle_beta   88.92559537
_cell_angle_gamma   67.05499621
_symmetry_Int_Tables_number   1
_chemical_formula_structural   YbTmLuNi19B10
_chemical_formula_sum   'Yb1 Tm1 Lu1 Ni19 B10'
_cell_volume   325.14886950
_cell_formula_units_Z   1
loop_
 _symmetry_equiv_pos_site_id
 _symmetry_equiv_pos_as_xyz
  1  'x, y, z'
loop_
 _atom_site_type_symbol
 _atom_site_label
 _atom_site_symmetry_multiplicity
 _atom_site_fract_x
 _atom_site_fract_y
 _atom_site_fract_z
 _atom_site_occupancy
  Yb  Yb0  1  0.999982  0.999982  0.000128  1
  Tm  Tm1  1  0.373945  0.373945  0.384874  1
  Lu  Lu2  1  0.626246  0.626246  0.615386  1
  Ni  Ni3  1  0.622293  0.622293  0.128756  1
  Ni  Ni4  1  0.377686  0.377686  0.871687  1
  Ni  Ni5  1  0.837347  0.837347  0.705663  1
  Ni  Ni6  1  0.162441  0.162441  0.294286  1
  Ni  Ni7  1  0.818757  0.818757  0.270913  1
  Ni  Ni8  1  0.181109  0.181109  0.729274  1
  Ni  Ni9  1  0.999978  0.999978  0.500010  1
  Ni  Ni10  1  0.623882  0.121842  0.074173  1
  Ni  Ni11  1  0.376509  0.877843  0.925462  1
  Ni  Ni12  1  0.877843  0.376509  0.925462  1
  Ni  Ni13  1  0.121842  0.623882  0.074173  1
  Ni  Ni14  1  0.290109  0.768391  0.301334  1
  Ni  Ni15  1  0.709976  0.231817  0.698740  1
  Ni  Ni16  1  0.231817  0.709976  0.698740  1
  Ni  Ni17  1  0.768391  0.290109  0.301334  1
  Ni  Ni18  1  0.483026  0.953731  0.302950  1
  Ni  Ni19  1  0.517143  0.045923  0.697216  1
  Ni  Ni20  1  0.045923  0.517143  0.697216  1
  Ni  Ni21  1  0.953731  0.483026  0.302950  1
  B  B22  1  0.699732  0.065884  0.430202  1
  B  B23  1  0.300616  0.933878  0.569806  1
  B  B24  1  0.933878  0.300616  0.569806  1
  B  B25  1  0.065884  0.699732  0.430202  1
  B  B26  1  0.349709  0.142261  0.025840  1
  B  B27  1  0.650245  0.857604  0.973980  1
  B  B28  1  0.857604  0.650245  0.973980  1
  B  B29  1  0.142261  0.349709  0.025840  1
  B  B30  1  0.615529  0.384565  0.999810  1
  B  B31  1  0.384565  0.615529  0.999810  1
