# generated using pymatgen
data_Y2LuSn3Ir2Rh
_symmetry_space_group_name_H-M   'P 1'
_cell_length_a   7.66554476
_cell_length_b   7.70124765
_cell_length_c   3.70950500
_cell_angle_alpha   90.00000000
_cell_angle_beta   90.00000000
_cell_angle_gamma   120.15419227
_symmetry_Int_Tables_number   1
_chemical_formula_structural   Y2LuSn3Ir2Rh
_chemical_formula_sum   'Y2 Lu1 Sn3 Ir2 Rh1'
_cell_volume   189.35371233
_cell_formula_units_Z   1
loop_
 _symmetry_equiv_pos_site_id
 _symmetry_equiv_pos_as_xyz
  1  'x, y, z'
loop_
 _atom_site_type_symbol
 _atom_site_label
 _atom_site_symmetry_multiplicity
 _atom_site_fract_x
 _atom_site_fract_y
 _atom_site_fract_z
 _atom_site_occupancy
  Y  Y0  1  0.402552  0.402530  0.500000  1
  Y  Y1  1  0.597448  0.999978  0.500000  1
  Lu  Lu2  1  0.000000  0.597446  0.500000  1
  Sn  Sn3  1  0.735077  0.733008  0.000000  1
  Sn  Sn4  1  0.264923  0.997931  0.000000  1
  Sn  Sn5  1  0.000000  0.267378  0.000000  1
  Ir  Ir6  1  0.672459  0.338087  0.000000  1
  Ir  Ir7  1  0.327541  0.665629  0.000000  1
  Rh  Rh8  1  0.000000  0.998013  0.500000  1
