# generated using pymatgen
data_NdNb6SnSe12
_symmetry_space_group_name_H-M   'P 1'
_cell_length_a   6.10923900
_cell_length_b   6.10923874
_cell_length_c   15.06699700
_cell_angle_alpha   90.00000000
_cell_angle_beta   90.00000000
_cell_angle_gamma   120.00001768
_symmetry_Int_Tables_number   1
_chemical_formula_structural   NdNb6SnSe12
_chemical_formula_sum   'Nd1 Nb6 Sn1 Se12'
_cell_volume   487.00281143
_cell_formula_units_Z   1
loop_
 _symmetry_equiv_pos_site_id
 _symmetry_equiv_pos_as_xyz
  1  'x, y, z'
loop_
 _atom_site_type_symbol
 _atom_site_label
 _atom_site_symmetry_multiplicity
 _atom_site_fract_x
 _atom_site_fract_y
 _atom_site_fract_z
 _atom_site_occupancy
  Nd  Nd0  1  0.000000  0.000000  0.500000  1
  Nb  Nb1  1  0.333333  0.666667  0.250105  1
  Nb  Nb2  1  0.666667  0.333333  0.749895  1
  Nb  Nb3  1  0.666667  0.333333  0.250105  1
  Nb  Nb4  1  0.333333  0.666667  0.749895  1
  Nb  Nb5  1  0.000000  0.000000  0.251307  1
  Nb  Nb6  1  0.000000  0.000000  0.748693  1
  Sn  Sn7  1  0.000000  0.000000  0.000000  1
  Se  Se8  1  0.336481  0.000000  0.140080  1
  Se  Se9  1  0.000000  0.336481  0.140080  1
  Se  Se10  1  0.663519  0.663519  0.140080  1
  Se  Se11  1  0.339158  0.339158  0.638796  1
  Se  Se12  1  0.660842  0.660842  0.361204  1
  Se  Se13  1  0.660842  0.000000  0.638796  1
  Se  Se14  1  0.000000  0.660842  0.638796  1
  Se  Se15  1  0.000000  0.663519  0.859920  1
  Se  Se16  1  0.336481  0.336481  0.859920  1
  Se  Se17  1  0.000000  0.339158  0.361204  1
  Se  Se18  1  0.339158  0.000000  0.361204  1
  Se  Se19  1  0.663519  0.000000  0.859920  1
