# generated using pymatgen
data_Nd2PaTc2
_symmetry_space_group_name_H-M   'P 1'
_cell_length_a   6.14678444
_cell_length_b   6.14678496
_cell_length_c   6.14678525
_cell_angle_alpha   139.02068778
_cell_angle_beta   124.43448201
_cell_angle_gamma   71.31228870
_symmetry_Int_Tables_number   1
_chemical_formula_structural   Nd2PaTc2
_chemical_formula_sum   'Nd2 Pa1 Tc2'
_cell_volume   123.15642963
_cell_formula_units_Z   1
loop_
 _symmetry_equiv_pos_site_id
 _symmetry_equiv_pos_as_xyz
  1  'x, y, z'
loop_
 _atom_site_type_symbol
 _atom_site_label
 _atom_site_symmetry_multiplicity
 _atom_site_fract_x
 _atom_site_fract_y
 _atom_site_fract_z
 _atom_site_occupancy
  Nd  Nd0  1  0.697851  0.197850  0.500001  1
  Nd  Nd1  1  0.302150  0.802149  0.500000  1
  Pa  Pa2  1  0.000000  0.000000  0.000000  1
  Tc  Tc3  1  0.749631  0.500000  0.249632  1
  Tc  Tc4  1  0.250369  0.500000  0.750369  1
