# generated using pymatgen
data_Er2Si7(TcNi3)3
_symmetry_space_group_name_H-M   'P 1'
_cell_length_a   3.84471100
_cell_length_b   9.40850582
_cell_length_c   9.40850600
_cell_angle_alpha   120.00000063
_cell_angle_beta   90.00000000
_cell_angle_gamma   90.00000000
_symmetry_Int_Tables_number   1
_chemical_formula_structural   Er2Si7(TcNi3)3
_chemical_formula_sum   'Er2 Si7 Tc3 Ni9'
_cell_volume   294.73767496
_cell_formula_units_Z   1
loop_
 _symmetry_equiv_pos_site_id
 _symmetry_equiv_pos_as_xyz
  1  'x, y, z'
loop_
 _atom_site_type_symbol
 _atom_site_label
 _atom_site_symmetry_multiplicity
 _atom_site_fract_x
 _atom_site_fract_y
 _atom_site_fract_z
 _atom_site_occupancy
  Er  Er0  1  0.000000  0.666667  0.333333  1
  Er  Er1  1  0.500000  0.333333  0.666667  1
  Si  Si2  1  0.000000  0.000000  0.000000  1
  Si  Si3  1  0.500000  0.709199  0.109479  1
  Si  Si4  1  0.500000  0.400281  0.290801  1
  Si  Si5  1  0.500000  0.890521  0.599719  1
  Si  Si6  1  0.000000  0.595461  0.707560  1
  Si  Si7  1  0.000000  0.112099  0.404539  1
  Si  Si8  1  0.000000  0.292440  0.887901  1
  Tc  Tc9  1  0.500000  0.784682  0.895760  1
  Tc  Tc10  1  0.500000  0.111078  0.215318  1
  Tc  Tc11  1  0.500000  0.104240  0.888922  1
  Ni  Ni12  1  0.000000  0.566553  0.942593  1
  Ni  Ni13  1  0.000000  0.376041  0.433447  1
  Ni  Ni14  1  0.000000  0.057407  0.623959  1
  Ni  Ni15  1  0.000000  0.872308  0.156823  1
  Ni  Ni16  1  0.000000  0.284514  0.127692  1
  Ni  Ni17  1  0.000000  0.843177  0.715486  1
  Ni  Ni18  1  0.500000  0.945567  0.382426  1
  Ni  Ni19  1  0.500000  0.436858  0.054433  1
  Ni  Ni20  1  0.500000  0.617574  0.563142  1
