# generated using pymatgen
data_Zr2In2PdPt
_symmetry_space_group_name_H-M   'P 1'
_cell_length_a   7.54944200
_cell_length_b   7.54944188
_cell_length_c   7.24103600
_cell_angle_alpha   90.00000000
_cell_angle_beta   90.00000000
_cell_angle_gamma   119.99999174
_symmetry_Int_Tables_number   1
_chemical_formula_structural   Zr2In2PdPt
_chemical_formula_sum   'Zr6 In6 Pd3 Pt3'
_cell_volume   357.40537014
_cell_formula_units_Z   3
loop_
 _symmetry_equiv_pos_site_id
 _symmetry_equiv_pos_as_xyz
  1  'x, y, z'
loop_
 _atom_site_type_symbol
 _atom_site_label
 _atom_site_symmetry_multiplicity
 _atom_site_fract_x
 _atom_site_fract_y
 _atom_site_fract_z
 _atom_site_occupancy
  Zr  Zr0  1  0.018687  0.605831  0.751795  1
  Zr  Zr1  1  0.974666  0.583121  0.249553  1
  Zr  Zr2  1  0.608455  0.025334  0.249553  1
  Zr  Zr3  1  0.587143  0.981313  0.751795  1
  Zr  Zr4  1  0.416879  0.391545  0.249553  1
  Zr  Zr5  1  0.394169  0.412857  0.751795  1
  In  In6  1  0.004830  0.270615  0.500584  1
  In  In7  1  0.732240  0.733709  0.000655  1
  In  In8  1  0.001469  0.267760  0.000655  1
  In  In9  1  0.265785  0.995170  0.500584  1
  In  In10  1  0.266291  0.998531  0.000655  1
  In  In11  1  0.729385  0.734215  0.500584  1
  Pd  Pd12  1  0.333333  0.666667  0.457311  1
  Pd  Pd13  1  0.000000  0.000000  0.250787  1
  Pd  Pd14  1  0.000000  0.000000  0.750740  1
  Pt  Pt15  1  0.666667  0.333333  0.537566  1
  Pt  Pt16  1  0.666667  0.333333  0.961606  1
  Pt  Pt17  1  0.333333  0.666667  0.034230  1
