# generated using pymatgen
data_HoTmFe3Co
_symmetry_space_group_name_H-M   'P 1'
_cell_length_a   5.11035671
_cell_length_b   5.11035655
_cell_length_c   5.11035612
_cell_angle_alpha   60.04006446
_cell_angle_beta   60.04006783
_cell_angle_gamma   60.04005999
_symmetry_Int_Tables_number   1
_chemical_formula_structural   HoTmFe3Co
_chemical_formula_sum   'Ho1 Tm1 Fe3 Co1'
_cell_volume   94.45670664
_cell_formula_units_Z   1
loop_
 _symmetry_equiv_pos_site_id
 _symmetry_equiv_pos_as_xyz
  1  'x, y, z'
loop_
 _atom_site_type_symbol
 _atom_site_label
 _atom_site_symmetry_multiplicity
 _atom_site_fract_x
 _atom_site_fract_y
 _atom_site_fract_z
 _atom_site_occupancy
  Ho  Ho0  1  0.874841  0.874841  0.874841  1
  Tm  Tm1  1  0.125127  0.125127  0.125127  1
  Fe  Fe2  1  0.499949  0.000163  0.499949  1
  Fe  Fe3  1  0.000163  0.499949  0.499949  1
  Fe  Fe4  1  0.499949  0.499949  0.000163  1
  Co  Co5  1  0.499972  0.499972  0.499972  1
