# generated using pymatgen
data_ErSc5CrCo17P12
_symmetry_space_group_name_H-M   'P 1'
_cell_length_a   3.60850800
_cell_length_b   10.39873900
_cell_length_c   11.99401700
_cell_angle_alpha   90.00000000
_cell_angle_beta   90.00000000
_cell_angle_gamma   90.00000000
_symmetry_Int_Tables_number   1
_chemical_formula_structural   ErSc5CrCo17P12
_chemical_formula_sum   'Er1 Sc5 Cr1 Co17 P12'
_cell_volume   450.06268877
_cell_formula_units_Z   1
loop_
 _symmetry_equiv_pos_site_id
 _symmetry_equiv_pos_as_xyz
  1  'x, y, z'
loop_
 _atom_site_type_symbol
 _atom_site_label
 _atom_site_symmetry_multiplicity
 _atom_site_fract_x
 _atom_site_fract_y
 _atom_site_fract_z
 _atom_site_occupancy
  Er  Er0  1  0.750000  0.250000  0.475042  1
  Sc  Sc1  1  0.250000  0.750000  0.523433  1
  Sc  Sc2  1  0.250000  0.931439  0.793281  1
  Sc  Sc3  1  0.250000  0.568561  0.793281  1
  Sc  Sc4  1  0.750000  0.068585  0.203468  1
  Sc  Sc5  1  0.750000  0.431415  0.203468  1
  Cr  Cr6  1  0.250000  0.250000  0.844542  1
  Co  Co7  1  0.750000  0.750000  0.161469  1
  Co  Co8  1  0.250000  0.250000  0.296134  1
  Co  Co9  1  0.750000  0.750000  0.702283  1
  Co  Co10  1  0.750000  0.250000  0.013055  1
  Co  Co11  1  0.250000  0.750000  0.984609  1
  Co  Co12  1  0.250000  0.417748  0.008128  1
  Co  Co13  1  0.250000  0.082252  0.008128  1
  Co  Co14  1  0.750000  0.583450  0.993054  1
  Co  Co15  1  0.750000  0.916550  0.993054  1
  Co  Co16  1  0.250000  0.455321  0.569198  1
  Co  Co17  1  0.250000  0.044679  0.569198  1
  Co  Co18  1  0.750000  0.549416  0.431613  1
  Co  Co19  1  0.750000  0.950584  0.431613  1
  Co  Co20  1  0.250000  0.872605  0.291707  1
  Co  Co21  1  0.250000  0.627395  0.291707  1
  Co  Co22  1  0.750000  0.126394  0.709209  1
  Co  Co23  1  0.750000  0.373606  0.709209  1
  P  P24  1  0.250000  0.250000  0.120057  1
  P  P25  1  0.750000  0.750000  0.879216  1
  P  P26  1  0.250000  0.250000  0.652952  1
  P  P27  1  0.750000  0.750000  0.349419  1
  P  P28  1  0.250000  0.437862  0.380441  1
  P  P29  1  0.250000  0.062138  0.380441  1
  P  P30  1  0.750000  0.565376  0.617705  1
  P  P31  1  0.750000  0.934624  0.617705  1
  P  P32  1  0.250000  0.903148  0.110153  1
  P  P33  1  0.250000  0.596852  0.110153  1
  P  P34  1  0.750000  0.093234  0.890940  1
  P  P35  1  0.750000  0.406766  0.890940  1
