# generated using pymatgen
data_Zr6Si6Tc5Ru
_symmetry_space_group_name_H-M   'P 1'
_cell_length_a   7.80203538
_cell_length_b   7.80674229
_cell_length_c   7.80223192
_cell_angle_alpha   126.62871090
_cell_angle_beta   127.76878319
_cell_angle_gamma   77.91718496
_symmetry_Int_Tables_number   1
_chemical_formula_structural   Zr6Si6Tc5Ru
_chemical_formula_sum   'Zr6 Si6 Tc5 Ru1'
_cell_volume   292.20359734
_cell_formula_units_Z   1
loop_
 _symmetry_equiv_pos_site_id
 _symmetry_equiv_pos_as_xyz
  1  'x, y, z'
loop_
 _atom_site_type_symbol
 _atom_site_label
 _atom_site_symmetry_multiplicity
 _atom_site_fract_x
 _atom_site_fract_y
 _atom_site_fract_z
 _atom_site_occupancy
  Zr  Zr0  1  0.451294  0.660302  0.707026  1
  Zr  Zr1  1  0.548268  0.253378  0.203637  1
  Zr  Zr2  1  0.749663  0.846233  0.598519  1
  Zr  Zr3  1  0.247930  0.846413  0.096505  1
  Zr  Zr4  1  0.049837  0.253377  0.704845  1
  Zr  Zr5  1  0.953187  0.660014  0.208877  1
  Si  Si6  1  0.250165  0.253318  0.502257  1
  Si  Si7  1  0.750988  0.253266  0.003308  1
  Si  Si8  1  0.332790  0.585957  0.252734  1
  Si  Si9  1  0.666559  0.920895  0.254686  1
  Si  Si10  1  0.166308  0.921288  0.754563  1
  Si  Si11  1  0.832244  0.585214  0.753266  1
  Tc  Tc12  1  0.500525  0.505267  0.004796  1
  Tc  Tc13  1  0.999698  0.505765  0.506202  1
  Tc  Tc14  1  0.126687  0.253423  0.126646  1
  Tc  Tc15  1  0.873520  0.000702  0.127250  1
  Tc  Tc16  1  0.374494  0.001636  0.627010  1
  Ru  Ru17  1  0.625843  0.253154  0.627479  1
