# generated using pymatgen
data_TbTm6Sn23Ru6
_symmetry_space_group_name_H-M   'P 1'
_cell_length_a   9.83045100
_cell_length_b   9.83045013
_cell_length_c   10.03432800
_cell_angle_alpha   90.00000000
_cell_angle_beta   90.00000000
_cell_angle_gamma   120.00000630
_symmetry_Int_Tables_number   1
_chemical_formula_structural   TbTm6Sn23Ru6
_chemical_formula_sum   'Tb1 Tm6 Sn23 Ru6'
_cell_volume   839.78041923
_cell_formula_units_Z   1
loop_
 _symmetry_equiv_pos_site_id
 _symmetry_equiv_pos_as_xyz
  1  'x, y, z'
loop_
 _atom_site_type_symbol
 _atom_site_label
 _atom_site_symmetry_multiplicity
 _atom_site_fract_x
 _atom_site_fract_y
 _atom_site_fract_z
 _atom_site_occupancy
  Tb  Tb0  1  0.000000  0.000000  0.000000  1
  Tm  Tm1  1  0.486462  0.513538  0.302114  1
  Tm  Tm2  1  0.513538  0.486462  0.697886  1
  Tm  Tm3  1  0.486462  0.972924  0.302114  1
  Tm  Tm4  1  0.513538  0.027076  0.697886  1
  Tm  Tm5  1  0.027076  0.513538  0.302114  1
  Tm  Tm6  1  0.972924  0.486462  0.697886  1
  Sn  Sn7  1  0.349397  0.000000  0.000000  1
  Sn  Sn8  1  0.650603  0.000000  0.000000  1
  Sn  Sn9  1  0.000000  0.349397  0.000000  1
  Sn  Sn10  1  0.000000  0.650603  0.000000  1
  Sn  Sn11  1  0.650603  0.650603  0.000000  1
  Sn  Sn12  1  0.349397  0.349397  0.000000  1
  Sn  Sn13  1  0.333333  0.666667  0.823815  1
  Sn  Sn14  1  0.666667  0.333333  0.176185  1
  Sn  Sn15  1  0.000000  0.000000  0.500000  1
  Sn  Sn16  1  0.779069  0.220931  0.464119  1
  Sn  Sn17  1  0.220931  0.779069  0.535881  1
  Sn  Sn18  1  0.779069  0.558138  0.464119  1
  Sn  Sn19  1  0.220931  0.441862  0.535881  1
  Sn  Sn20  1  0.441862  0.220931  0.464119  1
  Sn  Sn21  1  0.558138  0.779069  0.535881  1
  Sn  Sn22  1  0.333333  0.666667  0.131826  1
  Sn  Sn23  1  0.666667  0.333333  0.868174  1
  Sn  Sn24  1  0.119231  0.880769  0.275063  1
  Sn  Sn25  1  0.880769  0.119231  0.724937  1
  Sn  Sn26  1  0.119231  0.238464  0.275063  1
  Sn  Sn27  1  0.880769  0.761536  0.724937  1
  Sn  Sn28  1  0.761536  0.880769  0.275063  1
  Sn  Sn29  1  0.238464  0.119231  0.724937  1
  Ru  Ru30  1  0.829300  0.170700  0.203429  1
  Ru  Ru31  1  0.170700  0.829300  0.796571  1
  Ru  Ru32  1  0.829300  0.658600  0.203429  1
  Ru  Ru33  1  0.170700  0.341400  0.796571  1
  Ru  Ru34  1  0.341400  0.170700  0.203429  1
  Ru  Ru35  1  0.658600  0.829300  0.796571  1
