# generated using pymatgen
data_Y2Tm3Sn3Sb
_symmetry_space_group_name_H-M   'P 1'
_cell_length_a   8.06440300
_cell_length_b   8.09515500
_cell_length_c   15.24609200
_cell_angle_alpha   90.00000000
_cell_angle_beta   90.00000000
_cell_angle_gamma   90.00000000
_symmetry_Int_Tables_number   1
_chemical_formula_structural   Y2Tm3Sn3Sb
_chemical_formula_sum   'Y8 Tm12 Sn12 Sb4'
_cell_volume   995.30440771
_cell_formula_units_Z   4
loop_
 _symmetry_equiv_pos_site_id
 _symmetry_equiv_pos_as_xyz
  1  'x, y, z'
loop_
 _atom_site_type_symbol
 _atom_site_label
 _atom_site_symmetry_multiplicity
 _atom_site_fract_x
 _atom_site_fract_y
 _atom_site_fract_z
 _atom_site_occupancy
  Y  Y0  1  0.537288  0.327740  0.897765  1
  Y  Y1  1  0.037288  0.172260  0.602235  1
  Y  Y2  1  0.462712  0.672260  0.397765  1
  Y  Y3  1  0.962712  0.827740  0.102235  1
  Y  Y4  1  0.472793  0.676142  0.099414  1
  Y  Y5  1  0.972793  0.823858  0.400586  1
  Y  Y6  1  0.527207  0.323858  0.599414  1
  Y  Y7  1  0.027207  0.176142  0.900586  1
  Tm  Tm8  1  0.372166  0.840378  0.876672  1
  Tm  Tm9  1  0.872166  0.659622  0.623328  1
  Tm  Tm10  1  0.627834  0.159622  0.376672  1
  Tm  Tm11  1  0.127834  0.340378  0.123328  1
  Tm  Tm12  1  0.631335  0.160951  0.123253  1
  Tm  Tm13  1  0.131335  0.339049  0.376747  1
  Tm  Tm14  1  0.368665  0.839049  0.623253  1
  Tm  Tm15  1  0.868665  0.660951  0.876747  1
  Tm  Tm16  1  0.199192  0.502380  0.748021  1
  Tm  Tm17  1  0.699192  0.997620  0.751979  1
  Tm  Tm18  1  0.800808  0.497620  0.248021  1
  Tm  Tm19  1  0.300808  0.002380  0.251979  1
  Sn  Sn20  1  0.710757  0.963890  0.957776  1
  Sn  Sn21  1  0.210757  0.536110  0.542224  1
  Sn  Sn22  1  0.289243  0.036110  0.457776  1
  Sn  Sn23  1  0.789243  0.463890  0.042224  1
  Sn  Sn24  1  0.565139  0.622594  0.749013  1
  Sn  Sn25  1  0.065139  0.877406  0.750987  1
  Sn  Sn26  1  0.434861  0.377406  0.249013  1
  Sn  Sn27  1  0.934861  0.122594  0.250987  1
  Sn  Sn28  1  0.337137  0.148820  0.750674  1
  Sn  Sn29  1  0.837137  0.351180  0.749326  1
  Sn  Sn30  1  0.662863  0.851180  0.250674  1
  Sn  Sn31  1  0.162863  0.648820  0.249326  1
  Sb  Sb32  1  0.284785  0.033128  0.044126  1
  Sb  Sb33  1  0.784785  0.466872  0.455874  1
  Sb  Sb34  1  0.715215  0.966872  0.544126  1
  Sb  Sb35  1  0.215215  0.533128  0.955874  1
