# generated using pymatgen
data_MgZr4P12Ru19
_symmetry_space_group_name_H-M   'P 1'
_cell_length_a   12.43634003
_cell_length_b   12.35311594
_cell_length_c   3.93064200
_cell_angle_alpha   90.00000000
_cell_angle_beta   90.00000000
_cell_angle_gamma   119.77888131
_symmetry_Int_Tables_number   1
_chemical_formula_structural   MgZr4P12Ru19
_chemical_formula_sum   'Mg1 Zr4 P12 Ru19'
_cell_volume   524.11500084
_cell_formula_units_Z   1
loop_
 _symmetry_equiv_pos_site_id
 _symmetry_equiv_pos_as_xyz
  1  'x, y, z'
loop_
 _atom_site_type_symbol
 _atom_site_label
 _atom_site_symmetry_multiplicity
 _atom_site_fract_x
 _atom_site_fract_y
 _atom_site_fract_z
 _atom_site_occupancy
  Mg  Mg0  1  0.000000  0.190961  0.500000  1
  Zr  Zr1  1  0.808944  0.809843  0.500000  1
  Zr  Zr2  1  0.191056  0.000899  0.500000  1
  Zr  Zr3  1  0.672860  0.336473  0.000000  1
  Zr  Zr4  1  0.327140  0.663614  0.000000  1
  P  P5  1  0.000000  0.831476  0.000000  1
  P  P6  1  0.193680  0.176944  0.000000  1
  P  P7  1  0.806320  0.983264  0.000000  1
  P  P8  1  0.701021  0.173108  0.500000  1
  P  P9  1  0.829079  0.524491  0.500000  1
  P  P10  1  0.484800  0.308470  0.500000  1
  P  P11  1  0.170921  0.695412  0.500000  1
  P  P12  1  0.515200  0.823669  0.500000  1
  P  P13  1  0.298979  0.472086  0.500000  1
  P  P14  1  0.000000  0.377719  0.000000  1
  P  P15  1  0.628382  0.627154  0.000000  1
  P  P16  1  0.371618  0.998772  0.000000  1
  Ru  Ru17  1  0.000000  0.560364  0.000000  1
  Ru  Ru18  1  0.443410  0.444155  0.000000  1
  Ru  Ru19  1  0.556590  0.000744  0.000000  1
  Ru  Ru20  1  0.000000  0.726131  0.500000  1
  Ru  Ru21  1  0.285773  0.278454  0.500000  1
  Ru  Ru22  1  0.714227  0.992681  0.500000  1
  Ru  Ru23  1  0.822612  0.181334  0.000000  1
  Ru  Ru24  1  0.817770  0.631431  0.000000  1
  Ru  Ru25  1  0.383758  0.191801  0.000000  1
  Ru  Ru26  1  0.182230  0.813661  0.000000  1
  Ru  Ru27  1  0.616242  0.808041  0.000000  1
  Ru  Ru28  1  0.177388  0.358722  0.000000  1
  Ru  Ru29  1  0.873487  0.367173  0.500000  1
  Ru  Ru30  1  0.635908  0.509442  0.500000  1
  Ru  Ru31  1  0.502870  0.131294  0.500000  1
  Ru  Ru32  1  0.364092  0.873534  0.500000  1
  Ru  Ru33  1  0.497130  0.628424  0.500000  1
  Ru  Ru34  1  0.126513  0.493685  0.500000  1
  Ru  Ru35  1  0.000000  0.014572  0.000000  1
