# generated using pymatgen
data_Dy15Tm5(Ir2Ru)4
_symmetry_space_group_name_H-M   'P 1'
_cell_length_a   10.79255742
_cell_length_b   10.79715652
_cell_length_c   6.41814013
_cell_angle_alpha   89.98013231
_cell_angle_beta   89.98844918
_cell_angle_gamma   89.97035023
_symmetry_Int_Tables_number   1
_chemical_formula_structural   Dy15Tm5(Ir2Ru)4
_chemical_formula_sum   'Dy15 Tm5 Ir8 Ru4'
_cell_volume   747.89885254
_cell_formula_units_Z   1
loop_
 _symmetry_equiv_pos_site_id
 _symmetry_equiv_pos_as_xyz
  1  'x, y, z'
loop_
 _atom_site_type_symbol
 _atom_site_label
 _atom_site_symmetry_multiplicity
 _atom_site_fract_x
 _atom_site_fract_y
 _atom_site_fract_z
 _atom_site_occupancy
  Dy  Dy0  1  0.292846  0.913639  0.878613  1
  Dy  Dy1  1  0.707192  0.086739  0.878556  1
  Dy  Dy2  1  0.707218  0.913267  0.378080  1
  Dy  Dy3  1  0.586750  0.792741  0.878194  1
  Dy  Dy4  1  0.586232  0.206820  0.378225  1
  Dy  Dy5  1  0.412974  0.793348  0.378286  1
  Dy  Dy6  1  0.412824  0.206916  0.878383  1
  Dy  Dy7  1  0.207236  0.413174  0.621434  1
  Dy  Dy8  1  0.207093  0.586787  0.121491  1
  Dy  Dy9  1  0.792893  0.413292  0.121448  1
  Dy  Dy10  1  0.792765  0.586703  0.621755  1
  Dy  Dy11  1  0.913224  0.707242  0.121999  1
  Dy  Dy12  1  0.913320  0.292975  0.621676  1
  Dy  Dy13  1  0.086723  0.707130  0.621559  1
  Dy  Dy14  1  0.087150  0.292504  0.122113  1
  Tm  Tm15  1  0.293341  0.086567  0.379023  1
  Tm  Tm16  1  0.000489  0.000244  0.499912  1
  Tm  Tm17  1  0.000136  0.000101  0.000442  1
  Tm  Tm18  1  0.499890  0.499886  0.999824  1
  Tm  Tm19  1  0.499901  0.499989  0.499968  1
  Ir  Ir20  1  0.849057  0.150935  0.250063  1
  Ir  Ir21  1  0.848961  0.849314  0.749907  1
  Ir  Ir22  1  0.151682  0.150410  0.748260  1
  Ir  Ir23  1  0.151427  0.849747  0.250423  1
  Ir  Ir24  1  0.650731  0.348858  0.749771  1
  Ir  Ir25  1  0.650858  0.650902  0.250014  1
  Ir  Ir26  1  0.349034  0.348139  0.250482  1
  Ir  Ir27  1  0.349219  0.651124  0.749956  1
  Ru  Ru28  1  0.499486  0.000258  0.124486  1
  Ru  Ru29  1  0.499339  0.000306  0.622994  1
  Ru  Ru30  1  0.000038  0.500029  0.876289  1
  Ru  Ru31  1  0.999972  0.499913  0.376375  1
