# generated using pymatgen
data_Ce2Y5Er(Si3Ir)4
_symmetry_space_group_name_H-M   'P 1'
_cell_length_a   8.16929400
_cell_length_b   8.16364545
_cell_length_c   8.01653200
_cell_angle_alpha   90.00000000
_cell_angle_beta   90.00000000
_cell_angle_gamma   120.02289101
_symmetry_Int_Tables_number   1
_chemical_formula_structural   Ce2Y5Er(Si3Ir)4
_chemical_formula_sum   'Ce2 Y5 Er1 Si12 Ir4'
_cell_volume   462.89831544
_cell_formula_units_Z   1
loop_
 _symmetry_equiv_pos_site_id
 _symmetry_equiv_pos_as_xyz
  1  'x, y, z'
loop_
 _atom_site_type_symbol
 _atom_site_label
 _atom_site_symmetry_multiplicity
 _atom_site_fract_x
 _atom_site_fract_y
 _atom_site_fract_z
 _atom_site_occupancy
  Ce  Ce0  1  0.000077  0.000155  0.250000  1
  Ce  Ce1  1  0.000034  0.000069  0.750000  1
  Y  Y2  1  0.492526  0.507532  0.250000  1
  Y  Y3  1  0.492468  0.984934  0.250000  1
  Y  Y4  1  0.015007  0.507532  0.250000  1
  Y  Y5  1  0.507814  0.491929  0.750000  1
  Y  Y6  1  0.984114  0.491929  0.750000  1
  Er  Er7  1  0.507226  0.014452  0.750000  1
  Si  Si8  1  0.832856  0.166844  0.502637  1
  Si  Si9  1  0.832982  0.665964  0.501636  1
  Si  Si10  1  0.333987  0.166844  0.502637  1
  Si  Si11  1  0.832856  0.166844  0.997363  1
  Si  Si12  1  0.832982  0.665964  0.998364  1
  Si  Si13  1  0.333987  0.166844  0.997363  1
  Si  Si14  1  0.167153  0.833009  0.001296  1
  Si  Si15  1  0.665856  0.833009  0.001296  1
  Si  Si16  1  0.167318  0.334635  0.001663  1
  Si  Si17  1  0.167153  0.833009  0.498704  1
  Si  Si18  1  0.665856  0.833009  0.498704  1
  Si  Si19  1  0.167318  0.334635  0.498337  1
  Ir  Ir20  1  0.666339  0.332677  0.474040  1
  Ir  Ir21  1  0.666339  0.332677  0.025960  1
  Ir  Ir22  1  0.333876  0.667751  0.970261  1
  Ir  Ir23  1  0.333876  0.667751  0.529739  1
