# generated using pymatgen
data_Mn4InHgPd10
_symmetry_space_group_name_H-M   'P 1'
_cell_length_a   4.09334800
_cell_length_b   5.57849520
_cell_length_c   11.10169376
_cell_angle_alpha   91.51805005
_cell_angle_beta   90.00000000
_cell_angle_gamma   90.00000000
_symmetry_Int_Tables_number   1
_chemical_formula_structural   Mn4InHgPd10
_chemical_formula_sum   'Mn4 In1 Hg1 Pd10'
_cell_volume   253.41512014
_cell_formula_units_Z   1
loop_
 _symmetry_equiv_pos_site_id
 _symmetry_equiv_pos_as_xyz
  1  'x, y, z'
loop_
 _atom_site_type_symbol
 _atom_site_label
 _atom_site_symmetry_multiplicity
 _atom_site_fract_x
 _atom_site_fract_y
 _atom_site_fract_z
 _atom_site_occupancy
  Mn  Mn0  1  0.500000  0.300519  0.863875  1
  Mn  Mn1  1  0.500000  0.793756  0.634295  1
  Mn  Mn2  1  0.500000  0.699481  0.136125  1
  Mn  Mn3  1  0.500000  0.206244  0.365705  1
  In  In4  1  0.000000  0.000000  0.000000  1
  Hg  Hg5  1  0.000000  0.500000  0.500000  1
  Pd  Pd6  1  0.500000  0.724122  0.375825  1
  Pd  Pd7  1  0.500000  0.275878  0.624175  1
  Pd  Pd8  1  0.000000  0.047965  0.753166  1
  Pd  Pd9  1  0.500000  0.784211  0.880964  1
  Pd  Pd10  1  0.000000  0.452330  0.249337  1
  Pd  Pd11  1  0.000000  0.952035  0.246834  1
  Pd  Pd12  1  0.000000  0.547670  0.750663  1
  Pd  Pd13  1  0.000000  0.500000  0.000000  1
  Pd  Pd14  1  0.000000  0.000000  0.500000  1
  Pd  Pd15  1  0.500000  0.215789  0.119036  1
