# generated using pymatgen
data_Tb3In3NiPdAu
_symmetry_space_group_name_H-M   'P 1'
_cell_length_a   7.77806400
_cell_length_b   7.77806535
_cell_length_c   3.76161900
_cell_angle_alpha   90.00000000
_cell_angle_beta   90.00000000
_cell_angle_gamma   120.00000276
_symmetry_Int_Tables_number   1
_chemical_formula_structural   Tb3In3NiPdAu
_chemical_formula_sum   'Tb3 In3 Ni1 Pd1 Au1'
_cell_volume   197.08270988
_cell_formula_units_Z   1
loop_
 _symmetry_equiv_pos_site_id
 _symmetry_equiv_pos_as_xyz
  1  'x, y, z'
loop_
 _atom_site_type_symbol
 _atom_site_label
 _atom_site_symmetry_multiplicity
 _atom_site_fract_x
 _atom_site_fract_y
 _atom_site_fract_z
 _atom_site_occupancy
  Tb  Tb0  1  0.589970  0.992129  0.500000  1
  Tb  Tb1  1  0.402157  0.410030  0.500000  1
  Tb  Tb2  1  0.007871  0.597843  0.500000  1
  In  In3  1  0.749386  0.751886  0.000000  1
  In  In4  1  0.248114  0.997501  0.000000  1
  In  In5  1  0.002499  0.250614  0.000000  1
  Ni  Ni6  1  0.000000  0.000000  0.500000  1
  Pd  Pd7  1  0.333333  0.666667  0.000000  1
  Au  Au8  1  0.666667  0.333333  0.000000  1
