# generated using pymatgen
data_HfTa11Mn4(Al2C)4
_symmetry_space_group_name_H-M   'P 1'
_cell_length_a   8.25946149
_cell_length_b   8.28578054
_cell_length_c   8.25915256
_cell_angle_alpha   59.88490536
_cell_angle_beta   59.91376550
_cell_angle_gamma   59.88627481
_symmetry_Int_Tables_number   1
_chemical_formula_structural   HfTa11Mn4(Al2C)4
_chemical_formula_sum   'Hf1 Ta11 Mn4 Al8 C4'
_cell_volume   398.72144785
_cell_formula_units_Z   1
loop_
 _symmetry_equiv_pos_site_id
 _symmetry_equiv_pos_as_xyz
  1  'x, y, z'
loop_
 _atom_site_type_symbol
 _atom_site_label
 _atom_site_symmetry_multiplicity
 _atom_site_fract_x
 _atom_site_fract_y
 _atom_site_fract_z
 _atom_site_occupancy
  Hf  Hf0  1  0.555962  0.944025  0.555955  1
  Ta  Ta1  1  0.306780  0.691817  0.693841  1
  Ta  Ta2  1  0.693818  0.307549  0.306797  1
  Ta  Ta3  1  0.306205  0.693792  0.306205  1
  Ta  Ta4  1  0.693823  0.691806  0.306801  1
  Ta  Ta5  1  0.306780  0.307544  0.693832  1
  Ta  Ta6  1  0.556156  0.554353  0.944551  1
  Ta  Ta7  1  0.944558  0.554346  0.556160  1
  Ta  Ta8  1  0.556155  0.944928  0.944550  1
  Ta  Ta9  1  0.944560  0.944928  0.556157  1
  Ta  Ta10  1  0.695530  0.304466  0.695537  1
  Ta  Ta11  1  0.942299  0.557705  0.942302  1
  Mn  Mn12  1  0.125136  0.125324  0.125146  1
  Mn  Mn13  1  0.624977  0.126576  0.121903  1
  Mn  Mn14  1  0.125225  0.624434  0.125115  1
  Mn  Mn15  1  0.121930  0.126519  0.625001  1
  Al  Al16  1  0.917151  0.916162  0.917289  1
  Al  Al17  1  0.000394  0.333424  0.332609  1
  Al  Al18  1  0.332813  0.000613  0.332705  1
  Al  Al19  1  0.332681  0.333380  0.000404  1
  Al  Al20  1  0.917213  0.249386  0.917350  1
  Al  Al21  1  0.918517  0.916905  0.247843  1
  Al  Al22  1  0.247858  0.916877  0.918561  1
  Al  Al23  1  0.332854  0.333793  0.332741  1
  C  C24  1  0.626139  0.620374  0.626160  1
  C  C25  1  0.124558  0.625829  0.623783  1
  C  C26  1  0.626149  0.127321  0.626145  1
  C  C27  1  0.623777  0.625823  0.124556  1
