# generated using pymatgen
data_Er2Si6AsRh12
_symmetry_space_group_name_H-M   'P 1'
_cell_length_a   9.75570542
_cell_length_b   9.81128333
_cell_length_c   3.85552023
_cell_angle_alpha   90.03931208
_cell_angle_beta   90.08105733
_cell_angle_gamma   120.17130960
_symmetry_Int_Tables_number   1
_chemical_formula_structural   Er2Si6AsRh12
_chemical_formula_sum   'Er2 Si6 As1 Rh12'
_cell_volume   319.03977384
_cell_formula_units_Z   1
loop_
 _symmetry_equiv_pos_site_id
 _symmetry_equiv_pos_as_xyz
  1  'x, y, z'
loop_
 _atom_site_type_symbol
 _atom_site_label
 _atom_site_symmetry_multiplicity
 _atom_site_fract_x
 _atom_site_fract_y
 _atom_site_fract_z
 _atom_site_occupancy
  Er  Er0  1  0.673487  0.333758  0.749649  1
  Er  Er1  1  0.331076  0.667518  0.251927  1
  Si  Si2  1  0.998488  0.999560  0.586104  1
  Si  Si3  1  0.287718  0.886367  0.751004  1
  Si  Si4  1  0.109246  0.400774  0.752050  1
  Si  Si5  1  0.600468  0.713192  0.750748  1
  Si  Si6  1  0.709041  0.108279  0.249620  1
  Si  Si7  1  0.889728  0.599326  0.249780  1
  As  As8  1  0.406687  0.290731  0.249648  1
  Rh  Rh9  1  0.064729  0.620075  0.752201  1
  Rh  Rh10  1  0.377490  0.450967  0.751944  1
  Rh  Rh11  1  0.554314  0.932405  0.752061  1
  Rh  Rh12  1  0.935810  0.380823  0.249129  1
  Rh  Rh13  1  0.620132  0.560911  0.248710  1
  Rh  Rh14  1  0.443560  0.057550  0.249157  1
  Rh  Rh15  1  0.265722  0.117558  0.748262  1
  Rh  Rh16  1  0.877194  0.146049  0.747248  1
  Rh  Rh17  1  0.854239  0.732419  0.746898  1
  Rh  Rh18  1  0.746157  0.884572  0.254904  1
  Rh  Rh19  1  0.115704  0.860344  0.254842  1
  Rh  Rh20  1  0.139008  0.256825  0.257737  1
