# generated using pymatgen
data_LaEu2(HgPd)3
_symmetry_space_group_name_H-M   'P 1'
_cell_length_a   7.81888758
_cell_length_b   7.84316960
_cell_length_c   4.11126800
_cell_angle_alpha   90.00000000
_cell_angle_beta   90.00000000
_cell_angle_gamma   120.10278244
_symmetry_Int_Tables_number   1
_chemical_formula_structural   LaEu2(HgPd)3
_chemical_formula_sum   'La1 Eu2 Hg3 Pd3'
_cell_volume   218.11837910
_cell_formula_units_Z   1
loop_
 _symmetry_equiv_pos_site_id
 _symmetry_equiv_pos_as_xyz
  1  'x, y, z'
loop_
 _atom_site_type_symbol
 _atom_site_label
 _atom_site_symmetry_multiplicity
 _atom_site_fract_x
 _atom_site_fract_y
 _atom_site_fract_z
 _atom_site_occupancy
  La  La0  1  0.000000  0.597522  0.500000  1
  Eu  Eu1  1  0.401108  0.400592  0.500000  1
  Eu  Eu2  1  0.598892  0.999485  0.500000  1
  Hg  Hg3  1  0.737647  0.741112  0.000000  1
  Hg  Hg4  1  0.262353  0.003465  0.000000  1
  Hg  Hg5  1  0.000000  0.255165  0.000000  1
  Pd  Pd6  1  0.672733  0.339377  0.000000  1
  Pd  Pd7  1  0.327267  0.666645  0.000000  1
  Pd  Pd8  1  0.000000  0.996636  0.500000  1
