# generated using pymatgen
data_TbTm3(TiAl3)2
_symmetry_space_group_name_H-M   'P 1'
_cell_length_a   9.57507695
_cell_length_b   9.57507705
_cell_length_c   9.57507784
_cell_angle_alpha   34.24807261
_cell_angle_beta   34.24807212
_cell_angle_gamma   34.24807409
_symmetry_Int_Tables_number   1
_chemical_formula_structural   TbTm3(TiAl3)2
_chemical_formula_sum   'Tb1 Tm3 Ti2 Al6'
_cell_volume   247.93659737
_cell_formula_units_Z   1
loop_
 _symmetry_equiv_pos_site_id
 _symmetry_equiv_pos_as_xyz
  1  'x, y, z'
loop_
 _atom_site_type_symbol
 _atom_site_label
 _atom_site_symmetry_multiplicity
 _atom_site_fract_x
 _atom_site_fract_y
 _atom_site_fract_z
 _atom_site_occupancy
  Tb  Tb0  1  0.813565  0.813565  0.813565  1
  Tm  Tm1  1  0.314114  0.314114  0.314114  1
  Tm  Tm2  1  0.685697  0.685697  0.685697  1
  Tm  Tm3  1  0.186064  0.186064  0.186064  1
  Ti  Ti4  1  0.499971  0.499971  0.499971  1
  Ti  Ti5  1  0.000169  0.000169  0.000169  1
  Al  Al6  1  0.249865  0.249865  0.749629  1
  Al  Al7  1  0.750275  0.750275  0.250512  1
  Al  Al8  1  0.249865  0.749629  0.249865  1
  Al  Al9  1  0.750275  0.250512  0.750275  1
  Al  Al10  1  0.749629  0.249865  0.249865  1
  Al  Al11  1  0.250512  0.750275  0.750275  1
