# generated using pymatgen
data_La5Th2P12Pd17
_symmetry_space_group_name_H-M   'P 1'
_cell_length_a   12.46479329
_cell_length_b   12.46479364
_cell_length_c   13.72714296
_cell_angle_alpha   68.52616053
_cell_angle_beta   68.52615972
_cell_angle_gamma   19.09583996
_symmetry_Int_Tables_number   1
_chemical_formula_structural   La5Th2P12Pd17
_chemical_formula_sum   'La5 Th2 P12 Pd17'
_cell_volume   647.88729883
_cell_formula_units_Z   1
loop_
 _symmetry_equiv_pos_site_id
 _symmetry_equiv_pos_as_xyz
  1  'x, y, z'
loop_
 _atom_site_type_symbol
 _atom_site_label
 _atom_site_symmetry_multiplicity
 _atom_site_fract_x
 _atom_site_fract_y
 _atom_site_fract_z
 _atom_site_occupancy
  La  La0  1  0.635612  0.635612  0.999762  1
  La  La1  1  0.232730  0.232730  0.313706  1
  La  La2  1  0.767703  0.767703  0.686517  1
  La  La3  1  0.417910  0.417910  0.263263  1
  La  La4  1  0.582311  0.582311  0.736136  1
  Th  Th5  1  0.500041  0.500041  0.500085  1
  Th  Th6  1  0.364097  0.364097  0.000112  1
  P  P7  1  0.060119  0.060119  0.925836  1
  P  P8  1  0.938988  0.938988  0.074065  1
  P  P9  1  0.885493  0.885493  0.828686  1
  P  P10  1  0.113772  0.113772  0.173363  1
  P  P11  1  0.188556  0.188556  0.617599  1
  P  P12  1  0.811838  0.811838  0.381346  1
  P  P13  1  0.366924  0.366924  0.577033  1
  P  P14  1  0.633356  0.633356  0.423352  1
  P  P15  1  0.010027  0.010027  0.666527  1
  P  P16  1  0.990018  0.990018  0.332613  1
  P  P17  1  0.234104  0.234104  0.882435  1
  P  P18  1  0.766470  0.766470  0.115530  1
  Pd  Pd19  1  0.838773  0.838773  0.192904  1
  Pd  Pd20  1  0.160937  0.160937  0.805752  1
  Pd  Pd21  1  0.026424  0.026424  0.124409  1
  Pd  Pd22  1  0.972656  0.972656  0.876425  1
  Pd  Pd23  1  0.890867  0.890867  0.458844  1
  Pd  Pd24  1  0.109277  0.109277  0.541236  1
  Pd  Pd25  1  0.498465  0.498465  0.999878  1
  Pd  Pd26  1  0.546311  0.546311  0.254635  1
  Pd  Pd27  1  0.454257  0.454257  0.746746  1
  Pd  Pd28  1  0.296857  0.296857  0.487089  1
  Pd  Pd29  1  0.703796  0.703796  0.512829  1
  Pd  Pd30  1  0.664915  0.664915  0.224762  1
  Pd  Pd31  1  0.336127  0.336127  0.775568  1
  Pd  Pd32  1  0.909096  0.909096  0.642829  1
  Pd  Pd33  1  0.091075  0.091075  0.357631  1
  Pd  Pd34  1  0.218393  0.218393  0.072668  1
  Pd  Pd35  1  0.781705  0.781705  0.927829  1
