# generated using pymatgen
data_K2Ho5ErF20
_symmetry_space_group_name_H-M   'P 1'
_cell_length_a   8.20998882
_cell_length_b   8.20998899
_cell_length_c   8.21196200
_cell_angle_alpha   59.99205001
_cell_angle_beta   59.99204933
_cell_angle_gamma   60.01590381
_symmetry_Int_Tables_number   1
_chemical_formula_structural   K2Ho5ErF20
_chemical_formula_sum   'K2 Ho5 Er1 F20'
_cell_volume   391.39658641
_cell_formula_units_Z   1
loop_
 _symmetry_equiv_pos_site_id
 _symmetry_equiv_pos_as_xyz
  1  'x, y, z'
loop_
 _atom_site_type_symbol
 _atom_site_label
 _atom_site_symmetry_multiplicity
 _atom_site_fract_x
 _atom_site_fract_y
 _atom_site_fract_z
 _atom_site_occupancy
  K  K0  1  0.750020  0.750020  0.749980  1
  K  K1  1  0.250020  0.250020  0.249980  1
  Ho  Ho2  1  0.240443  0.759614  0.240386  1
  Ho  Ho3  1  0.759614  0.240443  0.240386  1
  Ho  Ho4  1  0.240443  0.759614  0.759557  1
  Ho  Ho5  1  0.240410  0.240410  0.759590  1
  Ho  Ho6  1  0.759614  0.240443  0.759557  1
  Er  Er7  1  0.759488  0.759488  0.240512  1
  F  F8  1  0.830407  0.169590  0.500001  1
  F  F9  1  0.499996  0.169616  0.830384  1
  F  F10  1  0.830110  0.500821  0.169890  1
  F  F11  1  0.499996  0.169616  0.500004  1
  F  F12  1  0.830110  0.500821  0.499179  1
  F  F13  1  0.169616  0.499996  0.830384  1
  F  F14  1  0.500821  0.830110  0.499179  1
  F  F15  1  0.499999  0.499999  0.169593  1
  F  F16  1  0.888177  0.335350  0.888236  1
  F  F17  1  0.111764  0.111764  0.664650  1
  F  F18  1  0.664892  0.111016  0.112047  1
  F  F19  1  0.111764  0.111764  0.111823  1
  F  F20  1  0.335350  0.888177  0.888236  1
  F  F21  1  0.887953  0.887953  0.888984  1
  F  F22  1  0.887953  0.887953  0.335108  1
  F  F23  1  0.111016  0.664892  0.112047  1
  F  F24  1  0.169590  0.830407  0.500001  1
  F  F25  1  0.500821  0.830110  0.169890  1
  F  F26  1  0.169616  0.499996  0.500004  1
  F  F27  1  0.499999  0.499999  0.830410  1
