# generated using pymatgen
data_Er4Ti4Mn9Fe7P12
_symmetry_space_group_name_H-M   'P 1'
_cell_length_a   3.63082100
_cell_length_b   10.64590235
_cell_length_c   12.34610690
_cell_angle_alpha   89.90900459
_cell_angle_beta   90.00000000
_cell_angle_gamma   90.00000000
_symmetry_Int_Tables_number   1
_chemical_formula_structural   Er4Ti4Mn9Fe7P12
_chemical_formula_sum   'Er4 Ti4 Mn9 Fe7 P12'
_cell_volume   477.21798458
_cell_formula_units_Z   1
loop_
 _symmetry_equiv_pos_site_id
 _symmetry_equiv_pos_as_xyz
  1  'x, y, z'
loop_
 _atom_site_type_symbol
 _atom_site_label
 _atom_site_symmetry_multiplicity
 _atom_site_fract_x
 _atom_site_fract_y
 _atom_site_fract_z
 _atom_site_occupancy
  Er  Er0  1  0.250000  0.580953  0.711197  1
  Er  Er1  1  0.250000  0.917859  0.211492  1
  Er  Er2  1  0.750000  0.417247  0.288621  1
  Er  Er3  1  0.750000  0.084040  0.790546  1
  Ti  Ti4  1  0.250000  0.700708  0.987407  1
  Ti  Ti5  1  0.250000  0.797436  0.486731  1
  Ti  Ti6  1  0.750000  0.299198  0.011511  1
  Ti  Ti7  1  0.750000  0.201100  0.511090  1
  Mn  Mn8  1  0.250000  0.407906  0.492656  1
  Mn  Mn9  1  0.250000  0.091660  0.993533  1
  Mn  Mn10  1  0.750000  0.589662  0.505780  1
  Mn  Mn11  1  0.750000  0.908982  0.007880  1
  Mn  Mn12  1  0.250000  0.216980  0.176797  1
  Mn  Mn13  1  0.250000  0.284659  0.677149  1
  Mn  Mn14  1  0.750000  0.781956  0.824456  1
  Mn  Mn15  1  0.750000  0.717234  0.323218  1
  Mn  Mn16  1  0.250000  0.877118  0.699029  1
  Fe  Fe17  1  0.250000  0.625570  0.200531  1
  Fe  Fe18  1  0.750000  0.125429  0.299388  1
  Fe  Fe19  1  0.750000  0.374501  0.799460  1
  Fe  Fe20  1  0.250000  0.462402  0.932607  1
  Fe  Fe21  1  0.250000  0.037516  0.433198  1
  Fe  Fe22  1  0.750000  0.537969  0.067702  1
  Fe  Fe23  1  0.750000  0.962272  0.568932  1
  P  P24  1  0.250000  0.430027  0.112457  1
  P  P25  1  0.250000  0.073798  0.612593  1
  P  P26  1  0.750000  0.570280  0.887372  1
  P  P27  1  0.750000  0.930256  0.387805  1
  P  P28  1  0.250000  0.266675  0.867319  1
  P  P29  1  0.250000  0.233228  0.366562  1
  P  P30  1  0.750000  0.733777  0.132998  1
  P  P31  1  0.750000  0.762331  0.631729  1
  P  P32  1  0.250000  0.589311  0.383644  1
  P  P33  1  0.250000  0.909723  0.885166  1
  P  P34  1  0.750000  0.409335  0.615440  1
  P  P35  1  0.750000  0.090905  0.116004  1
