# generated using pymatgen
data_Ta6Mn2Re(B2Ru)3
_symmetry_space_group_name_H-M   'P 1'
_cell_length_a   3.12523900
_cell_length_b   6.33628728
_cell_length_c   10.86468141
_cell_angle_alpha   89.96741747
_cell_angle_beta   90.00000000
_cell_angle_gamma   90.00000000
_symmetry_Int_Tables_number   1
_chemical_formula_structural   Ta6Mn2Re(B2Ru)3
_chemical_formula_sum   'Ta6 Mn2 Re1 B6 Ru3'
_cell_volume   215.14686387
_cell_formula_units_Z   1
loop_
 _symmetry_equiv_pos_site_id
 _symmetry_equiv_pos_as_xyz
  1  'x, y, z'
loop_
 _atom_site_type_symbol
 _atom_site_label
 _atom_site_symmetry_multiplicity
 _atom_site_fract_x
 _atom_site_fract_y
 _atom_site_fract_z
 _atom_site_occupancy
  Ta  Ta0  1  0.000000  0.223612  0.951090  1
  Ta  Ta1  1  0.000000  0.774602  0.049429  1
  Ta  Ta2  1  0.000000  0.224528  0.548933  1
  Ta  Ta3  1  0.000000  0.774757  0.450940  1
  Ta  Ta4  1  0.000000  0.139495  0.249343  1
  Ta  Ta5  1  0.000000  0.862171  0.749469  1
  Mn  Mn6  1  0.500000  0.802734  0.251712  1
  Mn  Mn7  1  0.500000  0.199198  0.749029  1
  Re  Re8  1  0.500000  0.426531  0.124061  1
  B  B9  1  0.500000  0.050780  0.087358  1
  B  B10  1  0.500000  0.948772  0.912000  1
  B  B11  1  0.500000  0.048669  0.414550  1
  B  B12  1  0.500000  0.951879  0.586048  1
  B  B13  1  0.000000  0.561733  0.248509  1
  B  B14  1  0.000000  0.436535  0.750070  1
  Ru  Ru15  1  0.500000  0.573210  0.874341  1
  Ru  Ru16  1  0.500000  0.427008  0.378639  1
  Ru  Ru17  1  0.500000  0.573787  0.624477  1
