# generated using pymatgen
data_Ho10In2NiPd
_symmetry_space_group_name_H-M   'P 1'
_cell_length_a   9.80750000
_cell_length_b   9.65229200
_cell_length_c   9.46941200
_cell_angle_alpha   90.00000000
_cell_angle_beta   90.00000000
_cell_angle_gamma   119.77667111
_symmetry_Int_Tables_number   1
_chemical_formula_structural   Ho10In2NiPd
_chemical_formula_sum   'Ho20 In4 Ni2 Pd2'
_cell_volume   778.06407082
_cell_formula_units_Z   2
loop_
 _symmetry_equiv_pos_site_id
 _symmetry_equiv_pos_as_xyz
  1  'x, y, z'
loop_
 _atom_site_type_symbol
 _atom_site_label
 _atom_site_symmetry_multiplicity
 _atom_site_fract_x
 _atom_site_fract_y
 _atom_site_fract_z
 _atom_site_occupancy
  Ho  Ho0  1  0.974895  0.986869  0.453912  1
  Ho  Ho1  1  0.974895  0.986869  0.046088  1
  Ho  Ho2  1  0.563535  0.473367  0.250000  1
  Ho  Ho3  1  0.563975  0.091353  0.250000  1
  Ho  Ho4  1  0.920326  0.459634  0.250000  1
  Ho  Ho5  1  0.455779  0.543462  0.750000  1
  Ho  Ho6  1  0.457092  0.917895  0.750000  1
  Ho  Ho7  1  0.089648  0.547222  0.750000  1
  Ho  Ho8  1  0.208945  0.793163  0.433647  1
  Ho  Ho9  1  0.207856  0.414862  0.432757  1
  Ho  Ho10  1  0.570129  0.785096  0.438262  1
  Ho  Ho11  1  0.794479  0.211640  0.560224  1
  Ho  Ho12  1  0.793988  0.582276  0.561503  1
  Ho  Ho13  1  0.419769  0.210571  0.559505  1
  Ho  Ho14  1  0.794479  0.211640  0.939776  1
  Ho  Ho15  1  0.793988  0.582276  0.938497  1
  Ho  Ho16  1  0.419769  0.210571  0.940495  1
  Ho  Ho17  1  0.208945  0.793163  0.066353  1
  Ho  Ho18  1  0.207856  0.414862  0.067243  1
  Ho  Ho19  1  0.570129  0.785096  0.061738  1
  In  In20  1  0.260542  0.127903  0.250000  1
  In  In21  1  0.110953  0.891942  0.750000  1
  In  In22  1  0.110832  0.217368  0.750000  1
  In  In23  1  0.773561  0.887198  0.750000  1
  Ni  Ni24  1  0.332673  0.666510  0.250000  1
  Ni  Ni25  1  0.664281  0.330019  0.750000  1
  Pd  Pd26  1  0.877827  0.142906  0.250000  1
  Pd  Pd27  1  0.878853  0.734271  0.250000  1
