# generated using pymatgen
data_Dy12Ni4BiRu
_symmetry_space_group_name_H-M   'P 1'
_cell_length_a   8.34715679
_cell_length_b   8.34715754
_cell_length_c   8.34715727
_cell_angle_alpha   111.71777530
_cell_angle_beta   109.90333671
_cell_angle_gamma   106.82987064
_symmetry_Int_Tables_number   1
_chemical_formula_structural   Dy12Ni4BiRu
_chemical_formula_sum   'Dy12 Ni4 Bi1 Ru1'
_cell_volume   446.87970355
_cell_formula_units_Z   1
loop_
 _symmetry_equiv_pos_site_id
 _symmetry_equiv_pos_as_xyz
  1  'x, y, z'
loop_
 _atom_site_type_symbol
 _atom_site_label
 _atom_site_symmetry_multiplicity
 _atom_site_fract_x
 _atom_site_fract_y
 _atom_site_fract_z
 _atom_site_occupancy
  Dy  Dy0  1  0.819664  0.709737  0.529401  1
  Dy  Dy1  1  0.180336  0.290263  0.470599  1
  Dy  Dy2  1  0.180336  0.709737  0.890071  1
  Dy  Dy3  1  0.819664  0.290263  0.109929  1
  Dy  Dy4  1  0.683765  0.375992  0.692226  1
  Dy  Dy5  1  0.316235  0.624008  0.307774  1
  Dy  Dy6  1  0.683765  0.991538  0.307774  1
  Dy  Dy7  1  0.316235  0.008462  0.692226  1
  Dy  Dy8  1  0.597610  0.789886  0.807725  1
  Dy  Dy9  1  0.402390  0.210114  0.192275  1
  Dy  Dy10  1  0.982160  0.789886  0.192275  1
  Dy  Dy11  1  0.017840  0.210114  0.807725  1
  Ni  Ni12  1  0.633424  0.000000  0.633424  1
  Ni  Ni13  1  0.366576  0.000000  0.366576  1
  Ni  Ni14  1  0.121654  0.621654  0.500000  1
  Ni  Ni15  1  0.878346  0.378346  0.500000  1
  Bi  Bi16  1  0.500000  0.500000  0.000000  1
  Ru  Ru17  1  0.000000  0.000000  0.000000  1
