# generated using pymatgen
data_Cs2TiWN4
_symmetry_space_group_name_H-M   'P 1'
_cell_length_a   6.17160283
_cell_length_b   6.17159911
_cell_length_c   6.17156451
_cell_angle_alpha   120.13092642
_cell_angle_beta   120.13448689
_cell_angle_gamma   89.77078135
_symmetry_Int_Tables_number   1
_chemical_formula_structural   Cs2TiWN4
_chemical_formula_sum   'Cs2 Ti1 W1 N4'
_cell_volume   165.88164724
_cell_formula_units_Z   1
loop_
 _symmetry_equiv_pos_site_id
 _symmetry_equiv_pos_as_xyz
  1  'x, y, z'
loop_
 _atom_site_type_symbol
 _atom_site_label
 _atom_site_symmetry_multiplicity
 _atom_site_fract_x
 _atom_site_fract_y
 _atom_site_fract_z
 _atom_site_occupancy
  Cs  Cs0  1  0.249999  0.749999  0.500000  1
  Cs  Cs1  1  0.500000  0.500001  0.000000  1
  Ti  Ti2  1  0.999985  0.999985  0.999999  1
  W  W3  1  0.750004  0.250004  0.500000  1
  N  N4  1  0.847841  0.126555  0.226639  1
  N  N5  1  0.899917  0.621203  0.773361  1
  N  N6  1  0.378799  0.152167  0.278713  1
  N  N7  1  0.873455  0.100087  0.721287  1
