# generated using pymatgen
data_Ca10TiWN10
_symmetry_space_group_name_H-M   'P 1'
_cell_length_a   6.92309752
_cell_length_b   6.92309732
_cell_length_c   8.82613210
_cell_angle_alpha   81.10827794
_cell_angle_beta   81.10828970
_cell_angle_gamma   60.16487410
_symmetry_Int_Tables_number   1
_chemical_formula_structural   Ca10TiWN10
_chemical_formula_sum   'Ca10 Ti1 W1 N10'
_cell_volume   361.06003074
_cell_formula_units_Z   1
loop_
 _symmetry_equiv_pos_site_id
 _symmetry_equiv_pos_as_xyz
  1  'x, y, z'
loop_
 _atom_site_type_symbol
 _atom_site_label
 _atom_site_symmetry_multiplicity
 _atom_site_fract_x
 _atom_site_fract_y
 _atom_site_fract_z
 _atom_site_occupancy
  Ca  Ca0  1  0.878648  0.358058  0.835785  1
  Ca  Ca1  1  0.873989  0.873989  0.821929  1
  Ca  Ca2  1  0.734277  0.734277  0.539583  1
  Ca  Ca3  1  0.741925  0.256725  0.514567  1
  Ca  Ca4  1  0.619606  0.143069  0.141504  1
  Ca  Ca5  1  0.358058  0.878648  0.835785  1
  Ca  Ca6  1  0.256725  0.741925  0.514567  1
  Ca  Ca7  1  0.240073  0.240073  0.499311  1
  Ca  Ca8  1  0.145293  0.145293  0.160567  1
  Ca  Ca9  1  0.143069  0.619606  0.141504  1
  Ti  Ti10  1  0.368913  0.368913  0.771317  1
  W  W11  1  0.634061  0.634061  0.224966  1
  N  N12  1  0.911107  0.472927  0.319284  1
  N  N13  1  0.994171  0.994171  0.029923  1
  N  N14  1  0.681190  0.681190  0.011918  1
  N  N15  1  0.536956  0.536956  0.693031  1
  N  N16  1  0.472927  0.911107  0.319284  1
  N  N17  1  0.538784  0.085483  0.671862  1
  N  N18  1  0.472934  0.472934  0.293206  1
  N  N19  1  0.316319  0.316319  0.987932  1
  N  N20  1  0.057774  0.057774  0.646120  1
  N  N21  1  0.085483  0.538784  0.671862  1
