# generated using pymatgen
data_Tb3Ho3(ErAu2)2
_symmetry_space_group_name_H-M   'P 1'
_cell_length_a   4.92953800
_cell_length_b   7.14499416
_cell_length_c   8.94151313
_cell_angle_alpha   89.90861037
_cell_angle_beta   90.00000000
_cell_angle_gamma   90.00000000
_symmetry_Int_Tables_number   1
_chemical_formula_structural   Tb3Ho3(ErAu2)2
_chemical_formula_sum   'Tb3 Ho3 Er2 Au4'
_cell_volume   314.93328496
_cell_formula_units_Z   1
loop_
 _symmetry_equiv_pos_site_id
 _symmetry_equiv_pos_as_xyz
  1  'x, y, z'
loop_
 _atom_site_type_symbol
 _atom_site_label
 _atom_site_symmetry_multiplicity
 _atom_site_fract_x
 _atom_site_fract_y
 _atom_site_fract_z
 _atom_site_occupancy
  Tb  Tb0  1  0.250000  0.985662  0.322853  1
  Tb  Tb1  1  0.750000  0.514206  0.823497  1
  Tb  Tb2  1  0.750000  0.014294  0.676725  1
  Ho  Ho3  1  0.250000  0.851761  0.920438  1
  Ho  Ho4  1  0.250000  0.352296  0.579769  1
  Ho  Ho5  1  0.250000  0.485192  0.176335  1
  Er  Er6  1  0.750000  0.148363  0.080298  1
  Er  Er7  1  0.750000  0.647713  0.419042  1
  Au  Au8  1  0.250000  0.255669  0.901407  1
  Au  Au9  1  0.250000  0.755233  0.599661  1
  Au  Au10  1  0.750000  0.744274  0.100377  1
  Au  Au11  1  0.750000  0.245339  0.399596  1
