# generated using pymatgen
data_Dy2Ho3IrPt2
_symmetry_space_group_name_H-M   'P 1'
_cell_length_a   11.04216900
_cell_length_b   11.04216900
_cell_length_c   6.32103400
_cell_angle_alpha   90.00000000
_cell_angle_beta   90.00000000
_cell_angle_gamma   90.00000000
_symmetry_Int_Tables_number   1
_chemical_formula_structural   Dy2Ho3IrPt2
_chemical_formula_sum   'Dy8 Ho12 Ir4 Pt8'
_cell_volume   770.72049124
_cell_formula_units_Z   4
loop_
 _symmetry_equiv_pos_site_id
 _symmetry_equiv_pos_as_xyz
  1  'x, y, z'
loop_
 _atom_site_type_symbol
 _atom_site_label
 _atom_site_symmetry_multiplicity
 _atom_site_fract_x
 _atom_site_fract_y
 _atom_site_fract_z
 _atom_site_occupancy
  Dy  Dy0  1  0.294053  0.087673  0.374096  1
  Dy  Dy1  1  0.294053  0.912327  0.874096  1
  Dy  Dy2  1  0.705947  0.087673  0.874096  1
  Dy  Dy3  1  0.705947  0.912327  0.374096  1
  Dy  Dy4  1  0.587673  0.794053  0.874096  1
  Dy  Dy5  1  0.587673  0.205947  0.374096  1
  Dy  Dy6  1  0.412327  0.794053  0.374096  1
  Dy  Dy7  1  0.412327  0.205947  0.874096  1
  Ho  Ho8  1  0.205302  0.412424  0.625659  1
  Ho  Ho9  1  0.205302  0.587576  0.125659  1
  Ho  Ho10  1  0.794698  0.412424  0.125659  1
  Ho  Ho11  1  0.794698  0.587576  0.625659  1
  Ho  Ho12  1  0.912424  0.705302  0.125659  1
  Ho  Ho13  1  0.912424  0.294698  0.625659  1
  Ho  Ho14  1  0.087576  0.705302  0.625659  1
  Ho  Ho15  1  0.087576  0.294698  0.125659  1
  Ho  Ho16  1  0.000000  0.000000  0.500241  1
  Ho  Ho17  1  0.000000  0.000000  0.000241  1
  Ho  Ho18  1  0.500000  0.500000  0.000241  1
  Ho  Ho19  1  0.500000  0.500000  0.500241  1
  Ir  Ir20  1  0.500000  0.000000  0.120275  1
  Ir  Ir21  1  0.500000  0.000000  0.620275  1
  Ir  Ir22  1  0.000000  0.500000  0.879521  1
  Ir  Ir23  1  0.000000  0.500000  0.379521  1
  Pt  Pt24  1  0.846743  0.153914  0.250175  1
  Pt  Pt25  1  0.846743  0.846086  0.750175  1
  Pt  Pt26  1  0.153257  0.153914  0.750175  1
  Pt  Pt27  1  0.153257  0.846086  0.250175  1
  Pt  Pt28  1  0.653914  0.346743  0.750175  1
  Pt  Pt29  1  0.653914  0.653257  0.250175  1
  Pt  Pt30  1  0.346086  0.346743  0.250175  1
  Pt  Pt31  1  0.346086  0.653257  0.750175  1
