# generated using pymatgen
data_GaCoAsO5
_symmetry_space_group_name_H-M   'P 1'
_cell_length_a   10.77103600
_cell_length_b   5.67632958
_cell_length_c   7.49820465
_cell_angle_alpha   80.97395721
_cell_angle_beta   90.00000000
_cell_angle_gamma   90.00000000
_symmetry_Int_Tables_number   1
_chemical_formula_structural   GaCoAsO5
_chemical_formula_sum   'Ga4 Co4 As4 O20'
_cell_volume   452.76306017
_cell_formula_units_Z   4
loop_
 _symmetry_equiv_pos_site_id
 _symmetry_equiv_pos_as_xyz
  1  'x, y, z'
loop_
 _atom_site_type_symbol
 _atom_site_label
 _atom_site_symmetry_multiplicity
 _atom_site_fract_x
 _atom_site_fract_y
 _atom_site_fract_z
 _atom_site_occupancy
  Ga  Ga0  1  0.323842  0.951986  0.858493  1
  Ga  Ga1  1  0.676158  0.048014  0.141507  1
  Ga  Ga2  1  0.176158  0.451986  0.858493  1
  Ga  Ga3  1  0.823842  0.548014  0.141507  1
  Co  Co4  1  0.641808  0.604716  0.483509  1
  Co  Co5  1  0.858192  0.104716  0.483509  1
  Co  Co6  1  0.358192  0.395284  0.516491  1
  Co  Co7  1  0.141808  0.895284  0.516491  1
  As  As8  1  0.396860  0.938339  0.277597  1
  As  As9  1  0.896860  0.561661  0.722403  1
  As  As10  1  0.103140  0.438339  0.277597  1
  As  As11  1  0.603140  0.061661  0.722403  1
  O  O12  1  0.802880  0.628575  0.892566  1
  O  O13  1  0.541354  0.321281  0.605108  1
  O  O14  1  0.788088  0.237353  0.238587  1
  O  O15  1  0.512766  0.132058  0.191622  1
  O  O16  1  0.288088  0.262647  0.761413  1
  O  O17  1  0.190258  0.574776  0.426133  1
  O  O18  1  0.458646  0.678719  0.394892  1
  O  O19  1  0.041354  0.178719  0.394892  1
  O  O20  1  0.809742  0.425224  0.573867  1
  O  O21  1  0.487234  0.867942  0.808378  1
  O  O22  1  0.697120  0.128575  0.892566  1
  O  O23  1  0.197120  0.371425  0.107434  1
  O  O24  1  0.309742  0.074776  0.426133  1
  O  O25  1  0.987234  0.632058  0.191622  1
  O  O26  1  0.302880  0.871425  0.107434  1
  O  O27  1  0.690258  0.925224  0.573867  1
  O  O28  1  0.211912  0.762647  0.761413  1
  O  O29  1  0.711912  0.737353  0.238587  1
  O  O30  1  0.958646  0.821281  0.605108  1
  O  O31  1  0.012766  0.367942  0.808378  1
