# generated using pymatgen
data_Be3V6S
_symmetry_space_group_name_H-M   'P 1'
_cell_length_a   6.07489837
_cell_length_b   6.07489757
_cell_length_c   3.11002500
_cell_angle_alpha   90.00000000
_cell_angle_beta   90.00000000
_cell_angle_gamma   89.79124968
_symmetry_Int_Tables_number   1
_chemical_formula_structural   Be3V6S
_chemical_formula_sum   'Be3 V6 S1'
_cell_volume   114.77279919
_cell_formula_units_Z   1
loop_
 _symmetry_equiv_pos_site_id
 _symmetry_equiv_pos_as_xyz
  1  'x, y, z'
loop_
 _atom_site_type_symbol
 _atom_site_label
 _atom_site_symmetry_multiplicity
 _atom_site_fract_x
 _atom_site_fract_y
 _atom_site_fract_z
 _atom_site_occupancy
  Be  Be0  1  0.379857  0.117148  0.000000  1
  Be  Be1  1  0.617148  0.879857  0.000000  1
  Be  Be2  1  0.124240  0.624240  0.000000  1
  V  V3  1  0.000530  0.995430  0.000000  1
  V  V4  1  0.495430  0.500530  0.000000  1
  V  V5  1  0.676462  0.176462  0.500000  1
  V  V6  1  0.179553  0.324315  0.500000  1
  V  V7  1  0.824315  0.679553  0.500000  1
  V  V8  1  0.321621  0.821621  0.500000  1
  S  S9  1  0.880844  0.380844  0.000000  1
