# generated using pymatgen
data_Tb4Al24CuNi8
_symmetry_space_group_name_H-M   'P 1'
_cell_length_a   7.32346465
_cell_length_b   7.32532092
_cell_length_c   12.78202343
_cell_angle_alpha   84.58771519
_cell_angle_beta   100.98614254
_cell_angle_gamma   119.71955539
_symmetry_Int_Tables_number   1
_chemical_formula_structural   Tb4Al24CuNi8
_chemical_formula_sum   'Tb4 Al24 Cu1 Ni8'
_cell_volume   584.60271687
_cell_formula_units_Z   1
loop_
 _symmetry_equiv_pos_site_id
 _symmetry_equiv_pos_as_xyz
  1  'x, y, z'
loop_
 _atom_site_type_symbol
 _atom_site_label
 _atom_site_symmetry_multiplicity
 _atom_site_fract_x
 _atom_site_fract_y
 _atom_site_fract_z
 _atom_site_occupancy
  Tb  Tb0  1  0.437621  0.830211  0.805946  1
  Tb  Tb1  1  0.562740  0.168420  0.194711  1
  Tb  Tb2  1  0.766143  0.502069  0.805816  1
  Tb  Tb3  1  0.232397  0.497978  0.194127  1
  Al  Al4  1  0.485816  0.165909  0.948894  1
  Al  Al5  1  0.514933  0.833507  0.052038  1
  Al  Al6  1  0.016456  0.162500  0.557913  1
  Al  Al7  1  0.978835  0.833721  0.438162  1
  Al  Al8  1  0.351439  0.837836  0.556358  1
  Al  Al9  1  0.647013  0.166526  0.441363  1
  Al  Al10  1  0.618980  0.834666  0.336061  1
  Al  Al11  1  0.381102  0.161574  0.665613  1
  Al  Al12  1  0.051078  0.492498  0.665797  1
  Al  Al13  1  0.945234  0.506743  0.335732  1
  Al  Al14  1  0.735225  0.846253  0.664236  1
  Al  Al15  1  0.271019  0.159164  0.337072  1
  Al  Al16  1  0.148712  0.502846  0.948766  1
  Al  Al17  1  0.850550  0.497540  0.052025  1
  Al  Al18  1  0.818559  0.831473  0.961365  1
  Al  Al19  1  0.182261  0.168851  0.039733  1
  Al  Al20  1  0.312208  0.499833  0.438524  1
  Al  Al21  1  0.691070  0.500556  0.556332  1
  Al  Al22  1  0.106934  0.835982  0.184935  1
  Al  Al23  1  0.892508  0.164331  0.815592  1
  Al  Al24  1  0.309828  0.370676  0.816983  1
  Al  Al25  1  0.688627  0.626769  0.186399  1
  Al  Al26  1  0.103293  0.953601  0.815504  1
  Al  Al27  1  0.897473  0.045721  0.184755  1
  Cu  Cu28  1  0.388905  0.508658  0.638314  1
  Ni  Ni29  1  0.613212  0.493066  0.362789  1
  Ni  Ni30  1  0.170676  0.829442  0.999679  1
  Ni  Ni31  1  0.829317  0.170717  0.999768  1
  Ni  Ni32  1  0.294469  0.832788  0.362958  1
  Ni  Ni33  1  0.705493  0.167003  0.636698  1
  Ni  Ni34  1  0.046549  0.826142  0.636569  1
  Ni  Ni35  1  0.953379  0.174212  0.362550  1
  Ni  Ni36  1  0.499944  0.500224  0.999928  1
