# generated using pymatgen
data_YbTh7Ti8(Si4W)4
_symmetry_space_group_name_H-M   'P 1'
_cell_length_a   6.93240601
_cell_length_b   7.17325518
_cell_length_c   13.47522100
_cell_angle_alpha   89.89443025
_cell_angle_beta   89.85561996
_cell_angle_gamma   89.99860775
_symmetry_Int_Tables_number   1
_chemical_formula_structural   YbTh7Ti8(Si4W)4
_chemical_formula_sum   'Yb1 Th7 Ti8 Si16 W4'
_cell_volume   670.09141046
_cell_formula_units_Z   1
loop_
 _symmetry_equiv_pos_site_id
 _symmetry_equiv_pos_as_xyz
  1  'x, y, z'
loop_
 _atom_site_type_symbol
 _atom_site_label
 _atom_site_symmetry_multiplicity
 _atom_site_fract_x
 _atom_site_fract_y
 _atom_site_fract_z
 _atom_site_occupancy
  Yb  Yb0  1  0.998327  0.169541  0.096853  1
  Th  Th1  1  0.501569  0.331152  0.096770  1
  Th  Th2  1  0.000068  0.169167  0.402047  1
  Th  Th3  1  0.500463  0.668178  0.597196  1
  Th  Th4  1  0.999356  0.831152  0.904684  1
  Th  Th5  1  0.498978  0.668037  0.905067  1
  Th  Th6  1  0.001095  0.831591  0.597424  1
  Th  Th7  1  0.499039  0.329900  0.400674  1
  Ti  Ti8  1  0.834206  0.327092  0.626394  1
  Ti  Ti9  1  0.334426  0.174166  0.874556  1
  Ti  Ti10  1  0.169694  0.673864  0.125653  1
  Ti  Ti11  1  0.666692  0.828059  0.373107  1
  Ti  Ti12  1  0.164056  0.673059  0.373142  1
  Ti  Ti13  1  0.663563  0.824791  0.125309  1
  Ti  Ti14  1  0.832490  0.325809  0.875055  1
  Ti  Ti15  1  0.336004  0.173660  0.625965  1
  Si  Si16  1  0.660222  0.045420  0.545068  1
  Si  Si17  1  0.157651  0.452479  0.956436  1
  Si  Si18  1  0.335224  0.959587  0.047209  1
  Si  Si19  1  0.839917  0.545555  0.453692  1
  Si  Si20  1  0.340651  0.953804  0.453109  1
  Si  Si21  1  0.844108  0.540429  0.047404  1
  Si  Si22  1  0.657120  0.043881  0.955634  1
  Si  Si23  1  0.160347  0.454319  0.544732  1
  Si  Si24  1  0.539450  0.362269  0.750788  1
  Si  Si25  1  0.040184  0.138523  0.750990  1
  Si  Si26  1  0.459450  0.637995  0.250100  1
  Si  Si27  1  0.961505  0.865540  0.247058  1
  Si  Si28  1  0.808167  0.609186  0.751286  1
  Si  Si29  1  0.308320  0.890579  0.751199  1
  Si  Si30  1  0.188325  0.387290  0.246164  1
  Si  Si31  1  0.697636  0.109656  0.246846  1
  W  W32  1  0.666562  0.011178  0.751127  1
  W  W33  1  0.166995  0.488955  0.750275  1
  W  W34  1  0.335227  0.989939  0.249742  1
  W  W35  1  0.832913  0.514197  0.251246  1
