# generated using pymatgen
data_Nb4CuS8
_symmetry_space_group_name_H-M   'P 1'
_cell_length_a   6.73471900
_cell_length_b   6.73488836
_cell_length_c   12.27646900
_cell_angle_alpha   89.99978439
_cell_angle_beta   90.00041420
_cell_angle_gamma   120.00159791
_symmetry_Int_Tables_number   1
_chemical_formula_structural   Nb4CuS8
_chemical_formula_sum   'Nb8 Cu2 S16'
_cell_volume   482.22196818
_cell_formula_units_Z   2
loop_
 _symmetry_equiv_pos_site_id
 _symmetry_equiv_pos_as_xyz
  1  'x, y, z'
loop_
 _atom_site_type_symbol
 _atom_site_label
 _atom_site_symmetry_multiplicity
 _atom_site_fract_x
 _atom_site_fract_y
 _atom_site_fract_z
 _atom_site_occupancy
  Nb  Nb0  1  0.000012  0.999989  0.250031  1
  Nb  Nb1  1  0.999976  0.999984  0.749968  1
  Nb  Nb2  1  0.506253  0.012500  0.250025  1
  Nb  Nb3  1  0.987406  0.493674  0.250024  1
  Nb  Nb4  1  0.506278  0.493669  0.250024  1
  Nb  Nb5  1  0.493723  0.987448  0.749974  1
  Nb  Nb6  1  0.012445  0.506189  0.749974  1
  Nb  Nb7  1  0.493736  0.506198  0.749974  1
  Cu  Cu8  1  0.000401  0.000350  0.499822  1
  Cu  Cu9  1  0.000065  0.000581  0.000261  1
  S  S10  1  0.333295  0.666604  0.881289  1
  S  S11  1  0.666639  0.333270  0.118664  1
  S  S12  1  0.666635  0.333268  0.381325  1
  S  S13  1  0.333299  0.666607  0.618704  1
  S  S14  1  0.831547  0.663100  0.876071  1
  S  S15  1  0.336868  0.168405  0.876081  1
  S  S16  1  0.831529  0.168403  0.876095  1
  S  S17  1  0.168407  0.336816  0.123891  1
  S  S18  1  0.663165  0.831555  0.123892  1
  S  S19  1  0.168402  0.831544  0.123887  1
  S  S20  1  0.168391  0.336782  0.376103  1
  S  S21  1  0.663200  0.831571  0.376105  1
  S  S22  1  0.168377  0.831565  0.376115  1
  S  S23  1  0.831582  0.663162  0.623913  1
  S  S24  1  0.336817  0.168377  0.623897  1
  S  S25  1  0.831553  0.168386  0.623891  1
