# generated using pymatgen
data_Ac2In3AgRh2
_symmetry_space_group_name_H-M   'P 1'
_cell_length_a   5.44017232
_cell_length_b   5.44017342
_cell_length_c   8.65307700
_cell_angle_alpha   89.92782434
_cell_angle_beta   90.07217567
_cell_angle_gamma   133.58448037
_symmetry_Int_Tables_number   1
_chemical_formula_structural   Ac2In3AgRh2
_chemical_formula_sum   'Ac2 In3 Ag1 Rh2'
_cell_volume   185.50225802
_cell_formula_units_Z   1
loop_
 _symmetry_equiv_pos_site_id
 _symmetry_equiv_pos_as_xyz
  1  'x, y, z'
loop_
 _atom_site_type_symbol
 _atom_site_label
 _atom_site_symmetry_multiplicity
 _atom_site_fract_x
 _atom_site_fract_y
 _atom_site_fract_z
 _atom_site_occupancy
  Ac  Ac0  1  0.063391  0.936609  0.258036  1
  Ac  Ac1  1  0.939878  0.060122  0.738011  1
  In  In2  1  0.344584  0.655416  0.459158  1
  In  In3  1  0.650913  0.349087  0.948604  1
  In  In4  1  0.352610  0.647390  0.048468  1
  Ag  Ag5  1  0.641901  0.358099  0.542413  1
  Rh  Rh6  1  0.221842  0.778158  0.760433  1
  Rh  Rh7  1  0.784878  0.215122  0.244877  1
