# generated using pymatgen
data_U3TiSnSb4
_symmetry_space_group_name_H-M   'P 1'
_cell_length_a   9.14374100
_cell_length_b   9.14374162
_cell_length_c   6.12137800
_cell_angle_alpha   90.00000000
_cell_angle_beta   90.00000000
_cell_angle_gamma   119.99999413
_symmetry_Int_Tables_number   1
_chemical_formula_structural   U3TiSnSb4
_chemical_formula_sum   'U6 Ti2 Sn2 Sb8'
_cell_volume   443.22854002
_cell_formula_units_Z   2
loop_
 _symmetry_equiv_pos_site_id
 _symmetry_equiv_pos_as_xyz
  1  'x, y, z'
loop_
 _atom_site_type_symbol
 _atom_site_label
 _atom_site_symmetry_multiplicity
 _atom_site_fract_x
 _atom_site_fract_y
 _atom_site_fract_z
 _atom_site_occupancy
  U  U0  1  0.612280  0.000000  0.749191  1
  U  U1  1  0.387720  0.000000  0.250809  1
  U  U2  1  0.000000  0.612280  0.749191  1
  U  U3  1  0.000000  0.387720  0.250809  1
  U  U4  1  0.387720  0.387720  0.749191  1
  U  U5  1  0.612280  0.612280  0.250809  1
  Ti  Ti6  1  0.000000  0.000000  0.500000  1
  Ti  Ti7  1  0.000000  0.000000  0.000000  1
  Sn  Sn8  1  0.666667  0.333333  0.000000  1
  Sn  Sn9  1  0.333333  0.666667  0.000000  1
  Sb  Sb10  1  0.262945  0.000000  0.751739  1
  Sb  Sb11  1  0.737055  0.000000  0.248261  1
  Sb  Sb12  1  0.000000  0.262945  0.751739  1
  Sb  Sb13  1  0.000000  0.737055  0.248261  1
  Sb  Sb14  1  0.737055  0.737055  0.751739  1
  Sb  Sb15  1  0.262945  0.262945  0.248261  1
  Sb  Sb16  1  0.333333  0.666667  0.500000  1
  Sb  Sb17  1  0.666667  0.333333  0.500000  1
