# generated using pymatgen
data_Ho16MgAl3Pt4
_symmetry_space_group_name_H-M   'P 1'
_cell_length_a   9.63426710
_cell_length_b   9.57483358
_cell_length_c   9.57483400
_cell_angle_alpha   60.00000545
_cell_angle_beta   60.20386441
_cell_angle_gamma   60.20386114
_symmetry_Int_Tables_number   1
_chemical_formula_structural   Ho16MgAl3Pt4
_chemical_formula_sum   'Ho16 Mg1 Al3 Pt4'
_cell_volume   626.46609056
_cell_formula_units_Z   1
loop_
 _symmetry_equiv_pos_site_id
 _symmetry_equiv_pos_as_xyz
  1  'x, y, z'
loop_
 _atom_site_type_symbol
 _atom_site_label
 _atom_site_symmetry_multiplicity
 _atom_site_fract_x
 _atom_site_fract_y
 _atom_site_fract_z
 _atom_site_occupancy
  Ho  Ho0  1  0.353639  0.351726  0.351726  1
  Ho  Ho1  1  0.353639  0.351726  0.942910  1
  Ho  Ho2  1  0.353639  0.942910  0.351726  1
  Ho  Ho3  1  0.940551  0.353150  0.353150  1
  Ho  Ho4  1  0.806553  0.192994  0.192994  1
  Ho  Ho5  1  0.189082  0.811109  0.811109  1
  Ho  Ho6  1  0.189082  0.811109  0.188701  1
  Ho  Ho7  1  0.806553  0.192994  0.807459  1
  Ho  Ho8  1  0.189082  0.188701  0.811109  1
  Ho  Ho9  1  0.806553  0.807459  0.192994  1
  Ho  Ho10  1  0.930841  0.565059  0.565059  1
  Ho  Ho11  1  0.564111  0.936131  0.936131  1
  Ho  Ho12  1  0.564111  0.936131  0.563629  1
  Ho  Ho13  1  0.930841  0.565059  0.939041  1
  Ho  Ho14  1  0.564111  0.563629  0.936131  1
  Ho  Ho15  1  0.930841  0.939041  0.565059  1
  Mg  Mg16  1  0.271876  0.576042  0.576042  1
  Al  Al17  1  0.585224  0.576468  0.576468  1
  Al  Al18  1  0.585224  0.576468  0.261841  1
  Al  Al19  1  0.585224  0.261841  0.576468  1
  Pt  Pt20  1  0.142701  0.143548  0.143548  1
  Pt  Pt21  1  0.142701  0.143548  0.570204  1
  Pt  Pt22  1  0.142701  0.570204  0.143548  1
  Pt  Pt23  1  0.571124  0.142959  0.142959  1
