# generated using pymatgen
data_PrSm7(Lu3Si4)4
_symmetry_space_group_name_H-M   'P 1'
_cell_length_a   7.34815465
_cell_length_b   7.65143702
_cell_length_c   14.50339563
_cell_angle_alpha   90.04548823
_cell_angle_beta   90.02973556
_cell_angle_gamma   90.03802435
_symmetry_Int_Tables_number   1
_chemical_formula_structural   PrSm7(Lu3Si4)4
_chemical_formula_sum   'Pr1 Sm7 Lu12 Si16'
_cell_volume   815.43753640
_cell_formula_units_Z   1
loop_
 _symmetry_equiv_pos_site_id
 _symmetry_equiv_pos_as_xyz
  1  'x, y, z'
loop_
 _atom_site_type_symbol
 _atom_site_label
 _atom_site_symmetry_multiplicity
 _atom_site_fract_x
 _atom_site_fract_y
 _atom_site_fract_z
 _atom_site_occupancy
  Pr  Pr0  1  0.013695  0.174735  0.097161  1
  Sm  Sm1  1  0.985704  0.824194  0.901830  1
  Sm  Sm2  1  0.486095  0.675723  0.901921  1
  Sm  Sm3  1  0.985821  0.824237  0.597826  1
  Sm  Sm4  1  0.513933  0.324707  0.097781  1
  Sm  Sm5  1  0.014161  0.175738  0.402053  1
  Sm  Sm6  1  0.514282  0.324358  0.402451  1
  Sm  Sm7  1  0.485742  0.675602  0.597755  1
  Lu  Lu8  1  0.161315  0.507902  0.749965  1
  Lu  Lu9  1  0.838311  0.492422  0.250401  1
  Lu  Lu10  1  0.339003  0.007777  0.250240  1
  Lu  Lu11  1  0.661363  0.991841  0.750032  1
  Lu  Lu12  1  0.329148  0.177370  0.623833  1
  Lu  Lu13  1  0.670892  0.822725  0.376402  1
  Lu  Lu14  1  0.170870  0.677315  0.376393  1
  Lu  Lu15  1  0.670698  0.822161  0.123868  1
  Lu  Lu16  1  0.829062  0.322560  0.623834  1
  Lu  Lu17  1  0.329311  0.177348  0.875977  1
  Lu  Lu18  1  0.828708  0.323242  0.876161  1
  Lu  Lu19  1  0.171154  0.676972  0.123753  1
  Si  Si20  1  0.034305  0.115138  0.749939  1
  Si  Si21  1  0.965467  0.883457  0.250590  1
  Si  Si22  1  0.465587  0.614978  0.250046  1
  Si  Si23  1  0.534256  0.384818  0.749875  1
  Si  Si24  1  0.282574  0.875054  0.749955  1
  Si  Si25  1  0.715854  0.124537  0.250971  1
  Si  Si26  1  0.218712  0.376355  0.250814  1
  Si  Si27  1  0.782540  0.625012  0.750015  1
  Si  Si28  1  0.155913  0.466454  0.539178  1
  Si  Si29  1  0.844156  0.533580  0.460857  1
  Si  Si30  1  0.343828  0.966455  0.460918  1
  Si  Si31  1  0.843165  0.535149  0.038662  1
  Si  Si32  1  0.655994  0.033526  0.539151  1
  Si  Si33  1  0.156734  0.468087  0.960202  1
  Si  Si34  1  0.655166  0.033249  0.960612  1
  Si  Si35  1  0.346482  0.965223  0.038578  1
