# generated using pymatgen
data_TbY2Hf(Al3Ir)6
_symmetry_space_group_name_H-M   'P 1'
_cell_length_a   7.54387001
_cell_length_b   7.53422695
_cell_length_c   9.42084500
_cell_angle_alpha   90.00000000
_cell_angle_beta   90.00000000
_cell_angle_gamma   119.59439050
_symmetry_Int_Tables_number   1
_chemical_formula_structural   TbY2Hf(Al3Ir)6
_chemical_formula_sum   'Tb1 Y2 Hf1 Al18 Ir6'
_cell_volume   465.60105771
_cell_formula_units_Z   1
loop_
 _symmetry_equiv_pos_site_id
 _symmetry_equiv_pos_as_xyz
  1  'x, y, z'
loop_
 _atom_site_type_symbol
 _atom_site_label
 _atom_site_symmetry_multiplicity
 _atom_site_fract_x
 _atom_site_fract_y
 _atom_site_fract_z
 _atom_site_occupancy
  Tb  Tb0  1  0.005593  0.327757  0.750000  1
  Y  Y1  1  0.671151  0.995500  0.250000  1
  Y  Y2  1  0.329257  0.006339  0.750000  1
  Hf  Hf3  1  0.997170  0.672989  0.250000  1
  Al  Al4  1  0.126434  0.123417  0.250000  1
  Al  Al5  1  0.870873  0.869651  0.750000  1
  Al  Al6  1  0.000312  0.338143  0.079041  1
  Al  Al7  1  0.999215  0.665022  0.929533  1
  Al  Al8  1  0.999215  0.665022  0.570467  1
  Al  Al9  1  0.332302  0.997990  0.420872  1
  Al  Al10  1  0.000312  0.338143  0.420959  1
  Al  Al11  1  0.664640  0.998280  0.574312  1
  Al  Al12  1  0.664640  0.998280  0.925688  1
  Al  Al13  1  0.332302  0.997990  0.079128  1
  Al  Al14  1  0.333688  0.333735  0.550413  1
  Al  Al15  1  0.668884  0.666608  0.443580  1
  Al  Al16  1  0.668884  0.666608  0.056420  1
  Al  Al17  1  0.333688  0.333735  0.949587  1
  Al  Al18  1  0.335498  0.548984  0.250000  1
  Al  Al19  1  0.660808  0.452518  0.750000  1
  Al  Al20  1  0.555055  0.344949  0.250000  1
  Al  Al21  1  0.451235  0.659718  0.750000  1
  Ir  Ir22  1  0.672633  0.328626  0.001193  1
  Ir  Ir23  1  0.327515  0.672116  0.001891  1
  Ir  Ir24  1  0.327515  0.672116  0.498109  1
  Ir  Ir25  1  0.672633  0.328626  0.498807  1
  Ir  Ir26  1  0.999274  0.998570  0.001479  1
  Ir  Ir27  1  0.999274  0.998570  0.498521  1
