# generated using pymatgen
data_Tb2Er3Co19(Si5P)2
_symmetry_space_group_name_H-M   'P 1'
_cell_length_a   12.08926900
_cell_length_b   12.13709217
_cell_length_c   3.70506300
_cell_angle_alpha   90.00000000
_cell_angle_beta   90.00000000
_cell_angle_gamma   119.86974570
_symmetry_Int_Tables_number   1
_chemical_formula_structural   Tb2Er3Co19(Si5P)2
_chemical_formula_sum   'Tb2 Er3 Co19 Si10 P2'
_cell_volume   471.42156881
_cell_formula_units_Z   1
loop_
 _symmetry_equiv_pos_site_id
 _symmetry_equiv_pos_as_xyz
  1  'x, y, z'
loop_
 _atom_site_type_symbol
 _atom_site_label
 _atom_site_symmetry_multiplicity
 _atom_site_fract_x
 _atom_site_fract_y
 _atom_site_fract_z
 _atom_site_occupancy
  Tb  Tb0  1  0.332717  0.666055  0.000000  1
  Tb  Tb1  1  0.666662  0.333945  0.000000  1
  Er  Er2  1  0.185240  0.000000  0.500000  1
  Er  Er3  1  0.000739  0.185774  0.500000  1
  Er  Er4  1  0.814965  0.814226  0.500000  1
  Co  Co5  1  0.196847  0.372560  0.000000  1
  Co  Co6  1  0.623502  0.820070  0.000000  1
  Co  Co7  1  0.175999  0.803555  0.000000  1
  Co  Co8  1  0.824286  0.627440  0.000000  1
  Co  Co9  1  0.803432  0.179930  0.000000  1
  Co  Co10  1  0.372444  0.196445  0.000000  1
  Co  Co11  1  0.558521  0.000000  0.000000  1
  Co  Co12  1  0.000809  0.558834  0.000000  1
  Co  Co13  1  0.441975  0.441166  0.000000  1
  Co  Co14  1  0.123364  0.478626  0.500000  1
  Co  Co15  1  0.521083  0.643067  0.500000  1
  Co  Co16  1  0.355158  0.876967  0.500000  1
  Co  Co17  1  0.644739  0.521374  0.500000  1
  Co  Co18  1  0.878016  0.356933  0.500000  1
  Co  Co19  1  0.478191  0.123033  0.500000  1
  Co  Co20  1  0.719104  0.000000  0.500000  1
  Co  Co21  1  0.999976  0.723019  0.500000  1
  Co  Co22  1  0.276958  0.276981  0.500000  1
  Co  Co23  1  0.004158  0.000000  0.000000  1
  Si  Si24  1  0.370247  0.000000  0.000000  1
  Si  Si25  1  0.000466  0.370479  0.000000  1
  Si  Si26  1  0.629987  0.629521  0.000000  1
  Si  Si27  1  0.318109  0.476965  0.500000  1
  Si  Si28  1  0.522023  0.839398  0.500000  1
  Si  Si29  1  0.159494  0.682090  0.500000  1
  Si  Si30  1  0.841144  0.523035  0.500000  1
  Si  Si31  1  0.682625  0.160602  0.500000  1
  Si  Si32  1  0.477404  0.317910  0.500000  1
  Si  Si33  1  0.818210  0.000000  0.000000  1
  P  P34  1  0.999894  0.818381  0.000000  1
  P  P35  1  0.181514  0.181619  0.000000  1
