# generated using pymatgen
data_Tb5Dy3Sc8(Ga3Co)2
_symmetry_space_group_name_H-M   'P 1'
_cell_length_a   9.56358800
_cell_length_b   9.56358700
_cell_length_c   6.94984300
_cell_angle_alpha   90.00000000
_cell_angle_beta   90.00000000
_cell_angle_gamma   120.00000347
_symmetry_Int_Tables_number   1
_chemical_formula_structural   Tb5Dy3Sc8(Ga3Co)2
_chemical_formula_sum   'Tb5 Dy3 Sc8 Ga6 Co2'
_cell_volume   550.48727146
_cell_formula_units_Z   1
loop_
 _symmetry_equiv_pos_site_id
 _symmetry_equiv_pos_as_xyz
  1  'x, y, z'
loop_
 _atom_site_type_symbol
 _atom_site_label
 _atom_site_symmetry_multiplicity
 _atom_site_fract_x
 _atom_site_fract_y
 _atom_site_fract_z
 _atom_site_occupancy
  Tb  Tb0  1  0.465768  0.931538  0.286989  1
  Tb  Tb1  1  0.068462  0.534232  0.286989  1
  Tb  Tb2  1  0.465768  0.534232  0.286989  1
  Tb  Tb3  1  0.000000  0.000000  0.772752  1
  Tb  Tb4  1  0.000000  0.000000  0.272379  1
  Dy  Dy5  1  0.534610  0.069216  0.787489  1
  Dy  Dy6  1  0.930784  0.465390  0.787489  1
  Dy  Dy7  1  0.534610  0.465390  0.787489  1
  Sc  Sc8  1  0.825244  0.650489  0.485484  1
  Sc  Sc9  1  0.349511  0.174756  0.485484  1
  Sc  Sc10  1  0.825244  0.174756  0.485484  1
  Sc  Sc11  1  0.174769  0.349540  0.984063  1
  Sc  Sc12  1  0.650460  0.825231  0.984063  1
  Sc  Sc13  1  0.174769  0.825231  0.984063  1
  Sc  Sc14  1  0.666667  0.333333  0.177031  1
  Sc  Sc15  1  0.333333  0.666667  0.677431  1
  Ga  Ga16  1  0.835724  0.671448  0.052222  1
  Ga  Ga17  1  0.328552  0.164276  0.052222  1
  Ga  Ga18  1  0.835724  0.164276  0.052222  1
  Ga  Ga19  1  0.164230  0.328460  0.552999  1
  Ga  Ga20  1  0.671540  0.835770  0.552999  1
  Ga  Ga21  1  0.164230  0.835770  0.552999  1
  Co  Co22  1  0.666667  0.333333  0.539796  1
  Co  Co23  1  0.333333  0.666667  0.038951  1
