# generated using pymatgen
data_Ho6Er6Ir3Pd
_symmetry_space_group_name_H-M   'P 1'
_cell_length_a   6.38732570
_cell_length_b   7.16650469
_cell_length_c   9.22365180
_cell_angle_alpha   90.00202390
_cell_angle_beta   90.04779961
_cell_angle_gamma   90.05140764
_symmetry_Int_Tables_number   1
_chemical_formula_structural   Ho6Er6Ir3Pd
_chemical_formula_sum   'Ho6 Er6 Ir3 Pd1'
_cell_volume   422.21049549
_cell_formula_units_Z   1
loop_
 _symmetry_equiv_pos_site_id
 _symmetry_equiv_pos_as_xyz
  1  'x, y, z'
loop_
 _atom_site_type_symbol
 _atom_site_label
 _atom_site_symmetry_multiplicity
 _atom_site_fract_x
 _atom_site_fract_y
 _atom_site_fract_z
 _atom_site_occupancy
  Ho  Ho0  1  0.333504  0.675991  0.059156  1
  Ho  Ho1  1  0.173847  0.184422  0.440959  1
  Ho  Ho2  1  0.865246  0.524898  0.250056  1
  Ho  Ho3  1  0.625229  0.036483  0.249960  1
  Ho  Ho4  1  0.127526  0.467664  0.749986  1
  Ho  Ho5  1  0.370756  0.966131  0.750012  1
  Er  Er6  1  0.674415  0.319862  0.563010  1
  Er  Er7  1  0.823750  0.821254  0.935204  1
  Er  Er8  1  0.674484  0.319743  0.937021  1
  Er  Er9  1  0.823706  0.821148  0.564773  1
  Er  Er10  1  0.333688  0.675874  0.440809  1
  Er  Er11  1  0.173815  0.184296  0.059059  1
  Ir  Ir12  1  0.450047  0.384721  0.250008  1
  Ir  Ir13  1  0.955757  0.115625  0.750154  1
  Ir  Ir14  1  0.543442  0.615162  0.749857  1
  Pd  Pd15  1  0.050787  0.886726  0.249976  1
