# generated using pymatgen
data_Ho7Er(MoO6)4
_symmetry_space_group_name_H-M   'P 1'
_cell_length_a   5.35546600
_cell_length_b   7.66667426
_cell_length_c   11.41644354
_cell_angle_alpha   75.42654690
_cell_angle_beta   90.00000000
_cell_angle_gamma   90.00000000
_symmetry_Int_Tables_number   1
_chemical_formula_structural   Ho7Er(MoO6)4
_chemical_formula_sum   'Ho7 Er1 Mo4 O24'
_cell_volume   453.66192592
_cell_formula_units_Z   1
loop_
 _symmetry_equiv_pos_site_id
 _symmetry_equiv_pos_as_xyz
  1  'x, y, z'
loop_
 _atom_site_type_symbol
 _atom_site_label
 _atom_site_symmetry_multiplicity
 _atom_site_fract_x
 _atom_site_fract_y
 _atom_site_fract_z
 _atom_site_occupancy
  Ho  Ho0  1  0.736951  0.000000  0.750000  1
  Ho  Ho1  1  0.263016  0.000000  0.250000  1
  Ho  Ho2  1  0.185957  0.798489  0.578799  1
  Ho  Ho3  1  0.813913  0.798712  0.078655  1
  Ho  Ho4  1  0.318562  0.500000  0.250000  1
  Ho  Ho5  1  0.185957  0.201511  0.921201  1
  Ho  Ho6  1  0.813913  0.201288  0.421345  1
  Er  Er7  1  0.681097  0.500000  0.750000  1
  Mo  Mo8  1  0.253772  0.719967  0.887304  1
  Mo  Mo9  1  0.746287  0.720083  0.387533  1
  Mo  Mo10  1  0.253772  0.280033  0.612696  1
  Mo  Mo11  1  0.746287  0.279917  0.112467  1
  O  O12  1  0.034771  0.938798  0.896476  1
  O  O13  1  0.524280  0.850822  0.930467  1
  O  O14  1  0.965274  0.938679  0.396625  1
  O  O15  1  0.466138  0.785340  0.726617  1
  O  O16  1  0.475532  0.850786  0.430531  1
  O  O17  1  0.983976  0.709096  0.770633  1
  O  O18  1  0.534233  0.785792  0.226650  1
  O  O19  1  0.848962  0.632684  0.549461  1
  O  O20  1  0.361101  0.488979  0.887562  1
  O  O21  1  0.015361  0.709651  0.270575  1
  O  O22  1  0.361101  0.511021  0.612438  1
  O  O23  1  0.848962  0.367316  0.950539  1
  O  O24  1  0.150762  0.632756  0.049040  1
  O  O25  1  0.639867  0.488941  0.387881  1
  O  O26  1  0.983976  0.290904  0.729367  1
  O  O27  1  0.639867  0.511059  0.112119  1
  O  O28  1  0.150762  0.367244  0.450960  1
  O  O29  1  0.466138  0.214660  0.773383  1
  O  O30  1  0.015361  0.290349  0.229425  1
  O  O31  1  0.524280  0.149178  0.569533  1
  O  O32  1  0.534233  0.214208  0.273350  1
  O  O33  1  0.034771  0.061202  0.603524  1
  O  O34  1  0.475532  0.149214  0.069469  1
  O  O35  1  0.965274  0.061321  0.103375  1
