# generated using pymatgen
data_Dy3Er8Tm9(CoBi2)4
_symmetry_space_group_name_H-M   'P 1'
_cell_length_a   7.90750156
_cell_length_b   8.87132300
_cell_length_c   12.36559258
_cell_angle_alpha   90.00000000
_cell_angle_beta   89.92493078
_cell_angle_gamma   90.00000000
_symmetry_Int_Tables_number   1
_chemical_formula_structural   Dy3Er8Tm9(CoBi2)4
_chemical_formula_sum   'Dy3 Er8 Tm9 Co4 Bi8'
_cell_volume   867.44558073
_cell_formula_units_Z   1
loop_
 _symmetry_equiv_pos_site_id
 _symmetry_equiv_pos_as_xyz
  1  'x, y, z'
loop_
 _atom_site_type_symbol
 _atom_site_label
 _atom_site_symmetry_multiplicity
 _atom_site_fract_x
 _atom_site_fract_y
 _atom_site_fract_z
 _atom_site_occupancy
  Dy  Dy0  1  0.846582  0.750000  0.199876  1
  Dy  Dy1  1  0.119240  0.750000  0.813380  1
  Dy  Dy2  1  0.380045  0.750000  0.313070  1
  Er  Er3  1  0.346633  0.250000  0.300616  1
  Er  Er4  1  0.153603  0.250000  0.800205  1
  Er  Er5  1  0.881045  0.250000  0.186211  1
  Er  Er6  1  0.618889  0.250000  0.686248  1
  Er  Er7  1  0.554147  0.750000  0.996822  1
  Er  Er8  1  0.446110  0.250000  0.002583  1
  Er  Er9  1  0.054426  0.250000  0.502923  1
  Er  Er10  1  0.945187  0.750000  0.497543  1
  Tm  Tm11  1  0.653022  0.750000  0.698974  1
  Tm  Tm12  1  0.826552  0.462511  0.936075  1
  Tm  Tm13  1  0.173406  0.536249  0.063906  1
  Tm  Tm14  1  0.326998  0.537017  0.564228  1
  Tm  Tm15  1  0.173406  0.963751  0.063906  1
  Tm  Tm16  1  0.673332  0.462674  0.436392  1
  Tm  Tm17  1  0.826552  0.037489  0.936075  1
  Tm  Tm18  1  0.673332  0.037326  0.436392  1
  Tm  Tm19  1  0.326998  0.962983  0.564228  1
  Co  Co20  1  0.936236  0.750000  0.993160  1
  Co  Co21  1  0.063845  0.250000  0.006927  1
  Co  Co22  1  0.436353  0.250000  0.507129  1
  Co  Co23  1  0.564193  0.750000  0.493531  1
  Bi  Bi24  1  0.931655  0.007931  0.673140  1
  Bi  Bi25  1  0.067690  0.992984  0.327100  1
  Bi  Bi26  1  0.433133  0.992176  0.826642  1
  Bi  Bi27  1  0.067690  0.507016  0.327100  1
  Bi  Bi28  1  0.567455  0.008613  0.172916  1
  Bi  Bi29  1  0.931655  0.492069  0.673140  1
  Bi  Bi30  1  0.567455  0.491387  0.172916  1
  Bi  Bi31  1  0.433133  0.507824  0.826642  1
