# generated using pymatgen
data_Mn7TlCrO16
_symmetry_space_group_name_H-M   'P 1'
_cell_length_a   5.88941898
_cell_length_b   7.12181118
_cell_length_c   7.17625400
_cell_angle_alpha   87.84495419
_cell_angle_beta   78.17333266
_cell_angle_gamma   78.15699017
_symmetry_Int_Tables_number   1
_chemical_formula_structural   Mn7TlCrO16
_chemical_formula_sum   'Mn7 Tl1 Cr1 O16'
_cell_volume   288.33224455
_cell_formula_units_Z   1
loop_
 _symmetry_equiv_pos_site_id
 _symmetry_equiv_pos_as_xyz
  1  'x, y, z'
loop_
 _atom_site_type_symbol
 _atom_site_label
 _atom_site_symmetry_multiplicity
 _atom_site_fract_x
 _atom_site_fract_y
 _atom_site_fract_z
 _atom_site_occupancy
  Mn  Mn0  1  0.080529  0.511327  0.182358  1
  Mn  Mn1  1  0.171227  0.817349  0.516526  1
  Mn  Mn2  1  0.668345  0.818884  0.519319  1
  Mn  Mn3  1  0.336286  0.184757  0.481901  1
  Mn  Mn4  1  0.837460  0.183876  0.486037  1
  Mn  Mn5  1  0.428700  0.484826  0.818569  1
  Mn  Mn6  1  0.926737  0.488327  0.818719  1
  Tl  Tl7  1  0.010899  0.997912  0.000757  1
  Cr  Cr8  1  0.579538  0.515411  0.183528  1
  O  O9  1  0.841110  0.642487  0.046362  1
  O  O10  1  0.323546  0.641178  0.045976  1
  O  O11  1  0.981469  0.707057  0.379394  1
  O  O12  1  0.480799  0.712025  0.383365  1
  O  O13  1  0.855721  0.953191  0.643506  1
  O  O14  1  0.353603  0.954844  0.643589  1
  O  O15  1  0.332894  0.370478  0.289501  1
  O  O16  1  0.845515  0.368601  0.289417  1
  O  O17  1  0.171289  0.624638  0.708805  1
  O  O18  1  0.668916  0.626635  0.711992  1
  O  O19  1  0.151292  0.045933  0.359986  1
  O  O20  1  0.653114  0.047177  0.360494  1
  O  O21  1  0.026306  0.292804  0.621981  1
  O  O22  1  0.525054  0.296816  0.616505  1
  O  O23  1  0.176583  0.356105  0.948515  1
  O  O24  1  0.680166  0.357364  0.942885  1
