# generated using pymatgen
data_NdTmZr4(SnRh)6
_symmetry_space_group_name_H-M   'P 1'
_cell_length_a   7.51761893
_cell_length_b   7.51664644
_cell_length_c   7.41366400
_cell_angle_alpha   90.00000000
_cell_angle_beta   90.00000000
_cell_angle_gamma   119.96767422
_symmetry_Int_Tables_number   1
_chemical_formula_structural   NdTmZr4(SnRh)6
_chemical_formula_sum   'Nd1 Tm1 Zr4 Sn6 Rh6'
_cell_volume   362.91868962
_cell_formula_units_Z   1
loop_
 _symmetry_equiv_pos_site_id
 _symmetry_equiv_pos_as_xyz
  1  'x, y, z'
loop_
 _atom_site_type_symbol
 _atom_site_label
 _atom_site_symmetry_multiplicity
 _atom_site_fract_x
 _atom_site_fract_y
 _atom_site_fract_z
 _atom_site_occupancy
  Nd  Nd0  1  0.408985  0.404762  0.250000  1
  Tm  Tm1  1  0.595458  0.998512  0.250000  1
  Zr  Zr2  1  0.609931  0.004565  0.750000  1
  Zr  Zr3  1  0.388070  0.394931  0.750000  1
  Zr  Zr4  1  0.000987  0.602134  0.750000  1
  Zr  Zr5  1  0.005454  0.603380  0.250000  1
  Sn  Sn6  1  0.266555  0.998499  0.991269  1
  Sn  Sn7  1  0.735053  0.733800  0.511839  1
  Sn  Sn8  1  0.996902  0.266930  0.494820  1
  Sn  Sn9  1  0.996902  0.266930  0.005180  1
  Sn  Sn10  1  0.735053  0.733800  0.988161  1
  Sn  Sn11  1  0.266555  0.998499  0.508731  1
  Rh  Rh12  1  0.670629  0.334951  0.968811  1
  Rh  Rh13  1  0.670629  0.334951  0.531189  1
  Rh  Rh14  1  0.328067  0.666819  0.972431  1
  Rh  Rh15  1  0.328067  0.666819  0.527569  1
  Rh  Rh16  1  0.001347  0.007252  0.750000  1
  Rh  Rh17  1  0.995356  0.982466  0.250000  1
