# generated using pymatgen
data_CsNa3Zr6CBr18
_symmetry_space_group_name_H-M   'P 1'
_cell_length_a   10.38783345
_cell_length_b   10.39397595
_cell_length_c   10.46234164
_cell_angle_alpha   119.35991426
_cell_angle_beta   101.39881247
_cell_angle_gamma   100.61805257
_symmetry_Int_Tables_number   1
_chemical_formula_structural   CsNa3Zr6CBr18
_chemical_formula_sum   'Cs1 Na3 Zr6 C1 Br18'
_cell_volume   911.35827365
_cell_formula_units_Z   1
loop_
 _symmetry_equiv_pos_site_id
 _symmetry_equiv_pos_as_xyz
  1  'x, y, z'
loop_
 _atom_site_type_symbol
 _atom_site_label
 _atom_site_symmetry_multiplicity
 _atom_site_fract_x
 _atom_site_fract_y
 _atom_site_fract_z
 _atom_site_occupancy
  Cs  Cs0  1  0.178248  0.723348  0.546437  1
  Na  Na1  1  0.873124  0.973641  0.792057  1
  Na  Na2  1  0.115350  0.030515  0.203480  1
  Na  Na3  1  0.855224  0.277496  0.464517  1
  Zr  Zr4  1  0.353015  0.437297  0.766115  1
  Zr  Zr5  1  0.369842  0.645889  0.130116  1
  Zr  Zr6  1  0.642270  0.723263  0.034865  1
  Zr  Zr7  1  0.645779  0.557481  0.234068  1
  Zr  Zr8  1  0.358941  0.278904  0.968701  1
  Zr  Zr9  1  0.631939  0.358682  0.867601  1
  C  C10  1  0.500995  0.500369  0.000731  1
  Br  Br11  1  0.818911  0.405279  0.117655  1
  Br  Br12  1  0.517749  0.732681  0.419274  1
  Br  Br13  1  0.168779  0.007213  0.928731  1
  Br  Br14  1  0.181857  0.593037  0.877389  1
  Br  Br15  1  0.830452  0.824760  0.311352  1
  Br  Br16  1  0.504507  0.309881  0.229431  1
  Br  Br17  1  0.794155  0.187538  0.697219  1
  Br  Br18  1  0.171066  0.170074  0.693023  1
  Br  Br19  1  0.516403  0.922981  0.189478  1
  Br  Br20  1  0.813330  0.596218  0.890566  1
  Br  Br21  1  0.209339  0.826040  0.279281  1
  Br  Br22  1  0.149672  0.342132  0.471191  1
  Br  Br23  1  0.493906  0.685061  0.767941  1
  Br  Br24  1  0.822419  0.006386  0.085458  1
  Br  Br25  1  0.481038  0.268722  0.579917  1
  Br  Br26  1  0.188761  0.412272  0.113830  1
  Br  Br27  1  0.821623  0.621062  0.524410  1
  Br  Br28  1  0.491307  0.081777  0.815167  1
