# generated using pymatgen
data_HoEr7Tc2(OsC4)2
_symmetry_space_group_name_H-M   'P 1'
_cell_length_a   5.05698700
_cell_length_b   6.49350071
_cell_length_c   9.74535706
_cell_angle_alpha   89.63327223
_cell_angle_beta   90.00000000
_cell_angle_gamma   90.00000000
_symmetry_Int_Tables_number   1
_chemical_formula_structural   HoEr7Tc2(OsC4)2
_chemical_formula_sum   'Ho1 Er7 Tc2 Os2 C8'
_cell_volume   320.00708151
_cell_formula_units_Z   1
loop_
 _symmetry_equiv_pos_site_id
 _symmetry_equiv_pos_as_xyz
  1  'x, y, z'
loop_
 _atom_site_type_symbol
 _atom_site_label
 _atom_site_symmetry_multiplicity
 _atom_site_fract_x
 _atom_site_fract_y
 _atom_site_fract_z
 _atom_site_occupancy
  Ho  Ho0  1  0.250000  0.029226  0.285101  1
  Er  Er1  1  0.250000  0.678821  0.556107  1
  Er  Er2  1  0.750000  0.321321  0.444040  1
  Er  Er3  1  0.750000  0.822256  0.056132  1
  Er  Er4  1  0.250000  0.177577  0.943703  1
  Er  Er5  1  0.250000  0.531016  0.217102  1
  Er  Er6  1  0.750000  0.468886  0.782774  1
  Er  Er7  1  0.750000  0.970772  0.715194  1
  Tc  Tc8  1  0.250000  0.720866  0.866779  1
  Tc  Tc9  1  0.750000  0.279104  0.133031  1
  Os  Os10  1  0.750000  0.777366  0.366430  1
  Os  Os11  1  0.250000  0.222480  0.633671  1
  C  C12  1  0.250000  0.455210  0.758491  1
  C  C13  1  0.750000  0.544649  0.241548  1
  C  C14  1  0.750000  0.043758  0.259002  1
  C  C15  1  0.250000  0.956125  0.740817  1
  C  C16  1  0.250000  0.824032  0.052965  1
  C  C17  1  0.750000  0.175667  0.946765  1
  C  C18  1  0.750000  0.674431  0.553474  1
  C  C19  1  0.250000  0.326439  0.446874  1
