# generated using pymatgen
data_La2ErSi6Pd19Pt
_symmetry_space_group_name_H-M   'P 1'
_cell_length_a   8.78098981
_cell_length_b   8.77207601
_cell_length_c   8.77207702
_cell_angle_alpha   59.87837788
_cell_angle_beta   59.96638759
_cell_angle_gamma   59.96638577
_symmetry_Int_Tables_number   1
_chemical_formula_structural   La2ErSi6Pd19Pt
_chemical_formula_sum   'La2 Er1 Si6 Pd19 Pt1'
_cell_volume   477.10293682
_cell_formula_units_Z   1
loop_
 _symmetry_equiv_pos_site_id
 _symmetry_equiv_pos_as_xyz
  1  'x, y, z'
loop_
 _atom_site_type_symbol
 _atom_site_label
 _atom_site_symmetry_multiplicity
 _atom_site_fract_x
 _atom_site_fract_y
 _atom_site_fract_z
 _atom_site_occupancy
  La  La0  1  0.250174  0.249604  0.249604  1
  La  La1  1  0.749382  0.750396  0.750396  1
  Er  Er2  1  0.001475  0.000000  0.000000  1
  Si  Si3  1  0.733056  0.266607  0.266607  1
  Si  Si4  1  0.266272  0.733393  0.733393  1
  Si  Si5  1  0.266109  0.734825  0.265175  1
  Si  Si6  1  0.734215  0.266527  0.733473  1
  Si  Si7  1  0.266109  0.265175  0.734825  1
  Si  Si8  1  0.734215  0.733473  0.266527  1
  Pd  Pd9  1  0.655058  0.000000  0.000000  1
  Pd  Pd10  1  0.000417  0.344596  0.655404  1
  Pd  Pd11  1  0.000417  0.655404  0.344596  1
  Pd  Pd12  1  0.998464  0.345910  0.000930  1
  Pd  Pd13  1  0.655117  0.000504  0.343628  1
  Pd  Pd14  1  0.999250  0.656372  0.999496  1
  Pd  Pd15  1  0.345304  0.999070  0.654090  1
  Pd  Pd16  1  0.998464  0.000930  0.345910  1
  Pd  Pd17  1  0.999250  0.999496  0.656372  1
  Pd  Pd18  1  0.655117  0.343628  0.000504  1
  Pd  Pd19  1  0.345304  0.654090  0.999070  1
  Pd  Pd20  1  0.385122  0.385545  0.385545  1
  Pd  Pd21  1  0.615232  0.614509  0.614509  1
  Pd  Pd22  1  0.385910  0.386165  0.842951  1
  Pd  Pd23  1  0.385910  0.842951  0.386165  1
  Pd  Pd24  1  0.615025  0.613835  0.157049  1
  Pd  Pd25  1  0.615025  0.157049  0.613835  1
  Pd  Pd26  1  0.844252  0.385491  0.385491  1
  Pd  Pd27  1  0.156209  0.614455  0.614455  1
  Pt  Pt28  1  0.344142  0.000000  0.000000  1
