# generated using pymatgen
data_Y2Cr2Co10As7
_symmetry_space_group_name_H-M   'P 1'
_cell_length_a   3.74845900
_cell_length_b   9.38476103
_cell_length_c   9.40576137
_cell_angle_alpha   119.97714859
_cell_angle_beta   90.00000000
_cell_angle_gamma   90.00000000
_symmetry_Int_Tables_number   1
_chemical_formula_structural   Y2Cr2Co10As7
_chemical_formula_sum   'Y2 Cr2 Co10 As7'
_cell_volume   286.61606426
_cell_formula_units_Z   1
loop_
 _symmetry_equiv_pos_site_id
 _symmetry_equiv_pos_as_xyz
  1  'x, y, z'
loop_
 _atom_site_type_symbol
 _atom_site_label
 _atom_site_symmetry_multiplicity
 _atom_site_fract_x
 _atom_site_fract_y
 _atom_site_fract_z
 _atom_site_occupancy
  Y  Y0  1  0.000000  0.670622  0.337164  1
  Y  Y1  1  0.500000  0.332335  0.666733  1
  Cr  Cr2  1  0.500000  0.775150  0.892603  1
  Cr  Cr3  1  0.500000  0.120345  0.223842  1
  Co  Co4  1  0.000000  0.569157  0.941604  1
  Co  Co5  1  0.000000  0.371275  0.430848  1
  Co  Co6  1  0.000000  0.058085  0.627898  1
  Co  Co7  1  0.500000  0.097091  0.879052  1
  Co  Co8  1  0.000000  0.879475  0.156421  1
  Co  Co9  1  0.000000  0.280781  0.121684  1
  Co  Co10  1  0.000000  0.842326  0.721737  1
  Co  Co11  1  0.500000  0.948451  0.381795  1
  Co  Co12  1  0.500000  0.432451  0.048753  1
  Co  Co13  1  0.500000  0.618273  0.566270  1
  As  As14  1  0.000000  0.002325  0.999037  1
  As  As15  1  0.500000  0.707895  0.116751  1
  As  As16  1  0.500000  0.410970  0.291759  1
  As  As17  1  0.500000  0.887900  0.596542  1
  As  As18  1  0.000000  0.586459  0.701615  1
  As  As19  1  0.000000  0.114056  0.412805  1
  As  As20  1  0.000000  0.294575  0.885087  1
