# generated using pymatgen
data_Li4Pr4PtRh3
_symmetry_space_group_name_H-M   'P 1'
_cell_length_a   4.09542300
_cell_length_b   7.17508249
_cell_length_c   8.58788619
_cell_angle_alpha   90.16438493
_cell_angle_beta   90.00000000
_cell_angle_gamma   90.00000000
_symmetry_Int_Tables_number   1
_chemical_formula_structural   Li4Pr4PtRh3
_chemical_formula_sum   'Li4 Pr4 Pt1 Rh3'
_cell_volume   252.35397844
_cell_formula_units_Z   1
loop_
 _symmetry_equiv_pos_site_id
 _symmetry_equiv_pos_as_xyz
  1  'x, y, z'
loop_
 _atom_site_type_symbol
 _atom_site_label
 _atom_site_symmetry_multiplicity
 _atom_site_fract_x
 _atom_site_fract_y
 _atom_site_fract_z
 _atom_site_occupancy
  Li  Li0  1  0.250000  0.627721  0.554825  1
  Li  Li1  1  0.750000  0.372272  0.446151  1
  Li  Li2  1  0.750000  0.872608  0.054716  1
  Li  Li3  1  0.250000  0.126910  0.945851  1
  Pr  Pr4  1  0.250000  0.539742  0.184093  1
  Pr  Pr5  1  0.750000  0.450740  0.818774  1
  Pr  Pr6  1  0.750000  0.959699  0.677055  1
  Pr  Pr7  1  0.250000  0.041106  0.317403  1
  Pt  Pt8  1  0.250000  0.752000  0.877629  1
  Rh  Rh9  1  0.750000  0.256913  0.124966  1
  Rh  Rh10  1  0.750000  0.755848  0.371930  1
  Rh  Rh11  1  0.250000  0.244441  0.626608  1
