# generated using pymatgen
data_ErTm(ReO4)6
_symmetry_space_group_name_H-M   'P 1'
_cell_length_a   10.24156600
_cell_length_b   10.24156621
_cell_length_c   6.12452600
_cell_angle_alpha   90.00000000
_cell_angle_beta   90.00000000
_cell_angle_gamma   120.00000577
_symmetry_Int_Tables_number   1
_chemical_formula_structural   ErTm(ReO4)6
_chemical_formula_sum   'Er1 Tm1 Re6 O24'
_cell_volume   556.33429713
_cell_formula_units_Z   1
loop_
 _symmetry_equiv_pos_site_id
 _symmetry_equiv_pos_as_xyz
  1  'x, y, z'
loop_
 _atom_site_type_symbol
 _atom_site_label
 _atom_site_symmetry_multiplicity
 _atom_site_fract_x
 _atom_site_fract_y
 _atom_site_fract_z
 _atom_site_occupancy
  Er  Er0  1  0.666667  0.333333  0.750000  1
  Tm  Tm1  1  0.333333  0.666667  0.250000  1
  Re  Re2  1  0.093118  0.398241  0.750000  1
  Re  Re3  1  0.396813  0.305447  0.250000  1
  Re  Re4  1  0.601759  0.694876  0.750000  1
  Re  Re5  1  0.908633  0.603187  0.250000  1
  Re  Re6  1  0.305124  0.906882  0.750000  1
  Re  Re7  1  0.694553  0.091367  0.250000  1
  O  O8  1  0.486287  0.648561  0.515955  1
  O  O9  1  0.351439  0.837727  0.515955  1
  O  O10  1  0.845724  0.731301  0.250000  1
  O  O11  1  0.114090  0.843650  0.750000  1
  O  O12  1  0.268699  0.114423  0.250000  1
  O  O13  1  0.156350  0.270439  0.750000  1
  O  O14  1  0.512643  0.351582  0.016412  1
  O  O15  1  0.885577  0.154276  0.250000  1
  O  O16  1  0.106170  0.697581  0.250000  1
  O  O17  1  0.162273  0.513713  0.984045  1
  O  O18  1  0.162273  0.513713  0.515955  1
  O  O19  1  0.895399  0.302742  0.750000  1
  O  O20  1  0.302419  0.408589  0.250000  1
  O  O21  1  0.697258  0.592657  0.750000  1
  O  O22  1  0.838939  0.487357  0.483588  1
  O  O23  1  0.407343  0.104601  0.750000  1
  O  O24  1  0.648418  0.161061  0.016412  1
  O  O25  1  0.486287  0.648561  0.984045  1
  O  O26  1  0.351439  0.837727  0.984045  1
  O  O27  1  0.648418  0.161061  0.483588  1
  O  O28  1  0.512643  0.351582  0.483588  1
  O  O29  1  0.838939  0.487357  0.016412  1
  O  O30  1  0.729561  0.885910  0.750000  1
  O  O31  1  0.591411  0.893830  0.250000  1
