# generated using pymatgen
data_Sc4Be4AlCrIr10
_symmetry_space_group_name_H-M   'P 1'
_cell_length_a   9.48201700
_cell_length_b   9.48201700
_cell_length_c   3.09360800
_cell_angle_alpha   90.00000000
_cell_angle_beta   90.00000000
_cell_angle_gamma   90.00000000
_symmetry_Int_Tables_number   1
_chemical_formula_structural   Sc4Be4AlCrIr10
_chemical_formula_sum   'Sc4 Be4 Al1 Cr1 Ir10'
_cell_volume   278.14210774
_cell_formula_units_Z   1
loop_
 _symmetry_equiv_pos_site_id
 _symmetry_equiv_pos_as_xyz
  1  'x, y, z'
loop_
 _atom_site_type_symbol
 _atom_site_label
 _atom_site_symmetry_multiplicity
 _atom_site_fract_x
 _atom_site_fract_y
 _atom_site_fract_z
 _atom_site_occupancy
  Sc  Sc0  1  0.674359  0.177305  0.000000  1
  Sc  Sc1  1  0.325641  0.822695  0.000000  1
  Sc  Sc2  1  0.177305  0.325641  0.000000  1
  Sc  Sc3  1  0.822695  0.674359  0.000000  1
  Be  Be4  1  0.125001  0.622115  0.000000  1
  Be  Be5  1  0.874999  0.377885  0.000000  1
  Be  Be6  1  0.622115  0.874999  0.000000  1
  Be  Be7  1  0.377885  0.125001  0.000000  1
  Al  Al8  1  0.500000  0.500000  0.000000  1
  Cr  Cr9  1  0.000000  0.000000  0.000000  1
  Ir  Ir10  1  0.208313  0.066916  0.500000  1
  Ir  Ir11  1  0.791687  0.933084  0.500000  1
  Ir  Ir12  1  0.066916  0.791687  0.500000  1
  Ir  Ir13  1  0.709178  0.431222  0.500000  1
  Ir  Ir14  1  0.933084  0.208313  0.500000  1
  Ir  Ir15  1  0.290822  0.568778  0.500000  1
  Ir  Ir16  1  0.568778  0.709178  0.500000  1
  Ir  Ir17  1  0.431222  0.290822  0.500000  1
  Ir  Ir18  1  0.500000  0.000000  0.500000  1
  Ir  Ir19  1  0.000000  0.500000  0.500000  1
