# generated using pymatgen
data_HoU7Ti6(Nb3Si8)2
_symmetry_space_group_name_H-M   'P 1'
_cell_length_a   7.01680539
_cell_length_b   7.02002013
_cell_length_c   12.97218119
_cell_angle_alpha   90.16324853
_cell_angle_beta   90.10150357
_cell_angle_gamma   89.83685295
_symmetry_Int_Tables_number   1
_chemical_formula_structural   HoU7Ti6(Nb3Si8)2
_chemical_formula_sum   'Ho1 U7 Ti6 Nb6 Si16'
_cell_volume   638.97901697
_cell_formula_units_Z   1
loop_
 _symmetry_equiv_pos_site_id
 _symmetry_equiv_pos_as_xyz
  1  'x, y, z'
loop_
 _atom_site_type_symbol
 _atom_site_label
 _atom_site_symmetry_multiplicity
 _atom_site_fract_x
 _atom_site_fract_y
 _atom_site_fract_z
 _atom_site_occupancy
  Ho  Ho0  1  0.998312  0.338296  0.217395  1
  U  U1  1  0.010096  0.670007  0.719173  1
  U  U2  1  0.169897  0.490699  0.470772  1
  U  U3  1  0.510742  0.830872  0.031060  1
  U  U4  1  0.829121  0.510887  0.967342  1
  U  U5  1  0.490710  0.169236  0.530126  1
  U  U6  1  0.328674  0.990103  0.780637  1
  U  U7  1  0.660845  0.000902  0.281651  1
  Ti  Ti8  1  0.171608  0.167559  0.998439  1
  Ti  Ti9  1  0.829278  0.830306  0.500102  1
  Ti  Ti10  1  0.334037  0.671463  0.250093  1
  Ti  Ti11  1  0.669215  0.331956  0.749816  1
  Ti  Ti12  1  0.158490  0.995960  0.375211  1
  Ti  Ti13  1  0.844658  0.002332  0.874930  1
  Nb  Nb14  1  0.500975  0.655751  0.624887  1
  Nb  Nb15  1  0.345610  0.498656  0.875504  1
  Nb  Nb16  1  0.497834  0.343298  0.124752  1
  Nb  Nb17  1  0.653383  0.501196  0.376751  1
  Nb  Nb18  1  0.997942  0.156961  0.625451  1
  Nb  Nb19  1  0.000721  0.843193  0.126006  1
  Si  Si20  1  0.294593  0.038369  0.184263  1
  Si  Si21  1  0.703545  0.962171  0.684744  1
  Si  Si22  1  0.458250  0.796648  0.434752  1
  Si  Si23  1  0.204809  0.540631  0.064680  1
  Si  Si24  1  0.541986  0.200947  0.933559  1
  Si  Si25  1  0.796553  0.461090  0.565715  1
  Si  Si26  1  0.037596  0.294959  0.816753  1
  Si  Si27  1  0.961641  0.705622  0.317118  1
  Si  Si28  1  0.367709  0.293056  0.315196  1
  Si  Si29  1  0.631720  0.708349  0.814075  1
  Si  Si30  1  0.203938  0.870540  0.563687  1
  Si  Si31  1  0.128092  0.796323  0.935170  1
  Si  Si32  1  0.797320  0.132560  0.064896  1
  Si  Si33  1  0.870788  0.201220  0.433200  1
  Si  Si34  1  0.294625  0.368815  0.685880  1
  Si  Si35  1  0.704690  0.629068  0.186214  1
