# generated using pymatgen
data_Pr2Al13
_symmetry_space_group_name_H-M   'P 1'
_cell_length_a   23.79251823
_cell_length_b   23.79251696
_cell_length_c   4.29209700
_cell_angle_alpha   90.00000000
_cell_angle_beta   90.00000000
_cell_angle_gamma   165.66783471
_symmetry_Int_Tables_number   1
_chemical_formula_structural   Pr2Al13
_chemical_formula_sum   'Pr4 Al26'
_cell_volume   601.45193093
_cell_formula_units_Z   2
loop_
 _symmetry_equiv_pos_site_id
 _symmetry_equiv_pos_as_xyz
  1  'x, y, z'
loop_
 _atom_site_type_symbol
 _atom_site_label
 _atom_site_symmetry_multiplicity
 _atom_site_fract_x
 _atom_site_fract_y
 _atom_site_fract_z
 _atom_site_occupancy
  Pr  Pr0  1  0.403269  0.596731  0.000000  1
  Pr  Pr1  1  0.801517  0.198483  0.000000  1
  Pr  Pr2  1  0.198483  0.801517  0.000000  1
  Pr  Pr3  1  0.596731  0.403269  0.000000  1
  Al  Al4  1  0.000000  0.000000  0.000000  1
  Al  Al5  1  0.943958  0.056042  0.000000  1
  Al  Al6  1  0.337636  0.662364  0.000000  1
  Al  Al7  1  0.735809  0.264191  0.000000  1
  Al  Al8  1  0.132754  0.867246  0.000000  1
  Al  Al9  1  0.530351  0.469649  0.000000  1
  Al  Al10  1  0.469649  0.530351  0.000000  1
  Al  Al11  1  0.867246  0.132754  0.000000  1
  Al  Al12  1  0.264191  0.735809  0.000000  1
  Al  Al13  1  0.662364  0.337636  0.000000  1
  Al  Al14  1  0.056042  0.943958  0.000000  1
  Al  Al15  1  0.903962  0.096038  0.500000  1
  Al  Al16  1  0.300814  0.699186  0.500000  1
  Al  Al17  1  0.699186  0.300814  0.500000  1
  Al  Al18  1  0.096038  0.903962  0.500000  1
  Al  Al19  1  0.500000  0.500000  0.500000  1
  Al  Al20  1  0.683720  0.783209  0.500000  1
  Al  Al21  1  0.104932  0.399640  0.500000  1
  Al  Al22  1  0.500000  0.000000  0.500000  1
  Al  Al23  1  0.895068  0.600360  0.500000  1
  Al  Al24  1  0.316280  0.216791  0.500000  1
  Al  Al25  1  0.216791  0.316280  0.500000  1
  Al  Al26  1  0.600360  0.895068  0.500000  1
  Al  Al27  1  0.000000  0.500000  0.500000  1
  Al  Al28  1  0.399640  0.104932  0.500000  1
  Al  Al29  1  0.783209  0.683720  0.500000  1
