# generated using pymatgen
data_EuMn2Be3(SiO4)3
_symmetry_space_group_name_H-M   'P 1'
_cell_length_a   7.80100800
_cell_length_b   8.21891626
_cell_length_c   16.45982965
_cell_angle_alpha   60.02275262
_cell_angle_beta   90.00000000
_cell_angle_gamma   90.00000000
_symmetry_Int_Tables_number   1
_chemical_formula_structural   EuMn2Be3(SiO4)3
_chemical_formula_sum   'Eu4 Mn8 Be12 Si12 O48'
_cell_volume   914.15696353
_cell_formula_units_Z   4
loop_
 _symmetry_equiv_pos_site_id
 _symmetry_equiv_pos_as_xyz
  1  'x, y, z'
loop_
 _atom_site_type_symbol
 _atom_site_label
 _atom_site_symmetry_multiplicity
 _atom_site_fract_x
 _atom_site_fract_y
 _atom_site_fract_z
 _atom_site_occupancy
  Eu  Eu0  1  0.997380  0.499279  0.751142  1
  Eu  Eu1  1  0.497380  0.500721  0.748858  1
  Eu  Eu2  1  0.002620  0.500721  0.248858  1
  Eu  Eu3  1  0.502620  0.499279  0.251143  1
  Mn  Mn4  1  0.035226  0.167954  0.591092  1
  Mn  Mn5  1  0.464774  0.167954  0.091093  1
  Mn  Mn6  1  0.964774  0.832046  0.408908  1
  Mn  Mn7  1  0.535226  0.832046  0.908908  1
  Mn  Mn8  1  0.960182  0.832519  0.929160  1
  Mn  Mn9  1  0.460182  0.167481  0.570840  1
  Mn  Mn10  1  0.039818  0.167481  0.070840  1
  Mn  Mn11  1  0.539818  0.832519  0.429160  1
  Be  Be12  1  0.662519  0.153375  0.264625  1
  Be  Be13  1  0.836589  0.528738  0.909067  1
  Be  Be14  1  0.336589  0.471262  0.590933  1
  Be  Be15  1  0.163411  0.471262  0.090933  1
  Be  Be16  1  0.663411  0.528738  0.409068  1
  Be  Be17  1  0.338197  0.180489  0.921969  1
  Be  Be18  1  0.838197  0.819511  0.578031  1
  Be  Be19  1  0.661803  0.819511  0.078031  1
  Be  Be20  1  0.161803  0.180489  0.421969  1
  Be  Be21  1  0.837481  0.153375  0.764625  1
  Be  Be22  1  0.337481  0.846625  0.735375  1
  Be  Be23  1  0.162519  0.846625  0.235375  1
  Si  Si24  1  0.274509  0.150575  0.266205  1
  Si  Si25  1  0.774509  0.849425  0.233795  1
  Si  Si26  1  0.725491  0.849425  0.733795  1
  Si  Si27  1  0.225491  0.150575  0.766205  1
  Si  Si28  1  0.775019  0.182879  0.425031  1
  Si  Si29  1  0.275019  0.817121  0.074969  1
  Si  Si30  1  0.224981  0.817121  0.574969  1
  Si  Si31  1  0.724981  0.182879  0.925031  1
  Si  Si32  1  0.272331  0.532815  0.408534  1
  Si  Si33  1  0.772331  0.467185  0.091466  1
  Si  Si34  1  0.727669  0.467185  0.591466  1
  Si  Si35  1  0.227669  0.532815  0.908534  1
  O  O36  1  0.361169  0.702124  0.545094  1
  O  O37  1  0.467800  0.105089  0.313300  1
  O  O38  1  0.967800  0.894911  0.186700  1
  O  O39  1  0.532200  0.894911  0.686700  1
  O  O40  1  0.032200  0.105089  0.813300  1
  O  O41  1  0.969264  0.222965  0.450081  1
  O  O42  1  0.469264  0.777035  0.049919  1
  O  O43  1  0.030736  0.777035  0.549919  1
  O  O44  1  0.530736  0.222965  0.950081  1
  O  O45  1  0.467598  0.621849  0.388716  1
  O  O46  1  0.967598  0.378151  0.111284  1
  O  O47  1  0.532402  0.378151  0.611284  1
  O  O48  1  0.362864  0.708917  0.850658  1
  O  O49  1  0.862864  0.291083  0.649342  1
  O  O50  1  0.637136  0.291083  0.149342  1
  O  O51  1  0.137136  0.708917  0.350658  1
  O  O52  1  0.861169  0.297876  0.954906  1
  O  O53  1  0.032402  0.621849  0.888716  1
  O  O54  1  0.138831  0.702124  0.045094  1
  O  O55  1  0.638831  0.297876  0.454906  1
  O  O56  1  0.737508  0.591054  0.977201  1
  O  O57  1  0.864460  0.911736  0.647599  1
  O  O58  1  0.635540  0.911736  0.147599  1
  O  O59  1  0.135540  0.088264  0.352401  1
  O  O60  1  0.758857  0.622200  0.307689  1
  O  O61  1  0.258857  0.377800  0.192311  1
  O  O62  1  0.241143  0.377800  0.692311  1
  O  O63  1  0.741143  0.622200  0.807689  1
  O  O64  1  0.759670  0.261297  0.311835  1
  O  O65  1  0.259670  0.738703  0.188165  1
  O  O66  1  0.240330  0.738703  0.688165  1
  O  O67  1  0.740330  0.261297  0.811835  1
  O  O68  1  0.256742  0.385395  0.368570  1
  O  O69  1  0.756742  0.614605  0.131430  1
  O  O70  1  0.743258  0.614605  0.631430  1
  O  O71  1  0.243258  0.385395  0.868570  1
  O  O72  1  0.752504  0.952001  0.297443  1
  O  O73  1  0.252504  0.047999  0.202557  1
  O  O74  1  0.247496  0.047999  0.702557  1
  O  O75  1  0.747496  0.952001  0.797443  1
  O  O76  1  0.736091  0.955035  0.479868  1
  O  O77  1  0.236091  0.044965  0.020132  1
  O  O78  1  0.263909  0.044965  0.520132  1
  O  O79  1  0.763909  0.955035  0.979868  1
  O  O80  1  0.762492  0.591054  0.477201  1
  O  O81  1  0.262492  0.408946  0.022799  1
  O  O82  1  0.237508  0.408946  0.522799  1
  O  O83  1  0.364460  0.088264  0.852401  1
