# generated using pymatgen
data_Yb12Ho3Tm5Sn16
_symmetry_space_group_name_H-M   'P 1'
_cell_length_a   7.81467805
_cell_length_b   8.40357024
_cell_length_c   15.95942930
_cell_angle_alpha   90.00013030
_cell_angle_beta   89.97929461
_cell_angle_gamma   90.14550489
_symmetry_Int_Tables_number   1
_chemical_formula_structural   Yb12Ho3Tm5Sn16
_chemical_formula_sum   'Yb12 Ho3 Tm5 Sn16'
_cell_volume   1048.07136028
_cell_formula_units_Z   1
loop_
 _symmetry_equiv_pos_site_id
 _symmetry_equiv_pos_as_xyz
  1  'x, y, z'
loop_
 _atom_site_type_symbol
 _atom_site_label
 _atom_site_symmetry_multiplicity
 _atom_site_fract_x
 _atom_site_fract_y
 _atom_site_fract_z
 _atom_site_occupancy
  Yb  Yb0  1  0.178129  0.334366  0.620363  1
  Yb  Yb1  1  0.502690  0.687691  0.593097  1
  Yb  Yb2  1  0.003084  0.814342  0.909105  1
  Yb  Yb3  1  0.494002  0.311725  0.092555  1
  Yb  Yb4  1  0.996797  0.189030  0.407195  1
  Yb  Yb5  1  0.494848  0.311895  0.407639  1
  Yb  Yb6  1  0.995382  0.187769  0.092880  1
  Yb  Yb7  1  0.502708  0.687698  0.907250  1
  Yb  Yb8  1  0.004900  0.813265  0.591204  1
  Yb  Yb9  1  0.335343  0.990563  0.749179  1
  Yb  Yb10  1  0.163019  0.488489  0.249881  1
  Yb  Yb11  1  0.664263  0.010263  0.250436  1
  Ho  Ho12  1  0.673534  0.163615  0.621987  1
  Ho  Ho13  1  0.174344  0.333396  0.878974  1
  Ho  Ho14  1  0.326064  0.833692  0.121909  1
  Tm  Tm15  1  0.827459  0.663439  0.377737  1
  Tm  Tm16  1  0.325422  0.834703  0.377308  1
  Tm  Tm17  1  0.825707  0.664451  0.121511  1
  Tm  Tm18  1  0.673091  0.163831  0.878905  1
  Tm  Tm19  1  0.839942  0.509750  0.748660  1
  Sn  Sn20  1  0.674361  0.961561  0.458640  1
  Sn  Sn21  1  0.168862  0.535879  0.040852  1
  Sn  Sn22  1  0.330118  0.035819  0.959209  1
  Sn  Sn23  1  0.825815  0.467560  0.543046  1
  Sn  Sn24  1  0.334543  0.033530  0.539877  1
  Sn  Sn25  1  0.826690  0.466597  0.955764  1
  Sn  Sn26  1  0.672597  0.963204  0.040941  1
  Sn  Sn27  1  0.168722  0.538732  0.456931  1
  Sn  Sn28  1  0.478547  0.382079  0.753569  1
  Sn  Sn29  1  0.969233  0.127885  0.751184  1
  Sn  Sn30  1  0.528049  0.627697  0.249951  1
  Sn  Sn31  1  0.026983  0.871370  0.248963  1
  Sn  Sn32  1  0.720531  0.866068  0.751501  1
  Sn  Sn33  1  0.212416  0.628529  0.752651  1
  Sn  Sn34  1  0.281656  0.126287  0.249833  1
  Sn  Sn35  1  0.780148  0.373230  0.249315  1
