# generated using pymatgen
data_HoEr5(AlC3)2
_symmetry_space_group_name_H-M   'P 1'
_cell_length_a   3.53163800
_cell_length_b   6.96469470
_cell_length_c   9.95392700
_cell_angle_alpha   90.06657791
_cell_angle_beta   90.00000000
_cell_angle_gamma   90.00000000
_symmetry_Int_Tables_number   1
_chemical_formula_structural   HoEr5(AlC3)2
_chemical_formula_sum   'Ho1 Er5 Al2 C6'
_cell_volume   244.83439192
_cell_formula_units_Z   1
loop_
 _symmetry_equiv_pos_site_id
 _symmetry_equiv_pos_as_xyz
  1  'x, y, z'
loop_
 _atom_site_type_symbol
 _atom_site_label
 _atom_site_symmetry_multiplicity
 _atom_site_fract_x
 _atom_site_fract_y
 _atom_site_fract_z
 _atom_site_occupancy
  Ho  Ho0  1  0.500000  0.008958  0.799152  1
  Er  Er1  1  0.500000  0.509820  0.201761  1
  Er  Er2  1  0.500000  0.489985  0.798641  1
  Er  Er3  1  0.500000  0.989459  0.200637  1
  Er  Er4  1  0.000000  0.750167  0.457791  1
  Er  Er5  1  0.000000  0.250296  0.542295  1
  Al  Al6  1  0.000000  0.747393  0.005813  1
  Al  Al7  1  0.000000  0.252213  0.994960  1
  C  C8  1  0.500000  0.509584  0.566448  1
  C  C9  1  0.500000  0.490539  0.433657  1
  C  C10  1  0.500000  0.990697  0.565558  1
  C  C11  1  0.500000  0.009781  0.432758  1
  C  C12  1  0.000000  0.749719  0.209205  1
  C  C13  1  0.000000  0.251391  0.791324  1
