# generated using pymatgen
data_Nd3Eu2Mn2O12
_symmetry_space_group_name_H-M   'P 1'
_cell_length_a   6.98461846
_cell_length_b   6.98461792
_cell_length_c   7.46414363
_cell_angle_alpha   74.69313608
_cell_angle_beta   74.69313516
_cell_angle_gamma   49.84361784
_symmetry_Int_Tables_number   1
_chemical_formula_structural   Nd3Eu2Mn2O12
_chemical_formula_sum   'Nd3 Eu2 Mn2 O12'
_cell_volume   266.25337944
_cell_formula_units_Z   1
loop_
 _symmetry_equiv_pos_site_id
 _symmetry_equiv_pos_as_xyz
  1  'x, y, z'
loop_
 _atom_site_type_symbol
 _atom_site_label
 _atom_site_symmetry_multiplicity
 _atom_site_fract_x
 _atom_site_fract_y
 _atom_site_fract_z
 _atom_site_occupancy
  Nd  Nd0  1  0.695508  0.695508  0.161449  1
  Nd  Nd1  1  0.304492  0.304492  0.838551  1
  Nd  Nd2  1  0.000000  0.000000  0.500000  1
  Eu  Eu3  1  0.312329  0.312329  0.353558  1
  Eu  Eu4  1  0.687671  0.687671  0.646442  1
  Mn  Mn5  1  0.755209  0.244791  0.000000  1
  Mn  Mn6  1  0.244791  0.755209  0.000000  1
  O  O7  1  0.095881  0.595078  0.571740  1
  O  O8  1  0.003425  0.003425  0.170692  1
  O  O9  1  0.404922  0.904119  0.428260  1
  O  O10  1  0.501392  0.501392  0.173106  1
  O  O11  1  0.103614  0.580141  0.083494  1
  O  O12  1  0.904119  0.404922  0.428260  1
  O  O13  1  0.996575  0.996575  0.829308  1
  O  O14  1  0.595078  0.095880  0.571740  1
  O  O15  1  0.498608  0.498608  0.826894  1
  O  O16  1  0.580141  0.103614  0.083494  1
  O  O17  1  0.419859  0.896386  0.916506  1
  O  O18  1  0.896386  0.419859  0.916506  1
