# generated using pymatgen
data_Sn16Pt3Rh
_symmetry_space_group_name_H-M   'P 1'
_cell_length_a   12.75555047
_cell_length_b   12.75555066
_cell_length_c   12.75538120
_cell_angle_alpha   150.84169619
_cell_angle_beta   150.84169838
_cell_angle_gamma   41.70927035
_symmetry_Int_Tables_number   1
_chemical_formula_structural   Sn16Pt3Rh
_chemical_formula_sum   'Sn16 Pt3 Rh1'
_cell_volume   491.53084418
_cell_formula_units_Z   1
loop_
 _symmetry_equiv_pos_site_id
 _symmetry_equiv_pos_as_xyz
  1  'x, y, z'
loop_
 _atom_site_type_symbol
 _atom_site_label
 _atom_site_symmetry_multiplicity
 _atom_site_fract_x
 _atom_site_fract_y
 _atom_site_fract_z
 _atom_site_occupancy
  Sn  Sn0  1  0.140478  0.640119  0.151933  1
  Sn  Sn1  1  0.640828  0.488413  0.500139  1
  Sn  Sn2  1  0.885082  0.891280  0.649678  1
  Sn  Sn3  1  0.390928  0.740948  0.005238  1
  Sn  Sn4  1  0.608720  0.614918  0.350322  1
  Sn  Sn5  1  0.114310  0.764288  0.005238  1
  Sn  Sn6  1  0.859881  0.359522  0.848067  1
  Sn  Sn7  1  0.359311  0.511728  0.500139  1
  Sn  Sn8  1  0.988272  0.140689  0.499861  1
  Sn  Sn9  1  0.488185  0.988546  0.848067  1
  Sn  Sn10  1  0.735712  0.385690  0.994762  1
  Sn  Sn11  1  0.241603  0.235403  0.350322  1
  Sn  Sn12  1  0.759052  0.109072  0.994762  1
  Sn  Sn13  1  0.264597  0.258397  0.649678  1
  Sn  Sn14  1  0.011587  0.859172  0.499861  1
  Sn  Sn15  1  0.511454  0.011815  0.151933  1
  Pt  Pt16  1  0.750000  0.750000  0.000000  1
  Pt  Pt17  1  0.250000  0.250000  0.000000  1
  Pt  Pt18  1  0.000000  0.500000  0.500000  1
  Rh  Rh19  1  0.500000  0.000000  0.500000  1
