# generated using pymatgen
data_YLuZr2Al16(GaIr3)2
_symmetry_space_group_name_H-M   'P 1'
_cell_length_a   7.52079000
_cell_length_b   7.50693705
_cell_length_c   9.35262700
_cell_angle_alpha   90.00000000
_cell_angle_beta   90.00000000
_cell_angle_gamma   119.72066806
_symmetry_Int_Tables_number   1
_chemical_formula_structural   YLuZr2Al16(GaIr3)2
_chemical_formula_sum   'Y1 Lu1 Zr2 Al16 Ga2 Ir6'
_cell_volume   458.57041967
_cell_formula_units_Z   1
loop_
 _symmetry_equiv_pos_site_id
 _symmetry_equiv_pos_as_xyz
  1  'x, y, z'
loop_
 _atom_site_type_symbol
 _atom_site_label
 _atom_site_symmetry_multiplicity
 _atom_site_fract_x
 _atom_site_fract_y
 _atom_site_fract_z
 _atom_site_occupancy
  Y  Y0  1  0.669902  0.990527  0.250000  1
  Lu  Lu1  1  0.328308  0.004506  0.750000  1
  Zr  Zr2  1  0.996436  0.674172  0.250000  1
  Zr  Zr3  1  0.005536  0.329454  0.750000  1
  Al  Al4  1  0.873566  0.874880  0.750000  1
  Al  Al5  1  0.999771  0.336755  0.071964  1
  Al  Al6  1  0.000451  0.662913  0.922308  1
  Al  Al7  1  0.000451  0.662913  0.577692  1
  Al  Al8  1  0.332471  0.999836  0.423786  1
  Al  Al9  1  0.999771  0.336755  0.428036  1
  Al  Al10  1  0.666774  0.001954  0.579931  1
  Al  Al11  1  0.666774  0.001954  0.920069  1
  Al  Al12  1  0.332471  0.999836  0.076214  1
  Al  Al13  1  0.331138  0.332884  0.562499  1
  Al  Al14  1  0.668565  0.665829  0.447058  1
  Al  Al15  1  0.668565  0.665829  0.052942  1
  Al  Al16  1  0.331138  0.332884  0.937501  1
  Al  Al17  1  0.664950  0.449969  0.750000  1
  Al  Al18  1  0.556748  0.345242  0.250000  1
  Al  Al19  1  0.445981  0.657639  0.750000  1
  Ga  Ga20  1  0.129295  0.129320  0.250000  1
  Ga  Ga21  1  0.335320  0.545313  0.250000  1
  Ir  Ir22  1  0.670238  0.327056  0.999565  1
  Ir  Ir23  1  0.327080  0.672685  0.998558  1
  Ir  Ir24  1  0.327080  0.672685  0.501442  1
  Ir  Ir25  1  0.670238  0.327056  0.500435  1
  Ir  Ir26  1  0.000492  0.999577  0.997674  1
  Ir  Ir27  1  0.000492  0.999577  0.502326  1
