# generated using pymatgen
data_YbFeIrO6
_symmetry_space_group_name_H-M   'P 1'
_cell_length_a   5.11314600
_cell_length_b   7.21369300
_cell_length_c   10.72101700
_cell_angle_alpha   90.00000000
_cell_angle_beta   90.00000000
_cell_angle_gamma   90.00000000
_symmetry_Int_Tables_number   1
_chemical_formula_structural   YbFeIrO6
_chemical_formula_sum   'Yb4 Fe4 Ir4 O24'
_cell_volume   395.44112595
_cell_formula_units_Z   4
loop_
 _symmetry_equiv_pos_site_id
 _symmetry_equiv_pos_as_xyz
  1  'x, y, z'
loop_
 _atom_site_type_symbol
 _atom_site_label
 _atom_site_symmetry_multiplicity
 _atom_site_fract_x
 _atom_site_fract_y
 _atom_site_fract_z
 _atom_site_occupancy
  Yb  Yb0  1  0.543921  0.252036  0.045703  1
  Yb  Yb1  1  0.043920  0.752036  0.454297  1
  Yb  Yb2  1  0.956079  0.252036  0.545703  1
  Yb  Yb3  1  0.456078  0.752036  0.954297  1
  Fe  Fe4  1  0.055084  0.505386  0.140621  1
  Fe  Fe5  1  0.555085  0.005387  0.359379  1
  Fe  Fe6  1  0.444915  0.505386  0.640621  1
  Fe  Fe7  1  0.944915  0.005387  0.859378  1
  Ir  Ir8  1  0.057830  0.000735  0.137904  1
  Ir  Ir9  1  0.557829  0.500735  0.362096  1
  Ir  Ir10  1  0.442170  0.000735  0.637904  1
  Ir  Ir11  1  0.942171  0.500735  0.862096  1
  O  O12  1  0.765335  0.547632  0.022560  1
  O  O13  1  0.762934  0.952323  0.031432  1
  O  O14  1  0.182448  0.755973  0.121356  1
  O  O15  1  0.937308  0.246950  0.149581  1
  O  O16  1  0.379072  0.072914  0.209972  1
  O  O17  1  0.395426  0.436148  0.210981  1
  O  O18  1  0.895425  0.936147  0.289019  1
  O  O19  1  0.879073  0.572915  0.290028  1
  O  O20  1  0.437308  0.746950  0.350419  1
  O  O21  1  0.682449  0.255973  0.378644  1
  O  O22  1  0.262935  0.452324  0.468567  1
  O  O23  1  0.265336  0.047633  0.477440  1
  O  O24  1  0.734665  0.547632  0.522560  1
  O  O25  1  0.737067  0.952323  0.531432  1
  O  O26  1  0.317552  0.755973  0.621356  1
  O  O27  1  0.562692  0.246950  0.649581  1
  O  O28  1  0.120926  0.072914  0.709972  1
  O  O29  1  0.104575  0.436148  0.710981  1
  O  O30  1  0.604575  0.936147  0.789019  1
  O  O31  1  0.620927  0.572915  0.790028  1
  O  O32  1  0.062691  0.746950  0.850419  1
  O  O33  1  0.817551  0.255973  0.878644  1
  O  O34  1  0.237066  0.452324  0.968567  1
  O  O35  1  0.234664  0.047633  0.977440  1
