# generated using pymatgen
data_PrY3Co18(P6Ru)2
_symmetry_space_group_name_H-M   'P 1'
_cell_length_a   3.68825100
_cell_length_b   10.39748600
_cell_length_c   11.79962653
_cell_angle_alpha   89.89957577
_cell_angle_beta   90.00000000
_cell_angle_gamma   90.00000000
_symmetry_Int_Tables_number   1
_chemical_formula_structural   PrY3Co18(P6Ru)2
_chemical_formula_sum   'Pr1 Y3 Co18 P12 Ru2'
_cell_volume   452.49773266
_cell_formula_units_Z   1
loop_
 _symmetry_equiv_pos_site_id
 _symmetry_equiv_pos_as_xyz
  1  'x, y, z'
loop_
 _atom_site_type_symbol
 _atom_site_label
 _atom_site_symmetry_multiplicity
 _atom_site_fract_x
 _atom_site_fract_y
 _atom_site_fract_z
 _atom_site_occupancy
  Pr  Pr0  1  0.250000  0.917093  0.202459  1
  Y  Y1  1  0.250000  0.582387  0.701810  1
  Y  Y2  1  0.750000  0.413701  0.295949  1
  Y  Y3  1  0.750000  0.086909  0.796017  1
  Co  Co4  1  0.750000  0.285708  0.006907  1
  Co  Co5  1  0.750000  0.216244  0.509641  1
  Co  Co6  1  0.250000  0.405905  0.487902  1
  Co  Co7  1  0.250000  0.096245  0.986603  1
  Co  Co8  1  0.750000  0.590895  0.510434  1
  Co  Co9  1  0.750000  0.909560  0.005368  1
  Co  Co10  1  0.250000  0.221909  0.176043  1
  Co  Co11  1  0.250000  0.279729  0.676293  1
  Co  Co12  1  0.750000  0.776918  0.822443  1
  Co  Co13  1  0.750000  0.718804  0.324481  1
  Co  Co14  1  0.250000  0.886683  0.702572  1
  Co  Co15  1  0.250000  0.610847  0.201231  1
  Co  Co16  1  0.750000  0.119345  0.303137  1
  Co  Co17  1  0.750000  0.384014  0.800354  1
  Co  Co18  1  0.250000  0.464254  0.931773  1
  Co  Co19  1  0.250000  0.036848  0.435557  1
  Co  Co20  1  0.750000  0.530159  0.067705  1
  Co  Co21  1  0.750000  0.967686  0.571262  1
  P  P22  1  0.250000  0.416706  0.111302  1
  P  P23  1  0.250000  0.083187  0.613666  1
  P  P24  1  0.750000  0.578153  0.886628  1
  P  P25  1  0.750000  0.921357  0.391551  1
  P  P26  1  0.250000  0.271715  0.867964  1
  P  P27  1  0.250000  0.229138  0.369167  1
  P  P28  1  0.750000  0.722667  0.131824  1
  P  P29  1  0.750000  0.771733  0.633125  1
  P  P30  1  0.250000  0.595171  0.390915  1
  P  P31  1  0.250000  0.904980  0.890716  1
  P  P32  1  0.750000  0.396940  0.608090  1
  P  P33  1  0.750000  0.107633  0.106564  1
  Ru  Ru34  1  0.250000  0.713945  0.990318  1
  Ru  Ru35  1  0.250000  0.784832  0.492225  1
