# generated using pymatgen
data_Tb2Y(CrC3)2
_symmetry_space_group_name_H-M   'P 1'
_cell_length_a   8.14236585
_cell_length_b   8.15078748
_cell_length_c   5.02994600
_cell_angle_alpha   90.00000000
_cell_angle_beta   90.00000000
_cell_angle_gamma   120.01828192
_symmetry_Int_Tables_number   1
_chemical_formula_structural   Tb2Y(CrC3)2
_chemical_formula_sum   'Tb4 Y2 Cr4 C12'
_cell_volume   289.04409439
_cell_formula_units_Z   2
loop_
 _symmetry_equiv_pos_site_id
 _symmetry_equiv_pos_as_xyz
  1  'x, y, z'
loop_
 _atom_site_type_symbol
 _atom_site_label
 _atom_site_symmetry_multiplicity
 _atom_site_fract_x
 _atom_site_fract_y
 _atom_site_fract_z
 _atom_site_occupancy
  Tb  Tb0  1  0.686520  0.065846  0.250000  1
  Tb  Tb1  1  0.314012  0.934384  0.750000  1
  Tb  Tb2  1  0.066245  0.379739  0.750000  1
  Tb  Tb3  1  0.380005  0.314079  0.250000  1
  Y  Y4  1  0.620628  0.686666  0.750000  1
  Y  Y5  1  0.933808  0.620537  0.250000  1
  Cr  Cr6  1  0.000130  0.999991  0.499783  1
  Cr  Cr7  1  0.000130  0.999991  0.000217  1
  Cr  Cr8  1  0.666926  0.333619  0.750000  1
  Cr  Cr9  1  0.332710  0.666151  0.250000  1
  C  C10  1  0.963515  0.775429  0.750000  1
  C  C11  1  0.188651  0.963604  0.250000  1
  C  C12  1  0.775051  0.811283  0.250000  1
  C  C13  1  0.224630  0.187969  0.750000  1
  C  C14  1  0.811055  0.036190  0.750000  1
  C  C15  1  0.036728  0.224346  0.250000  1
  C  C16  1  0.864760  0.580416  0.750000  1
  C  C17  1  0.283964  0.863769  0.250000  1
  C  C18  1  0.579642  0.715235  0.250000  1
  C  C19  1  0.420101  0.284939  0.750000  1
  C  C20  1  0.134860  0.419524  0.250000  1
  C  C21  1  0.715929  0.136294  0.750000  1
