# generated using pymatgen
data_CaTb4Y2CoI12
_symmetry_space_group_name_H-M   'P 1'
_cell_length_a   9.71007587
_cell_length_b   9.82009682
_cell_length_c   9.82306192
_cell_angle_alpha   106.79906577
_cell_angle_beta   107.12885729
_cell_angle_gamma   106.73861507
_symmetry_Int_Tables_number   1
_chemical_formula_structural   CaTb4Y2CoI12
_chemical_formula_sum   'Ca1 Tb4 Y2 Co1 I12'
_cell_volume   782.41041431
_cell_formula_units_Z   1
loop_
 _symmetry_equiv_pos_site_id
 _symmetry_equiv_pos_as_xyz
  1  'x, y, z'
loop_
 _atom_site_type_symbol
 _atom_site_label
 _atom_site_symmetry_multiplicity
 _atom_site_fract_x
 _atom_site_fract_y
 _atom_site_fract_z
 _atom_site_occupancy
  Ca  Ca0  1  0.500009  0.500086  0.500081  1
  Tb  Tb1  1  0.283424  0.022450  0.091460  1
  Tb  Tb2  1  0.976892  0.904417  0.704308  1
  Tb  Tb3  1  0.904628  0.704664  0.976418  1
  Tb  Tb4  1  0.716802  0.977663  0.908675  1
  Y  Y5  1  0.023240  0.095725  0.295577  1
  Y  Y6  1  0.095234  0.295256  0.023835  1
  Co  Co7  1  0.000075  0.999793  0.999912  1
  I  I8  1  0.148610  0.455973  0.377431  1
  I  I9  1  0.456255  0.377123  0.149760  1
  I  I10  1  0.378100  0.149599  0.455673  1
  I  I11  1  0.850836  0.543270  0.622090  1
  I  I12  1  0.542817  0.622831  0.849843  1
  I  I13  1  0.621321  0.850379  0.544241  1
  I  I14  1  0.679410  0.072236  0.222758  1
  I  I15  1  0.072440  0.223926  0.678981  1
  I  I16  1  0.225334  0.679718  0.072997  1
  I  I17  1  0.321348  0.928093  0.777710  1
  I  I18  1  0.927786  0.777087  0.320976  1
  I  I19  1  0.775439  0.319712  0.927273  1
