# generated using pymatgen
data_Li8Zr3ReBr24
_symmetry_space_group_name_H-M   'P 1'
_cell_length_a   6.78719100
_cell_length_b   6.78718917
_cell_length_c   28.02988200
_cell_angle_alpha   90.00000000
_cell_angle_beta   90.00000000
_cell_angle_gamma   120.00000405
_symmetry_Int_Tables_number   1
_chemical_formula_structural   Li8Zr3ReBr24
_chemical_formula_sum   'Li8 Zr3 Re1 Br24'
_cell_volume   1118.23197939
_cell_formula_units_Z   1
loop_
 _symmetry_equiv_pos_site_id
 _symmetry_equiv_pos_as_xyz
  1  'x, y, z'
loop_
 _atom_site_type_symbol
 _atom_site_label
 _atom_site_symmetry_multiplicity
 _atom_site_fract_x
 _atom_site_fract_y
 _atom_site_fract_z
 _atom_site_occupancy
  Li  Li0  1  0.000000  0.000000  0.249998  1
  Li  Li1  1  0.000000  0.000000  0.750002  1
  Li  Li2  1  0.333333  0.666667  0.999996  1
  Li  Li3  1  0.333333  0.666667  0.500004  1
  Li  Li4  1  0.333333  0.666667  0.249984  1
  Li  Li5  1  0.666667  0.333333  0.750016  1
  Li  Li6  1  0.666667  0.333333  0.000004  1
  Li  Li7  1  0.666667  0.333333  0.499996  1
  Zr  Zr8  1  0.000000  0.000000  0.000000  1
  Zr  Zr9  1  0.333333  0.666667  0.750020  1
  Zr  Zr10  1  0.666667  0.333333  0.249980  1
  Re  Re11  1  0.000000  0.000000  0.500000  1
  Br  Br12  1  0.346438  0.012767  0.304546  1
  Br  Br13  1  0.333620  0.987227  0.804533  1
  Br  Br14  1  0.000782  0.320775  0.054507  1
  Br  Br15  1  0.999201  0.306290  0.552092  1
  Br  Br16  1  0.987233  0.333671  0.304546  1
  Br  Br17  1  0.012773  0.346392  0.804533  1
  Br  Br18  1  0.346392  0.333620  0.195467  1
  Br  Br19  1  0.333671  0.346438  0.695454  1
  Br  Br20  1  0.306290  0.307089  0.447908  1
  Br  Br21  1  0.320775  0.319994  0.945493  1
  Br  Br22  1  0.692911  0.999201  0.447908  1
  Br  Br23  1  0.319994  0.999218  0.054507  1
  Br  Br24  1  0.307089  0.000799  0.552092  1
  Br  Br25  1  0.679225  0.680006  0.054507  1
  Br  Br26  1  0.693710  0.692911  0.552092  1
  Br  Br27  1  0.666329  0.653562  0.304546  1
  Br  Br28  1  0.653608  0.666380  0.804533  1
  Br  Br29  1  0.987227  0.653608  0.195467  1
  Br  Br30  1  0.012767  0.666329  0.695454  1
  Br  Br31  1  0.000799  0.693710  0.447908  1
  Br  Br32  1  0.999218  0.679225  0.945493  1
  Br  Br33  1  0.680006  0.000782  0.945493  1
  Br  Br34  1  0.666380  0.012773  0.195467  1
  Br  Br35  1  0.653562  0.987233  0.695454  1
