# generated using pymatgen
data_Lu5TcRuC7
_symmetry_space_group_name_H-M   'P 1'
_cell_length_a   8.07492106
_cell_length_b   8.07492142
_cell_length_c   3.39543100
_cell_angle_alpha   90.00000000
_cell_angle_beta   90.00000000
_cell_angle_gamma   121.39469457
_symmetry_Int_Tables_number   1
_chemical_formula_structural   Lu5TcRuC7
_chemical_formula_sum   'Lu5 Tc1 Ru1 C7'
_cell_volume   188.98416512
_cell_formula_units_Z   1
loop_
 _symmetry_equiv_pos_site_id
 _symmetry_equiv_pos_as_xyz
  1  'x, y, z'
loop_
 _atom_site_type_symbol
 _atom_site_label
 _atom_site_symmetry_multiplicity
 _atom_site_fract_x
 _atom_site_fract_y
 _atom_site_fract_z
 _atom_site_occupancy
  Lu  Lu0  1  0.339286  0.078692  0.500000  1
  Lu  Lu1  1  0.658907  0.919455  0.500000  1
  Lu  Lu2  1  0.080545  0.341093  0.500000  1
  Lu  Lu3  1  0.921308  0.660714  0.500000  1
  Lu  Lu4  1  0.499365  0.500635  0.000000  1
  Tc  Tc5  1  0.715163  0.284837  0.000000  1
  Ru  Ru6  1  0.286371  0.713629  0.000000  1
  C  C7  1  0.171842  0.171615  0.000000  1
  C  C8  1  0.828385  0.828158  0.000000  1
  C  C9  1  0.000653  0.999347  0.000000  1
  C  C10  1  0.374623  0.625377  0.500000  1
  C  C11  1  0.622300  0.377700  0.500000  1
  C  C12  1  0.501639  0.000386  0.000000  1
  C  C13  1  0.999614  0.498361  0.000000  1
