# generated using pymatgen
data_Li4Ac3SmGe8
_symmetry_space_group_name_H-M   'P 1'
_cell_length_a   4.10468900
_cell_length_b   8.03039006
_cell_length_c   11.04124062
_cell_angle_alpha   89.71054978
_cell_angle_beta   90.00000000
_cell_angle_gamma   90.00000000
_symmetry_Int_Tables_number   1
_chemical_formula_structural   Li4Ac3SmGe8
_chemical_formula_sum   'Li4 Ac3 Sm1 Ge8'
_cell_volume   363.93953086
_cell_formula_units_Z   1
loop_
 _symmetry_equiv_pos_site_id
 _symmetry_equiv_pos_as_xyz
  1  'x, y, z'
loop_
 _atom_site_type_symbol
 _atom_site_label
 _atom_site_symmetry_multiplicity
 _atom_site_fract_x
 _atom_site_fract_y
 _atom_site_fract_z
 _atom_site_occupancy
  Li  Li0  1  0.250000  0.491593  0.387724  1
  Li  Li1  1  0.250000  0.988319  0.109456  1
  Li  Li2  1  0.750000  0.509478  0.610494  1
  Li  Li3  1  0.750000  0.009852  0.894073  1
  Ac  Ac4  1  0.250000  0.143136  0.632077  1
  Ac  Ac5  1  0.250000  0.638770  0.867934  1
  Ac  Ac6  1  0.750000  0.860606  0.364764  1
  Sm  Sm7  1  0.750000  0.366356  0.133486  1
  Ge  Ge8  1  0.250000  0.221139  0.939983  1
  Ge  Ge9  1  0.250000  0.714903  0.570144  1
  Ge  Ge10  1  0.750000  0.772134  0.070569  1
  Ge  Ge11  1  0.750000  0.289687  0.422065  1
  Ge  Ge12  1  0.250000  0.167162  0.309236  1
  Ge  Ge13  1  0.250000  0.650350  0.182707  1
  Ge  Ge14  1  0.750000  0.839714  0.681816  1
  Ge  Ge15  1  0.750000  0.336801  0.823471  1
