# generated using pymatgen
data_Er4Sc8Co5Sn
_symmetry_space_group_name_H-M   'P 1'
_cell_length_a   7.86661184
_cell_length_b   7.86661170
_cell_length_c   7.86661068
_cell_angle_alpha   106.92280168
_cell_angle_beta   111.15362698
_cell_angle_gamma   110.36792282
_symmetry_Int_Tables_number   1
_chemical_formula_structural   Er4Sc8Co5Sn
_chemical_formula_sum   'Er4 Sc8 Co5 Sn1'
_cell_volume   374.17822430
_cell_formula_units_Z   1
loop_
 _symmetry_equiv_pos_site_id
 _symmetry_equiv_pos_as_xyz
  1  'x, y, z'
loop_
 _atom_site_type_symbol
 _atom_site_label
 _atom_site_symmetry_multiplicity
 _atom_site_fract_x
 _atom_site_fract_y
 _atom_site_fract_z
 _atom_site_occupancy
  Er  Er0  1  0.470741  0.281830  0.188911  1
  Er  Er1  1  0.092919  0.281830  0.811089  1
  Er  Er2  1  0.907081  0.718170  0.188911  1
  Er  Er3  1  0.529259  0.718170  0.811089  1
  Sc  Sc4  1  0.306548  0.620892  0.314344  1
  Sc  Sc5  1  0.306548  0.992205  0.685656  1
  Sc  Sc6  1  0.693452  0.379108  0.685656  1
  Sc  Sc7  1  0.693452  0.007795  0.314344  1
  Sc  Sc8  1  0.194376  0.216175  0.410550  1
  Sc  Sc9  1  0.805624  0.783825  0.589450  1
  Sc  Sc10  1  0.194376  0.783825  0.978200  1
  Sc  Sc11  1  0.805624  0.216175  0.021800  1
  Co  Co12  1  0.500000  0.619480  0.119480  1
  Co  Co13  1  0.500000  0.380520  0.880520  1
  Co  Co14  1  0.367041  0.000000  0.367041  1
  Co  Co15  1  0.632959  0.000000  0.632959  1
  Co  Co16  1  0.000000  0.000000  0.000000  1
  Sn  Sn17  1  0.000000  0.500000  0.500000  1
