# generated using pymatgen
data_Sm4CuNi3Hg2
_symmetry_space_group_name_H-M   'P 1'
_cell_length_a   7.49179746
_cell_length_b   7.49179827
_cell_length_c   3.74333600
_cell_angle_alpha   90.00000000
_cell_angle_beta   90.00000000
_cell_angle_gamma   90.27002250
_symmetry_Int_Tables_number   1
_chemical_formula_structural   Sm4CuNi3Hg2
_chemical_formula_sum   'Sm4 Cu1 Ni3 Hg2'
_cell_volume   210.10001836
_cell_formula_units_Z   1
loop_
 _symmetry_equiv_pos_site_id
 _symmetry_equiv_pos_as_xyz
  1  'x, y, z'
loop_
 _atom_site_type_symbol
 _atom_site_label
 _atom_site_symmetry_multiplicity
 _atom_site_fract_x
 _atom_site_fract_y
 _atom_site_fract_z
 _atom_site_occupancy
  Sm  Sm0  1  0.675005  0.187383  0.000000  1
  Sm  Sm1  1  0.312617  0.824995  0.000000  1
  Sm  Sm2  1  0.179141  0.320859  0.000000  1
  Sm  Sm3  1  0.831495  0.668505  0.000000  1
  Cu  Cu4  1  0.617022  0.882978  0.500000  1
  Ni  Ni5  1  0.885414  0.380632  0.500000  1
  Ni  Ni6  1  0.119368  0.614586  0.500000  1
  Ni  Ni7  1  0.383617  0.116383  0.500000  1
  Hg  Hg8  1  0.499131  0.502810  0.500000  1
  Hg  Hg9  1  0.997190  0.000869  0.500000  1
