# generated using pymatgen
data_K10CuAs4Pt
_symmetry_space_group_name_H-M   'P 1'
_cell_length_a   5.75532700
_cell_length_b   5.75532728
_cell_length_c   19.15226200
_cell_angle_alpha   90.00000000
_cell_angle_beta   90.00000000
_cell_angle_gamma   119.99999265
_symmetry_Int_Tables_number   1
_chemical_formula_structural   K10CuAs4Pt
_chemical_formula_sum   'K10 Cu1 As4 Pt1'
_cell_volume   549.40267167
_cell_formula_units_Z   1
loop_
 _symmetry_equiv_pos_site_id
 _symmetry_equiv_pos_as_xyz
  1  'x, y, z'
loop_
 _atom_site_type_symbol
 _atom_site_label
 _atom_site_symmetry_multiplicity
 _atom_site_fract_x
 _atom_site_fract_y
 _atom_site_fract_z
 _atom_site_occupancy
  K  K0  1  0.333333  0.666667  0.551902  1
  K  K1  1  0.666667  0.333333  0.046547  1
  K  K2  1  0.666667  0.333333  0.453453  1
  K  K3  1  0.333333  0.666667  0.948098  1
  K  K4  1  0.000000  0.000000  0.152345  1
  K  K5  1  0.000000  0.000000  0.646004  1
  K  K6  1  0.000000  0.000000  0.853996  1
  K  K7  1  0.000000  0.000000  0.347655  1
  K  K8  1  0.333333  0.666667  0.750000  1
  K  K9  1  0.666667  0.333333  0.250000  1
  Cu  Cu10  1  0.666667  0.333333  0.750000  1
  As  As11  1  0.333333  0.666667  0.376956  1
  As  As12  1  0.666667  0.333333  0.872161  1
  As  As13  1  0.666667  0.333333  0.627839  1
  As  As14  1  0.333333  0.666667  0.123044  1
  Pt  Pt15  1  0.333333  0.666667  0.250000  1
