# generated using pymatgen
data_Ca18HoCd8N7
_symmetry_space_group_name_H-M   'P 1'
_cell_length_a   10.41179304
_cell_length_b   10.41179382
_cell_length_c   10.41179400
_cell_angle_alpha   59.99999944
_cell_angle_beta   59.99999697
_cell_angle_gamma   59.99999862
_symmetry_Int_Tables_number   1
_chemical_formula_structural   Ca18HoCd8N7
_chemical_formula_sum   'Ca18 Ho1 Cd8 N7'
_cell_volume   798.10795465
_cell_formula_units_Z   1
loop_
 _symmetry_equiv_pos_site_id
 _symmetry_equiv_pos_as_xyz
  1  'x, y, z'
loop_
 _atom_site_type_symbol
 _atom_site_label
 _atom_site_symmetry_multiplicity
 _atom_site_fract_x
 _atom_site_fract_y
 _atom_site_fract_z
 _atom_site_occupancy
  Ca  Ca0  1  0.172066  0.500000  0.827934  1
  Ca  Ca1  1  0.500000  0.827934  0.172066  1
  Ca  Ca2  1  0.827934  0.172066  0.500000  1
  Ca  Ca3  1  0.165920  0.834080  0.165920  1
  Ca  Ca4  1  0.827934  0.500000  0.172066  1
  Ca  Ca5  1  0.172066  0.827934  0.500000  1
  Ca  Ca6  1  0.165920  0.165920  0.834080  1
  Ca  Ca7  1  0.172066  0.500000  0.500000  1
  Ca  Ca8  1  0.834080  0.834080  0.165920  1
  Ca  Ca9  1  0.834080  0.165920  0.834080  1
  Ca  Ca10  1  0.500000  0.827934  0.500000  1
  Ca  Ca11  1  0.500000  0.500000  0.172066  1
  Ca  Ca12  1  0.165920  0.834080  0.834080  1
  Ca  Ca13  1  0.500000  0.172066  0.827934  1
  Ca  Ca14  1  0.500000  0.172066  0.500000  1
  Ca  Ca15  1  0.827934  0.500000  0.500000  1
  Ca  Ca16  1  0.834080  0.165920  0.165920  1
  Ca  Ca17  1  0.500000  0.500000  0.827934  1
  Ho  Ho18  1  0.500000  0.500000  0.500000  1
  Cd  Cd19  1  0.174432  0.174432  0.476704  1
  Cd  Cd20  1  0.825568  0.523296  0.825568  1
  Cd  Cd21  1  0.476704  0.174432  0.174432  1
  Cd  Cd22  1  0.174432  0.476704  0.174432  1
  Cd  Cd23  1  0.523296  0.825568  0.825568  1
  Cd  Cd24  1  0.174432  0.174432  0.174432  1
  Cd  Cd25  1  0.825568  0.825568  0.825568  1
  Cd  Cd26  1  0.825568  0.825568  0.523296  1
  N  N27  1  0.667590  0.332410  0.667590  1
  N  N28  1  0.667590  0.332410  0.332410  1
  N  N29  1  0.332410  0.667590  0.667590  1
  N  N30  1  0.332410  0.667590  0.332410  1
  N  N31  1  0.332410  0.332410  0.667590  1
  N  N32  1  0.667590  0.667590  0.332410  1
  N  N33  1  0.000000  0.000000  0.000000  1
