# generated using pymatgen
data_AcSm(Cd2Pd)2
_symmetry_space_group_name_H-M   'P 1'
_cell_length_a   5.65612800
_cell_length_b   5.65612774
_cell_length_c   8.48774000
_cell_angle_alpha   90.00000000
_cell_angle_beta   90.00000000
_cell_angle_gamma   134.52441430
_symmetry_Int_Tables_number   1
_chemical_formula_structural   AcSm(Cd2Pd)2
_chemical_formula_sum   'Ac1 Sm1 Cd4 Pd2'
_cell_volume   193.59343551
_cell_formula_units_Z   1
loop_
 _symmetry_equiv_pos_site_id
 _symmetry_equiv_pos_as_xyz
  1  'x, y, z'
loop_
 _atom_site_type_symbol
 _atom_site_label
 _atom_site_symmetry_multiplicity
 _atom_site_fract_x
 _atom_site_fract_y
 _atom_site_fract_z
 _atom_site_occupancy
  Ac  Ac0  1  0.935451  0.064549  0.250000  1
  Sm  Sm1  1  0.065025  0.934975  0.750000  1
  Cd  Cd2  1  0.644625  0.355375  0.456103  1
  Cd  Cd3  1  0.355328  0.644672  0.558510  1
  Cd  Cd4  1  0.644625  0.355375  0.043897  1
  Cd  Cd5  1  0.355328  0.644672  0.941490  1
  Pd  Pd6  1  0.222911  0.777089  0.250000  1
  Pd  Pd7  1  0.776704  0.223296  0.750000  1
