# generated using pymatgen
data_Gd3Tm2Mo2C7
_symmetry_space_group_name_H-M   'P 1'
_cell_length_a   8.45131066
_cell_length_b   8.39400566
_cell_length_c   3.43676100
_cell_angle_alpha   90.00000000
_cell_angle_beta   90.00000000
_cell_angle_gamma   122.97573959
_symmetry_Int_Tables_number   1
_chemical_formula_structural   Gd3Tm2Mo2C7
_chemical_formula_sum   'Gd3 Tm2 Mo2 C7'
_cell_volume   204.52830653
_cell_formula_units_Z   1
loop_
 _symmetry_equiv_pos_site_id
 _symmetry_equiv_pos_as_xyz
  1  'x, y, z'
loop_
 _atom_site_type_symbol
 _atom_site_label
 _atom_site_symmetry_multiplicity
 _atom_site_fract_x
 _atom_site_fract_y
 _atom_site_fract_z
 _atom_site_occupancy
  Gd  Gd0  1  0.071578  0.327238  0.500000  1
  Gd  Gd1  1  0.927726  0.672088  0.500000  1
  Gd  Gd2  1  0.669524  0.929295  0.500000  1
  Tm  Tm3  1  0.497997  0.498854  0.000000  1
  Tm  Tm4  1  0.336588  0.076319  0.500000  1
  Mo  Mo5  1  0.709067  0.290138  0.000000  1
  Mo  Mo6  1  0.288299  0.710630  0.000000  1
  C  C7  1  0.621275  0.378411  0.500000  1
  C  C8  1  0.376688  0.622229  0.500000  1
  C  C9  1  0.002083  0.998032  0.000000  1
  C  C10  1  0.173959  0.163818  0.000000  1
  C  C11  1  0.830803  0.832876  0.000000  1
  C  C12  1  0.998992  0.499554  0.000000  1
  C  C13  1  0.495421  0.000519  0.000000  1
