# generated using pymatgen
data_TeOsF9
_symmetry_space_group_name_H-M   'P 1'
_cell_length_a   5.54022467
_cell_length_b   7.77305516
_cell_length_c   9.64729159
_cell_angle_alpha   105.14272864
_cell_angle_beta   106.64283434
_cell_angle_gamma   88.20789129
_symmetry_Int_Tables_number   1
_chemical_formula_structural   TeOsF9
_chemical_formula_sum   'Te2 Os2 F18'
_cell_volume   383.80435638
_cell_formula_units_Z   2
loop_
 _symmetry_equiv_pos_site_id
 _symmetry_equiv_pos_as_xyz
  1  'x, y, z'
loop_
 _atom_site_type_symbol
 _atom_site_label
 _atom_site_symmetry_multiplicity
 _atom_site_fract_x
 _atom_site_fract_y
 _atom_site_fract_z
 _atom_site_occupancy
  Te  Te0  1  0.854972  0.337961  0.162094  1
  Te  Te1  1  0.145028  0.662039  0.837906  1
  Os  Os2  1  0.430671  0.735485  0.294858  1
  Os  Os3  1  0.569329  0.264515  0.705142  1
  F  F4  1  0.104397  0.602453  0.181726  1
  F  F5  1  0.420735  0.498094  0.700984  1
  F  F6  1  0.362727  0.749039  0.476961  1
  F  F7  1  0.750856  0.848890  0.388923  1
  F  F8  1  0.927839  0.641055  0.645005  1
  F  F9  1  0.072161  0.358945  0.354995  1
  F  F10  1  0.486140  0.703420  0.098022  1
  F  F11  1  0.579265  0.501906  0.299016  1
  F  F12  1  0.091586  0.206283  0.075008  1
  F  F13  1  0.298664  0.871450  0.833027  1
  F  F14  1  0.908414  0.793717  0.924992  1
  F  F15  1  0.275024  0.949357  0.278105  1
  F  F16  1  0.513860  0.296580  0.901978  1
  F  F17  1  0.701336  0.128550  0.166973  1
  F  F18  1  0.895603  0.397547  0.818274  1
  F  F19  1  0.724976  0.050643  0.721895  1
  F  F20  1  0.637273  0.250961  0.523039  1
  F  F21  1  0.249144  0.151110  0.611077  1
