# generated using pymatgen
data_La15PrCd4Co3Pd
_symmetry_space_group_name_H-M   'P 1'
_cell_length_a   10.03875315
_cell_length_b   10.02554577
_cell_length_c   10.02482800
_cell_angle_alpha   60.00236829
_cell_angle_beta   60.04587562
_cell_angle_gamma   60.07678027
_symmetry_Int_Tables_number   1
_chemical_formula_structural   La15PrCd4Co3Pd
_chemical_formula_sum   'La15 Pr1 Cd4 Co3 Pd1'
_cell_volume   714.10062426
_cell_formula_units_Z   1
loop_
 _symmetry_equiv_pos_site_id
 _symmetry_equiv_pos_as_xyz
  1  'x, y, z'
loop_
 _atom_site_type_symbol
 _atom_site_label
 _atom_site_symmetry_multiplicity
 _atom_site_fract_x
 _atom_site_fract_y
 _atom_site_fract_z
 _atom_site_occupancy
  La  La0  1  0.562961  0.938527  0.561851  1
  La  La1  1  0.562961  0.938527  0.936660  1
  La  La2  1  0.678030  0.705231  0.308369  1
  La  La3  1  0.162995  0.147658  0.540641  1
  La  La4  1  0.309894  0.689895  0.689128  1
  La  La5  1  0.162995  0.147658  0.148706  1
  La  La6  1  0.536426  0.154455  0.154559  1
  La  La7  1  0.309894  0.689895  0.311083  1
  La  La8  1  0.310682  0.311900  0.688709  1
  La  La9  1  0.677921  0.308873  0.704319  1
  La  La10  1  0.940853  0.559934  0.560937  1
  La  La11  1  0.562261  0.560720  0.938509  1
  La  La12  1  0.162644  0.541769  0.147794  1
  La  La13  1  0.677921  0.308873  0.308888  1
  La  La14  1  0.940853  0.559934  0.938277  1
  Pr  Pr15  1  0.938975  0.938872  0.561077  1
  Cd  Cd16  1  0.238791  0.919923  0.920642  1
  Cd  Cd17  1  0.921408  0.921171  0.920474  1
  Cd  Cd18  1  0.921408  0.921171  0.236946  1
  Cd  Cd19  1  0.921004  0.236955  0.921020  1
  Co  Co20  1  0.359273  0.358513  0.922523  1
  Co  Co21  1  0.359490  0.922017  0.359246  1
  Co  Co22  1  0.359273  0.358513  0.359691  1
  Pd  Pd23  1  0.921086  0.359015  0.359950  1
