# generated using pymatgen
data_Yb9Pr8Dy3Pb16
_symmetry_space_group_name_H-M   'P 1'
_cell_length_a   8.08019977
_cell_length_b   8.60631531
_cell_length_c   16.18630142
_cell_angle_alpha   90.10934481
_cell_angle_beta   89.90975458
_cell_angle_gamma   89.93531502
_symmetry_Int_Tables_number   1
_chemical_formula_structural   Yb9Pr8Dy3Pb16
_chemical_formula_sum   'Yb9 Pr8 Dy3 Pb16'
_cell_volume   1125.60332432
_cell_formula_units_Z   1
loop_
 _symmetry_equiv_pos_site_id
 _symmetry_equiv_pos_as_xyz
  1  'x, y, z'
loop_
 _atom_site_type_symbol
 _atom_site_label
 _atom_site_symmetry_multiplicity
 _atom_site_fract_x
 _atom_site_fract_y
 _atom_site_fract_z
 _atom_site_occupancy
  Yb  Yb0  1  0.833589  0.664214  0.377656  1
  Yb  Yb1  1  0.332715  0.835489  0.377171  1
  Yb  Yb2  1  0.832868  0.664901  0.121792  1
  Yb  Yb3  1  0.667696  0.163639  0.877458  1
  Yb  Yb4  1  0.167337  0.336273  0.622397  1
  Yb  Yb5  1  0.834044  0.496356  0.749439  1
  Yb  Yb6  1  0.334032  0.003655  0.750630  1
  Yb  Yb7  1  0.163336  0.504218  0.250056  1
  Yb  Yb8  1  0.666257  0.995164  0.251536  1
  Pr  Pr9  1  0.500783  0.683730  0.595038  1
  Pr  Pr10  1  0.000187  0.815465  0.905566  1
  Pr  Pr11  1  0.500862  0.314746  0.094811  1
  Pr  Pr12  1  0.998356  0.186957  0.405657  1
  Pr  Pr13  1  0.497622  0.315446  0.404640  1
  Pr  Pr14  1  0.996634  0.185191  0.093538  1
  Pr  Pr15  1  0.502652  0.684366  0.905168  1
  Pr  Pr16  1  0.002157  0.814285  0.594362  1
  Dy  Dy17  1  0.666560  0.165660  0.624219  1
  Dy  Dy18  1  0.165679  0.334045  0.876882  1
  Dy  Dy19  1  0.336195  0.833398  0.123406  1
  Pb  Pb20  1  0.679996  0.962376  0.460506  1
  Pb  Pb21  1  0.184661  0.540387  0.039666  1
  Pb  Pb22  1  0.315316  0.040420  0.960852  1
  Pb  Pb23  1  0.818141  0.459535  0.541186  1
  Pb  Pb24  1  0.324410  0.040179  0.542354  1
  Pb  Pb25  1  0.823381  0.459887  0.957594  1
  Pb  Pb26  1  0.676815  0.959949  0.041680  1
  Pb  Pb27  1  0.180333  0.539615  0.458979  1
  Pb  Pb28  1  0.467908  0.383699  0.752776  1
  Pb  Pb29  1  0.968101  0.116791  0.747098  1
  Pb  Pb30  1  0.530582  0.613815  0.250113  1
  Pb  Pb31  1  0.033181  0.888320  0.247432  1
  Pb  Pb32  1  0.703587  0.854932  0.749737  1
  Pb  Pb33  1  0.203323  0.644597  0.750903  1
  Pb  Pb34  1  0.296216  0.144645  0.248470  1
  Pb  Pb35  1  0.794491  0.353655  0.249234  1
