# generated using pymatgen
data_Tb5Er5(InBi2)2
_symmetry_space_group_name_H-M   'P 1'
_cell_length_a   9.07150349
_cell_length_b   9.08084441
_cell_length_c   6.49417300
_cell_angle_alpha   90.00000000
_cell_angle_beta   90.00000000
_cell_angle_gamma   119.73527366
_symmetry_Int_Tables_number   1
_chemical_formula_structural   Tb5Er5(InBi2)2
_chemical_formula_sum   'Tb5 Er5 In2 Bi4'
_cell_volume   464.52846140
_cell_formula_units_Z   1
loop_
 _symmetry_equiv_pos_site_id
 _symmetry_equiv_pos_as_xyz
  1  'x, y, z'
loop_
 _atom_site_type_symbol
 _atom_site_label
 _atom_site_symmetry_multiplicity
 _atom_site_fract_x
 _atom_site_fract_y
 _atom_site_fract_z
 _atom_site_occupancy
  Tb  Tb0  1  0.761811  0.761625  0.750000  1
  Tb  Tb1  1  0.234610  0.997700  0.750000  1
  Tb  Tb2  1  0.997835  0.235016  0.750000  1
  Tb  Tb3  1  0.234521  0.234335  0.250000  1
  Tb  Tb4  1  0.765736  0.008346  0.250000  1
  Er  Er5  1  0.668944  0.329166  0.003815  1
  Er  Er6  1  0.329020  0.669061  0.003771  1
  Er  Er7  1  0.329020  0.669061  0.496229  1
  Er  Er8  1  0.668944  0.329166  0.496185  1
  Er  Er9  1  0.009027  0.765771  0.250000  1
  In  In10  1  0.396830  0.001757  0.250000  1
  In  In11  1  0.002085  0.397870  0.250000  1
  Bi  Bi12  1  0.394103  0.394066  0.750000  1
  Bi  Bi13  1  0.601652  0.996820  0.750000  1
  Bi  Bi14  1  0.996802  0.601677  0.750000  1
  Bi  Bi15  1  0.609061  0.608564  0.250000  1
