# generated using pymatgen
data_Er20CoIrPt10
_symmetry_space_group_name_H-M   'P 1'
_cell_length_a   10.89676200
_cell_length_b   10.89676200
_cell_length_c   6.36289900
_cell_angle_alpha   90.00000000
_cell_angle_beta   90.00000000
_cell_angle_gamma   90.00000000
_symmetry_Int_Tables_number   1
_chemical_formula_structural   Er20CoIrPt10
_chemical_formula_sum   'Er20 Co1 Ir1 Pt10'
_cell_volume   755.52695004
_cell_formula_units_Z   1
loop_
 _symmetry_equiv_pos_site_id
 _symmetry_equiv_pos_as_xyz
  1  'x, y, z'
loop_
 _atom_site_type_symbol
 _atom_site_label
 _atom_site_symmetry_multiplicity
 _atom_site_fract_x
 _atom_site_fract_y
 _atom_site_fract_z
 _atom_site_occupancy
  Er  Er0  1  0.291863  0.088610  0.375373  1
  Er  Er1  1  0.291937  0.911568  0.875439  1
  Er  Er2  1  0.708063  0.088432  0.875439  1
  Er  Er3  1  0.708137  0.911390  0.375373  1
  Er  Er4  1  0.588432  0.791937  0.875439  1
  Er  Er5  1  0.588610  0.208137  0.375373  1
  Er  Er6  1  0.411390  0.791863  0.375373  1
  Er  Er7  1  0.411568  0.208063  0.875439  1
  Er  Er8  1  0.203392  0.413620  0.626958  1
  Er  Er9  1  0.202662  0.586419  0.121890  1
  Er  Er10  1  0.797338  0.413581  0.121890  1
  Er  Er11  1  0.796608  0.586380  0.626958  1
  Er  Er12  1  0.913581  0.702662  0.121890  1
  Er  Er13  1  0.913620  0.296608  0.626958  1
  Er  Er14  1  0.086380  0.703392  0.626958  1
  Er  Er15  1  0.086419  0.297338  0.121890  1
  Er  Er16  1  0.000000  0.000000  0.501655  1
  Er  Er17  1  0.000000  0.000000  0.001458  1
  Er  Er18  1  0.500000  0.500000  0.001458  1
  Er  Er19  1  0.500000  0.500000  0.501655  1
  Co  Co20  1  0.000000  0.500000  0.880262  1
  Ir  Ir21  1  0.000000  0.500000  0.379782  1
  Pt  Pt22  1  0.845928  0.153195  0.250273  1
  Pt  Pt23  1  0.845996  0.846633  0.750215  1
  Pt  Pt24  1  0.154004  0.153367  0.750215  1
  Pt  Pt25  1  0.154072  0.846805  0.250273  1
  Pt  Pt26  1  0.653367  0.345996  0.750215  1
  Pt  Pt27  1  0.653195  0.654072  0.250273  1
  Pt  Pt28  1  0.346805  0.345928  0.250273  1
  Pt  Pt29  1  0.346633  0.654004  0.750215  1
  Pt  Pt30  1  0.500000  0.000000  0.116716  1
  Pt  Pt31  1  0.500000  0.000000  0.616413  1
