# generated using pymatgen
data_Ti6Tc5P6Os
_symmetry_space_group_name_H-M   'P 1'
_cell_length_a   7.36063467
_cell_length_b   7.33081371
_cell_length_c   7.35828660
_cell_angle_alpha   127.51294485
_cell_angle_beta   124.16880401
_cell_angle_gamma   80.27045965
_symmetry_Int_Tables_number   1
_chemical_formula_structural   Ti6Tc5P6Os
_chemical_formula_sum   'Ti6 Tc5 P6 Os1'
_cell_volume   251.36503975
_cell_formula_units_Z   1
loop_
 _symmetry_equiv_pos_site_id
 _symmetry_equiv_pos_as_xyz
  1  'x, y, z'
loop_
 _atom_site_type_symbol
 _atom_site_label
 _atom_site_symmetry_multiplicity
 _atom_site_fract_x
 _atom_site_fract_y
 _atom_site_fract_z
 _atom_site_occupancy
  Ti  Ti0  1  0.446283  0.412927  0.469781  1
  Ti  Ti1  1  0.550598  0.002261  0.955018  1
  Ti  Ti2  1  0.037986  0.000761  0.459168  1
  Ti  Ti3  1  0.961905  0.420432  0.956672  1
  Ti  Ti4  1  0.248242  0.584454  0.838800  1
  Ti  Ti5  1  0.755043  0.601250  0.345030  1
  Tc  Tc6  1  0.974761  0.256341  0.230579  1
  Tc  Tc7  1  0.522446  0.255694  0.780871  1
  Tc  Tc8  1  0.396328  0.748333  0.402297  1
  Tc  Tc9  1  0.593184  0.002893  0.344025  1
  Tc  Tc10  1  0.847071  0.750463  0.851040  1
  P  P11  1  0.231095  0.997561  0.267661  1
  P  P12  1  0.774684  0.006435  0.730117  1
  P  P13  1  0.166252  0.672402  0.504873  1
  P  P14  1  0.829501  0.335791  0.498737  1
  P  P15  1  0.667513  0.671809  0.005333  1
  P  P16  1  0.335579  0.335050  0.006221  1
  Os  Os17  1  0.161529  0.003142  0.911777  1
