# generated using pymatgen
data_Li8Hf3NpI24
_symmetry_space_group_name_H-M   'P 1'
_cell_length_a   7.31613400
_cell_length_b   7.31613409
_cell_length_c   29.48801300
_cell_angle_alpha   90.00000000
_cell_angle_beta   90.00000000
_cell_angle_gamma   119.99999961
_symmetry_Int_Tables_number   1
_chemical_formula_structural   Li8Hf3NpI24
_chemical_formula_sum   'Li8 Hf3 Np1 I24'
_cell_volume   1366.90851952
_cell_formula_units_Z   1
loop_
 _symmetry_equiv_pos_site_id
 _symmetry_equiv_pos_as_xyz
  1  'x, y, z'
loop_
 _atom_site_type_symbol
 _atom_site_label
 _atom_site_symmetry_multiplicity
 _atom_site_fract_x
 _atom_site_fract_y
 _atom_site_fract_z
 _atom_site_occupancy
  Li  Li0  1  0.000000  0.000000  0.250405  1
  Li  Li1  1  0.000000  0.000000  0.749595  1
  Li  Li2  1  0.333333  0.666667  0.000240  1
  Li  Li3  1  0.333333  0.666667  0.499763  1
  Li  Li4  1  0.333333  0.666667  0.250296  1
  Li  Li5  1  0.666667  0.333333  0.749704  1
  Li  Li6  1  0.666667  0.333333  0.999760  1
  Li  Li7  1  0.666667  0.333333  0.500237  1
  Hf  Hf8  1  0.000000  0.000000  0.500000  1
  Hf  Hf9  1  0.333333  0.666667  0.749521  1
  Hf  Hf10  1  0.666667  0.333333  0.250479  1
  Np  Np11  1  0.000000  0.000000  0.000000  1
  I  I12  1  0.348102  0.014679  0.306850  1
  I  I13  1  0.333290  0.985193  0.805961  1
  I  I14  1  0.999826  0.335225  0.058962  1
  I  I15  1  0.000006  0.318557  0.556442  1
  I  I16  1  0.985321  0.333425  0.306850  1
  I  I17  1  0.014807  0.348095  0.805961  1
  I  I18  1  0.348095  0.333290  0.194039  1
  I  I19  1  0.333425  0.348102  0.693150  1
  I  I20  1  0.318557  0.318550  0.443558  1
  I  I21  1  0.335225  0.335397  0.941038  1
  I  I22  1  0.681450  0.000006  0.443558  1
  I  I23  1  0.335397  0.000174  0.058962  1
  I  I24  1  0.318550  0.999994  0.556442  1
  I  I25  1  0.664775  0.664603  0.058962  1
  I  I26  1  0.681443  0.681450  0.556442  1
  I  I27  1  0.666575  0.651898  0.306850  1
  I  I28  1  0.651905  0.666710  0.805961  1
  I  I29  1  0.985193  0.651905  0.194039  1
  I  I30  1  0.014679  0.666575  0.693150  1
  I  I31  1  0.999994  0.681443  0.443558  1
  I  I32  1  0.000174  0.664775  0.941038  1
  I  I33  1  0.664603  0.999826  0.941038  1
  I  I34  1  0.666710  0.014807  0.194039  1
  I  I35  1  0.651898  0.985321  0.693150  1
