# generated using pymatgen
data_Tm4GaSb5Rh7
_symmetry_space_group_name_H-M   'P 1'
_cell_length_a   7.51958666
_cell_length_b   7.51958754
_cell_length_c   7.51958759
_cell_angle_alpha   109.03308217
_cell_angle_beta   109.69072773
_cell_angle_gamma   109.69072595
_symmetry_Int_Tables_number   1
_chemical_formula_structural   Tm4GaSb5Rh7
_chemical_formula_sum   'Tm4 Ga1 Sb5 Rh7'
_cell_volume   327.29634626
_cell_formula_units_Z   1
loop_
 _symmetry_equiv_pos_site_id
 _symmetry_equiv_pos_as_xyz
  1  'x, y, z'
loop_
 _atom_site_type_symbol
 _atom_site_label
 _atom_site_symmetry_multiplicity
 _atom_site_fract_x
 _atom_site_fract_y
 _atom_site_fract_z
 _atom_site_occupancy
  Tm  Tm0  1  0.518984  0.008819  0.008819  1
  Tm  Tm1  1  0.000000  0.489835  0.008819  1
  Tm  Tm2  1  0.000000  0.008819  0.489835  1
  Tm  Tm3  1  0.481016  0.489835  0.489835  1
  Ga  Ga4  1  0.000000  0.325725  0.325725  1
  Sb  Sb5  1  0.685352  0.997913  0.683265  1
  Sb  Sb6  1  0.685352  0.683265  0.997913  1
  Sb  Sb7  1  0.000000  0.683031  0.683031  1
  Sb  Sb8  1  0.314648  0.997913  0.312560  1
  Sb  Sb9  1  0.314648  0.312560  0.997913  1
  Rh  Rh10  1  0.000000  0.017320  0.017320  1
  Rh  Rh11  1  0.500000  0.748895  0.248895  1
  Rh  Rh12  1  0.751507  0.496794  0.248302  1
  Rh  Rh13  1  0.248493  0.745287  0.496794  1
  Rh  Rh14  1  0.248493  0.496794  0.745287  1
  Rh  Rh15  1  0.500000  0.248895  0.748895  1
  Rh  Rh16  1  0.751507  0.248302  0.496794  1
