# generated using pymatgen
data_La4Tb2YbCoI12
_symmetry_space_group_name_H-M   'P 1'
_cell_length_a   10.10124188
_cell_length_b   10.09889396
_cell_length_c   9.96068032
_cell_angle_alpha   107.37701378
_cell_angle_beta   106.83706208
_cell_angle_gamma   106.78877908
_symmetry_Int_Tables_number   1
_chemical_formula_structural   La4Tb2YbCoI12
_chemical_formula_sum   'La4 Tb2 Yb1 Co1 I12'
_cell_volume   846.17674053
_cell_formula_units_Z   1
loop_
 _symmetry_equiv_pos_site_id
 _symmetry_equiv_pos_as_xyz
  1  'x, y, z'
loop_
 _atom_site_type_symbol
 _atom_site_label
 _atom_site_symmetry_multiplicity
 _atom_site_fract_x
 _atom_site_fract_y
 _atom_site_fract_z
 _atom_site_occupancy
  La  La0  1  0.023737  0.092632  0.286863  1
  La  La1  1  0.096865  0.307511  0.024421  1
  La  La2  1  0.307699  0.024833  0.100989  1
  La  La3  1  0.974692  0.901970  0.711026  1
  Tb  Tb4  1  0.899499  0.705816  0.973202  1
  Tb  Tb5  1  0.705555  0.973955  0.901502  1
  Yb  Yb6  1  0.500371  0.501032  0.502333  1
  Co  Co7  1  0.999106  0.998499  0.998271  1
  I  I8  1  0.164076  0.464178  0.389859  1
  I  I9  1  0.461814  0.384448  0.160277  1
  I  I10  1  0.386451  0.165706  0.468155  1
  I  I11  1  0.837098  0.535942  0.623978  1
  I  I12  1  0.549826  0.627401  0.848960  1
  I  I13  1  0.614487  0.840783  0.544798  1
  I  I14  1  0.678800  0.069370  0.216463  1
  I  I15  1  0.071332  0.222500  0.674517  1
  I  I16  1  0.210650  0.676629  0.067575  1
  I  I17  1  0.326658  0.927305  0.771772  1
  I  I18  1  0.924403  0.767000  0.309652  1
  I  I19  1  0.766884  0.312489  0.925387  1
