# generated using pymatgen
data_DyEr9(InBi)3
_symmetry_space_group_name_H-M   'P 1'
_cell_length_a   8.99471492
_cell_length_b   8.99471681
_cell_length_c   6.52212100
_cell_angle_alpha   90.00000000
_cell_angle_beta   90.00000000
_cell_angle_gamma   120.05180619
_symmetry_Int_Tables_number   1
_chemical_formula_structural   DyEr9(InBi)3
_chemical_formula_sum   'Dy1 Er9 In3 Bi3'
_cell_volume   456.73829677
_cell_formula_units_Z   1
loop_
 _symmetry_equiv_pos_site_id
 _symmetry_equiv_pos_as_xyz
  1  'x, y, z'
loop_
 _atom_site_type_symbol
 _atom_site_label
 _atom_site_symmetry_multiplicity
 _atom_site_fract_x
 _atom_site_fract_y
 _atom_site_fract_z
 _atom_site_occupancy
  Dy  Dy0  1  0.763934  0.763934  0.750000  1
  Er  Er1  1  0.666623  0.333305  0.007204  1
  Er  Er2  1  0.333305  0.666623  0.007204  1
  Er  Er3  1  0.333305  0.666623  0.492796  1
  Er  Er4  1  0.666623  0.333305  0.492796  1
  Er  Er5  1  0.236328  0.000181  0.750000  1
  Er  Er6  1  0.000181  0.236328  0.750000  1
  Er  Er7  1  0.237850  0.237850  0.250000  1
  Er  Er8  1  0.761897  0.000130  0.250000  1
  Er  Er9  1  0.000130  0.761897  0.250000  1
  In  In10  1  0.606813  0.606813  0.250000  1
  In  In11  1  0.393298  0.000027  0.250000  1
  In  In12  1  0.000027  0.393298  0.250000  1
  Bi  Bi13  1  0.395880  0.395880  0.750000  1
  Bi  Bi14  1  0.603454  0.000353  0.750000  1
  Bi  Bi15  1  0.000353  0.603454  0.750000  1
