# generated using pymatgen
data_CeDy5Y2(B6Ru)4
_symmetry_space_group_name_H-M   'P 1'
_cell_length_a   3.68162500
_cell_length_b   9.18147400
_cell_length_c   11.54501200
_cell_angle_alpha   90.04565100
_cell_angle_beta   90.00000000
_cell_angle_gamma   90.00000000
_symmetry_Int_Tables_number   1
_chemical_formula_structural   CeDy5Y2(B6Ru)4
_chemical_formula_sum   'Ce1 Dy5 Y2 B24 Ru4'
_cell_volume   390.25296375
_cell_formula_units_Z   1
loop_
 _symmetry_equiv_pos_site_id
 _symmetry_equiv_pos_as_xyz
  1  'x, y, z'
loop_
 _atom_site_type_symbol
 _atom_site_label
 _atom_site_symmetry_multiplicity
 _atom_site_fract_x
 _atom_site_fract_y
 _atom_site_fract_z
 _atom_site_occupancy
  Ce  Ce0  1  0.000000  0.323873  0.413493  1
  Dy  Dy1  1  0.000000  0.678473  0.586971  1
  Dy  Dy2  1  0.000000  0.822521  0.085664  1
  Dy  Dy3  1  0.000000  0.177179  0.913636  1
  Dy  Dy4  1  0.000000  0.943258  0.372967  1
  Dy  Dy5  1  0.000000  0.055114  0.627456  1
  Y  Y6  1  0.000000  0.444092  0.126188  1
  Y  Y7  1  0.000000  0.556584  0.873569  1
  B  B8  1  0.500000  0.554507  0.432230  1
  B  B9  1  0.500000  0.446295  0.568015  1
  B  B10  1  0.500000  0.053703  0.067251  1
  B  B11  1  0.500000  0.946068  0.932793  1
  B  B12  1  0.500000  0.748070  0.419913  1
  B  B13  1  0.500000  0.252350  0.580923  1
  B  B14  1  0.500000  0.247365  0.079546  1
  B  B15  1  0.500000  0.752666  0.920000  1
  B  B16  1  0.500000  0.790888  0.266417  1
  B  B17  1  0.500000  0.209047  0.734215  1
  B  B18  1  0.500000  0.290439  0.232704  1
  B  B19  1  0.500000  0.709254  0.766833  1
  B  B20  1  0.500000  0.632724  0.184884  1
  B  B21  1  0.500000  0.367675  0.814809  1
  B  B22  1  0.500000  0.131741  0.314000  1
  B  B23  1  0.500000  0.867620  0.685680  1
  B  B24  1  0.500000  0.983200  0.212521  1
  B  B25  1  0.500000  0.016041  0.787159  1
  B  B26  1  0.500000  0.484934  0.286540  1
  B  B27  1  0.500000  0.516180  0.713506  1
  B  B28  1  0.500000  0.611514  0.030596  1
  B  B29  1  0.500000  0.388562  0.969094  1
  B  B30  1  0.500000  0.109288  0.469844  1
  B  B31  1  0.500000  0.888720  0.530633  1
  Ru  Ru32  1  0.000000  0.638040  0.321284  1
  Ru  Ru33  1  0.000000  0.361833  0.678002  1
  Ru  Ru34  1  0.000000  0.137957  0.179379  1
  Ru  Ru35  1  0.000000  0.862227  0.821285  1
