# generated using pymatgen
data_Bi4IrRu3O14
_symmetry_space_group_name_H-M   'P 1'
_cell_length_a   7.34969744
_cell_length_b   7.34969715
_cell_length_c   7.34969704
_cell_angle_alpha   60.09808342
_cell_angle_beta   60.09808554
_cell_angle_gamma   60.09808181
_symmetry_Int_Tables_number   1
_chemical_formula_structural   Bi4IrRu3O14
_chemical_formula_sum   'Bi4 Ir1 Ru3 O14'
_cell_volume   281.35682803
_cell_formula_units_Z   1
loop_
 _symmetry_equiv_pos_site_id
 _symmetry_equiv_pos_as_xyz
  1  'x, y, z'
loop_
 _atom_site_type_symbol
 _atom_site_label
 _atom_site_symmetry_multiplicity
 _atom_site_fract_x
 _atom_site_fract_y
 _atom_site_fract_z
 _atom_site_occupancy
  Bi  Bi0  1  0.125000  0.125000  0.625000  1
  Bi  Bi1  1  0.125000  0.625000  0.125000  1
  Bi  Bi2  1  0.625000  0.125000  0.125000  1
  Bi  Bi3  1  0.125000  0.125000  0.125000  1
  Ir  Ir4  1  0.625000  0.625000  0.625000  1
  Ru  Ru5  1  0.625000  0.625000  0.125000  1
  Ru  Ru6  1  0.625000  0.125000  0.625000  1
  Ru  Ru7  1  0.125000  0.625000  0.625000  1
  O  O8  1  0.250134  0.250134  0.250134  1
  O  O9  1  0.999866  0.999866  0.999866  1
  O  O10  1  0.545542  0.954115  0.545542  1
  O  O11  1  0.296239  0.704090  0.296239  1
  O  O12  1  0.545542  0.545542  0.954115  1
  O  O13  1  0.954115  0.545542  0.545542  1
  O  O14  1  0.545910  0.953761  0.953761  1
  O  O15  1  0.953761  0.953761  0.545910  1
  O  O16  1  0.953761  0.545910  0.953761  1
  O  O17  1  0.704090  0.296239  0.296239  1
  O  O18  1  0.295885  0.704458  0.704458  1
  O  O19  1  0.704458  0.295885  0.704458  1
  O  O20  1  0.296239  0.296239  0.704090  1
  O  O21  1  0.704458  0.704458  0.295885  1
