# generated using pymatgen
data_CeY4(B3Ru)2
_symmetry_space_group_name_H-M   'P 1'
_cell_length_a   5.53918047
_cell_length_b   5.53917965
_cell_length_c   8.31883564
_cell_angle_alpha   70.55329052
_cell_angle_beta   70.55328207
_cell_angle_gamma   59.99999657
_symmetry_Int_Tables_number   1
_chemical_formula_structural   CeY4(B3Ru)2
_chemical_formula_sum   'Ce1 Y4 B6 Ru2'
_cell_volume   204.05980642
_cell_formula_units_Z   1
loop_
 _symmetry_equiv_pos_site_id
 _symmetry_equiv_pos_as_xyz
  1  'x, y, z'
loop_
 _atom_site_type_symbol
 _atom_site_label
 _atom_site_symmetry_multiplicity
 _atom_site_fract_x
 _atom_site_fract_y
 _atom_site_fract_z
 _atom_site_occupancy
  Ce  Ce0  1  0.000000  0.000000  0.000000  1
  Y  Y1  1  0.749240  0.749240  0.752281  1
  Y  Y2  1  0.250760  0.250760  0.247719  1
  Y  Y3  1  0.584402  0.584402  0.246795  1
  Y  Y4  1  0.415598  0.415598  0.753205  1
  B  B5  1  0.500000  0.171713  0.500000  1
  B  B6  1  0.828287  0.500000  0.500000  1
  B  B7  1  0.171713  0.828287  0.500000  1
  B  B8  1  0.171713  0.500000  0.500000  1
  B  B9  1  0.828287  0.171713  0.500000  1
  B  B10  1  0.500000  0.828287  0.500000  1
  Ru  Ru11  1  0.891232  0.891232  0.326304  1
  Ru  Ru12  1  0.108768  0.108768  0.673696  1
