# generated using pymatgen
data_Th2MoWC3
_symmetry_space_group_name_H-M   'P 1'
_cell_length_a   6.39289640
_cell_length_b   6.39289651
_cell_length_c   5.89865572
_cell_angle_alpha   66.14694119
_cell_angle_beta   66.14694351
_cell_angle_gamma   30.87328413
_symmetry_Int_Tables_number   1
_chemical_formula_structural   Th2MoWC3
_chemical_formula_sum   'Th2 Mo1 W1 C3'
_cell_volume   112.29181514
_cell_formula_units_Z   1
loop_
 _symmetry_equiv_pos_site_id
 _symmetry_equiv_pos_as_xyz
  1  'x, y, z'
loop_
 _atom_site_type_symbol
 _atom_site_label
 _atom_site_symmetry_multiplicity
 _atom_site_fract_x
 _atom_site_fract_y
 _atom_site_fract_z
 _atom_site_occupancy
  Th  Th0  1  0.394447  0.394447  0.813953  1
  Th  Th1  1  0.605008  0.605008  0.189563  1
  Mo  Mo2  1  0.842905  0.842905  0.328570  1
  W  W3  1  0.158283  0.158283  0.668982  1
  C  C4  1  0.001369  0.001369  0.997080  1
  C  C5  1  0.252729  0.252729  0.264792  1
  C  C6  1  0.745259  0.745259  0.737063  1
