# generated using pymatgen
data_La9Nd3(SiBr3)4
_symmetry_space_group_name_H-M   'P 1'
_cell_length_a   10.60981946
_cell_length_b   10.62769144
_cell_length_c   10.60981948
_cell_angle_alpha   109.57227317
_cell_angle_beta   109.46572074
_cell_angle_gamma   109.57226672
_symmetry_Int_Tables_number   1
_chemical_formula_structural   La9Nd3(SiBr3)4
_chemical_formula_sum   'La9 Nd3 Si4 Br12'
_cell_volume   918.70153629
_cell_formula_units_Z   1
loop_
 _symmetry_equiv_pos_site_id
 _symmetry_equiv_pos_as_xyz
  1  'x, y, z'
loop_
 _atom_site_type_symbol
 _atom_site_label
 _atom_site_symmetry_multiplicity
 _atom_site_fract_x
 _atom_site_fract_y
 _atom_site_fract_z
 _atom_site_occupancy
  La  La0  1  0.480051  0.489513  0.238039  1
  La  La1  1  0.261961  0.010487  0.019949  1
  La  La2  1  0.239928  0.479652  0.490466  1
  La  La3  1  0.009534  0.020348  0.260072  1
  La  La4  1  0.010810  0.490177  0.749652  1
  La  La5  1  0.490407  0.239343  0.479231  1
  La  La6  1  0.750348  0.009823  0.489190  1
  La  La7  1  0.020769  0.260657  0.009593  1
  La  La8  1  0.260968  0.750000  0.239032  1
  Nd  Nd9  1  0.487015  0.750000  0.012985  1
  Nd  Nd10  1  0.750445  0.235657  0.262899  1
  Nd  Nd11  1  0.237101  0.264343  0.749555  1
  Si  Si12  1  0.250276  0.250000  0.249724  1
  Si  Si13  1  0.999941  0.250000  0.500059  1
  Si  Si14  1  0.250439  0.500315  0.999408  1
  Si  Si15  1  0.500592  0.999685  0.249561  1
  Br  Br16  1  0.999478  0.994182  0.745161  1
  Br  Br17  1  0.751805  0.745403  0.245827  1
  Br  Br18  1  0.991025  0.745523  0.994959  1
  Br  Br19  1  0.250413  0.998439  0.507002  1
  Br  Br20  1  0.742986  0.996027  0.993682  1
  Br  Br21  1  0.504670  0.250000  0.995330  1
  Br  Br22  1  0.745666  0.250000  0.754334  1
  Br  Br23  1  0.505041  0.754477  0.508975  1
  Br  Br24  1  0.754839  0.505818  0.500522  1
  Br  Br25  1  0.254173  0.754597  0.748195  1
  Br  Br26  1  0.506318  0.503973  0.757014  1
  Br  Br27  1  0.992998  0.501561  0.249587  1
