# generated using pymatgen
data_TiNb5Re2(B3Ru2)2
_symmetry_space_group_name_H-M   'P 1'
_cell_length_a   3.14556800
_cell_length_b   6.47736370
_cell_length_c   10.94777419
_cell_angle_alpha   89.94667458
_cell_angle_beta   90.00000000
_cell_angle_gamma   90.00000000
_symmetry_Int_Tables_number   1
_chemical_formula_structural   TiNb5Re2(B3Ru2)2
_chemical_formula_sum   'Ti1 Nb5 Re2 B6 Ru4'
_cell_volume   223.06067086
_cell_formula_units_Z   1
loop_
 _symmetry_equiv_pos_site_id
 _symmetry_equiv_pos_as_xyz
  1  'x, y, z'
loop_
 _atom_site_type_symbol
 _atom_site_label
 _atom_site_symmetry_multiplicity
 _atom_site_fract_x
 _atom_site_fract_y
 _atom_site_fract_z
 _atom_site_occupancy
  Ti  Ti0  1  0.000000  0.274010  0.954685  1
  Nb  Nb1  1  0.000000  0.719640  0.043718  1
  Nb  Nb2  1  0.000000  0.278658  0.545721  1
  Nb  Nb3  1  0.000000  0.722535  0.455403  1
  Nb  Nb4  1  0.000000  0.354709  0.248701  1
  Nb  Nb5  1  0.000000  0.647611  0.752394  1
  Re  Re6  1  0.500000  0.700952  0.249241  1
  Re  Re7  1  0.500000  0.300542  0.752480  1
  B  B8  1  0.000000  0.952812  0.246935  1
  B  B9  1  0.000000  0.052480  0.752145  1
  B  B10  1  0.500000  0.448353  0.082497  1
  B  B11  1  0.500000  0.541833  0.915809  1
  B  B12  1  0.500000  0.451337  0.414461  1
  B  B13  1  0.500000  0.549077  0.586578  1
  Ru  Ru14  1  0.500000  0.077814  0.121395  1
  Ru  Ru15  1  0.500000  0.926882  0.877409  1
  Ru  Ru16  1  0.500000  0.074704  0.376686  1
  Ru  Ru17  1  0.500000  0.926051  0.623744  1
