# generated using pymatgen
data_Tb3HoCu2(Si2Ru)2
_symmetry_space_group_name_H-M   'P 1'
_cell_length_a   4.23904700
_cell_length_b   7.00366342
_cell_length_c   7.36996621
_cell_angle_alpha   91.68304814
_cell_angle_beta   90.00000000
_cell_angle_gamma   90.00000000
_symmetry_Int_Tables_number   1
_chemical_formula_structural   Tb3HoCu2(Si2Ru)2
_chemical_formula_sum   'Tb3 Ho1 Cu2 Si4 Ru2'
_cell_volume   218.71148917
_cell_formula_units_Z   1
loop_
 _symmetry_equiv_pos_site_id
 _symmetry_equiv_pos_as_xyz
  1  'x, y, z'
loop_
 _atom_site_type_symbol
 _atom_site_label
 _atom_site_symmetry_multiplicity
 _atom_site_fract_x
 _atom_site_fract_y
 _atom_site_fract_z
 _atom_site_occupancy
  Tb  Tb0  1  0.250000  0.992080  0.796697  1
  Tb  Tb1  1  0.750000  0.007873  0.203846  1
  Tb  Tb2  1  0.250000  0.492575  0.686440  1
  Ho  Ho3  1  0.750000  0.508435  0.310728  1
  Cu  Cu4  1  0.750000  0.833316  0.571977  1
  Cu  Cu5  1  0.250000  0.168183  0.426826  1
  Si  Si6  1  0.250000  0.300048  0.089212  1
  Si  Si7  1  0.750000  0.698980  0.912934  1
  Si  Si8  1  0.250000  0.796086  0.388781  1
  Si  Si9  1  0.750000  0.203951  0.610593  1
  Ru  Ru10  1  0.750000  0.347435  0.934236  1
  Ru  Ru11  1  0.250000  0.651038  0.067729  1
