# generated using pymatgen
data_NdThIr4
_symmetry_space_group_name_H-M   'P 1'
_cell_length_a   5.45173700
_cell_length_b   5.45173736
_cell_length_c   5.45173700
_cell_angle_alpha   120.00000390
_cell_angle_beta   90.00000000
_cell_angle_gamma   120.00000390
_symmetry_Int_Tables_number   1
_chemical_formula_structural   NdThIr4
_chemical_formula_sum   'Nd1 Th1 Ir4'
_cell_volume   114.57494815
_cell_formula_units_Z   1
loop_
 _symmetry_equiv_pos_site_id
 _symmetry_equiv_pos_as_xyz
  1  'x, y, z'
loop_
 _atom_site_type_symbol
 _atom_site_label
 _atom_site_symmetry_multiplicity
 _atom_site_fract_x
 _atom_site_fract_y
 _atom_site_fract_z
 _atom_site_occupancy
  Nd  Nd0  1  0.749998  0.499999  0.249999  1
  Th  Th1  1  0.000000  0.000000  0.000000  1
  Ir  Ir2  1  0.375088  0.750175  0.125262  1
  Ir  Ir3  1  0.375088  0.249825  0.624913  1
  Ir  Ir4  1  0.874738  0.249825  0.624913  1
  Ir  Ir5  1  0.375088  0.750175  0.624913  1
