# generated using pymatgen
data_Pr4Mg2P5
_symmetry_space_group_name_H-M   'P 1'
_cell_length_a   4.22674500
_cell_length_b   4.22674428
_cell_length_c   17.32107600
_cell_angle_alpha   90.00000000
_cell_angle_beta   90.00000000
_cell_angle_gamma   119.99999783
_symmetry_Int_Tables_number   1
_chemical_formula_structural   Pr4Mg2P5
_chemical_formula_sum   'Pr4 Mg2 P5'
_cell_volume   267.98934635
_cell_formula_units_Z   1
loop_
 _symmetry_equiv_pos_site_id
 _symmetry_equiv_pos_as_xyz
  1  'x, y, z'
loop_
 _atom_site_type_symbol
 _atom_site_label
 _atom_site_symmetry_multiplicity
 _atom_site_fract_x
 _atom_site_fract_y
 _atom_site_fract_z
 _atom_site_occupancy
  Pr  Pr0  1  0.666667  0.333333  0.901886  1
  Pr  Pr1  1  0.333333  0.666667  0.098114  1
  Pr  Pr2  1  0.000000  0.000000  0.708518  1
  Pr  Pr3  1  0.000000  0.000000  0.291482  1
  Mg  Mg4  1  0.666667  0.333333  0.445172  1
  Mg  Mg5  1  0.333333  0.666667  0.554828  1
  P  P6  1  0.666667  0.333333  0.598666  1
  P  P7  1  0.333333  0.666667  0.401334  1
  P  P8  1  0.666667  0.333333  0.198598  1
  P  P9  1  0.333333  0.666667  0.801402  1
  P  P10  1  0.000000  0.000000  0.000000  1
