# generated using pymatgen
data_Nd2Ho4RuI10
_symmetry_space_group_name_H-M   'P 1'
_cell_length_a   7.80304038
_cell_length_b   9.84873785
_cell_length_c   9.80564556
_cell_angle_alpha   106.62624217
_cell_angle_beta   96.18080542
_cell_angle_gamma   105.03210996
_symmetry_Int_Tables_number   1
_chemical_formula_structural   Nd2Ho4RuI10
_chemical_formula_sum   'Nd2 Ho4 Ru1 I10'
_cell_volume   683.75016922
_cell_formula_units_Z   1
loop_
 _symmetry_equiv_pos_site_id
 _symmetry_equiv_pos_as_xyz
  1  'x, y, z'
loop_
 _atom_site_type_symbol
 _atom_site_label
 _atom_site_symmetry_multiplicity
 _atom_site_fract_x
 _atom_site_fract_y
 _atom_site_fract_z
 _atom_site_occupancy
  Nd  Nd0  1  0.113957  0.043078  0.769654  1
  Nd  Nd1  1  0.886043  0.956922  0.230346  1
  Ho  Ho2  1  0.970103  0.287155  0.085872  1
  Ho  Ho3  1  0.650373  0.873573  0.833000  1
  Ho  Ho4  1  0.349627  0.126427  0.167000  1
  Ho  Ho5  1  0.029897  0.712845  0.914128  1
  Ru  Ru6  1  0.000000  0.000000  0.000000  1
  I  I7  1  0.346875  0.446637  0.269614  1
  I  I8  1  0.653125  0.553363  0.730386  1
  I  I9  1  0.736074  0.911434  0.544294  1
  I  I10  1  0.084687  0.377171  0.824651  1
  I  I11  1  0.915313  0.622829  0.175349  1
  I  I12  1  0.451116  0.817848  0.089092  1
  I  I13  1  0.548884  0.182152  0.910908  1
  I  I14  1  0.776969  0.259850  0.341457  1
  I  I15  1  0.223031  0.740150  0.658543  1
  I  I16  1  0.263926  0.088566  0.455706  1
