# generated using pymatgen
data_Pr4Y2Al24Os7Au
_symmetry_space_group_name_H-M   'P 1'
_cell_length_a   8.95674313
_cell_length_b   8.95674545
_cell_length_c   9.64492845
_cell_angle_alpha   89.94103658
_cell_angle_beta   90.05896286
_cell_angle_gamma   120.32256116
_symmetry_Int_Tables_number   1
_chemical_formula_structural   Pr4Y2Al24Os7Au
_chemical_formula_sum   'Pr4 Y2 Al24 Os7 Au1'
_cell_volume   667.89606692
_cell_formula_units_Z   1
loop_
 _symmetry_equiv_pos_site_id
 _symmetry_equiv_pos_as_xyz
  1  'x, y, z'
loop_
 _atom_site_type_symbol
 _atom_site_label
 _atom_site_symmetry_multiplicity
 _atom_site_fract_x
 _atom_site_fract_y
 _atom_site_fract_z
 _atom_site_occupancy
  Pr  Pr0  1  0.190163  0.381916  0.249938  1
  Pr  Pr1  1  0.809837  0.618084  0.750062  1
  Pr  Pr2  1  0.618084  0.809837  0.249938  1
  Pr  Pr3  1  0.381916  0.190163  0.750062  1
  Y  Y4  1  0.194630  0.805370  0.253834  1
  Y  Y5  1  0.805370  0.194630  0.746166  1
  Al  Al6  1  0.328041  0.671959  0.016390  1
  Al  Al7  1  0.671959  0.328041  0.983610  1
  Al  Al8  1  0.666524  0.333476  0.513306  1
  Al  Al9  1  0.333476  0.666524  0.486694  1
  Al  Al10  1  0.160913  0.326168  0.574833  1
  Al  Al11  1  0.839087  0.673832  0.425167  1
  Al  Al12  1  0.673832  0.839087  0.574833  1
  Al  Al13  1  0.850782  0.677533  0.079324  1
  Al  Al14  1  0.326168  0.160913  0.425167  1
  Al  Al15  1  0.149218  0.322467  0.920676  1
  Al  Al16  1  0.163243  0.836757  0.572700  1
  Al  Al17  1  0.322467  0.149218  0.079324  1
  Al  Al18  1  0.836757  0.163243  0.427300  1
  Al  Al19  1  0.677533  0.850782  0.920676  1
  Al  Al20  1  0.836559  0.163441  0.072169  1
  Al  Al21  1  0.163441  0.836559  0.927831  1
  Al  Al22  1  0.560196  0.121319  0.249160  1
  Al  Al23  1  0.439804  0.878681  0.750840  1
  Al  Al24  1  0.878681  0.439804  0.249160  1
  Al  Al25  1  0.121319  0.560196  0.750840  1
  Al  Al26  1  0.565470  0.434530  0.256250  1
  Al  Al27  1  0.434530  0.565470  0.743750  1
  Al  Al28  1  0.002262  0.997738  0.250429  1
  Al  Al29  1  0.997738  0.002262  0.749571  1
  Os  Os30  1  0.500000  0.000000  0.000000  1
  Os  Os31  1  0.000000  0.500000  0.000000  1
  Os  Os32  1  0.500000  0.000000  0.500000  1
  Os  Os33  1  0.000000  0.500000  0.500000  1
  Os  Os34  1  0.500000  0.500000  0.500000  1
  Os  Os35  1  0.000000  0.000000  0.000000  1
  Os  Os36  1  0.000000  0.000000  0.500000  1
  Au  Au37  1  0.500000  0.500000  0.000000  1
