# generated using pymatgen
data_Hf3Ga3IrPdRh
_symmetry_space_group_name_H-M   'P 1'
_cell_length_a   7.35042800
_cell_length_b   7.35042767
_cell_length_c   3.27884100
_cell_angle_alpha   90.00000000
_cell_angle_beta   90.00000000
_cell_angle_gamma   120.00000147
_symmetry_Int_Tables_number   1
_chemical_formula_structural   Hf3Ga3IrPdRh
_chemical_formula_sum   'Hf3 Ga3 Ir1 Pd1 Rh1'
_cell_volume   153.41796536
_cell_formula_units_Z   1
loop_
 _symmetry_equiv_pos_site_id
 _symmetry_equiv_pos_as_xyz
  1  'x, y, z'
loop_
 _atom_site_type_symbol
 _atom_site_label
 _atom_site_symmetry_multiplicity
 _atom_site_fract_x
 _atom_site_fract_y
 _atom_site_fract_z
 _atom_site_occupancy
  Hf  Hf0  1  0.394862  0.999430  0.500000  1
  Hf  Hf1  1  0.000570  0.395432  0.500000  1
  Hf  Hf2  1  0.604568  0.605138  0.500000  1
  Ga  Ga3  1  0.728048  0.002591  0.000000  1
  Ga  Ga4  1  0.997409  0.725457  0.000000  1
  Ga  Ga5  1  0.274543  0.271952  0.000000  1
  Ir  Ir6  1  0.333333  0.666667  0.000000  1
  Pd  Pd7  1  0.000000  0.000000  0.500000  1
  Rh  Rh8  1  0.666667  0.333333  0.000000  1
