# generated using pymatgen
data_Zr2PaAlPd12
_symmetry_space_group_name_H-M   'P 1'
_cell_length_a   5.72747200
_cell_length_b   5.72747178
_cell_length_c   9.28840400
_cell_angle_alpha   90.00000000
_cell_angle_beta   90.00000000
_cell_angle_gamma   120.00000126
_symmetry_Int_Tables_number   1
_chemical_formula_structural   Zr2PaAlPd12
_chemical_formula_sum   'Zr2 Pa1 Al1 Pd12'
_cell_volume   263.87464129
_cell_formula_units_Z   1
loop_
 _symmetry_equiv_pos_site_id
 _symmetry_equiv_pos_as_xyz
  1  'x, y, z'
loop_
 _atom_site_type_symbol
 _atom_site_label
 _atom_site_symmetry_multiplicity
 _atom_site_fract_x
 _atom_site_fract_y
 _atom_site_fract_z
 _atom_site_occupancy
  Zr  Zr0  1  0.000000  0.000000  0.998873  1
  Zr  Zr1  1  0.666667  0.333333  0.756148  1
  Pa  Pa2  1  0.000000  0.000000  0.493757  1
  Al  Al3  1  0.333333  0.666667  0.247530  1
  Pd  Pd4  1  0.499844  0.500156  0.499069  1
  Pd  Pd5  1  0.499844  0.999687  0.499069  1
  Pd  Pd6  1  0.000313  0.500156  0.499069  1
  Pd  Pd7  1  0.498943  0.501057  0.002895  1
  Pd  Pd8  1  0.498943  0.997887  0.002895  1
  Pd  Pd9  1  0.002113  0.501057  0.002895  1
  Pd  Pd10  1  0.830623  0.169377  0.248716  1
  Pd  Pd11  1  0.830623  0.661246  0.248716  1
  Pd  Pd12  1  0.338754  0.169377  0.248716  1
  Pd  Pd13  1  0.169700  0.830300  0.750552  1
  Pd  Pd14  1  0.169700  0.339401  0.750552  1
  Pd  Pd15  1  0.660599  0.830300  0.750552  1
