# generated using pymatgen
data_Tm4GaSi2Ge
_symmetry_space_group_name_H-M   'P 1'
_cell_length_a   3.85477900
_cell_length_b   4.25423400
_cell_length_c   10.51016900
_cell_angle_alpha   90.00000000
_cell_angle_beta   90.00000000
_cell_angle_gamma   90.00000000
_symmetry_Int_Tables_number   1
_chemical_formula_structural   Tm4GaSi2Ge
_chemical_formula_sum   'Tm4 Ga1 Si2 Ge1'
_cell_volume   172.35764756
_cell_formula_units_Z   1
loop_
 _symmetry_equiv_pos_site_id
 _symmetry_equiv_pos_as_xyz
  1  'x, y, z'
loop_
 _atom_site_type_symbol
 _atom_site_label
 _atom_site_symmetry_multiplicity
 _atom_site_fract_x
 _atom_site_fract_y
 _atom_site_fract_z
 _atom_site_occupancy
  Tm  Tm0  1  0.000000  0.000000  0.363179  1
  Tm  Tm1  1  0.000000  0.500000  0.856399  1
  Tm  Tm2  1  0.500000  0.500000  0.143324  1
  Tm  Tm3  1  0.500000  0.000000  0.636995  1
  Ga  Ga4  1  0.000000  0.000000  0.081144  1
  Si  Si5  1  0.000000  0.500000  0.577809  1
  Si  Si6  1  0.500000  0.500000  0.424002  1
  Ge  Ge7  1  0.500000  0.000000  0.917148  1
