# generated using pymatgen
data_Nd11Zn2In9Co2
_symmetry_space_group_name_H-M   'P 1'
_cell_length_a   13.51362434
_cell_length_b   13.46730790
_cell_length_c   3.74527400
_cell_angle_alpha   90.00000000
_cell_angle_beta   90.00000000
_cell_angle_gamma   111.12872769
_symmetry_Int_Tables_number   1
_chemical_formula_structural   Nd11Zn2In9Co2
_chemical_formula_sum   'Nd11 Zn2 In9 Co2'
_cell_volume   635.78774893
_cell_formula_units_Z   1
loop_
 _symmetry_equiv_pos_site_id
 _symmetry_equiv_pos_as_xyz
  1  'x, y, z'
loop_
 _atom_site_type_symbol
 _atom_site_label
 _atom_site_symmetry_multiplicity
 _atom_site_fract_x
 _atom_site_fract_y
 _atom_site_fract_z
 _atom_site_occupancy
  Nd  Nd0  1  0.067674  0.416895  0.000000  1
  Nd  Nd1  1  0.932376  0.583100  0.000000  1
  Nd  Nd2  1  0.418497  0.077245  0.000000  1
  Nd  Nd3  1  0.581500  0.922745  0.000000  1
  Nd  Nd4  1  0.612840  0.358766  0.000000  1
  Nd  Nd5  1  0.387212  0.641241  0.000000  1
  Nd  Nd6  1  0.839851  0.159079  0.000000  1
  Nd  Nd7  1  0.160100  0.840871  0.000000  1
  Nd  Nd8  1  0.999981  0.999969  0.000000  1
  Nd  Nd9  1  0.319738  0.302674  0.000000  1
  Nd  Nd10  1  0.680232  0.697270  0.000000  1
  Zn  Zn11  1  0.252248  0.452508  0.500000  1
  Zn  Zn12  1  0.747824  0.547598  0.500000  1
  In  In13  1  0.836019  0.367219  0.500000  1
  In  In14  1  0.164026  0.632918  0.500000  1
  In  In15  1  0.368004  0.840267  0.500000  1
  In  In16  1  0.631944  0.159709  0.500000  1
  In  In17  1  0.077021  0.220377  0.500000  1
  In  In18  1  0.922914  0.779568  0.500000  1
  In  In19  1  0.220429  0.077992  0.500000  1
  In  In20  1  0.779510  0.921929  0.500000  1
  In  In21  1  0.500007  0.499954  0.500000  1
  Co  Co22  1  0.450789  0.244492  0.500000  1
  Co  Co23  1  0.549267  0.755615  0.500000  1
