# generated using pymatgen
data_Nb3Ge2B4Ru10W
_symmetry_space_group_name_H-M   'P 1'
_cell_length_a   9.36476602
_cell_length_b   9.36476602
_cell_length_c   2.95413000
_cell_angle_alpha   90.00000000
_cell_angle_beta   90.00000000
_cell_angle_gamma   90.00691360
_symmetry_Int_Tables_number   1
_chemical_formula_structural   Nb3Ge2B4Ru10W
_chemical_formula_sum   'Nb3 Ge2 B4 Ru10 W1'
_cell_volume   259.07377987
_cell_formula_units_Z   1
loop_
 _symmetry_equiv_pos_site_id
 _symmetry_equiv_pos_as_xyz
  1  'x, y, z'
loop_
 _atom_site_type_symbol
 _atom_site_label
 _atom_site_symmetry_multiplicity
 _atom_site_fract_x
 _atom_site_fract_y
 _atom_site_fract_z
 _atom_site_occupancy
  Nb  Nb0  1  0.176960  0.323040  0.000000  1
  Nb  Nb1  1  0.322381  0.822910  0.000000  1
  Nb  Nb2  1  0.677090  0.177619  0.000000  1
  Ge  Ge3  1  0.498485  0.498959  0.000000  1
  Ge  Ge4  1  0.001041  0.001515  0.000000  1
  B  B5  1  0.623762  0.876238  0.000000  1
  B  B6  1  0.376309  0.123691  0.000000  1
  B  B7  1  0.124927  0.623769  0.000000  1
  B  B8  1  0.876231  0.375073  0.000000  1
  Ru  Ru9  1  0.572788  0.712788  0.500000  1
  Ru  Ru10  1  0.433403  0.284928  0.500000  1
  Ru  Ru11  1  0.061839  0.783854  0.500000  1
  Ru  Ru12  1  0.931564  0.215261  0.500000  1
  Ru  Ru13  1  0.284739  0.568436  0.500000  1
  Ru  Ru14  1  0.716146  0.438161  0.500000  1
  Ru  Ru15  1  0.215072  0.066597  0.500000  1
  Ru  Ru16  1  0.787212  0.927212  0.500000  1
  Ru  Ru17  1  0.500748  0.999252  0.500000  1
  Ru  Ru18  1  0.996967  0.503033  0.500000  1
  W  W19  1  0.822334  0.677666  0.000000  1
