# generated using pymatgen
data_LaNdTh2(MgSi2)2
_symmetry_space_group_name_H-M   'P 1'
_cell_length_a   7.39120466
_cell_length_b   7.39120492
_cell_length_c   4.39862000
_cell_angle_alpha   90.00000000
_cell_angle_beta   90.00000000
_cell_angle_gamma   90.62876832
_symmetry_Int_Tables_number   1
_chemical_formula_structural   LaNdTh2(MgSi2)2
_chemical_formula_sum   'La1 Nd1 Th2 Mg2 Si4'
_cell_volume   240.28173788
_cell_formula_units_Z   1
loop_
 _symmetry_equiv_pos_site_id
 _symmetry_equiv_pos_as_xyz
  1  'x, y, z'
loop_
 _atom_site_type_symbol
 _atom_site_label
 _atom_site_symmetry_multiplicity
 _atom_site_fract_x
 _atom_site_fract_y
 _atom_site_fract_z
 _atom_site_occupancy
  La  La0  1  0.178537  0.321463  0.500000  1
  Nd  Nd1  1  0.820972  0.679028  0.500000  1
  Th  Th2  1  0.678661  0.177896  0.500000  1
  Th  Th3  1  0.322104  0.821339  0.500000  1
  Mg  Mg4  1  0.999551  0.998696  0.000000  1
  Mg  Mg5  1  0.501304  0.500449  0.000000  1
  Si  Si6  1  0.114855  0.619589  0.000000  1
  Si  Si7  1  0.880411  0.385145  0.000000  1
  Si  Si8  1  0.616560  0.883440  0.000000  1
  Si  Si9  1  0.387044  0.112956  0.000000  1
