# generated using pymatgen
data_LiDy16In(AgRh2)2
_symmetry_space_group_name_H-M   'P 1'
_cell_length_a   9.57276210
_cell_length_b   9.57276308
_cell_length_c   9.58980879
_cell_angle_alpha   60.14168461
_cell_angle_beta   60.14168248
_cell_angle_gamma   60.10532314
_symmetry_Int_Tables_number   1
_chemical_formula_structural   LiDy16In(AgRh2)2
_chemical_formula_sum   'Li1 Dy16 In1 Ag2 Rh4'
_cell_volume   623.22124440
_cell_formula_units_Z   1
loop_
 _symmetry_equiv_pos_site_id
 _symmetry_equiv_pos_as_xyz
  1  'x, y, z'
loop_
 _atom_site_type_symbol
 _atom_site_label
 _atom_site_symmetry_multiplicity
 _atom_site_fract_x
 _atom_site_fract_y
 _atom_site_fract_z
 _atom_site_occupancy
  Li  Li0  1  0.932085  0.932085  0.209624  1
  Dy  Dy1  1  0.686330  0.314613  0.315433  1
  Dy  Dy2  1  0.688908  0.688908  0.311062  1
  Dy  Dy3  1  0.314613  0.686330  0.315433  1
  Dy  Dy4  1  0.935265  0.935265  0.564451  1
  Dy  Dy5  1  0.147262  0.147262  0.557263  1
  Dy  Dy6  1  0.559731  0.936203  0.565528  1
  Dy  Dy7  1  0.151014  0.151014  0.149817  1
  Dy  Dy8  1  0.310221  0.310221  0.691899  1
  Dy  Dy9  1  0.936203  0.559731  0.565528  1
  Dy  Dy10  1  0.562665  0.562665  0.936875  1
  Dy  Dy11  1  0.558825  0.934010  0.936643  1
  Dy  Dy12  1  0.934010  0.558825  0.936643  1
  Dy  Dy13  1  0.151162  0.548298  0.149418  1
  Dy  Dy14  1  0.309024  0.689495  0.691518  1
  Dy  Dy15  1  0.689495  0.309024  0.691518  1
  Dy  Dy16  1  0.548298  0.151162  0.149418  1
  In  In17  1  0.919626  0.919626  0.920653  1
  Ag  Ag18  1  0.252103  0.915410  0.916895  1
  Ag  Ag19  1  0.915410  0.252103  0.916895  1
  Rh  Rh20  1  0.356319  0.356319  0.360932  1
  Rh  Rh21  1  0.928930  0.355902  0.358612  1
  Rh  Rh22  1  0.356598  0.356598  0.929334  1
  Rh  Rh23  1  0.355902  0.928930  0.358612  1
