# generated using pymatgen
data_LaYb6Y(Si3Pd)4
_symmetry_space_group_name_H-M   'P 1'
_cell_length_a   8.24960800
_cell_length_b   8.24960655
_cell_length_c   8.31875500
_cell_angle_alpha   90.00000000
_cell_angle_beta   90.00000000
_cell_angle_gamma   119.99999780
_symmetry_Int_Tables_number   1
_chemical_formula_structural   LaYb6Y(Si3Pd)4
_chemical_formula_sum   'La1 Yb6 Y1 Si12 Pd4'
_cell_volume   490.29280912
_cell_formula_units_Z   1
loop_
 _symmetry_equiv_pos_site_id
 _symmetry_equiv_pos_as_xyz
  1  'x, y, z'
loop_
 _atom_site_type_symbol
 _atom_site_label
 _atom_site_symmetry_multiplicity
 _atom_site_fract_x
 _atom_site_fract_y
 _atom_site_fract_z
 _atom_site_occupancy
  La  La0  1  0.000000  0.000000  0.250000  1
  Yb  Yb1  1  0.501711  0.003421  0.250000  1
  Yb  Yb2  1  0.498256  0.996512  0.750000  1
  Yb  Yb3  1  0.996579  0.498289  0.250000  1
  Yb  Yb4  1  0.003488  0.501744  0.750000  1
  Yb  Yb5  1  0.501711  0.498289  0.250000  1
  Yb  Yb6  1  0.498256  0.501744  0.750000  1
  Y  Y7  1  0.000000  0.000000  0.750000  1
  Si  Si8  1  0.165171  0.330342  0.997045  1
  Si  Si9  1  0.834859  0.669720  0.994962  1
  Si  Si10  1  0.669658  0.834829  0.997045  1
  Si  Si11  1  0.834859  0.669720  0.505038  1
  Si  Si12  1  0.330280  0.165141  0.994962  1
  Si  Si13  1  0.165171  0.330342  0.502955  1
  Si  Si14  1  0.165171  0.834829  0.997045  1
  Si  Si15  1  0.330280  0.165141  0.505038  1
  Si  Si16  1  0.834859  0.165141  0.994962  1
  Si  Si17  1  0.669658  0.834829  0.502955  1
  Si  Si18  1  0.834859  0.165141  0.505038  1
  Si  Si19  1  0.165171  0.834829  0.502955  1
  Pd  Pd20  1  0.333333  0.666667  0.001820  1
  Pd  Pd21  1  0.666667  0.333333  0.994663  1
  Pd  Pd22  1  0.666667  0.333333  0.505337  1
  Pd  Pd23  1  0.333333  0.666667  0.498180  1
