# generated using pymatgen
data_Ca4TbPr5(AgPb3)2
_symmetry_space_group_name_H-M   'P 1'
_cell_length_a   9.56097000
_cell_length_b   9.56097061
_cell_length_c   7.00202300
_cell_angle_alpha   90.00000000
_cell_angle_beta   90.00000000
_cell_angle_gamma   120.00532624
_symmetry_Int_Tables_number   1
_chemical_formula_structural   Ca4TbPr5(AgPb3)2
_chemical_formula_sum   'Ca4 Tb1 Pr5 Ag2 Pb6'
_cell_volume   554.28712626
_cell_formula_units_Z   1
loop_
 _symmetry_equiv_pos_site_id
 _symmetry_equiv_pos_as_xyz
  1  'x, y, z'
loop_
 _atom_site_type_symbol
 _atom_site_label
 _atom_site_symmetry_multiplicity
 _atom_site_fract_x
 _atom_site_fract_y
 _atom_site_fract_z
 _atom_site_occupancy
  Ca  Ca0  1  0.669172  0.337483  0.500627  1
  Ca  Ca1  1  0.337483  0.669172  0.500627  1
  Ca  Ca2  1  0.337483  0.669172  0.999373  1
  Ca  Ca3  1  0.669172  0.337483  0.999373  1
  Tb  Tb4  1  0.720104  0.720104  0.250000  1
  Pr  Pr5  1  0.279262  0.005996  0.250000  1
  Pr  Pr6  1  0.005996  0.279262  0.250000  1
  Pr  Pr7  1  0.262607  0.262607  0.750000  1
  Pr  Pr8  1  0.729901  0.002538  0.750000  1
  Pr  Pr9  1  0.002538  0.729901  0.750000  1
  Ag  Ag10  1  0.984694  0.984694  0.478994  1
  Ag  Ag11  1  0.984694  0.984694  0.021006  1
  Pb  Pb12  1  0.386684  0.386684  0.250000  1
  Pb  Pb13  1  0.627033  0.999553  0.250000  1
  Pb  Pb14  1  0.999553  0.627033  0.250000  1
  Pb  Pb15  1  0.620425  0.620425  0.750000  1
  Pb  Pb16  1  0.382015  0.001184  0.750000  1
  Pb  Pb17  1  0.001184  0.382015  0.750000  1
