# generated using pymatgen
data_Er6Tm4Si5Sn
_symmetry_space_group_name_H-M   'P 1'
_cell_length_a   8.44473900
_cell_length_b   8.44473722
_cell_length_c   6.29022900
_cell_angle_alpha   90.00000000
_cell_angle_beta   90.00000000
_cell_angle_gamma   120.17884456
_symmetry_Int_Tables_number   1
_chemical_formula_structural   Er6Tm4Si5Sn
_chemical_formula_sum   'Er6 Tm4 Si5 Sn1'
_cell_volume   387.77871647
_cell_formula_units_Z   1
loop_
 _symmetry_equiv_pos_site_id
 _symmetry_equiv_pos_as_xyz
  1  'x, y, z'
loop_
 _atom_site_type_symbol
 _atom_site_label
 _atom_site_symmetry_multiplicity
 _atom_site_fract_x
 _atom_site_fract_y
 _atom_site_fract_z
 _atom_site_occupancy
  Er  Er0  1  0.765621  0.765621  0.250000  1
  Er  Er1  1  0.240097  0.989380  0.250000  1
  Er  Er2  1  0.989380  0.240097  0.250000  1
  Er  Er3  1  0.240686  0.240686  0.750000  1
  Er  Er4  1  0.756559  0.998806  0.750000  1
  Er  Er5  1  0.998806  0.756559  0.750000  1
  Tm  Tm6  1  0.673630  0.331619  0.503018  1
  Tm  Tm7  1  0.331619  0.673630  0.503018  1
  Tm  Tm8  1  0.331619  0.673630  0.996982  1
  Tm  Tm9  1  0.673630  0.331619  0.996982  1
  Si  Si10  1  0.604091  0.998632  0.250000  1
  Si  Si11  1  0.998632  0.604091  0.250000  1
  Si  Si12  1  0.605551  0.605551  0.750000  1
  Si  Si13  1  0.393879  0.001347  0.750000  1
  Si  Si14  1  0.001347  0.393879  0.750000  1
  Sn  Sn15  1  0.394853  0.394853  0.250000  1
