# generated using pymatgen
data_Ho3Er5Tc2(B12Ru)2
_symmetry_space_group_name_H-M   'P 1'
_cell_length_a   3.65157700
_cell_length_b   9.11582294
_cell_length_c   11.50040000
_cell_angle_alpha   89.85813909
_cell_angle_beta   90.00000000
_cell_angle_gamma   90.00000000
_symmetry_Int_Tables_number   1
_chemical_formula_structural   Ho3Er5Tc2(B12Ru)2
_chemical_formula_sum   'Ho3 Er5 Tc2 B24 Ru2'
_cell_volume   382.81412952
_cell_formula_units_Z   1
loop_
 _symmetry_equiv_pos_site_id
 _symmetry_equiv_pos_as_xyz
  1  'x, y, z'
loop_
 _atom_site_type_symbol
 _atom_site_label
 _atom_site_symmetry_multiplicity
 _atom_site_fract_x
 _atom_site_fract_y
 _atom_site_fract_z
 _atom_site_occupancy
  Ho  Ho0  1  0.000000  0.325008  0.415533  1
  Ho  Ho1  1  0.000000  0.674997  0.584480  1
  Ho  Ho2  1  0.000000  0.821293  0.087409  1
  Er  Er3  1  0.000000  0.178756  0.912558  1
  Er  Er4  1  0.000000  0.942481  0.370658  1
  Er  Er5  1  0.000000  0.057575  0.629358  1
  Er  Er6  1  0.000000  0.443277  0.129880  1
  Er  Er7  1  0.000000  0.556576  0.870088  1
  Tc  Tc8  1  0.000000  0.638670  0.320137  1
  Tc  Tc9  1  0.000000  0.361256  0.679947  1
  B  B10  1  0.500000  0.553239  0.433036  1
  B  B11  1  0.500000  0.446755  0.566981  1
  B  B12  1  0.500000  0.053999  0.066776  1
  B  B13  1  0.500000  0.946186  0.933121  1
  B  B14  1  0.500000  0.748927  0.419086  1
  B  B15  1  0.500000  0.251087  0.580939  1
  B  B16  1  0.500000  0.248892  0.080829  1
  B  B17  1  0.500000  0.751087  0.919004  1
  B  B18  1  0.500000  0.791982  0.265215  1
  B  B19  1  0.500000  0.207956  0.734922  1
  B  B20  1  0.500000  0.291012  0.234277  1
  B  B21  1  0.500000  0.708987  0.765711  1
  B  B22  1  0.500000  0.631314  0.184969  1
  B  B23  1  0.500000  0.368559  0.815117  1
  B  B24  1  0.500000  0.131004  0.314215  1
  B  B25  1  0.500000  0.869022  0.685790  1
  B  B26  1  0.500000  0.983102  0.211987  1
  B  B27  1  0.500000  0.017081  0.788084  1
  B  B28  1  0.500000  0.482488  0.287467  1
  B  B29  1  0.500000  0.517486  0.712535  1
  B  B30  1  0.500000  0.603210  0.028353  1
  B  B31  1  0.500000  0.396591  0.971587  1
  B  B32  1  0.500000  0.103280  0.471232  1
  B  B33  1  0.500000  0.896729  0.528782  1
  Ru  Ru34  1  0.000000  0.137980  0.178442  1
  Ru  Ru35  1  0.000000  0.862154  0.821493  1
