# generated using pymatgen
data_SmHoEr6(Si3Rh)4
_symmetry_space_group_name_H-M   'P 1'
_cell_length_a   8.15290600
_cell_length_b   8.15290762
_cell_length_c   7.87067500
_cell_angle_alpha   90.00000000
_cell_angle_beta   90.00000000
_cell_angle_gamma   120.00000156
_symmetry_Int_Tables_number   1
_chemical_formula_structural   SmHoEr6(Si3Rh)4
_chemical_formula_sum   'Sm1 Ho1 Er6 Si12 Rh4'
_cell_volume   453.07235197
_cell_formula_units_Z   1
loop_
 _symmetry_equiv_pos_site_id
 _symmetry_equiv_pos_as_xyz
  1  'x, y, z'
loop_
 _atom_site_type_symbol
 _atom_site_label
 _atom_site_symmetry_multiplicity
 _atom_site_fract_x
 _atom_site_fract_y
 _atom_site_fract_z
 _atom_site_occupancy
  Sm  Sm0  1  0.000000  0.000000  0.750000  1
  Ho  Ho1  1  0.000000  0.000000  0.250000  1
  Er  Er2  1  0.492380  0.507620  0.250000  1
  Er  Er3  1  0.492380  0.984759  0.250000  1
  Er  Er4  1  0.015241  0.507620  0.250000  1
  Er  Er5  1  0.507666  0.492334  0.750000  1
  Er  Er6  1  0.984667  0.492334  0.750000  1
  Er  Er7  1  0.507666  0.015333  0.750000  1
  Si  Si8  1  0.832637  0.167363  0.500408  1
  Si  Si9  1  0.832637  0.665274  0.500408  1
  Si  Si10  1  0.334726  0.167363  0.500408  1
  Si  Si11  1  0.832637  0.167363  0.999592  1
  Si  Si12  1  0.832637  0.665274  0.999592  1
  Si  Si13  1  0.334726  0.167363  0.999592  1
  Si  Si14  1  0.167317  0.832683  0.003239  1
  Si  Si15  1  0.665367  0.832683  0.003239  1
  Si  Si16  1  0.167317  0.334633  0.003239  1
  Si  Si17  1  0.167317  0.832683  0.496761  1
  Si  Si18  1  0.665367  0.832683  0.496761  1
  Si  Si19  1  0.167317  0.334633  0.496761  1
  Rh  Rh20  1  0.666667  0.333333  0.468305  1
  Rh  Rh21  1  0.666667  0.333333  0.031695  1
  Rh  Rh22  1  0.333333  0.666667  0.969129  1
  Rh  Rh23  1  0.333333  0.666667  0.530871  1
