# generated using pymatgen
data_TbY3U4(PS)8
_symmetry_space_group_name_H-M   'P 1'
_cell_length_a   5.34501100
_cell_length_b   5.34058000
_cell_length_c   16.47319900
_cell_angle_alpha   89.99980238
_cell_angle_beta   89.99987307
_cell_angle_gamma   90.00313141
_symmetry_Int_Tables_number   1
_chemical_formula_structural   TbY3U4(PS)8
_chemical_formula_sum   'Tb1 Y3 U4 P8 S8'
_cell_volume   470.23502381
_cell_formula_units_Z   1
loop_
 _symmetry_equiv_pos_site_id
 _symmetry_equiv_pos_as_xyz
  1  'x, y, z'
loop_
 _atom_site_type_symbol
 _atom_site_label
 _atom_site_symmetry_multiplicity
 _atom_site_fract_x
 _atom_site_fract_y
 _atom_site_fract_z
 _atom_site_occupancy
  Tb  Tb0  1  0.749999  0.499982  0.130249  1
  Y  Y1  1  0.249999  0.999985  0.143039  1
  Y  Y2  1  0.750001  0.500016  0.642703  1
  Y  Y3  1  0.250001  0.000016  0.630250  1
  U  U4  1  0.250001  0.499994  0.362943  1
  U  U5  1  0.749997  0.000007  0.862864  1
  U  U6  1  0.249996  0.500005  0.862644  1
  U  U7  1  0.750000  0.999993  0.362418  1
  P  P8  1  0.028057  0.222468  0.997860  1
  P  P9  1  0.527880  0.722788  0.497668  1
  P  P10  1  0.471947  0.777523  0.997859  1
  P  P11  1  0.972122  0.277224  0.497669  1
  P  P12  1  0.028060  0.777533  0.997853  1
  P  P13  1  0.527889  0.277230  0.497665  1
  P  P14  1  0.471932  0.222460  0.997854  1
  P  P15  1  0.972118  0.722781  0.497663  1
  S  S16  1  0.250000  0.499986  0.187014  1
  S  S17  1  0.250000  0.999989  0.322870  1
  S  S18  1  0.749998  0.500011  0.822784  1
  S  S19  1  0.750001  0.000015  0.686769  1
  S  S20  1  0.249998  0.000011  0.814118  1
  S  S21  1  0.250001  0.500016  0.686596  1
  S  S22  1  0.750000  0.999979  0.186574  1
  S  S23  1  0.750002  0.499986  0.314074  1
