# generated using pymatgen
data_Sm2(PSe3)3
_symmetry_space_group_name_H-M   'P 1'
_cell_length_a   21.69623666
_cell_length_b   7.61758300
_cell_length_c   9.62847600
_cell_angle_alpha   90.00000000
_cell_angle_beta   91.28280456
_cell_angle_gamma   90.00000000
_symmetry_Int_Tables_number   1
_chemical_formula_structural   Sm2(PSe3)3
_chemical_formula_sum   'Sm8 P12 Se36'
_cell_volume   1590.92716360
_cell_formula_units_Z   4
loop_
 _symmetry_equiv_pos_site_id
 _symmetry_equiv_pos_as_xyz
  1  'x, y, z'
loop_
 _atom_site_type_symbol
 _atom_site_label
 _atom_site_symmetry_multiplicity
 _atom_site_fract_x
 _atom_site_fract_y
 _atom_site_fract_z
 _atom_site_occupancy
  Sm  Sm0  1  0.174119  0.932008  0.254573  1
  Sm  Sm1  1  0.842261  0.834802  0.247094  1
  Sm  Sm2  1  0.657739  0.334800  0.252906  1
  Sm  Sm3  1  0.325881  0.432008  0.245426  1
  Sm  Sm4  1  0.674119  0.567991  0.754574  1
  Sm  Sm5  1  0.342261  0.665199  0.747094  1
  Sm  Sm6  1  0.157739  0.165199  0.752906  1
  Sm  Sm7  1  0.825881  0.067991  0.745427  1
  P  P8  1  0.452572  0.561689  0.025918  1
  P  P9  1  0.812248  0.343581  0.055891  1
  P  P10  1  0.145875  0.440323  0.071288  1
  P  P11  1  0.354124  0.940321  0.428713  1
  P  P12  1  0.687752  0.843582  0.444109  1
  P  P13  1  0.047428  0.061691  0.474083  1
  P  P14  1  0.952572  0.938310  0.525917  1
  P  P15  1  0.312248  0.156419  0.555891  1
  P  P16  1  0.645876  0.059679  0.571287  1
  P  P17  1  0.854124  0.559678  0.928712  1
  P  P18  1  0.187752  0.656418  0.944109  1
  P  P19  1  0.547429  0.438310  0.974082  1
  Se  Se20  1  0.620101  0.627667  0.047486  1
  Se  Se21  1  0.272778  0.753561  0.056072  1
  Se  Se22  1  0.881222  0.129190  0.047401  1
  Se  Se23  1  0.929571  0.658572  0.062550  1
  Se  Se24  1  0.222759  0.242264  0.066974  1
  Se  Se25  1  0.553065  0.194735  0.094721  1
  Se  Se26  1  0.372341  0.062487  0.227646  1
  Se  Se27  1  0.707833  0.956904  0.235933  1
  Se  Se28  1  0.051670  0.092162  0.246948  1
  Se  Se29  1  0.448330  0.592164  0.253051  1
  Se  Se30  1  0.792168  0.456905  0.264067  1
  Se  Se31  1  0.127658  0.562488  0.272354  1
  Se  Se32  1  0.946935  0.694736  0.405280  1
  Se  Se33  1  0.277241  0.742262  0.433025  1
  Se  Se34  1  0.570429  0.158574  0.437450  1
  Se  Se35  1  0.618778  0.629191  0.452599  1
  Se  Se36  1  0.227222  0.253561  0.443927  1
  Se  Se37  1  0.879899  0.127669  0.452514  1
  Se  Se38  1  0.120101  0.872332  0.547486  1
  Se  Se39  1  0.772778  0.746439  0.556073  1
  Se  Se40  1  0.381222  0.370810  0.547401  1
  Se  Se41  1  0.429572  0.841427  0.562550  1
  Se  Se42  1  0.722759  0.257737  0.566975  1
  Se  Se43  1  0.053065  0.305265  0.594720  1
  Se  Se44  1  0.872342  0.437513  0.727646  1
  Se  Se45  1  0.207832  0.543096  0.735933  1
  Se  Se46  1  0.551670  0.407837  0.746949  1
  Se  Se47  1  0.948330  0.907837  0.753052  1
  Se  Se48  1  0.292167  0.043096  0.764067  1
  Se  Se49  1  0.627658  0.937513  0.772354  1
  Se  Se50  1  0.446935  0.805265  0.905279  1
  Se  Se51  1  0.777241  0.757737  0.933026  1
  Se  Se52  1  0.070429  0.341427  0.937450  1
  Se  Se53  1  0.118778  0.870810  0.952599  1
  Se  Se54  1  0.727223  0.246440  0.943928  1
  Se  Se55  1  0.379899  0.372332  0.952515  1
