# generated using pymatgen
data_TbEu2NbO6
_symmetry_space_group_name_H-M   'P 1'
_cell_length_a   5.78028442
_cell_length_b   5.99531900
_cell_length_c   10.10084387
_cell_angle_alpha   90.00000000
_cell_angle_beta   124.71004732
_cell_angle_gamma   90.00000000
_symmetry_Int_Tables_number   1
_chemical_formula_structural   TbEu2NbO6
_chemical_formula_sum   'Tb2 Eu4 Nb2 O12'
_cell_volume   287.74933759
_cell_formula_units_Z   2
loop_
 _symmetry_equiv_pos_site_id
 _symmetry_equiv_pos_as_xyz
  1  'x, y, z'
loop_
 _atom_site_type_symbol
 _atom_site_label
 _atom_site_symmetry_multiplicity
 _atom_site_fract_x
 _atom_site_fract_y
 _atom_site_fract_z
 _atom_site_occupancy
  Tb  Tb0  1  0.500000  0.500000  0.500000  1
  Tb  Tb1  1  0.500000  0.000000  0.000000  1
  Eu  Eu2  1  0.236795  0.446675  0.752527  1
  Eu  Eu3  1  0.236795  0.053325  0.252527  1
  Eu  Eu4  1  0.763205  0.553325  0.247473  1
  Eu  Eu5  1  0.763205  0.946675  0.747473  1
  Nb  Nb6  1  0.000000  0.500000  0.000000  1
  Nb  Nb7  1  0.000000  0.000000  0.500000  1
  O  O8  1  0.338740  0.039030  0.734992  1
  O  O9  1  0.338740  0.460970  0.234992  1
  O  O10  1  0.661260  0.960970  0.265008  1
  O  O11  1  0.661260  0.539030  0.765008  1
  O  O12  1  0.765229  0.190120  0.550603  1
  O  O13  1  0.765229  0.309880  0.050603  1
  O  O14  1  0.234771  0.809880  0.449397  1
  O  O15  1  0.234771  0.690120  0.949397  1
  O  O16  1  0.126253  0.218504  0.939985  1
  O  O17  1  0.126253  0.281496  0.439985  1
  O  O18  1  0.873747  0.781496  0.060015  1
  O  O19  1  0.873747  0.718504  0.560015  1
