# generated using pymatgen
data_Dy5YCo2(P3Rh4)4
_symmetry_space_group_name_H-M   'P 1'
_cell_length_a   3.86618100
_cell_length_b   11.13607500
_cell_length_c   12.79197600
_cell_angle_alpha   90.00000000
_cell_angle_beta   90.00000000
_cell_angle_gamma   90.00000000
_symmetry_Int_Tables_number   1
_chemical_formula_structural   Dy5YCo2(P3Rh4)4
_chemical_formula_sum   'Dy5 Y1 Co2 P12 Rh16'
_cell_volume   550.74677827
_cell_formula_units_Z   1
loop_
 _symmetry_equiv_pos_site_id
 _symmetry_equiv_pos_as_xyz
  1  'x, y, z'
loop_
 _atom_site_type_symbol
 _atom_site_label
 _atom_site_symmetry_multiplicity
 _atom_site_fract_x
 _atom_site_fract_y
 _atom_site_fract_z
 _atom_site_occupancy
  Dy  Dy0  1  0.500000  0.000000  0.478105  1
  Dy  Dy1  1  0.500000  0.814804  0.201842  1
  Dy  Dy2  1  0.500000  0.185196  0.201842  1
  Dy  Dy3  1  0.000000  0.685195  0.798150  1
  Dy  Dy4  1  0.000000  0.314805  0.798150  1
  Y  Y5  1  0.000000  0.500000  0.521894  1
  Co  Co6  1  0.000000  0.500000  0.979339  1
  Co  Co7  1  0.500000  0.000000  0.020661  1
  P  P8  1  0.500000  0.500000  0.881438  1
  P  P9  1  0.000000  0.000000  0.118542  1
  P  P10  1  0.500000  0.500000  0.351494  1
  P  P11  1  0.000000  0.000000  0.648475  1
  P  P12  1  0.500000  0.315644  0.619483  1
  P  P13  1  0.500000  0.684356  0.619483  1
  P  P14  1  0.000000  0.184341  0.380545  1
  P  P15  1  0.000000  0.815659  0.380545  1
  P  P16  1  0.500000  0.853599  0.896026  1
  P  P17  1  0.500000  0.146401  0.896026  1
  P  P18  1  0.000000  0.646403  0.103970  1
  P  P19  1  0.000000  0.353597  0.103970  1
  Rh  Rh20  1  0.500000  0.500000  0.168549  1
  Rh  Rh21  1  0.000000  0.000000  0.831472  1
  Rh  Rh22  1  0.500000  0.500000  0.703173  1
  Rh  Rh23  1  0.000000  0.000000  0.296870  1
  Rh  Rh24  1  0.500000  0.336842  0.994156  1
  Rh  Rh25  1  0.500000  0.663158  0.994156  1
  Rh  Rh26  1  0.000000  0.163150  0.005852  1
  Rh  Rh27  1  0.000000  0.836850  0.005852  1
  Rh  Rh28  1  0.500000  0.293721  0.430179  1
  Rh  Rh29  1  0.500000  0.706279  0.430179  1
  Rh  Rh30  1  0.000000  0.206243  0.569795  1
  Rh  Rh31  1  0.000000  0.793757  0.569795  1
  Rh  Rh32  1  0.500000  0.873527  0.712344  1
  Rh  Rh33  1  0.500000  0.126473  0.712344  1
  Rh  Rh34  1  0.000000  0.626484  0.287651  1
  Rh  Rh35  1  0.000000  0.373516  0.287651  1
