# generated using pymatgen
data_Ce4ThSn3C
_symmetry_space_group_name_H-M   'P 1'
_cell_length_a   9.39149856
_cell_length_b   9.39149653
_cell_length_c   6.36715200
_cell_angle_alpha   90.00000000
_cell_angle_beta   90.00000000
_cell_angle_gamma   120.26207048
_symmetry_Int_Tables_number   1
_chemical_formula_structural   Ce4ThSn3C
_chemical_formula_sum   'Ce8 Th2 Sn6 C2'
_cell_volume   485.05679932
_cell_formula_units_Z   2
loop_
 _symmetry_equiv_pos_site_id
 _symmetry_equiv_pos_as_xyz
  1  'x, y, z'
loop_
 _atom_site_type_symbol
 _atom_site_label
 _atom_site_symmetry_multiplicity
 _atom_site_fract_x
 _atom_site_fract_y
 _atom_site_fract_z
 _atom_site_occupancy
  Ce  Ce0  1  0.333385  0.666615  0.500000  1
  Ce  Ce1  1  0.666615  0.333385  0.500000  1
  Ce  Ce2  1  0.666615  0.333385  0.000000  1
  Ce  Ce3  1  0.333385  0.666615  0.000000  1
  Ce  Ce4  1  0.218189  0.000242  0.750000  1
  Ce  Ce5  1  0.781811  0.999758  0.250000  1
  Ce  Ce6  1  0.000242  0.218189  0.750000  1
  Ce  Ce7  1  0.999758  0.781811  0.250000  1
  Th  Th8  1  0.783421  0.783421  0.750000  1
  Th  Th9  1  0.216579  0.216579  0.250000  1
  Sn  Sn10  1  0.600937  0.001084  0.750000  1
  Sn  Sn11  1  0.399063  0.998916  0.250000  1
  Sn  Sn12  1  0.001084  0.600937  0.750000  1
  Sn  Sn13  1  0.998916  0.399063  0.250000  1
  Sn  Sn14  1  0.398155  0.398155  0.750000  1
  Sn  Sn15  1  0.601845  0.601845  0.250000  1
  C  C16  1  0.000000  0.000000  0.500000  1
  C  C17  1  0.000000  0.000000  0.000000  1
