# generated using pymatgen
data_Yb2PtRhO7
_symmetry_space_group_name_H-M   'P 1'
_cell_length_a   7.23090291
_cell_length_b   7.21793179
_cell_length_c   7.21793238
_cell_angle_alpha   59.83459294
_cell_angle_beta   59.94052961
_cell_angle_gamma   59.94053495
_symmetry_Int_Tables_number   1
_chemical_formula_structural   Yb2PtRhO7
_chemical_formula_sum   'Yb4 Pt2 Rh2 O14'
_cell_volume   265.80754192
_cell_formula_units_Z   2
loop_
 _symmetry_equiv_pos_site_id
 _symmetry_equiv_pos_as_xyz
  1  'x, y, z'
loop_
 _atom_site_type_symbol
 _atom_site_label
 _atom_site_symmetry_multiplicity
 _atom_site_fract_x
 _atom_site_fract_y
 _atom_site_fract_z
 _atom_site_occupancy
  Yb  Yb0  1  0.125000  0.125000  0.125000  1
  Yb  Yb1  1  0.625000  0.125000  0.125000  1
  Yb  Yb2  1  0.125000  0.625000  0.125000  1
  Yb  Yb3  1  0.125000  0.125000  0.625000  1
  Pt  Pt4  1  0.625000  0.625000  0.125000  1
  Pt  Pt5  1  0.625000  0.125000  0.625000  1
  Rh  Rh6  1  0.625000  0.625000  0.625000  1
  Rh  Rh7  1  0.125000  0.625000  0.625000  1
  O  O8  1  0.709713  0.290287  0.290287  1
  O  O9  1  0.708174  0.294696  0.703531  1
  O  O10  1  0.000169  0.999831  0.999831  1
  O  O11  1  0.293599  0.703531  0.294696  1
  O  O12  1  0.708174  0.703531  0.294696  1
  O  O13  1  0.950847  0.549153  0.549153  1
  O  O14  1  0.299153  0.700847  0.700847  1
  O  O15  1  0.249831  0.250169  0.250169  1
  O  O16  1  0.956401  0.546469  0.955304  1
  O  O17  1  0.541826  0.955304  0.546469  1
  O  O18  1  0.541826  0.546469  0.955304  1
  O  O19  1  0.956401  0.955304  0.546469  1
  O  O20  1  0.540287  0.959713  0.959713  1
  O  O21  1  0.293599  0.294696  0.703531  1
