# generated using pymatgen
data_Tb2Dy14Cd3Ni4Ag
_symmetry_space_group_name_H-M   'P 1'
_cell_length_a   9.50151159
_cell_length_b   9.50151132
_cell_length_c   9.50224025
_cell_angle_alpha   60.18162802
_cell_angle_beta   60.18163103
_cell_angle_gamma   60.16537482
_symmetry_Int_Tables_number   1
_chemical_formula_structural   Tb2Dy14Cd3Ni4Ag
_chemical_formula_sum   'Tb2 Dy14 Cd3 Ni4 Ag1'
_cell_volume   609.01229973
_cell_formula_units_Z   1
loop_
 _symmetry_equiv_pos_site_id
 _symmetry_equiv_pos_as_xyz
  1  'x, y, z'
loop_
 _atom_site_type_symbol
 _atom_site_label
 _atom_site_symmetry_multiplicity
 _atom_site_fract_x
 _atom_site_fract_y
 _atom_site_fract_z
 _atom_site_occupancy
  Tb  Tb0  1  0.563469  0.563469  0.934338  1
  Tb  Tb1  1  0.936142  0.936142  0.562527  1
  Dy  Dy2  1  0.346924  0.346924  0.347172  1
  Dy  Dy3  1  0.349669  0.349669  0.951410  1
  Dy  Dy4  1  0.349986  0.951238  0.349772  1
  Dy  Dy5  1  0.951238  0.349986  0.349772  1
  Dy  Dy6  1  0.811982  0.189790  0.189684  1
  Dy  Dy7  1  0.188614  0.811360  0.811266  1
  Dy  Dy8  1  0.189790  0.811982  0.189684  1
  Dy  Dy9  1  0.811360  0.188614  0.811266  1
  Dy  Dy10  1  0.189718  0.189718  0.812007  1
  Dy  Dy11  1  0.811313  0.811313  0.188530  1
  Dy  Dy12  1  0.934674  0.563136  0.563147  1
  Dy  Dy13  1  0.562294  0.936418  0.936451  1
  Dy  Dy14  1  0.563136  0.934674  0.563147  1
  Dy  Dy15  1  0.936418  0.562294  0.936451  1
  Cd  Cd16  1  0.581540  0.581540  0.257510  1
  Cd  Cd17  1  0.581366  0.257478  0.581604  1
  Cd  Cd18  1  0.257478  0.581366  0.581604  1
  Ni  Ni19  1  0.143381  0.143381  0.143281  1
  Ni  Ni20  1  0.142031  0.142031  0.572880  1
  Ni  Ni21  1  0.141745  0.572895  0.142045  1
  Ni  Ni22  1  0.572895  0.141745  0.142045  1
  Ag  Ag23  1  0.582831  0.582831  0.582404  1
