# generated using pymatgen
data_KCr2(Sb6Pt)2
_symmetry_space_group_name_H-M   'P 1'
_cell_length_a   8.24375508
_cell_length_b   8.27952987
_cell_length_c   8.27952963
_cell_angle_alpha   109.67649864
_cell_angle_beta   109.36187667
_cell_angle_gamma   109.55039607
_symmetry_Int_Tables_number   1
_chemical_formula_structural   KCr2(Sb6Pt)2
_chemical_formula_sum   'K1 Cr2 Sb12 Pt2'
_cell_volume   434.08016053
_cell_formula_units_Z   1
loop_
 _symmetry_equiv_pos_site_id
 _symmetry_equiv_pos_as_xyz
  1  'x, y, z'
loop_
 _atom_site_type_symbol
 _atom_site_label
 _atom_site_symmetry_multiplicity
 _atom_site_fract_x
 _atom_site_fract_y
 _atom_site_fract_z
 _atom_site_occupancy
  K  K0  1  0.000000  0.000000  0.000000  1
  Cr  Cr1  1  0.500000  0.000000  0.000000  1
  Cr  Cr2  1  0.500000  0.500000  0.500000  1
  Sb  Sb3  1  0.346877  0.187704  0.849519  1
  Sb  Sb4  1  0.653123  0.812296  0.150481  1
  Sb  Sb5  1  0.653123  0.502643  0.840826  1
  Sb  Sb6  1  0.346877  0.497357  0.159174  1
  Sb  Sb7  1  0.196006  0.847667  0.348340  1
  Sb  Sb8  1  0.803994  0.152333  0.651660  1
  Sb  Sb9  1  0.503254  0.840629  0.662625  1
  Sb  Sb10  1  0.496746  0.159371  0.337375  1
  Sb  Sb11  1  0.841067  0.338969  0.186781  1
  Sb  Sb12  1  0.158933  0.661031  0.813219  1
  Sb  Sb13  1  0.841067  0.654287  0.502098  1
  Sb  Sb14  1  0.158933  0.345713  0.497902  1
  Pt  Pt15  1  0.000000  0.000000  0.500000  1
  Pt  Pt16  1  0.000000  0.500000  0.000000  1
