# generated using pymatgen
data_LiNd6Cr(Co4P3)4
_symmetry_space_group_name_H-M   'P 1'
_cell_length_a   3.77324400
_cell_length_b   10.70665900
_cell_length_c   12.42506600
_cell_angle_alpha   90.00000000
_cell_angle_beta   90.00000000
_cell_angle_gamma   90.00000000
_symmetry_Int_Tables_number   1
_chemical_formula_structural   LiNd6Cr(Co4P3)4
_chemical_formula_sum   'Li1 Nd6 Cr1 Co16 P12'
_cell_volume   501.95821396
_cell_formula_units_Z   1
loop_
 _symmetry_equiv_pos_site_id
 _symmetry_equiv_pos_as_xyz
  1  'x, y, z'
loop_
 _atom_site_type_symbol
 _atom_site_label
 _atom_site_symmetry_multiplicity
 _atom_site_fract_x
 _atom_site_fract_y
 _atom_site_fract_z
 _atom_site_occupancy
  Li  Li0  1  0.500000  0.500000  0.149512  1
  Nd  Nd1  1  0.000000  0.500000  0.521862  1
  Nd  Nd2  1  0.500000  0.000000  0.477660  1
  Nd  Nd3  1  0.500000  0.818821  0.205804  1
  Nd  Nd4  1  0.500000  0.181179  0.205804  1
  Nd  Nd5  1  0.000000  0.681649  0.793890  1
  Nd  Nd6  1  0.000000  0.318351  0.793890  1
  Cr  Cr7  1  0.000000  0.000000  0.844977  1
  Co  Co8  1  0.500000  0.500000  0.706213  1
  Co  Co9  1  0.000000  0.000000  0.295252  1
  Co  Co10  1  0.000000  0.500000  0.987309  1
  Co  Co11  1  0.500000  0.000000  0.010200  1
  Co  Co12  1  0.500000  0.330681  0.995435  1
  Co  Co13  1  0.500000  0.669319  0.995435  1
  Co  Co14  1  0.000000  0.165135  0.003048  1
  Co  Co15  1  0.000000  0.834865  0.003048  1
  Co  Co16  1  0.500000  0.295542  0.432238  1
  Co  Co17  1  0.500000  0.704458  0.432238  1
  Co  Co18  1  0.000000  0.202319  0.571236  1
  Co  Co19  1  0.000000  0.797681  0.571236  1
  Co  Co20  1  0.500000  0.881973  0.710122  1
  Co  Co21  1  0.500000  0.118027  0.710122  1
  Co  Co22  1  0.000000  0.620592  0.293660  1
  Co  Co23  1  0.000000  0.379408  0.293660  1
  P  P24  1  0.500000  0.500000  0.888656  1
  P  P25  1  0.000000  0.000000  0.113081  1
  P  P26  1  0.500000  0.500000  0.341050  1
  P  P27  1  0.000000  0.000000  0.657178  1
  P  P28  1  0.500000  0.305878  0.614547  1
  P  P29  1  0.500000  0.694122  0.614547  1
  P  P30  1  0.000000  0.194170  0.386963  1
  P  P31  1  0.000000  0.805830  0.386963  1
  P  P32  1  0.500000  0.848100  0.893805  1
  P  P33  1  0.500000  0.151900  0.893805  1
  P  P34  1  0.000000  0.655588  0.102775  1
  P  P35  1  0.000000  0.344412  0.102775  1
