# generated using pymatgen
data_Na5YbNbAs4
_symmetry_space_group_name_H-M   'P 1'
_cell_length_a   9.52704282
_cell_length_b   9.52704262
_cell_length_c   7.37492335
_cell_angle_alpha   90.65175004
_cell_angle_beta   90.65175315
_cell_angle_gamma   120.26243563
_symmetry_Int_Tables_number   1
_chemical_formula_structural   Na5YbNbAs4
_chemical_formula_sum   'Na10 Yb2 Nb2 As8'
_cell_volume   578.01151190
_cell_formula_units_Z   2
loop_
 _symmetry_equiv_pos_site_id
 _symmetry_equiv_pos_as_xyz
  1  'x, y, z'
loop_
 _atom_site_type_symbol
 _atom_site_label
 _atom_site_symmetry_multiplicity
 _atom_site_fract_x
 _atom_site_fract_y
 _atom_site_fract_z
 _atom_site_occupancy
  Na  Na0  1  0.534619  0.471745  0.615044  1
  Na  Na1  1  0.939355  0.471256  0.615375  1
  Na  Na2  1  0.471745  0.534619  0.115044  1
  Na  Na3  1  0.471256  0.939355  0.115375  1
  Na  Na4  1  0.138661  0.853565  0.783196  1
  Na  Na5  1  0.711906  0.849602  0.796221  1
  Na  Na6  1  0.146754  0.289793  0.777030  1
  Na  Na7  1  0.853565  0.138661  0.283196  1
  Na  Na8  1  0.289793  0.146754  0.277030  1
  Na  Na9  1  0.849602  0.711906  0.296221  1
  Yb  Yb10  1  0.531740  0.058261  0.609252  1
  Yb  Yb11  1  0.058261  0.531740  0.109252  1
  Nb  Nb12  1  0.331851  0.665018  0.500952  1
  Nb  Nb13  1  0.665018  0.331851  0.000952  1
  As  As14  1  0.325382  0.666958  0.839667  1
  As  As15  1  0.666958  0.325382  0.339667  1
  As  As16  1  0.812503  0.193045  0.889872  1
  As  As17  1  0.382004  0.186429  0.879546  1
  As  As18  1  0.818167  0.621386  0.907845  1
  As  As19  1  0.193045  0.812503  0.389872  1
  As  As20  1  0.621386  0.818167  0.407845  1
  As  As21  1  0.186429  0.382004  0.379546  1
