# generated using pymatgen
data_Tb3Mg2ZnIrPd2
_symmetry_space_group_name_H-M   'P 1'
_cell_length_a   7.44428044
_cell_length_b   7.43580535
_cell_length_c   3.96354200
_cell_angle_alpha   90.00000000
_cell_angle_beta   90.00000000
_cell_angle_gamma   120.41077072
_symmetry_Int_Tables_number   1
_chemical_formula_structural   Tb3Mg2ZnIrPd2
_chemical_formula_sum   'Tb3 Mg2 Zn1 Ir1 Pd2'
_cell_volume   189.21357026
_cell_formula_units_Z   1
loop_
 _symmetry_equiv_pos_site_id
 _symmetry_equiv_pos_as_xyz
  1  'x, y, z'
loop_
 _atom_site_type_symbol
 _atom_site_label
 _atom_site_symmetry_multiplicity
 _atom_site_fract_x
 _atom_site_fract_y
 _atom_site_fract_z
 _atom_site_occupancy
  Tb  Tb0  1  0.004059  0.406981  0.000000  1
  Tb  Tb1  1  0.583846  0.606450  0.000000  1
  Tb  Tb2  1  0.422421  0.988876  0.000000  1
  Mg  Mg3  1  0.001494  0.754083  0.500000  1
  Mg  Mg4  1  0.247332  0.245209  0.500000  1
  Zn  Zn5  1  0.747408  0.998310  0.500000  1
  Ir  Ir6  1  0.331724  0.665670  0.500000  1
  Pd  Pd7  1  0.994559  0.000374  0.000000  1
  Pd  Pd8  1  0.667155  0.334049  0.500000  1
