# generated using pymatgen
data_Dy2Er2TcOsC4
_symmetry_space_group_name_H-M   'P 1'
_cell_length_a   5.08419500
_cell_length_b   6.52112307
_cell_length_c   9.76563202
_cell_angle_alpha   89.68384529
_cell_angle_beta   90.00000000
_cell_angle_gamma   90.00000000
_symmetry_Int_Tables_number   1
_chemical_formula_structural   Dy2Er2TcOsC4
_chemical_formula_sum   'Dy4 Er4 Tc2 Os2 C8'
_cell_volume   323.77129294
_cell_formula_units_Z   2
loop_
 _symmetry_equiv_pos_site_id
 _symmetry_equiv_pos_as_xyz
  1  'x, y, z'
loop_
 _atom_site_type_symbol
 _atom_site_label
 _atom_site_symmetry_multiplicity
 _atom_site_fract_x
 _atom_site_fract_y
 _atom_site_fract_z
 _atom_site_occupancy
  Dy  Dy0  1  0.250000  0.531909  0.215010  1
  Dy  Dy1  1  0.750000  0.468091  0.784990  1
  Dy  Dy2  1  0.750000  0.970094  0.712902  1
  Dy  Dy3  1  0.250000  0.029906  0.287098  1
  Er  Er4  1  0.250000  0.676651  0.555890  1
  Er  Er5  1  0.750000  0.323349  0.444110  1
  Er  Er6  1  0.750000  0.824429  0.056327  1
  Er  Er7  1  0.250000  0.175571  0.943673  1
  Tc  Tc8  1  0.250000  0.721035  0.865876  1
  Tc  Tc9  1  0.750000  0.278965  0.134124  1
  Os  Os10  1  0.750000  0.777749  0.365717  1
  Os  Os11  1  0.250000  0.222251  0.634283  1
  C  C12  1  0.250000  0.454058  0.758907  1
  C  C13  1  0.750000  0.545942  0.241093  1
  C  C14  1  0.750000  0.044827  0.259795  1
  C  C15  1  0.250000  0.955173  0.740205  1
  C  C16  1  0.250000  0.825620  0.051100  1
  C  C17  1  0.750000  0.174380  0.948900  1
  C  C18  1  0.750000  0.673047  0.551620  1
  C  C19  1  0.250000  0.326953  0.448380  1
