# generated using pymatgen
data_Dy6B14RuW
_symmetry_space_group_name_H-M   'P 1'
_cell_length_a   8.11708458
_cell_length_b   8.11708405
_cell_length_c   9.39335100
_cell_angle_alpha   90.00000000
_cell_angle_beta   90.00000000
_cell_angle_gamma   155.11130235
_symmetry_Int_Tables_number   1
_chemical_formula_structural   Dy6B14RuW
_chemical_formula_sum   'Dy6 B14 Ru1 W1'
_cell_volume   260.46843189
_cell_formula_units_Z   1
loop_
 _symmetry_equiv_pos_site_id
 _symmetry_equiv_pos_as_xyz
  1  'x, y, z'
loop_
 _atom_site_type_symbol
 _atom_site_label
 _atom_site_symmetry_multiplicity
 _atom_site_fract_x
 _atom_site_fract_y
 _atom_site_fract_z
 _atom_site_occupancy
  Dy  Dy0  1  0.894104  0.105896  0.437277  1
  Dy  Dy1  1  0.107098  0.892902  0.558512  1
  Dy  Dy2  1  0.894104  0.105896  0.062723  1
  Dy  Dy3  1  0.107098  0.892902  0.941488  1
  Dy  Dy4  1  0.243170  0.756830  0.250000  1
  Dy  Dy5  1  0.754829  0.245171  0.750000  1
  B  B6  1  0.726534  0.273466  0.465366  1
  B  B7  1  0.272028  0.727972  0.531711  1
  B  B8  1  0.726534  0.273466  0.034634  1
  B  B9  1  0.272028  0.727972  0.968289  1
  B  B10  1  0.631580  0.368420  0.151641  1
  B  B11  1  0.365187  0.634813  0.852843  1
  B  B12  1  0.631580  0.368420  0.348359  1
  B  B13  1  0.365187  0.634813  0.647157  1
  B  B14  1  0.521322  0.478678  0.096692  1
  B  B15  1  0.480332  0.519668  0.909035  1
  B  B16  1  0.521322  0.478678  0.403308  1
  B  B17  1  0.480332  0.519668  0.590965  1
  B  B18  1  0.458832  0.541168  0.250000  1
  B  B19  1  0.545107  0.454893  0.750000  1
  Ru  Ru20  1  0.054377  0.945623  0.250000  1
  W  W21  1  0.947313  0.052687  0.750000  1
