# generated using pymatgen
data_Ba2BC11
_symmetry_space_group_name_H-M   'P 1'
_cell_length_a   4.38679700
_cell_length_b   4.38916950
_cell_length_c   10.80671019
_cell_angle_alpha   90.93940097
_cell_angle_beta   90.00000000
_cell_angle_gamma   119.98211332
_symmetry_Int_Tables_number   1
_chemical_formula_structural   Ba2BC11
_chemical_formula_sum   'Ba2 B1 C11'
_cell_volume   180.19986680
_cell_formula_units_Z   1
loop_
 _symmetry_equiv_pos_site_id
 _symmetry_equiv_pos_as_xyz
  1  'x, y, z'
loop_
 _atom_site_type_symbol
 _atom_site_label
 _atom_site_symmetry_multiplicity
 _atom_site_fract_x
 _atom_site_fract_y
 _atom_site_fract_z
 _atom_site_occupancy
  Ba  Ba0  1  0.332252  0.656094  0.251838  1
  Ba  Ba1  1  0.676159  0.343906  0.748162  1
  B  B2  1  0.331356  0.000000  0.000000  1
  C  C3  1  0.677051  0.000000  0.000000  1
  C  C4  1  0.998351  0.333092  0.999853  1
  C  C5  1  0.665989  0.000000  0.500000  1
  C  C6  1  0.986891  0.654395  0.001012  1
  C  C7  1  0.334036  0.000000  0.500000  1
  C  C8  1  0.665259  0.666908  0.000147  1
  C  C9  1  0.999383  0.666618  0.499065  1
  C  C10  1  0.332495  0.345605  0.998988  1
  C  C11  1  0.000709  0.333404  0.500534  1
  C  C12  1  0.332765  0.333382  0.500935  1
  C  C13  1  0.667305  0.666596  0.499466  1
