# generated using pymatgen
data_Tb8Pr3In9Rh4
_symmetry_space_group_name_H-M   'P 1'
_cell_length_a   13.24276101
_cell_length_b   13.24260427
_cell_length_c   3.74447800
_cell_angle_alpha   90.00000000
_cell_angle_beta   90.00000000
_cell_angle_gamma   111.83334723
_symmetry_Int_Tables_number   1
_chemical_formula_structural   Tb8Pr3In9Rh4
_chemical_formula_sum   'Tb8 Pr3 In9 Rh4'
_cell_volume   609.56120594
_cell_formula_units_Z   1
loop_
 _symmetry_equiv_pos_site_id
 _symmetry_equiv_pos_as_xyz
  1  'x, y, z'
loop_
 _atom_site_type_symbol
 _atom_site_label
 _atom_site_symmetry_multiplicity
 _atom_site_fract_x
 _atom_site_fract_y
 _atom_site_fract_z
 _atom_site_occupancy
  Tb  Tb0  1  0.815565  0.815571  0.500000  1
  Tb  Tb1  1  0.184435  0.184429  0.500000  1
  Tb  Tb2  1  0.581149  0.919900  0.500000  1
  Tb  Tb3  1  0.418851  0.080100  0.500000  1
  Tb  Tb4  1  0.919900  0.581155  0.500000  1
  Tb  Tb5  1  0.080100  0.418845  0.500000  1
  Tb  Tb6  1  0.125666  0.874332  0.500000  1
  Tb  Tb7  1  0.874334  0.125668  0.500000  1
  Pr  Pr8  1  0.500000  0.500000  0.500000  1
  Pr  Pr9  1  0.341675  0.658330  0.500000  1
  Pr  Pr10  1  0.658325  0.341670  0.500000  1
  In  In11  1  0.339306  0.868511  0.000000  1
  In  In12  1  0.660694  0.131489  0.000000  1
  In  In13  1  0.868513  0.339306  0.000000  1
  In  In14  1  0.131487  0.660694  0.000000  1
  In  In15  1  0.583291  0.724523  0.000000  1
  In  In16  1  0.416709  0.275477  0.000000  1
  In  In17  1  0.724512  0.583286  0.000000  1
  In  In18  1  0.275488  0.416714  0.000000  1
  In  In19  1  0.000000  0.000000  0.000000  1
  Rh  Rh20  1  0.748289  0.953761  0.000000  1
  Rh  Rh21  1  0.251711  0.046239  0.000000  1
  Rh  Rh22  1  0.953776  0.748279  0.000000  1
  Rh  Rh23  1  0.046224  0.251721  0.000000  1
