# generated using pymatgen
data_Li2Nd6HgAu9
_symmetry_space_group_name_H-M   'P 1'
_cell_length_a   7.97375267
_cell_length_b   7.97375200
_cell_length_c   7.97375200
_cell_angle_alpha   65.49102977
_cell_angle_beta   65.49102407
_cell_angle_gamma   65.49100998
_symmetry_Int_Tables_number   1
_chemical_formula_structural   Li2Nd6HgAu9
_chemical_formula_sum   'Li2 Nd6 Hg1 Au9'
_cell_volume   401.28461728
_cell_formula_units_Z   1
loop_
 _symmetry_equiv_pos_site_id
 _symmetry_equiv_pos_as_xyz
  1  'x, y, z'
loop_
 _atom_site_type_symbol
 _atom_site_label
 _atom_site_symmetry_multiplicity
 _atom_site_fract_x
 _atom_site_fract_y
 _atom_site_fract_z
 _atom_site_occupancy
  Li  Li0  1  0.656842  0.656842  0.656842  1
  Li  Li1  1  0.343158  0.343158  0.343158  1
  Nd  Nd2  1  0.894188  0.188069  0.621492  1
  Nd  Nd3  1  0.621492  0.894188  0.188069  1
  Nd  Nd4  1  0.188069  0.621492  0.894188  1
  Nd  Nd5  1  0.105812  0.811931  0.378508  1
  Nd  Nd6  1  0.378508  0.105812  0.811931  1
  Nd  Nd7  1  0.811931  0.378508  0.105812  1
  Hg  Hg8  1  0.500000  0.500000  0.500000  1
  Au  Au9  1  0.000000  0.000000  0.000000  1
  Au  Au10  1  0.796716  0.796716  0.796716  1
  Au  Au11  1  0.203284  0.203284  0.203284  1
  Au  Au12  1  0.940332  0.552993  0.322268  1
  Au  Au13  1  0.322268  0.940332  0.552993  1
  Au  Au14  1  0.552993  0.322268  0.940332  1
  Au  Au15  1  0.059668  0.447007  0.677732  1
  Au  Au16  1  0.677732  0.059668  0.447007  1
  Au  Au17  1  0.447007  0.677732  0.059668  1
