# generated using pymatgen
data_Dy5Zr3Ge3P9Ir16
_symmetry_space_group_name_H-M   'P 1'
_cell_length_a   13.06058700
_cell_length_b   13.06058714
_cell_length_c   3.96448500
_cell_angle_alpha   90.00000000
_cell_angle_beta   90.00000000
_cell_angle_gamma   120.00000219
_symmetry_Int_Tables_number   1
_chemical_formula_structural   Dy5Zr3Ge3P9Ir16
_chemical_formula_sum   'Dy5 Zr3 Ge3 P9 Ir16'
_cell_volume   585.65627197
_cell_formula_units_Z   1
loop_
 _symmetry_equiv_pos_site_id
 _symmetry_equiv_pos_as_xyz
  1  'x, y, z'
loop_
 _atom_site_type_symbol
 _atom_site_label
 _atom_site_symmetry_multiplicity
 _atom_site_fract_x
 _atom_site_fract_y
 _atom_site_fract_z
 _atom_site_occupancy
  Dy  Dy0  1  0.333333  0.666667  0.500000  1
  Dy  Dy1  1  0.666667  0.333333  0.500000  1
  Dy  Dy2  1  0.000000  0.816316  0.000000  1
  Dy  Dy3  1  0.183684  0.183684  0.000000  1
  Dy  Dy4  1  0.816316  0.000000  0.000000  1
  Zr  Zr5  1  0.000000  0.443371  0.500000  1
  Zr  Zr6  1  0.556629  0.556629  0.500000  1
  Zr  Zr7  1  0.443371  0.000000  0.500000  1
  Ge  Ge8  1  0.000000  0.649450  0.500000  1
  Ge  Ge9  1  0.350550  0.350550  0.500000  1
  Ge  Ge10  1  0.649450  0.000000  0.500000  1
  P  P11  1  0.517839  0.690708  0.000000  1
  P  P12  1  0.309292  0.827131  0.000000  1
  P  P13  1  0.172869  0.482161  0.000000  1
  P  P14  1  0.482161  0.172869  0.000000  1
  P  P15  1  0.690708  0.517839  0.000000  1
  P  P16  1  0.827131  0.309292  0.000000  1
  P  P17  1  0.000000  0.176375  0.500000  1
  P  P18  1  0.823625  0.823625  0.500000  1
  P  P19  1  0.176375  0.000000  0.500000  1
  Ir  Ir20  1  0.505296  0.866539  0.000000  1
  Ir  Ir21  1  0.133461  0.638758  0.000000  1
  Ir  Ir22  1  0.361242  0.494704  0.000000  1
  Ir  Ir23  1  0.494704  0.361242  0.000000  1
  Ir  Ir24  1  0.866539  0.505296  0.000000  1
  Ir  Ir25  1  0.638758  0.133461  0.000000  1
  Ir  Ir26  1  0.000000  0.273460  0.000000  1
  Ir  Ir27  1  0.726540  0.726540  0.000000  1
  Ir  Ir28  1  0.273460  0.000000  0.000000  1
  Ir  Ir29  1  0.624121  0.798819  0.500000  1
  Ir  Ir30  1  0.201181  0.825302  0.500000  1
  Ir  Ir31  1  0.174698  0.375879  0.500000  1
  Ir  Ir32  1  0.375879  0.174698  0.500000  1
  Ir  Ir33  1  0.798819  0.624121  0.500000  1
  Ir  Ir34  1  0.825302  0.201181  0.500000  1
  Ir  Ir35  1  0.000000  0.000000  0.500000  1
