# generated using pymatgen
data_Y3ThPd4
_symmetry_space_group_name_H-M   'P 1'
_cell_length_a   4.68724000
_cell_length_b   5.63497657
_cell_length_c   7.03616688
_cell_angle_alpha   90.64202181
_cell_angle_beta   90.00000000
_cell_angle_gamma   90.00000000
_symmetry_Int_Tables_number   1
_chemical_formula_structural   Y3ThPd4
_chemical_formula_sum   'Y3 Th1 Pd4'
_cell_volume   185.83100308
_cell_formula_units_Z   1
loop_
 _symmetry_equiv_pos_site_id
 _symmetry_equiv_pos_as_xyz
  1  'x, y, z'
loop_
 _atom_site_type_symbol
 _atom_site_label
 _atom_site_symmetry_multiplicity
 _atom_site_fract_x
 _atom_site_fract_y
 _atom_site_fract_z
 _atom_site_occupancy
  Y  Y0  1  0.250000  0.143925  0.183587  1
  Y  Y1  1  0.750000  0.642843  0.314890  1
  Y  Y2  1  0.750000  0.857548  0.819439  1
  Th  Th3  1  0.250000  0.359578  0.682427  1
  Pd  Pd4  1  0.250000  0.844714  0.542359  1
  Pd  Pd5  1  0.250000  0.652354  0.040760  1
  Pd  Pd6  1  0.750000  0.150731  0.460137  1
  Pd  Pd7  1  0.750000  0.348306  0.956400  1
