# generated using pymatgen
data_Nd15Th(HgOs)4
_symmetry_space_group_name_H-M   'P 1'
_cell_length_a   9.93966528
_cell_length_b   9.93966536
_cell_length_c   9.93966600
_cell_angle_alpha   60.03021199
_cell_angle_beta   60.03021172
_cell_angle_gamma   60.03022330
_symmetry_Int_Tables_number   1
_chemical_formula_structural   Nd15Th(HgOs)4
_chemical_formula_sum   'Nd15 Th1 Hg4 Os4'
_cell_volume   694.86058434
_cell_formula_units_Z   1
loop_
 _symmetry_equiv_pos_site_id
 _symmetry_equiv_pos_as_xyz
  1  'x, y, z'
loop_
 _atom_site_type_symbol
 _atom_site_label
 _atom_site_symmetry_multiplicity
 _atom_site_fract_x
 _atom_site_fract_y
 _atom_site_fract_z
 _atom_site_occupancy
  Nd  Nd0  1  0.346732  0.346732  0.957052  1
  Nd  Nd1  1  0.346732  0.957052  0.346732  1
  Nd  Nd2  1  0.957052  0.346732  0.346732  1
  Nd  Nd3  1  0.809025  0.191685  0.191685  1
  Nd  Nd4  1  0.192186  0.809037  0.809037  1
  Nd  Nd5  1  0.191685  0.809025  0.191685  1
  Nd  Nd6  1  0.809037  0.192186  0.809037  1
  Nd  Nd7  1  0.191685  0.191685  0.809025  1
  Nd  Nd8  1  0.809037  0.809037  0.192186  1
  Nd  Nd9  1  0.941795  0.559621  0.559621  1
  Nd  Nd10  1  0.559356  0.941623  0.941623  1
  Nd  Nd11  1  0.559621  0.941795  0.559621  1
  Nd  Nd12  1  0.941623  0.559356  0.941623  1
  Nd  Nd13  1  0.559621  0.559621  0.941795  1
  Nd  Nd14  1  0.941623  0.941623  0.559356  1
  Th  Th15  1  0.342615  0.342615  0.342615  1
  Hg  Hg16  1  0.583114  0.583114  0.583114  1
  Hg  Hg17  1  0.582612  0.582612  0.249346  1
  Hg  Hg18  1  0.582612  0.249346  0.582612  1
  Hg  Hg19  1  0.249346  0.582612  0.582612  1
  Os  Os20  1  0.138358  0.138358  0.138358  1
  Os  Os21  1  0.143096  0.143096  0.578335  1
  Os  Os22  1  0.143096  0.578335  0.143096  1
  Os  Os23  1  0.578335  0.143096  0.143096  1
