# generated using pymatgen
data_Tc6Se7Cl4
_symmetry_space_group_name_H-M   'P 1'
_cell_length_a   11.97078512
_cell_length_b   11.97078472
_cell_length_c   11.97078496
_cell_angle_alpha   50.94768678
_cell_angle_beta   50.94768597
_cell_angle_gamma   50.94768358
_symmetry_Int_Tables_number   1
_chemical_formula_structural   Tc6Se7Cl4
_chemical_formula_sum   'Tc12 Se14 Cl8'
_cell_volume   954.10168634
_cell_formula_units_Z   2
loop_
 _symmetry_equiv_pos_site_id
 _symmetry_equiv_pos_as_xyz
  1  'x, y, z'
loop_
 _atom_site_type_symbol
 _atom_site_label
 _atom_site_symmetry_multiplicity
 _atom_site_fract_x
 _atom_site_fract_y
 _atom_site_fract_z
 _atom_site_occupancy
  Tc  Tc0  1  0.536220  0.387040  0.681660  1
  Tc  Tc1  1  0.387040  0.681660  0.536220  1
  Tc  Tc2  1  0.681660  0.536220  0.387040  1
  Tc  Tc3  1  0.181660  0.887040  0.036220  1
  Tc  Tc4  1  0.887040  0.036220  0.181660  1
  Tc  Tc5  1  0.036220  0.181660  0.887040  1
  Tc  Tc6  1  0.464862  0.613694  0.318482  1
  Tc  Tc7  1  0.613694  0.318482  0.464862  1
  Tc  Tc8  1  0.318482  0.464862  0.613694  1
  Tc  Tc9  1  0.818482  0.113694  0.964862  1
  Tc  Tc10  1  0.113694  0.964862  0.818482  1
  Tc  Tc11  1  0.964862  0.818482  0.113694  1
  Se  Se12  1  0.814477  0.250155  0.529643  1
  Se  Se13  1  0.250155  0.529643  0.814477  1
  Se  Se14  1  0.529643  0.814477  0.250155  1
  Se  Se15  1  0.029643  0.750155  0.314477  1
  Se  Se16  1  0.750155  0.314477  0.029643  1
  Se  Se17  1  0.314477  0.029643  0.750155  1
  Se  Se18  1  0.185153  0.750749  0.468533  1
  Se  Se19  1  0.750749  0.468533  0.185153  1
  Se  Se20  1  0.468533  0.185153  0.750749  1
  Se  Se21  1  0.968533  0.250749  0.685153  1
  Se  Se22  1  0.250749  0.685153  0.968533  1
  Se  Se23  1  0.685153  0.968533  0.250749  1
  Se  Se24  1  0.599391  0.599391  0.599391  1
  Se  Se25  1  0.099391  0.099391  0.099391  1
  Cl  Cl26  1  0.932908  0.570786  0.244145  1
  Cl  Cl27  1  0.570786  0.244145  0.932908  1
  Cl  Cl28  1  0.244145  0.932908  0.570786  1
  Cl  Cl29  1  0.744145  0.070786  0.432908  1
  Cl  Cl30  1  0.070786  0.432908  0.744145  1
  Cl  Cl31  1  0.432908  0.744145  0.070786  1
  Cl  Cl32  1  0.402063  0.402063  0.402063  1
  Cl  Cl33  1  0.902063  0.902063  0.902063  1
