# generated using pymatgen
data_Lu3Mg(SnRu2)4
_symmetry_space_group_name_H-M   'P 1'
_cell_length_a   6.44294900
_cell_length_b   6.44316400
_cell_length_c   6.57532200
_cell_angle_alpha   90.00000000
_cell_angle_beta   90.00000000
_cell_angle_gamma   90.00000000
_symmetry_Int_Tables_number   1
_chemical_formula_structural   Lu3Mg(SnRu2)4
_chemical_formula_sum   'Lu3 Mg1 Sn4 Ru8'
_cell_volume   272.96119129
_cell_formula_units_Z   1
loop_
 _symmetry_equiv_pos_site_id
 _symmetry_equiv_pos_as_xyz
  1  'x, y, z'
loop_
 _atom_site_type_symbol
 _atom_site_label
 _atom_site_symmetry_multiplicity
 _atom_site_fract_x
 _atom_site_fract_y
 _atom_site_fract_z
 _atom_site_occupancy
  Lu  Lu0  1  0.750606  0.250001  0.000000  1
  Lu  Lu1  1  0.249252  0.750001  0.000000  1
  Lu  Lu2  1  0.250727  0.750001  0.499996  1
  Mg  Mg3  1  0.748955  0.250001  0.500002  1
  Sn  Sn4  1  0.249464  0.250001  0.000000  1
  Sn  Sn5  1  0.750464  0.750001  0.000000  1
  Sn  Sn6  1  0.251142  0.250001  0.499999  1
  Sn  Sn7  1  0.749370  0.750001  0.499999  1
  Ru  Ru8  1  0.502744  0.002680  0.252630  1
  Ru  Ru9  1  0.502744  0.497320  0.252630  1
  Ru  Ru10  1  0.997263  0.002785  0.254424  1
  Ru  Ru11  1  0.997263  0.497215  0.254424  1
  Ru  Ru12  1  0.997263  0.002785  0.745576  1
  Ru  Ru13  1  0.997263  0.497215  0.745576  1
  Ru  Ru14  1  0.502744  0.002680  0.747369  1
  Ru  Ru15  1  0.502744  0.497320  0.747369  1
