# generated using pymatgen
data_Lu13Th3Mg3CdNi4
_symmetry_space_group_name_H-M   'P 1'
_cell_length_a   9.47514875
_cell_length_b   9.52316619
_cell_length_c   9.52316500
_cell_angle_alpha   60.00000067
_cell_angle_beta   59.83221962
_cell_angle_gamma   59.83221601
_symmetry_Int_Tables_number   1
_chemical_formula_structural   Lu13Th3Mg3CdNi4
_chemical_formula_sum   'Lu13 Th3 Mg3 Cd1 Ni4'
_cell_volume   606.07680437
_cell_formula_units_Z   1
loop_
 _symmetry_equiv_pos_site_id
 _symmetry_equiv_pos_as_xyz
  1  'x, y, z'
loop_
 _atom_site_type_symbol
 _atom_site_label
 _atom_site_symmetry_multiplicity
 _atom_site_fract_x
 _atom_site_fract_y
 _atom_site_fract_z
 _atom_site_occupancy
  Lu  Lu0  1  0.955673  0.348109  0.348109  1
  Lu  Lu1  1  0.813959  0.186532  0.186532  1
  Lu  Lu2  1  0.186817  0.814746  0.814746  1
  Lu  Lu3  1  0.186817  0.814746  0.183692  1
  Lu  Lu4  1  0.813959  0.186532  0.812976  1
  Lu  Lu5  1  0.186817  0.183692  0.814746  1
  Lu  Lu6  1  0.813959  0.812976  0.186532  1
  Lu  Lu7  1  0.936827  0.566090  0.566090  1
  Lu  Lu8  1  0.566545  0.932601  0.932601  1
  Lu  Lu9  1  0.566545  0.932601  0.568254  1
  Lu  Lu10  1  0.936827  0.566090  0.930994  1
  Lu  Lu11  1  0.566545  0.568254  0.932601  1
  Lu  Lu12  1  0.936827  0.930994  0.566090  1
  Th  Th13  1  0.343648  0.349509  0.349509  1
  Th  Th14  1  0.343648  0.349509  0.957332  1
  Th  Th15  1  0.343648  0.957332  0.349509  1
  Mg  Mg16  1  0.581635  0.580097  0.580097  1
  Mg  Mg17  1  0.581635  0.580097  0.258171  1
  Mg  Mg18  1  0.581635  0.258171  0.580097  1
  Cd  Cd19  1  0.251540  0.582820  0.582820  1
  Ni  Ni20  1  0.143624  0.141672  0.141672  1
  Ni  Ni21  1  0.143624  0.141672  0.573033  1
  Ni  Ni22  1  0.143624  0.573033  0.141672  1
  Ni  Ni23  1  0.573620  0.142126  0.142126  1
