# generated using pymatgen
data_Dy5Er2Sn23Ru6
_symmetry_space_group_name_H-M   'P 1'
_cell_length_a   9.85526958
_cell_length_b   9.83830656
_cell_length_c   10.08065398
_cell_angle_alpha   89.99999891
_cell_angle_beta   90.04371394
_cell_angle_gamma   119.94308029
_symmetry_Int_Tables_number   1
_chemical_formula_structural   Dy5Er2Sn23Ru6
_chemical_formula_sum   'Dy5 Er2 Sn23 Ru6'
_cell_volume   846.94818034
_cell_formula_units_Z   1
loop_
 _symmetry_equiv_pos_site_id
 _symmetry_equiv_pos_as_xyz
  1  'x, y, z'
loop_
 _atom_site_type_symbol
 _atom_site_label
 _atom_site_symmetry_multiplicity
 _atom_site_fract_x
 _atom_site_fract_y
 _atom_site_fract_z
 _atom_site_occupancy
  Dy  Dy0  1  0.484566  0.515352  0.302898  1
  Dy  Dy1  1  0.515434  0.484648  0.697102  1
  Dy  Dy2  1  0.484566  0.969214  0.302898  1
  Dy  Dy3  1  0.515434  0.030786  0.697102  1
  Dy  Dy4  1  0.000000  0.000000  0.000000  1
  Er  Er5  1  0.030129  0.515065  0.302623  1
  Er  Er6  1  0.969871  0.484935  0.697377  1
  Sn  Sn7  1  0.118646  0.881213  0.273995  1
  Sn  Sn8  1  0.881354  0.118787  0.726005  1
  Sn  Sn9  1  0.118646  0.237433  0.273995  1
  Sn  Sn10  1  0.881354  0.762567  0.726005  1
  Sn  Sn11  1  0.762992  0.881496  0.274240  1
  Sn  Sn12  1  0.237008  0.118504  0.725760  1
  Sn  Sn13  1  0.779862  0.220263  0.462642  1
  Sn  Sn14  1  0.220138  0.779737  0.537358  1
  Sn  Sn15  1  0.779862  0.559600  0.462642  1
  Sn  Sn16  1  0.220138  0.440400  0.537358  1
  Sn  Sn17  1  0.439980  0.219990  0.462714  1
  Sn  Sn18  1  0.560020  0.780010  0.537286  1
  Sn  Sn19  1  0.348794  0.999967  0.999911  1
  Sn  Sn20  1  0.651206  0.000033  0.000089  1
  Sn  Sn21  1  0.000000  0.349117  0.000000  1
  Sn  Sn22  1  0.000000  0.650883  0.000000  1
  Sn  Sn23  1  0.651206  0.651173  0.000089  1
  Sn  Sn24  1  0.348794  0.348827  0.999911  1
  Sn  Sn25  1  0.332952  0.666476  0.128591  1
  Sn  Sn26  1  0.667048  0.333524  0.871409  1
  Sn  Sn27  1  0.333258  0.666629  0.822355  1
  Sn  Sn28  1  0.666742  0.333371  0.177645  1
  Sn  Sn29  1  0.000000  0.000000  0.500000  1
  Ru  Ru30  1  0.830418  0.170589  0.202451  1
  Ru  Ru31  1  0.169582  0.829411  0.797549  1
  Ru  Ru32  1  0.830418  0.659831  0.202451  1
  Ru  Ru33  1  0.169582  0.340169  0.797549  1
  Ru  Ru34  1  0.340089  0.170045  0.202239  1
  Ru  Ru35  1  0.659911  0.829955  0.797761  1
