# generated using pymatgen
data_DyPa2Ga5
_symmetry_space_group_name_H-M   'P 1'
_cell_length_a   6.06515800
_cell_length_b   9.52750100
_cell_length_c   11.70315300
_cell_angle_alpha   90.00000000
_cell_angle_beta   90.00000000
_cell_angle_gamma   90.00000000
_symmetry_Int_Tables_number   1
_chemical_formula_structural   DyPa2Ga5
_chemical_formula_sum   'Dy4 Pa8 Ga20'
_cell_volume   676.27604587
_cell_formula_units_Z   4
loop_
 _symmetry_equiv_pos_site_id
 _symmetry_equiv_pos_as_xyz
  1  'x, y, z'
loop_
 _atom_site_type_symbol
 _atom_site_label
 _atom_site_symmetry_multiplicity
 _atom_site_fract_x
 _atom_site_fract_y
 _atom_site_fract_z
 _atom_site_occupancy
  Dy  Dy0  1  0.859007  0.750000  0.071948  1
  Dy  Dy1  1  0.640993  0.750000  0.571948  1
  Dy  Dy2  1  0.140993  0.250000  0.928052  1
  Dy  Dy3  1  0.359007  0.250000  0.428052  1
  Pa  Pa4  1  0.879652  0.500569  0.351668  1
  Pa  Pa5  1  0.620348  0.999431  0.851668  1
  Pa  Pa6  1  0.120348  0.000569  0.648332  1
  Pa  Pa7  1  0.379652  0.499431  0.148332  1
  Pa  Pa8  1  0.120348  0.499431  0.648332  1
  Pa  Pa9  1  0.379652  0.000569  0.148332  1
  Pa  Pa10  1  0.879652  0.999431  0.351668  1
  Pa  Pa11  1  0.620348  0.500569  0.851668  1
  Ga  Ga12  1  0.870589  0.052948  0.091089  1
  Ga  Ga13  1  0.629411  0.447052  0.591089  1
  Ga  Ga14  1  0.129411  0.552948  0.908911  1
  Ga  Ga15  1  0.370589  0.947052  0.408911  1
  Ga  Ga16  1  0.129411  0.947052  0.908911  1
  Ga  Ga17  1  0.370589  0.552948  0.408911  1
  Ga  Ga18  1  0.870589  0.447052  0.091089  1
  Ga  Ga19  1  0.629411  0.052948  0.591089  1
  Ga  Ga20  1  0.152526  0.750000  0.265752  1
  Ga  Ga21  1  0.347474  0.750000  0.765752  1
  Ga  Ga22  1  0.847474  0.250000  0.734248  1
  Ga  Ga23  1  0.652526  0.250000  0.234248  1
  Ga  Ga24  1  0.392619  0.750000  0.994090  1
  Ga  Ga25  1  0.107381  0.750000  0.494090  1
  Ga  Ga26  1  0.607381  0.250000  0.005910  1
  Ga  Ga27  1  0.892619  0.250000  0.505910  1
  Ga  Ga28  1  0.597506  0.750000  0.291986  1
  Ga  Ga29  1  0.902494  0.750000  0.791986  1
  Ga  Ga30  1  0.402494  0.250000  0.708014  1
  Ga  Ga31  1  0.097506  0.250000  0.208014  1
