# generated using pymatgen
data_La5Ru2Au
_symmetry_space_group_name_H-M   'P 1'
_cell_length_a   9.04573837
_cell_length_b   9.04573817
_cell_length_c   9.04573779
_cell_angle_alpha   128.21858018
_cell_angle_beta   128.21857872
_cell_angle_gamma   76.27120691
_symmetry_Int_Tables_number   1
_chemical_formula_structural   La5Ru2Au
_chemical_formula_sum   'La10 Ru4 Au2'
_cell_volume   444.01524605
_cell_formula_units_Z   2
loop_
 _symmetry_equiv_pos_site_id
 _symmetry_equiv_pos_as_xyz
  1  'x, y, z'
loop_
 _atom_site_type_symbol
 _atom_site_label
 _atom_site_symmetry_multiplicity
 _atom_site_fract_x
 _atom_site_fract_y
 _atom_site_fract_z
 _atom_site_occupancy
  La  La0  1  0.000000  0.000000  0.000000  1
  La  La1  1  0.500000  0.500000  0.000000  1
  La  La2  1  0.799058  0.299058  0.830263  1
  La  La3  1  0.200942  0.700942  0.169737  1
  La  La4  1  0.468796  0.968796  0.169737  1
  La  La5  1  0.299058  0.468796  0.500000  1
  La  La6  1  0.031204  0.200942  0.500000  1
  La  La7  1  0.531204  0.031204  0.830263  1
  La  La8  1  0.700942  0.531204  0.500000  1
  La  La9  1  0.968796  0.799058  0.500000  1
  Ru  Ru10  1  0.140088  0.640088  0.780176  1
  Ru  Ru11  1  0.859912  0.359912  0.219824  1
  Ru  Ru12  1  0.640088  0.859912  0.500000  1
  Ru  Ru13  1  0.359912  0.140088  0.500000  1
  Au  Au14  1  0.250000  0.250000  0.000000  1
  Au  Au15  1  0.750000  0.750000  0.000000  1
