# generated using pymatgen
data_Eu2TiMnO6
_symmetry_space_group_name_H-M   'P 1'
_cell_length_a   5.46909700
_cell_length_b   5.57666477
_cell_length_c   7.92516902
_cell_angle_alpha   89.79860818
_cell_angle_beta   90.00000000
_cell_angle_gamma   90.00000000
_symmetry_Int_Tables_number   1
_chemical_formula_structural   Eu2TiMnO6
_chemical_formula_sum   'Eu4 Ti2 Mn2 O12'
_cell_volume   241.71077722
_cell_formula_units_Z   2
loop_
 _symmetry_equiv_pos_site_id
 _symmetry_equiv_pos_as_xyz
  1  'x, y, z'
loop_
 _atom_site_type_symbol
 _atom_site_label
 _atom_site_symmetry_multiplicity
 _atom_site_fract_x
 _atom_site_fract_y
 _atom_site_fract_z
 _atom_site_occupancy
  Eu  Eu0  1  0.008489  0.959481  0.757467  1
  Eu  Eu1  1  0.508489  0.540519  0.242533  1
  Eu  Eu2  1  0.491511  0.459481  0.757467  1
  Eu  Eu3  1  0.991511  0.040519  0.242533  1
  Ti  Ti4  1  0.500000  0.000000  0.500000  1
  Ti  Ti5  1  0.000000  0.500000  0.500000  1
  Mn  Mn6  1  0.000000  0.500000  0.000000  1
  Mn  Mn7  1  0.500000  0.000000  0.000000  1
  O  O8  1  0.710257  0.289789  0.459154  1
  O  O9  1  0.210257  0.210211  0.540846  1
  O  O10  1  0.784437  0.798008  0.038539  1
  O  O11  1  0.284437  0.701992  0.961461  1
  O  O12  1  0.289743  0.710211  0.540846  1
  O  O13  1  0.789743  0.789789  0.459154  1
  O  O14  1  0.215563  0.201992  0.961461  1
  O  O15  1  0.715563  0.298008  0.038539  1
  O  O16  1  0.076677  0.482693  0.260803  1
  O  O17  1  0.576677  0.017307  0.739197  1
  O  O18  1  0.423323  0.982693  0.260803  1
  O  O19  1  0.923323  0.517307  0.739197  1
