# generated using pymatgen
data_Y2LuHf(Co5As3)4
_symmetry_space_group_name_H-M   'P 1'
_cell_length_a   3.75877900
_cell_length_b   12.12073739
_cell_length_c   10.65088326
_cell_angle_alpha   90.06501815
_cell_angle_beta   90.00000000
_cell_angle_gamma   90.00000000
_symmetry_Int_Tables_number   1
_chemical_formula_structural   Y2LuHf(Co5As3)4
_chemical_formula_sum   'Y2 Lu1 Hf1 Co20 As12'
_cell_volume   485.24512243
_cell_formula_units_Z   1
loop_
 _symmetry_equiv_pos_site_id
 _symmetry_equiv_pos_as_xyz
  1  'x, y, z'
loop_
 _atom_site_type_symbol
 _atom_site_label
 _atom_site_symmetry_multiplicity
 _atom_site_fract_x
 _atom_site_fract_y
 _atom_site_fract_z
 _atom_site_occupancy
  Y  Y0  1  0.250000  0.296932  0.917596  1
  Y  Y1  1  0.250000  0.798151  0.583076  1
  Lu  Lu2  1  0.750000  0.201451  0.418484  1
  Hf  Hf3  1  0.750000  0.698223  0.078092  1
  Co  Co4  1  0.750000  0.697134  0.381714  1
  Co  Co5  1  0.250000  0.303562  0.614504  1
  Co  Co6  1  0.250000  0.800204  0.889481  1
  Co  Co7  1  0.750000  0.196224  0.115493  1
  Co  Co8  1  0.750000  0.993923  0.215535  1
  Co  Co9  1  0.250000  0.007045  0.785260  1
  Co  Co10  1  0.250000  0.509841  0.713570  1
  Co  Co11  1  0.750000  0.493427  0.284057  1
  Co  Co12  1  0.750000  0.679166  0.784675  1
  Co  Co13  1  0.250000  0.322507  0.214965  1
  Co  Co14  1  0.250000  0.821310  0.283373  1
  Co  Co15  1  0.750000  0.178847  0.716548  1
  Co  Co16  1  0.750000  0.925831  0.974295  1
  Co  Co17  1  0.250000  0.064813  0.031823  1
  Co  Co18  1  0.250000  0.567995  0.466841  1
  Co  Co19  1  0.750000  0.431175  0.528635  1
  Co  Co20  1  0.750000  0.989437  0.592467  1
  Co  Co21  1  0.250000  0.014156  0.407521  1
  Co  Co22  1  0.250000  0.517895  0.092629  1
  Co  Co23  1  0.750000  0.491322  0.909997  1
  As  As24  1  0.750000  0.613589  0.584289  1
  As  As25  1  0.250000  0.384997  0.413587  1
  As  As26  1  0.250000  0.881513  0.087457  1
  As  As27  1  0.750000  0.109949  0.914772  1
  As  As28  1  0.750000  0.890840  0.399952  1
  As  As29  1  0.250000  0.111131  0.599923  1
  As  As30  1  0.250000  0.610792  0.900449  1
  As  As31  1  0.750000  0.390209  0.100007  1
  As  As32  1  0.750000  0.872349  0.770528  1
  As  As33  1  0.250000  0.129833  0.231702  1
  As  As34  1  0.250000  0.631515  0.265863  1
  As  As35  1  0.750000  0.372712  0.730837  1
