# generated using pymatgen
data_La3PrY2(Sb3Au2)2
_symmetry_space_group_name_H-M   'P 1'
_cell_length_a   4.61124500
_cell_length_b   4.61124361
_cell_length_c   24.35784700
_cell_angle_alpha   90.00000000
_cell_angle_beta   90.00000000
_cell_angle_gamma   120.00000278
_symmetry_Int_Tables_number   1
_chemical_formula_structural   La3PrY2(Sb3Au2)2
_chemical_formula_sum   'La3 Pr1 Y2 Sb6 Au4'
_cell_volume   448.54475404
_cell_formula_units_Z   1
loop_
 _symmetry_equiv_pos_site_id
 _symmetry_equiv_pos_as_xyz
  1  'x, y, z'
loop_
 _atom_site_type_symbol
 _atom_site_label
 _atom_site_symmetry_multiplicity
 _atom_site_fract_x
 _atom_site_fract_y
 _atom_site_fract_z
 _atom_site_occupancy
  La  La0  1  0.666667  0.333333  0.922647  1
  La  La1  1  0.333333  0.666667  0.077125  1
  La  La2  1  0.333333  0.666667  0.423923  1
  Pr  Pr3  1  0.666667  0.333333  0.577537  1
  Y  Y4  1  0.333333  0.666667  0.249993  1
  Y  Y5  1  0.666667  0.333333  0.749429  1
  Sb  Sb6  1  0.333333  0.666667  0.653993  1
  Sb  Sb7  1  0.000000  0.000000  0.501266  1
  Sb  Sb8  1  0.666667  0.333333  0.345586  1
  Sb  Sb9  1  0.333333  0.666667  0.844950  1
  Sb  Sb10  1  0.666667  0.333333  0.154465  1
  Sb  Sb11  1  0.000000  0.000000  0.999756  1
  Au  Au12  1  0.000000  0.000000  0.809390  1
  Au  Au13  1  0.000000  0.000000  0.190338  1
  Au  Au14  1  0.000000  0.000000  0.309194  1
  Au  Au15  1  0.000000  0.000000  0.690411  1
