# generated using pymatgen
data_BaNdGa3O7
_symmetry_space_group_name_H-M   'P 1'
_cell_length_a   8.21732744
_cell_length_b   8.21732834
_cell_length_c   5.44012400
_cell_angle_alpha   90.00000000
_cell_angle_beta   90.00000000
_cell_angle_gamma   91.58108049
_symmetry_Int_Tables_number   1
_chemical_formula_structural   BaNdGa3O7
_chemical_formula_sum   'Ba2 Nd2 Ga6 O14'
_cell_volume   367.20167749
_cell_formula_units_Z   2
loop_
 _symmetry_equiv_pos_site_id
 _symmetry_equiv_pos_as_xyz
  1  'x, y, z'
loop_
 _atom_site_type_symbol
 _atom_site_label
 _atom_site_symmetry_multiplicity
 _atom_site_fract_x
 _atom_site_fract_y
 _atom_site_fract_z
 _atom_site_occupancy
  Ba  Ba0  1  0.162938  0.837062  0.494184  1
  Ba  Ba1  1  0.837062  0.162938  0.494184  1
  Nd  Nd2  1  0.659960  0.659960  0.519581  1
  Nd  Nd3  1  0.340040  0.340040  0.519581  1
  Ga  Ga4  1  0.363008  0.636992  0.033417  1
  Ga  Ga5  1  0.848845  0.848845  0.969876  1
  Ga  Ga6  1  0.636992  0.363008  0.033417  1
  Ga  Ga7  1  0.151155  0.151155  0.969876  1
  Ga  Ga8  1  0.500000  0.000000  0.990127  1
  Ga  Ga9  1  0.000000  0.500000  0.990127  1
  O  O10  1  0.000000  0.000000  0.850637  1
  O  O11  1  0.500000  0.500000  0.214103  1
  O  O12  1  0.377877  0.622123  0.698230  1
  O  O13  1  0.836703  0.836703  0.301688  1
  O  O14  1  0.622123  0.377877  0.698230  1
  O  O15  1  0.163297  0.163297  0.301688  1
  O  O16  1  0.422714  0.832225  0.188774  1
  O  O17  1  0.901300  0.657765  0.791490  1
  O  O18  1  0.577286  0.167775  0.188774  1
  O  O19  1  0.098700  0.342235  0.791490  1
  O  O20  1  0.342235  0.098700  0.791490  1
  O  O21  1  0.832225  0.422714  0.188774  1
  O  O22  1  0.657765  0.901300  0.791490  1
  O  O23  1  0.167775  0.577286  0.188774  1
