# generated using pymatgen
data_YThCdNi2
_symmetry_space_group_name_H-M   'P 1'
_cell_length_a   7.56706930
_cell_length_b   7.56707010
_cell_length_c   3.67591500
_cell_angle_alpha   90.00000000
_cell_angle_beta   90.00000000
_cell_angle_gamma   93.18359979
_symmetry_Int_Tables_number   1
_chemical_formula_structural   YThCdNi2
_chemical_formula_sum   'Y2 Th2 Cd2 Ni4'
_cell_volume   210.16005095
_cell_formula_units_Z   2
loop_
 _symmetry_equiv_pos_site_id
 _symmetry_equiv_pos_as_xyz
  1  'x, y, z'
loop_
 _atom_site_type_symbol
 _atom_site_label
 _atom_site_symmetry_multiplicity
 _atom_site_fract_x
 _atom_site_fract_y
 _atom_site_fract_z
 _atom_site_occupancy
  Y  Y0  1  0.172405  0.327595  0.500000  1
  Y  Y1  1  0.827595  0.672405  0.500000  1
  Th  Th2  1  0.675017  0.175017  0.500000  1
  Th  Th3  1  0.324983  0.824983  0.500000  1
  Cd  Cd4  1  0.500000  0.500000  0.000000  1
  Cd  Cd5  1  0.000000  0.000000  0.000000  1
  Ni  Ni6  1  0.122999  0.622999  0.000000  1
  Ni  Ni7  1  0.877001  0.377001  0.000000  1
  Ni  Ni8  1  0.617382  0.882618  0.000000  1
  Ni  Ni9  1  0.382618  0.117382  0.000000  1
