# generated using pymatgen
data_Hf7ZrFe7Si14Pd
_symmetry_space_group_name_H-M   'P 1'
_cell_length_a   9.45825626
_cell_length_b   9.45624134
_cell_length_c   9.48074403
_cell_angle_alpha   94.08233532
_cell_angle_beta   94.09725715
_cell_angle_gamma   148.64466322
_symmetry_Int_Tables_number   1
_chemical_formula_structural   Hf7ZrFe7Si14Pd
_chemical_formula_sum   'Hf7 Zr1 Fe7 Si14 Pd1'
_cell_volume   425.58282121
_cell_formula_units_Z   1
loop_
 _symmetry_equiv_pos_site_id
 _symmetry_equiv_pos_as_xyz
  1  'x, y, z'
loop_
 _atom_site_type_symbol
 _atom_site_label
 _atom_site_symmetry_multiplicity
 _atom_site_fract_x
 _atom_site_fract_y
 _atom_site_fract_z
 _atom_site_occupancy
  Hf  Hf0  1  0.698708  0.501060  0.194116  1
  Hf  Hf1  1  0.495129  0.693863  0.195507  1
  Hf  Hf2  1  0.498621  0.301461  0.805733  1
  Hf  Hf3  1  0.306287  0.504498  0.804376  1
  Hf  Hf4  1  0.864394  0.865434  0.725824  1
  Hf  Hf5  1  0.138568  0.861325  0.999818  1
  Hf  Hf6  1  0.861560  0.138108  0.999768  1
  Zr  Zr7  1  0.133884  0.134762  0.273032  1
  Fe  Fe8  1  0.906740  0.402089  0.804652  1
  Fe  Fe9  1  0.597958  0.093170  0.195301  1
  Fe  Fe10  1  0.099598  0.603544  0.209074  1
  Fe  Fe11  1  0.602143  0.399231  0.500748  1
  Fe  Fe12  1  0.396397  0.900254  0.790851  1
  Fe  Fe13  1  0.900129  0.099682  0.500728  1
  Fe  Fe14  1  0.394137  0.606382  0.500389  1
  Si  Si15  1  0.748461  0.748737  0.999090  1
  Si  Si16  1  0.250422  0.250758  0.999362  1
  Si  Si17  1  0.086602  0.500049  0.595472  1
  Si  Si18  1  0.547551  0.130765  0.598351  1
  Si  Si19  1  0.499847  0.913258  0.404595  1
  Si  Si20  1  0.869280  0.452637  0.401708  1
  Si  Si21  1  0.706448  0.007120  0.703092  1
  Si  Si22  1  0.986154  0.683450  0.706486  1
  Si  Si23  1  0.687894  0.692135  0.417421  1
  Si  Si24  1  0.289794  0.710081  0.999881  1
  Si  Si25  1  0.317182  0.013836  0.293816  1
  Si  Si26  1  0.710318  0.289456  0.999875  1
  Si  Si27  1  0.308523  0.312762  0.583199  1
  Si  Si28  1  0.992709  0.293944  0.297344  1
  Pd  Pd29  1  0.104561  0.896148  0.500390  1
