# generated using pymatgen
data_Nb12Zn2Ga8TcNiN4
_symmetry_space_group_name_H-M   'P 1'
_cell_length_a   8.30163574
_cell_length_b   8.26023225
_cell_length_c   8.26023300
_cell_angle_alpha   60.00000099
_cell_angle_beta   60.16484583
_cell_angle_gamma   60.16484769
_symmetry_Int_Tables_number   1
_chemical_formula_structural   Nb12Zn2Ga8TcNiN4
_chemical_formula_sum   'Nb12 Zn2 Ga8 Tc1 Ni1 N4'
_cell_volume   401.52340576
_cell_formula_units_Z   1
loop_
 _symmetry_equiv_pos_site_id
 _symmetry_equiv_pos_as_xyz
  1  'x, y, z'
loop_
 _atom_site_type_symbol
 _atom_site_label
 _atom_site_symmetry_multiplicity
 _atom_site_fract_x
 _atom_site_fract_y
 _atom_site_fract_z
 _atom_site_occupancy
  Nb  Nb0  1  0.442908  0.440266  0.058640  1
  Nb  Nb1  1  0.056321  0.437916  0.067450  1
  Nb  Nb2  1  0.446264  0.055167  0.055167  1
  Nb  Nb3  1  0.056321  0.067450  0.437916  1
  Nb  Nb4  1  0.442908  0.058640  0.440266  1
  Nb  Nb5  1  0.060808  0.435154  0.435154  1
  Nb  Nb6  1  0.807092  0.809734  0.191360  1
  Nb  Nb7  1  0.193679  0.812084  0.182550  1
  Nb  Nb8  1  0.803736  0.194833  0.194833  1
  Nb  Nb9  1  0.193679  0.182550  0.812084  1
  Nb  Nb10  1  0.807092  0.191360  0.809734  1
  Nb  Nb11  1  0.189192  0.814846  0.814846  1
  Zn  Zn12  1  0.625000  0.625000  0.125000  1
  Zn  Zn13  1  0.625000  0.125000  0.625000  1
  Ga  Ga14  1  0.848325  0.829977  0.489152  1
  Ga  Ga15  1  0.848325  0.489152  0.829977  1
  Ga  Ga16  1  0.493827  0.835169  0.835169  1
  Ga  Ga17  1  0.848267  0.831565  0.831565  1
  Ga  Ga18  1  0.401675  0.420023  0.760848  1
  Ga  Ga19  1  0.401675  0.760848  0.420023  1
  Ga  Ga20  1  0.756173  0.414831  0.414831  1
  Ga  Ga21  1  0.401733  0.418435  0.418435  1
  Tc  Tc22  1  0.625000  0.625000  0.625000  1
  Ni  Ni23  1  0.125000  0.625000  0.625000  1
  N  N24  1  0.125000  0.125000  0.625000  1
  N  N25  1  0.125000  0.625000  0.125000  1
  N  N26  1  0.625000  0.125000  0.125000  1
  N  N27  1  0.125000  0.125000  0.125000  1
