# generated using pymatgen
data_U2Cd(Si3Pd10)2
_symmetry_space_group_name_H-M   'P 1'
_cell_length_a   8.73494252
_cell_length_b   8.73494108
_cell_length_c   8.73494100
_cell_angle_alpha   60.00003440
_cell_angle_beta   60.00002467
_cell_angle_gamma   60.00000111
_symmetry_Int_Tables_number   1
_chemical_formula_structural   U2Cd(Si3Pd10)2
_chemical_formula_sum   'U2 Cd1 Si6 Pd20'
_cell_volume   471.26502193
_cell_formula_units_Z   1
loop_
 _symmetry_equiv_pos_site_id
 _symmetry_equiv_pos_as_xyz
  1  'x, y, z'
loop_
 _atom_site_type_symbol
 _atom_site_label
 _atom_site_symmetry_multiplicity
 _atom_site_fract_x
 _atom_site_fract_y
 _atom_site_fract_z
 _atom_site_occupancy
  U  U0  1  0.250000  0.250000  0.250000  1
  U  U1  1  0.750000  0.750000  0.750000  1
  Cd  Cd2  1  0.000000  0.000000  0.000000  1
  Si  Si3  1  0.734472  0.265528  0.265528  1
  Si  Si4  1  0.265528  0.734472  0.734472  1
  Si  Si5  1  0.265528  0.734472  0.265528  1
  Si  Si6  1  0.734472  0.265528  0.734472  1
  Si  Si7  1  0.265528  0.265528  0.734472  1
  Si  Si8  1  0.734472  0.734472  0.265528  1
  Pd  Pd9  1  0.345949  0.000000  0.000000  1
  Pd  Pd10  1  0.654051  0.000000  0.000000  1
  Pd  Pd11  1  0.000000  0.345949  0.654051  1
  Pd  Pd12  1  0.000000  0.654051  0.345949  1
  Pd  Pd13  1  0.000000  0.345949  0.000000  1
  Pd  Pd14  1  0.654051  0.000000  0.345949  1
  Pd  Pd15  1  0.000000  0.654051  0.000000  1
  Pd  Pd16  1  0.345949  0.000000  0.654051  1
  Pd  Pd17  1  0.000000  0.000000  0.345949  1
  Pd  Pd18  1  0.000000  0.000000  0.654051  1
  Pd  Pd19  1  0.654051  0.345949  0.000000  1
  Pd  Pd20  1  0.345949  0.654051  0.000000  1
  Pd  Pd21  1  0.383237  0.383237  0.383237  1
  Pd  Pd22  1  0.616763  0.616763  0.616763  1
  Pd  Pd23  1  0.383237  0.383237  0.850291  1
  Pd  Pd24  1  0.383237  0.850291  0.383237  1
  Pd  Pd25  1  0.616763  0.616763  0.149709  1
  Pd  Pd26  1  0.616763  0.149709  0.616763  1
  Pd  Pd27  1  0.850291  0.383237  0.383237  1
  Pd  Pd28  1  0.149709  0.616763  0.616763  1
