# generated using pymatgen
data_Dy3HoCr2(SbO7)2
_symmetry_space_group_name_H-M   'P 1'
_cell_length_a   7.27764499
_cell_length_b   7.25158654
_cell_length_c   7.33606100
_cell_angle_alpha   89.99997810
_cell_angle_beta   59.73412519
_cell_angle_gamma   119.90484148
_symmetry_Int_Tables_number   1
_chemical_formula_structural   Dy3HoCr2(SbO7)2
_chemical_formula_sum   'Dy3 Ho1 Cr2 Sb2 O14'
_cell_volume   273.05047106
_cell_formula_units_Z   1
loop_
 _symmetry_equiv_pos_site_id
 _symmetry_equiv_pos_as_xyz
  1  'x, y, z'
loop_
 _atom_site_type_symbol
 _atom_site_label
 _atom_site_symmetry_multiplicity
 _atom_site_fract_x
 _atom_site_fract_y
 _atom_site_fract_z
 _atom_site_occupancy
  Dy  Dy0  1  0.500001  0.999998  0.000000  1
  Dy  Dy1  1  0.000000  0.000001  0.500000  1
  Dy  Dy2  1  0.999998  0.000000  0.999999  1
  Ho  Ho3  1  0.499986  0.499995  0.000018  1
  Cr  Cr4  1  0.500005  0.000004  0.500003  1
  Cr  Cr5  1  0.500001  0.500000  0.499991  1
  Sb  Sb6  1  0.999999  0.500000  0.000001  1
  Sb  Sb7  1  0.999998  0.500002  0.499998  1
  O  O8  1  0.255918  0.128817  0.122040  1
  O  O9  1  0.744092  0.871187  0.877954  1
  O  O10  1  0.681172  0.840592  0.409423  1
  O  O11  1  0.836368  0.418408  0.831823  1
  O  O12  1  0.251962  0.831354  0.837273  1
  O  O13  1  0.252215  0.420749  0.410352  1
  O  O14  1  0.252214  0.420747  0.837422  1
  O  O15  1  0.251971  0.831359  0.410755  1
  O  O16  1  0.318832  0.159407  0.590574  1
  O  O17  1  0.163631  0.581592  0.168177  1
  O  O18  1  0.748033  0.168640  0.162732  1
  O  O19  1  0.747783  0.579248  0.589646  1
  O  O20  1  0.747788  0.579259  0.162574  1
  O  O21  1  0.748034  0.168641  0.589244  1
