# generated using pymatgen
data_Ho3Er7(IrPb3)2
_symmetry_space_group_name_H-M   'P 1'
_cell_length_a   9.15955600
_cell_length_b   9.15955621
_cell_length_c   6.81038500
_cell_angle_alpha   90.00000000
_cell_angle_beta   90.00000000
_cell_angle_gamma   119.99999203
_symmetry_Int_Tables_number   1
_chemical_formula_structural   Ho3Er7(IrPb3)2
_chemical_formula_sum   'Ho3 Er7 Ir2 Pb6'
_cell_volume   494.82448878
_cell_formula_units_Z   1
loop_
 _symmetry_equiv_pos_site_id
 _symmetry_equiv_pos_as_xyz
  1  'x, y, z'
loop_
 _atom_site_type_symbol
 _atom_site_label
 _atom_site_symmetry_multiplicity
 _atom_site_fract_x
 _atom_site_fract_y
 _atom_site_fract_z
 _atom_site_occupancy
  Ho  Ho0  1  0.333333  0.666667  0.500000  1
  Ho  Ho1  1  0.666667  0.333333  0.500000  1
  Ho  Ho2  1  0.333333  0.666667  0.000000  1
  Er  Er3  1  0.999969  0.764495  0.750027  1
  Er  Er4  1  0.235505  0.000031  0.249973  1
  Er  Er5  1  0.764526  0.000031  0.750027  1
  Er  Er6  1  0.999969  0.235474  0.249973  1
  Er  Er7  1  0.764526  0.764495  0.249973  1
  Er  Er8  1  0.235505  0.235474  0.750027  1
  Er  Er9  1  0.666667  0.333333  0.000000  1
  Ir  Ir10  1  0.000000  0.000000  0.000000  1
  Ir  Ir11  1  0.000000  0.000000  0.500000  1
  Pb  Pb12  1  0.404999  0.404840  0.249872  1
  Pb  Pb13  1  0.999840  0.404840  0.750128  1
  Pb  Pb14  1  0.999840  0.595001  0.249872  1
  Pb  Pb15  1  0.595160  0.000160  0.249872  1
  Pb  Pb16  1  0.404999  0.000160  0.750128  1
  Pb  Pb17  1  0.595160  0.595001  0.750128  1
