# generated using pymatgen
data_Li4TmP12Ir19
_symmetry_space_group_name_H-M   'P 1'
_cell_length_a   12.59208235
_cell_length_b   12.59208185
_cell_length_c   3.91879000
_cell_angle_alpha   90.00000000
_cell_angle_beta   90.00000000
_cell_angle_gamma   120.08462103
_symmetry_Int_Tables_number   1
_chemical_formula_structural   Li4TmP12Ir19
_chemical_formula_sum   'Li4 Tm1 P12 Ir19'
_cell_volume   537.65880492
_cell_formula_units_Z   1
loop_
 _symmetry_equiv_pos_site_id
 _symmetry_equiv_pos_as_xyz
  1  'x, y, z'
loop_
 _atom_site_type_symbol
 _atom_site_label
 _atom_site_symmetry_multiplicity
 _atom_site_fract_x
 _atom_site_fract_y
 _atom_site_fract_z
 _atom_site_occupancy
  Li  Li0  1  0.334335  0.666559  0.000000  1
  Li  Li1  1  0.666559  0.334335  0.000000  1
  Li  Li2  1  0.822508  0.998682  0.500000  1
  Li  Li3  1  0.998682  0.822508  0.500000  1
  Tm  Tm4  1  0.175565  0.175565  0.500000  1
  P  P5  1  0.175437  0.992946  0.000000  1
  P  P6  1  0.992946  0.175437  0.000000  1
  P  P7  1  0.820086  0.820086  0.000000  1
  P  P8  1  0.176308  0.489279  0.500000  1
  P  P9  1  0.512409  0.689013  0.500000  1
  P  P10  1  0.313182  0.824020  0.500000  1
  P  P11  1  0.689013  0.512409  0.500000  1
  P  P12  1  0.824020  0.313182  0.500000  1
  P  P13  1  0.489279  0.176308  0.500000  1
  P  P14  1  0.641492  0.000297  0.000000  1
  P  P15  1  0.000297  0.641492  0.000000  1
  P  P16  1  0.359556  0.359556  0.000000  1
  Ir  Ir17  1  0.460157  0.004257  0.000000  1
  Ir  Ir18  1  0.004257  0.460157  0.000000  1
  Ir  Ir19  1  0.541766  0.541766  0.000000  1
  Ir  Ir20  1  0.359631  0.491904  0.500000  1
  Ir  Ir21  1  0.510396  0.871094  0.500000  1
  Ir  Ir22  1  0.132191  0.640710  0.500000  1
  Ir  Ir23  1  0.871094  0.510396  0.500000  1
  Ir  Ir24  1  0.640710  0.132191  0.500000  1
  Ir  Ir25  1  0.491904  0.359631  0.500000  1
  Ir  Ir26  1  0.179971  0.372195  0.000000  1
  Ir  Ir27  1  0.623317  0.805874  0.000000  1
  Ir  Ir28  1  0.195647  0.817204  0.000000  1
  Ir  Ir29  1  0.805874  0.623317  0.000000  1
  Ir  Ir30  1  0.817204  0.195647  0.000000  1
  Ir  Ir31  1  0.372195  0.179971  0.000000  1
  Ir  Ir32  1  0.290871  0.000844  0.500000  1
  Ir  Ir33  1  0.000844  0.290871  0.500000  1
  Ir  Ir34  1  0.709565  0.709565  0.500000  1
  Ir  Ir35  1  0.000735  0.000735  0.000000  1
