# generated using pymatgen
data_LaSmPdSe3
_symmetry_space_group_name_H-M   'P 1'
_cell_length_a   7.11132219
_cell_length_b   7.11114983
_cell_length_c   10.48438417
_cell_angle_alpha   90.00719800
_cell_angle_beta   89.99259933
_cell_angle_gamma   146.34616455
_symmetry_Int_Tables_number   1
_chemical_formula_structural   LaSmPdSe3
_chemical_formula_sum   'La2 Sm2 Pd2 Se6'
_cell_volume   293.81853727
_cell_formula_units_Z   2
loop_
 _symmetry_equiv_pos_site_id
 _symmetry_equiv_pos_as_xyz
  1  'x, y, z'
loop_
 _atom_site_type_symbol
 _atom_site_label
 _atom_site_symmetry_multiplicity
 _atom_site_fract_x
 _atom_site_fract_y
 _atom_site_fract_z
 _atom_site_occupancy
  La  La0  1  0.754416  0.245623  0.249972  1
  La  La1  1  0.245596  0.754368  0.750025  1
  Sm  Sm2  1  0.999988  0.999987  0.000001  1
  Sm  Sm3  1  0.000000  0.999999  0.500005  1
  Pd  Pd4  1  0.476809  0.523211  0.250004  1
  Pd  Pd5  1  0.523192  0.476799  0.749992  1
  Se  Se6  1  0.350345  0.649662  0.064501  1
  Se  Se7  1  0.095859  0.904163  0.250020  1
  Se  Se8  1  0.350342  0.649653  0.435472  1
  Se  Se9  1  0.649655  0.350347  0.564530  1
  Se  Se10  1  0.904152  0.095850  0.749980  1
  Se  Se11  1  0.649651  0.350342  0.935498  1
