# generated using pymatgen
data_AcLu(SnPd)2
_symmetry_space_group_name_H-M   'P 1'
_cell_length_a   7.75056900
_cell_length_b   7.75056769
_cell_length_c   7.97107700
_cell_angle_alpha   90.00000000
_cell_angle_beta   90.00000000
_cell_angle_gamma   119.99999279
_symmetry_Int_Tables_number   1
_chemical_formula_structural   AcLu(SnPd)2
_chemical_formula_sum   'Ac3 Lu3 Sn6 Pd6'
_cell_volume   414.68160244
_cell_formula_units_Z   3
loop_
 _symmetry_equiv_pos_site_id
 _symmetry_equiv_pos_as_xyz
  1  'x, y, z'
loop_
 _atom_site_type_symbol
 _atom_site_label
 _atom_site_symmetry_multiplicity
 _atom_site_fract_x
 _atom_site_fract_y
 _atom_site_fract_z
 _atom_site_occupancy
  Ac  Ac0  1  0.407840  0.000115  0.750000  1
  Ac  Ac1  1  0.592275  0.592160  0.750000  1
  Ac  Ac2  1  0.999885  0.407725  0.750000  1
  Lu  Lu3  1  0.395105  0.000642  0.250000  1
  Lu  Lu4  1  0.605538  0.604895  0.250000  1
  Lu  Lu5  1  0.999358  0.394462  0.250000  1
  Sn  Sn6  1  0.737788  0.999583  0.020469  1
  Sn  Sn7  1  0.261795  0.262212  0.479531  1
  Sn  Sn8  1  0.000417  0.738205  0.479531  1
  Sn  Sn9  1  0.000417  0.738205  0.020469  1
  Sn  Sn10  1  0.261795  0.262212  0.020469  1
  Sn  Sn11  1  0.737788  0.999583  0.479531  1
  Pd  Pd12  1  0.333333  0.666667  0.044296  1
  Pd  Pd13  1  0.333333  0.666667  0.455704  1
  Pd  Pd14  1  0.666667  0.333333  0.043165  1
  Pd  Pd15  1  0.666667  0.333333  0.456835  1
  Pd  Pd16  1  0.000000  0.000000  0.250000  1
  Pd  Pd17  1  0.000000  0.000000  0.750000  1
