# generated using pymatgen
data_Lu6Si6Tc3Os
_symmetry_space_group_name_H-M   'P 1'
_cell_length_a   5.63970129
_cell_length_b   5.63970011
_cell_length_c   13.68050437
_cell_angle_alpha   89.92426620
_cell_angle_beta   90.07573403
_cell_angle_gamma   136.75477082
_symmetry_Int_Tables_number   1
_chemical_formula_structural   Lu6Si6Tc3Os
_chemical_formula_sum   'Lu6 Si6 Tc3 Os1'
_cell_volume   298.11368413
_cell_formula_units_Z   1
loop_
 _symmetry_equiv_pos_site_id
 _symmetry_equiv_pos_as_xyz
  1  'x, y, z'
loop_
 _atom_site_type_symbol
 _atom_site_label
 _atom_site_symmetry_multiplicity
 _atom_site_fract_x
 _atom_site_fract_y
 _atom_site_fract_z
 _atom_site_occupancy
  Lu  Lu0  1  0.638336  0.361664  0.249236  1
  Lu  Lu1  1  0.361154  0.638846  0.751429  1
  Lu  Lu2  1  0.923226  0.076774  0.113795  1
  Lu  Lu3  1  0.074853  0.925147  0.885029  1
  Lu  Lu4  1  0.077375  0.922625  0.614739  1
  Lu  Lu5  1  0.924554  0.075446  0.385781  1
  Si  Si6  1  0.326858  0.673142  0.249244  1
  Si  Si7  1  0.673040  0.326960  0.752030  1
  Si  Si8  1  0.613534  0.386466  0.037644  1
  Si  Si9  1  0.385667  0.614333  0.959802  1
  Si  Si10  1  0.386462  0.613538  0.540112  1
  Si  Si11  1  0.614458  0.385542  0.460897  1
  Tc  Tc12  1  0.785007  0.214993  0.585058  1
  Tc  Tc13  1  0.215656  0.784344  0.416914  1
  Tc  Tc14  1  0.213784  0.786216  0.081497  1
  Os  Os15  1  0.786035  0.213965  0.916793  1
