# generated using pymatgen
data_SmCo3P3Rh2
_symmetry_space_group_name_H-M   'P 1'
_cell_length_a   3.75913500
_cell_length_b   10.55298700
_cell_length_c   12.13470400
_cell_angle_alpha   90.00000000
_cell_angle_beta   90.00000000
_cell_angle_gamma   90.00000000
_symmetry_Int_Tables_number   1
_chemical_formula_structural   SmCo3P3Rh2
_chemical_formula_sum   'Sm4 Co12 P12 Rh8'
_cell_volume   481.38495496
_cell_formula_units_Z   4
loop_
 _symmetry_equiv_pos_site_id
 _symmetry_equiv_pos_as_xyz
  1  'x, y, z'
loop_
 _atom_site_type_symbol
 _atom_site_label
 _atom_site_symmetry_multiplicity
 _atom_site_fract_x
 _atom_site_fract_y
 _atom_site_fract_z
 _atom_site_occupancy
  Sm  Sm0  1  0.250000  0.584772  0.708701  1
  Sm  Sm1  1  0.250000  0.915228  0.208701  1
  Sm  Sm2  1  0.750000  0.415228  0.291299  1
  Sm  Sm3  1  0.750000  0.084772  0.791299  1
  Co  Co4  1  0.250000  0.221658  0.178753  1
  Co  Co5  1  0.250000  0.278342  0.678753  1
  Co  Co6  1  0.750000  0.778342  0.821247  1
  Co  Co7  1  0.750000  0.721658  0.321247  1
  Co  Co8  1  0.250000  0.883407  0.697279  1
  Co  Co9  1  0.250000  0.616593  0.197279  1
  Co  Co10  1  0.750000  0.116593  0.302721  1
  Co  Co11  1  0.750000  0.383407  0.802721  1
  Co  Co12  1  0.250000  0.464130  0.931809  1
  Co  Co13  1  0.250000  0.035870  0.431809  1
  Co  Co14  1  0.750000  0.535870  0.068191  1
  Co  Co15  1  0.750000  0.964130  0.568191  1
  P  P16  1  0.250000  0.422040  0.109827  1
  P  P17  1  0.250000  0.077960  0.609827  1
  P  P18  1  0.750000  0.577960  0.890173  1
  P  P19  1  0.750000  0.922040  0.390173  1
  P  P20  1  0.250000  0.277280  0.863000  1
  P  P21  1  0.250000  0.222720  0.363000  1
  P  P22  1  0.750000  0.722720  0.137000  1
  P  P23  1  0.750000  0.777280  0.637000  1
  P  P24  1  0.250000  0.606578  0.380530  1
  P  P25  1  0.250000  0.893422  0.880530  1
  P  P26  1  0.750000  0.393422  0.619470  1
  P  P27  1  0.750000  0.106578  0.119470  1
  Rh  Rh28  1  0.250000  0.711334  0.988120  1
  Rh  Rh29  1  0.250000  0.788666  0.488120  1
  Rh  Rh30  1  0.750000  0.288666  0.011880  1
  Rh  Rh31  1  0.750000  0.211334  0.511880  1
  Rh  Rh32  1  0.250000  0.406126  0.483566  1
  Rh  Rh33  1  0.250000  0.093874  0.983566  1
  Rh  Rh34  1  0.750000  0.593874  0.516434  1
  Rh  Rh35  1  0.750000  0.906126  0.016434  1
