# generated using pymatgen
data_Zr10BeGaBi6
_symmetry_space_group_name_H-M   'P 1'
_cell_length_a   8.82609600
_cell_length_b   8.82609743
_cell_length_c   5.93468100
_cell_angle_alpha   90.00000000
_cell_angle_beta   90.00000000
_cell_angle_gamma   119.99999465
_symmetry_Int_Tables_number   1
_chemical_formula_structural   Zr10BeGaBi6
_chemical_formula_sum   'Zr10 Be1 Ga1 Bi6'
_cell_volume   400.37356849
_cell_formula_units_Z   1
loop_
 _symmetry_equiv_pos_site_id
 _symmetry_equiv_pos_as_xyz
  1  'x, y, z'
loop_
 _atom_site_type_symbol
 _atom_site_label
 _atom_site_symmetry_multiplicity
 _atom_site_fract_x
 _atom_site_fract_y
 _atom_site_fract_z
 _atom_site_occupancy
  Zr  Zr0  1  0.666667  0.333333  0.000000  1
  Zr  Zr1  1  0.333333  0.666667  0.000000  1
  Zr  Zr2  1  0.333333  0.666667  0.500000  1
  Zr  Zr3  1  0.666667  0.333333  0.500000  1
  Zr  Zr4  1  0.743362  0.743362  0.762708  1
  Zr  Zr5  1  0.256638  0.000000  0.762708  1
  Zr  Zr6  1  0.000000  0.256638  0.762708  1
  Zr  Zr7  1  0.256638  0.256638  0.237292  1
  Zr  Zr8  1  0.743362  0.000000  0.237292  1
  Zr  Zr9  1  0.000000  0.743362  0.237292  1
  Be  Be10  1  0.000000  0.000000  0.000000  1
  Ga  Ga11  1  0.000000  0.000000  0.500000  1
  Bi  Bi12  1  0.389812  0.389812  0.746697  1
  Bi  Bi13  1  0.610188  0.000000  0.746697  1
  Bi  Bi14  1  0.000000  0.610188  0.746697  1
  Bi  Bi15  1  0.610188  0.610188  0.253303  1
  Bi  Bi16  1  0.389812  0.000000  0.253303  1
  Bi  Bi17  1  0.000000  0.389812  0.253303  1
