# generated using pymatgen
data_YEr5Zn23S
_symmetry_space_group_name_H-M   'P 1'
_cell_length_a   9.01121502
_cell_length_b   9.01112413
_cell_length_c   9.01113400
_cell_angle_alpha   60.00083744
_cell_angle_beta   60.00001109
_cell_angle_gamma   59.99988495
_symmetry_Int_Tables_number   1
_chemical_formula_structural   YEr5Zn23S
_chemical_formula_sum   'Y1 Er5 Zn23 S1'
_cell_volume   517.40328552
_cell_formula_units_Z   1
loop_
 _symmetry_equiv_pos_site_id
 _symmetry_equiv_pos_as_xyz
  1  'x, y, z'
loop_
 _atom_site_type_symbol
 _atom_site_label
 _atom_site_symmetry_multiplicity
 _atom_site_fract_x
 _atom_site_fract_y
 _atom_site_fract_z
 _atom_site_occupancy
  Y  Y0  1  0.712188  0.287812  0.287812  1
  Er  Er1  1  0.711548  0.288448  0.711746  1
  Er  Er2  1  0.711552  0.711744  0.288447  1
  Er  Er3  1  0.287989  0.712013  0.712009  1
  Er  Er4  1  0.288258  0.711743  0.288449  1
  Er  Er5  1  0.288255  0.288446  0.711745  1
  Zn  Zn6  1  0.625479  0.124210  0.124188  1
  Zn  Zn7  1  0.124594  0.626256  0.124564  1
  Zn  Zn8  1  0.124581  0.124574  0.626240  1
  Zn  Zn9  1  0.126119  0.124197  0.124200  1
  Zn  Zn10  1  0.373747  0.875406  0.875432  1
  Zn  Zn11  1  0.875790  0.374520  0.873894  1
  Zn  Zn12  1  0.875802  0.873885  0.374535  1
  Zn  Zn13  1  0.875422  0.875422  0.875416  1
  Zn  Zn14  1  0.499869  0.000130  0.000130  1
  Zn  Zn15  1  0.499631  0.999586  0.500370  1
  Zn  Zn16  1  0.499630  0.500371  0.999587  1
  Zn  Zn17  1  0.999870  0.500130  0.500130  1
  Zn  Zn18  1  0.000413  0.500371  0.999586  1
  Zn  Zn19  1  0.000413  0.999587  0.500371  1
  Zn  Zn20  1  0.999885  0.000115  0.000116  1
  Zn  Zn21  1  0.012485  0.329395  0.329369  1
  Zn  Zn22  1  0.329390  0.011654  0.329598  1
  Zn  Zn23  1  0.329360  0.329596  0.011655  1
  Zn  Zn24  1  0.328753  0.329367  0.329397  1
  Zn  Zn25  1  0.988349  0.670609  0.670631  1
  Zn  Zn26  1  0.670608  0.987512  0.671241  1
  Zn  Zn27  1  0.670639  0.671243  0.987511  1
  Zn  Zn28  1  0.670408  0.670634  0.670606  1
  S  S29  1  0.498975  0.501025  0.501025  1
