# generated using pymatgen
data_CaGa2Ni2Ir
_symmetry_space_group_name_H-M   'P 1'
_cell_length_a   9.29307505
_cell_length_b   9.15855000
_cell_length_c   3.89709900
_cell_angle_alpha   90.00000000
_cell_angle_beta   90.00000000
_cell_angle_gamma   118.71095684
_symmetry_Int_Tables_number   1
_chemical_formula_structural   CaGa2Ni2Ir
_chemical_formula_sum   'Ca3 Ga6 Ni6 Ir3'
_cell_volume   290.90694699
_cell_formula_units_Z   3
loop_
 _symmetry_equiv_pos_site_id
 _symmetry_equiv_pos_as_xyz
  1  'x, y, z'
loop_
 _atom_site_type_symbol
 _atom_site_label
 _atom_site_symmetry_multiplicity
 _atom_site_fract_x
 _atom_site_fract_y
 _atom_site_fract_z
 _atom_site_occupancy
  Ca  Ca0  1  0.000091  0.000202  0.000000  1
  Ca  Ca1  1  0.659075  0.328257  0.500000  1
  Ca  Ca2  1  0.342713  0.671571  0.500000  1
  Ga  Ga3  1  0.686275  0.678570  0.500000  1
  Ga  Ga4  1  0.307901  0.993553  0.500000  1
  Ga  Ga5  1  0.010032  0.336371  0.500000  1
  Ga  Ga6  1  0.315774  0.318565  0.500000  1
  Ga  Ga7  1  0.681205  0.994767  0.500000  1
  Ga  Ga8  1  0.000490  0.676267  0.500000  1
  Ni  Ni9  1  0.003601  0.506514  0.000000  1
  Ni  Ni10  1  0.828415  0.646910  0.000000  1
  Ni  Ni11  1  0.346707  0.173125  0.000000  1
  Ni  Ni12  1  0.170955  0.816977  0.000000  1
  Ni  Ni13  1  0.647799  0.819428  0.000000  1
  Ni  Ni14  1  0.178851  0.358717  0.000000  1
  Ir  Ir15  1  0.501143  0.498466  0.000000  1
  Ir  Ir16  1  0.493675  0.995988  0.000000  1
  Ir  Ir17  1  0.825298  0.185754  0.000000  1
