# generated using pymatgen
data_Er5Tm5Si5P
_symmetry_space_group_name_H-M   'P 1'
_cell_length_a   8.29466408
_cell_length_b   8.30476368
_cell_length_c   6.21316800
_cell_angle_alpha   90.00000000
_cell_angle_beta   90.00000000
_cell_angle_gamma   119.97518843
_symmetry_Int_Tables_number   1
_chemical_formula_structural   Er5Tm5Si5P
_chemical_formula_sum   'Er5 Tm5 Si5 P1'
_cell_volume   370.74758980
_cell_formula_units_Z   1
loop_
 _symmetry_equiv_pos_site_id
 _symmetry_equiv_pos_as_xyz
  1  'x, y, z'
loop_
 _atom_site_type_symbol
 _atom_site_label
 _atom_site_symmetry_multiplicity
 _atom_site_fract_x
 _atom_site_fract_y
 _atom_site_fract_z
 _atom_site_occupancy
  Er  Er0  1  0.001156  0.757386  0.750000  1
  Er  Er1  1  0.756991  0.756356  0.250000  1
  Er  Er2  1  0.755913  0.000019  0.750000  1
  Er  Er3  1  0.243696  0.242557  0.750000  1
  Er  Er4  1  0.243016  0.000032  0.250000  1
  Tm  Tm5  1  0.000681  0.243739  0.250000  1
  Tm  Tm6  1  0.333602  0.667275  0.500437  1
  Tm  Tm7  1  0.666354  0.332684  0.999558  1
  Tm  Tm8  1  0.666354  0.332684  0.500442  1
  Tm  Tm9  1  0.333602  0.667275  0.999563  1
  Si  Si10  1  0.394505  0.394076  0.250000  1
  Si  Si11  1  0.000524  0.605783  0.250000  1
  Si  Si12  1  0.000042  0.394205  0.750000  1
  Si  Si13  1  0.605856  0.605824  0.750000  1
  Si  Si14  1  0.606488  0.000099  0.250000  1
  P  P15  1  0.391223  0.000005  0.750000  1
