# generated using pymatgen
data_Lu6Sc4Sn5Sb
_symmetry_space_group_name_H-M   'P 1'
_cell_length_a   8.66889790
_cell_length_b   8.66889789
_cell_length_c   6.16543700
_cell_angle_alpha   90.00000000
_cell_angle_beta   90.00000000
_cell_angle_gamma   119.92415307
_symmetry_Int_Tables_number   1
_chemical_formula_structural   Lu6Sc4Sn5Sb
_chemical_formula_sum   'Lu6 Sc4 Sn5 Sb1'
_cell_volume   401.56299859
_cell_formula_units_Z   1
loop_
 _symmetry_equiv_pos_site_id
 _symmetry_equiv_pos_as_xyz
  1  'x, y, z'
loop_
 _atom_site_type_symbol
 _atom_site_label
 _atom_site_symmetry_multiplicity
 _atom_site_fract_x
 _atom_site_fract_y
 _atom_site_fract_z
 _atom_site_occupancy
  Lu  Lu0  1  0.762064  0.762064  0.750000  1
  Lu  Lu1  1  0.236050  0.996887  0.750000  1
  Lu  Lu2  1  0.996887  0.236050  0.750000  1
  Lu  Lu3  1  0.238949  0.238949  0.250000  1
  Lu  Lu4  1  0.763547  0.001490  0.250000  1
  Lu  Lu5  1  0.001490  0.763547  0.250000  1
  Sc  Sc6  1  0.667477  0.333143  0.000476  1
  Sc  Sc7  1  0.333143  0.667477  0.000476  1
  Sc  Sc8  1  0.333143  0.667477  0.499524  1
  Sc  Sc9  1  0.667477  0.333143  0.499524  1
  Sn  Sn10  1  0.600544  0.999756  0.750000  1
  Sn  Sn11  1  0.999756  0.600544  0.750000  1
  Sn  Sn12  1  0.603955  0.603955  0.250000  1
  Sn  Sn13  1  0.399234  0.001009  0.250000  1
  Sn  Sn14  1  0.001009  0.399234  0.250000  1
  Sb  Sb15  1  0.395276  0.395276  0.750000  1
