# generated using pymatgen
data_NdDyY4PtI10
_symmetry_space_group_name_H-M   'P 1'
_cell_length_a   7.77386075
_cell_length_b   9.81045124
_cell_length_c   9.90904135
_cell_angle_alpha   107.20168563
_cell_angle_beta   96.70213682
_cell_angle_gamma   104.83610619
_symmetry_Int_Tables_number   1
_chemical_formula_structural   NdDyY4PtI10
_chemical_formula_sum   'Nd1 Dy1 Y4 Pt1 I10'
_cell_volume   682.52297325
_cell_formula_units_Z   1
loop_
 _symmetry_equiv_pos_site_id
 _symmetry_equiv_pos_as_xyz
  1  'x, y, z'
loop_
 _atom_site_type_symbol
 _atom_site_label
 _atom_site_symmetry_multiplicity
 _atom_site_fract_x
 _atom_site_fract_y
 _atom_site_fract_z
 _atom_site_occupancy
  Nd  Nd0  1  0.117408  0.041912  0.753441  1
  Dy  Dy1  1  0.884283  0.958563  0.238329  1
  Y  Y2  1  0.349192  0.125139  0.163954  1
  Y  Y3  1  0.650721  0.874179  0.834716  1
  Y  Y4  1  0.971031  0.287222  0.088599  1
  Y  Y5  1  0.029029  0.713554  0.915174  1
  Pt  Pt6  1  0.999292  0.000204  0.000361  1
  I  I7  1  0.353288  0.450585  0.270965  1
  I  I8  1  0.648274  0.549391  0.729175  1
  I  I9  1  0.915038  0.629422  0.179742  1
  I  I10  1  0.082577  0.378415  0.827494  1
  I  I11  1  0.454203  0.818880  0.091731  1
  I  I12  1  0.551908  0.183731  0.912761  1
  I  I13  1  0.257910  0.086017  0.454577  1
  I  I14  1  0.733816  0.910753  0.535945  1
  I  I15  1  0.777400  0.255551  0.345043  1
  I  I16  1  0.224629  0.736481  0.657993  1
