# generated using pymatgen
data_Tb2Dy14MgHg3Rh4
_symmetry_space_group_name_H-M   'P 1'
_cell_length_a   9.62194600
_cell_length_b   9.62522608
_cell_length_c   9.60832816
_cell_angle_alpha   59.94874304
_cell_angle_beta   59.96701783
_cell_angle_gamma   60.01762429
_symmetry_Int_Tables_number   1
_chemical_formula_structural   Tb2Dy14MgHg3Rh4
_chemical_formula_sum   'Tb2 Dy14 Mg1 Hg3 Rh4'
_cell_volume   628.90872473
_cell_formula_units_Z   1
loop_
 _symmetry_equiv_pos_site_id
 _symmetry_equiv_pos_as_xyz
  1  'x, y, z'
loop_
 _atom_site_type_symbol
 _atom_site_label
 _atom_site_symmetry_multiplicity
 _atom_site_fract_x
 _atom_site_fract_y
 _atom_site_fract_z
 _atom_site_occupancy
  Tb  Tb0  1  0.063893  0.436518  0.436678  1
  Tb  Tb1  1  0.649013  0.046837  0.651495  1
  Dy  Dy2  1  0.814078  0.811252  0.187827  1
  Dy  Dy3  1  0.437498  0.063996  0.062987  1
  Dy  Dy4  1  0.437853  0.435729  0.062553  1
  Dy  Dy5  1  0.190992  0.189278  0.810457  1
  Dy  Dy6  1  0.814323  0.186789  0.187721  1
  Dy  Dy7  1  0.064528  0.436803  0.061687  1
  Dy  Dy8  1  0.437627  0.063322  0.435424  1
  Dy  Dy9  1  0.058924  0.647392  0.646449  1
  Dy  Dy10  1  0.191119  0.809235  0.810201  1
  Dy  Dy11  1  0.648044  0.652001  0.048087  1
  Dy  Dy12  1  0.190708  0.809826  0.189829  1
  Dy  Dy13  1  0.064288  0.062374  0.436650  1
  Dy  Dy14  1  0.813592  0.187367  0.811778  1
  Dy  Dy15  1  0.648961  0.652838  0.651686  1
  Mg  Mg16  1  0.716146  0.428010  0.428037  1
  Hg  Hg17  1  0.417622  0.412750  0.757230  1
  Hg  Hg18  1  0.418152  0.412976  0.412806  1
  Hg  Hg19  1  0.417879  0.756379  0.412968  1
  Rh  Rh20  1  0.859160  0.428466  0.855858  1
  Rh  Rh21  1  0.427058  0.857511  0.857267  1
  Rh  Rh22  1  0.858875  0.856228  0.428214  1
  Rh  Rh23  1  0.859667  0.856127  0.856114  1
