# generated using pymatgen
data_Tm4Co9Si5
_symmetry_space_group_name_H-M   'P 1'
_cell_length_a   11.27209217
_cell_length_b   11.27209190
_cell_length_c   11.27209348
_cell_angle_alpha   26.39282599
_cell_angle_beta   26.39282924
_cell_angle_gamma   26.39282595
_symmetry_Int_Tables_number   1
_chemical_formula_structural   Tm4Co9Si5
_chemical_formula_sum   'Tm4 Co9 Si5'
_cell_volume   249.42423973
_cell_formula_units_Z   1
loop_
 _symmetry_equiv_pos_site_id
 _symmetry_equiv_pos_as_xyz
  1  'x, y, z'
loop_
 _atom_site_type_symbol
 _atom_site_label
 _atom_site_symmetry_multiplicity
 _atom_site_fract_x
 _atom_site_fract_y
 _atom_site_fract_z
 _atom_site_occupancy
  Tm  Tm0  1  0.949642  0.949642  0.949642  1
  Tm  Tm1  1  0.851908  0.851908  0.851908  1
  Tm  Tm2  1  0.148092  0.148092  0.148092  1
  Tm  Tm3  1  0.050358  0.050358  0.050358  1
  Co  Co4  1  0.609188  0.609188  0.107381  1
  Co  Co5  1  0.892619  0.390812  0.390812  1
  Co  Co6  1  0.500000  0.000000  0.500000  1
  Co  Co7  1  0.390812  0.892619  0.390812  1
  Co  Co8  1  0.500000  0.500000  0.000000  1
  Co  Co9  1  0.107381  0.609188  0.609188  1
  Co  Co10  1  0.000000  0.500000  0.500000  1
  Co  Co11  1  0.390812  0.390812  0.892619  1
  Co  Co12  1  0.609188  0.107381  0.609188  1
  Si  Si13  1  0.278715  0.278715  0.278715  1
  Si  Si14  1  0.500000  0.500000  0.500000  1
  Si  Si15  1  0.387902  0.387902  0.387902  1
  Si  Si16  1  0.721285  0.721285  0.721285  1
  Si  Si17  1  0.612098  0.612098  0.612098  1
