# generated using pymatgen
data_AcAl5Ir3
_symmetry_space_group_name_H-M   'P 1'
_cell_length_a   4.16133400
_cell_length_b   7.56358200
_cell_length_c   20.22091600
_cell_angle_alpha   90.00000000
_cell_angle_beta   90.00000000
_cell_angle_gamma   90.00000000
_symmetry_Int_Tables_number   1
_chemical_formula_structural   AcAl5Ir3
_chemical_formula_sum   'Ac4 Al20 Ir12'
_cell_volume   636.44505950
_cell_formula_units_Z   4
loop_
 _symmetry_equiv_pos_site_id
 _symmetry_equiv_pos_as_xyz
  1  'x, y, z'
loop_
 _atom_site_type_symbol
 _atom_site_label
 _atom_site_symmetry_multiplicity
 _atom_site_fract_x
 _atom_site_fract_y
 _atom_site_fract_z
 _atom_site_occupancy
  Ac  Ac0  1  0.250000  0.094447  0.641455  1
  Ac  Ac1  1  0.750000  0.905553  0.358545  1
  Ac  Ac2  1  0.250000  0.405553  0.141455  1
  Ac  Ac3  1  0.750000  0.594447  0.858545  1
  Al  Al4  1  0.750000  0.344452  0.391872  1
  Al  Al5  1  0.750000  0.890086  0.979885  1
  Al  Al6  1  0.750000  0.751246  0.195029  1
  Al  Al7  1  0.250000  0.861721  0.487242  1
  Al  Al8  1  0.250000  0.638279  0.987242  1
  Al  Al9  1  0.250000  0.248754  0.804971  1
  Al  Al10  1  0.750000  0.142831  0.217671  1
  Al  Al11  1  0.250000  0.655548  0.608128  1
  Al  Al12  1  0.250000  0.642831  0.282329  1
  Al  Al13  1  0.250000  0.251246  0.304971  1
  Al  Al14  1  0.750000  0.155548  0.891872  1
  Al  Al15  1  0.250000  0.857169  0.782329  1
  Al  Al16  1  0.750000  0.361721  0.012758  1
  Al  Al17  1  0.750000  0.609914  0.479885  1
  Al  Al18  1  0.750000  0.138279  0.512758  1
  Al  Al19  1  0.250000  0.109914  0.020115  1
  Al  Al20  1  0.250000  0.844452  0.108128  1
  Al  Al21  1  0.250000  0.390086  0.520115  1
  Al  Al22  1  0.750000  0.357169  0.717671  1
  Al  Al23  1  0.750000  0.748754  0.695029  1
  Ir  Ir24  1  0.750000  0.448629  0.274809  1
  Ir  Ir25  1  0.250000  0.948629  0.225191  1
  Ir  Ir26  1  0.250000  0.551371  0.725191  1
  Ir  Ir27  1  0.750000  0.051371  0.774809  1
  Ir  Ir28  1  0.250000  0.167298  0.432083  1
  Ir  Ir29  1  0.750000  0.439279  0.593352  1
  Ir  Ir30  1  0.750000  0.060721  0.093352  1
  Ir  Ir31  1  0.250000  0.939279  0.906648  1
  Ir  Ir32  1  0.750000  0.832702  0.567917  1
  Ir  Ir33  1  0.250000  0.332702  0.932083  1
  Ir  Ir34  1  0.750000  0.667298  0.067917  1
  Ir  Ir35  1  0.250000  0.560721  0.406648  1
