# generated using pymatgen
data_Ta3Ti3Al4(AuC)2
_symmetry_space_group_name_H-M   'P 1'
_cell_length_a   8.36619327
_cell_length_b   8.36615406
_cell_length_c   8.36608101
_cell_angle_alpha   60.00106007
_cell_angle_beta   59.99991955
_cell_angle_gamma   60.00871171
_symmetry_Int_Tables_number   1
_chemical_formula_structural   Ta3Ti3Al4(AuC)2
_chemical_formula_sum   'Ta6 Ti6 Al8 Au4 C4'
_cell_volume   414.08797551
_cell_formula_units_Z   2
loop_
 _symmetry_equiv_pos_site_id
 _symmetry_equiv_pos_as_xyz
  1  'x, y, z'
loop_
 _atom_site_type_symbol
 _atom_site_label
 _atom_site_symmetry_multiplicity
 _atom_site_fract_x
 _atom_site_fract_y
 _atom_site_fract_z
 _atom_site_occupancy
  Ta  Ta0  1  0.928980  0.928977  0.571025  1
  Ta  Ta1  1  0.680525  0.320056  0.320876  1
  Ta  Ta2  1  0.320039  0.680548  0.678539  1
  Ta  Ta3  1  0.677823  0.677845  0.322150  1
  Ta  Ta4  1  0.680518  0.320051  0.678533  1
  Ta  Ta5  1  0.320053  0.680540  0.320873  1
  Ti  Ti6  1  0.571966  0.928564  0.570354  1
  Ti  Ti7  1  0.571949  0.928597  0.929128  1
  Ti  Ti8  1  0.928593  0.571949  0.570313  1
  Ti  Ti9  1  0.928596  0.571963  0.929131  1
  Ti  Ti10  1  0.321209  0.321178  0.678806  1
  Ti  Ti11  1  0.570703  0.570724  0.929278  1
  Al  Al12  1  0.912217  0.262821  0.912492  1
  Al  Al13  1  0.335536  0.335528  0.991516  1
  Al  Al14  1  0.994772  0.334995  0.335107  1
  Al  Al15  1  0.335543  0.335519  0.337413  1
  Al  Al16  1  0.262860  0.912224  0.912457  1
  Al  Al17  1  0.912346  0.912373  0.914508  1
  Al  Al18  1  0.912337  0.912383  0.260776  1
  Al  Al19  1  0.335002  0.994784  0.335109  1
  Au  Au20  1  0.125372  0.625112  0.124758  1
  Au  Au21  1  0.125706  0.125699  0.626592  1
  Au  Au22  1  0.625097  0.125373  0.124768  1
  Au  Au23  1  0.125708  0.125704  0.122000  1
  C  C24  1  0.619052  0.123978  0.628485  1
  C  C25  1  0.626748  0.626751  0.118310  1
  C  C26  1  0.124014  0.619017  0.628494  1
  C  C27  1  0.626737  0.626746  0.628207  1
