# generated using pymatgen
data_Er7TmSc12Si15Sn
_symmetry_space_group_name_H-M   'P 1'
_cell_length_a   7.09942534
_cell_length_b   7.39087012
_cell_length_c   14.00833118
_cell_angle_alpha   90.00462872
_cell_angle_beta   89.56089339
_cell_angle_gamma   89.99638158
_symmetry_Int_Tables_number   1
_chemical_formula_structural   Er7TmSc12Si15Sn
_chemical_formula_sum   'Er7 Tm1 Sc12 Si15 Sn1'
_cell_volume   735.00858283
_cell_formula_units_Z   1
loop_
 _symmetry_equiv_pos_site_id
 _symmetry_equiv_pos_as_xyz
  1  'x, y, z'
loop_
 _atom_site_type_symbol
 _atom_site_label
 _atom_site_symmetry_multiplicity
 _atom_site_fract_x
 _atom_site_fract_y
 _atom_site_fract_z
 _atom_site_occupancy
  Er  Er0  1  0.012054  0.176734  0.096348  1
  Er  Er1  1  0.987883  0.823814  0.904563  1
  Er  Er2  1  0.488617  0.677005  0.904530  1
  Er  Er3  1  0.988573  0.829919  0.598011  1
  Er  Er4  1  0.511320  0.323026  0.096598  1
  Er  Er5  1  0.005795  0.170065  0.399420  1
  Er  Er6  1  0.513402  0.319408  0.399914  1
  Tm  Tm7  1  0.501225  0.685519  0.599598  1
  Sc  Sc8  1  0.162040  0.502996  0.755051  1
  Sc  Sc9  1  0.837353  0.496782  0.249347  1
  Sc  Sc10  1  0.337611  0.003504  0.249451  1
  Sc  Sc11  1  0.663763  0.996447  0.751556  1
  Sc  Sc12  1  0.342567  0.162202  0.630794  1
  Sc  Sc13  1  0.664487  0.825223  0.372687  1
  Sc  Sc14  1  0.163477  0.683970  0.369187  1
  Sc  Sc15  1  0.668094  0.822964  0.124235  1
  Sc  Sc16  1  0.823272  0.323229  0.626569  1
  Sc  Sc17  1  0.330614  0.175986  0.875546  1
  Sc  Sc18  1  0.830826  0.323118  0.875540  1
  Sc  Sc19  1  0.169072  0.677002  0.125124  1
  Si  Si20  1  0.034379  0.116412  0.751237  1
  Si  Si21  1  0.963990  0.887285  0.246854  1
  Si  Si22  1  0.466364  0.613395  0.248663  1
  Si  Si23  1  0.532084  0.387694  0.751994  1
  Si  Si24  1  0.286003  0.868121  0.752270  1
  Si  Si25  1  0.712989  0.128768  0.247559  1
  Si  Si26  1  0.212628  0.370752  0.249253  1
  Si  Si27  1  0.788648  0.629896  0.751336  1
  Si  Si28  1  0.829034  0.538438  0.458805  1
  Si  Si29  1  0.336959  0.964575  0.460215  1
  Si  Si30  1  0.841313  0.534177  0.039390  1
  Si  Si31  1  0.663298  0.036542  0.537976  1
  Si  Si32  1  0.157875  0.465172  0.961715  1
  Si  Si33  1  0.658215  0.034712  0.960737  1
  Si  Si34  1  0.340748  0.965816  0.039875  1
  Sn  Sn35  1  0.173427  0.459330  0.538054  1
