# generated using pymatgen
data_NdEr5Al24Os7Rh
_symmetry_space_group_name_H-M   'P 1'
_cell_length_a   8.82065689
_cell_length_b   8.80481906
_cell_length_c   9.56844010
_cell_angle_alpha   89.71008876
_cell_angle_beta   90.27620132
_cell_angle_gamma   119.78472963
_symmetry_Int_Tables_number   1
_chemical_formula_structural   NdEr5Al24Os7Rh
_chemical_formula_sum   'Nd1 Er5 Al24 Os7 Rh1'
_cell_volume   644.94701617
_cell_formula_units_Z   1
loop_
 _symmetry_equiv_pos_site_id
 _symmetry_equiv_pos_as_xyz
  1  'x, y, z'
loop_
 _atom_site_type_symbol
 _atom_site_label
 _atom_site_symmetry_multiplicity
 _atom_site_fract_x
 _atom_site_fract_y
 _atom_site_fract_z
 _atom_site_occupancy
  Nd  Nd0  1  0.187168  0.381554  0.251359  1
  Er  Er1  1  0.811078  0.613182  0.747636  1
  Er  Er2  1  0.612440  0.810890  0.252361  1
  Er  Er3  1  0.387408  0.189688  0.747743  1
  Er  Er4  1  0.195476  0.805867  0.250447  1
  Er  Er5  1  0.805519  0.195333  0.749529  1
  Al  Al6  1  0.333177  0.668096  0.018883  1
  Al  Al7  1  0.666906  0.333386  0.977247  1
  Al  Al8  1  0.666863  0.333435  0.520428  1
  Al  Al9  1  0.333695  0.667497  0.482867  1
  Al  Al10  1  0.165134  0.327224  0.578696  1
  Al  Al11  1  0.835338  0.673239  0.425161  1
  Al  Al12  1  0.673363  0.835220  0.576879  1
  Al  Al13  1  0.837432  0.674075  0.074823  1
  Al  Al14  1  0.328467  0.164222  0.425453  1
  Al  Al15  1  0.162261  0.326242  0.921325  1
  Al  Al16  1  0.164030  0.835942  0.574268  1
  Al  Al17  1  0.327310  0.161977  0.074587  1
  Al  Al18  1  0.834017  0.163525  0.427368  1
  Al  Al19  1  0.674141  0.837472  0.923304  1
  Al  Al20  1  0.834227  0.163096  0.072880  1
  Al  Al21  1  0.163477  0.836592  0.925313  1
  Al  Al22  1  0.560979  0.123423  0.249459  1
  Al  Al23  1  0.439628  0.876964  0.750635  1
  Al  Al24  1  0.874659  0.439839  0.249408  1
  Al  Al25  1  0.123557  0.561430  0.750538  1
  Al  Al26  1  0.562961  0.440467  0.250211  1
  Al  Al27  1  0.440743  0.560701  0.750426  1
  Al  Al28  1  0.996482  0.994282  0.250157  1
  Al  Al29  1  0.000293  0.999909  0.750002  1
  Os  Os30  1  0.500307  0.000521  0.999459  1
  Os  Os31  1  0.998677  0.501103  0.998319  1
  Os  Os32  1  0.500303  0.000307  0.500595  1
  Os  Os33  1  0.999090  0.500852  0.501581  1
  Os  Os34  1  0.501530  0.500723  0.501526  1
  Os  Os35  1  0.000014  0.000413  0.999725  1
  Os  Os36  1  0.000295  0.000422  0.500424  1
  Rh  Rh37  1  0.501555  0.500892  0.998978  1
