# generated using pymatgen
data_Ti3Mo(PO4)6
_symmetry_space_group_name_H-M   'P 1'
_cell_length_a   8.62240758
_cell_length_b   8.62234712
_cell_length_c   8.90408375
_cell_angle_alpha   89.91229365
_cell_angle_beta   61.11646093
_cell_angle_gamma   119.99578375
_symmetry_Int_Tables_number   1
_chemical_formula_structural   Ti3Mo(PO4)6
_chemical_formula_sum   'Ti3 Mo1 P6 O24'
_cell_volume   475.52079677
_cell_formula_units_Z   1
loop_
 _symmetry_equiv_pos_site_id
 _symmetry_equiv_pos_as_xyz
  1  'x, y, z'
loop_
 _atom_site_type_symbol
 _atom_site_label
 _atom_site_symmetry_multiplicity
 _atom_site_fract_x
 _atom_site_fract_y
 _atom_site_fract_z
 _atom_site_occupancy
  Ti  Ti0  1  0.782749  0.140626  0.077074  1
  Ti  Ti1  1  0.784610  0.641663  0.574163  1
  Ti  Ti2  1  0.217201  0.359333  0.423054  1
  Mo  Mo3  1  0.215995  0.858664  0.924935  1
  P  P4  1  0.281097  0.031237  0.255323  1
  P  P5  1  0.713276  0.749288  0.253584  1
  P  P6  1  0.280616  0.253989  0.749752  1
  P  P7  1  0.725254  0.971663  0.747684  1
  P  P8  1  0.999475  0.528600  0.747053  1
  P  P9  1  0.993958  0.461985  0.256116  1
  O  O10  1  0.492177  0.072155  0.219096  1
  O  O11  1  0.867595  0.365503  0.918167  1
  O  O12  1  0.906337  0.148572  0.582099  1
  O  O13  1  0.850459  0.557401  0.723011  1
  O  O14  1  0.132820  0.637208  0.082145  1
  O  O15  1  0.090948  0.852314  0.416524  1
  O  O16  1  0.156509  0.450654  0.273966  1
  O  O17  1  0.145107  0.715455  0.777233  1
  O  O18  1  0.156726  0.512913  0.578599  1
  O  O19  1  0.269654  0.201871  0.280252  1
  O  O20  1  0.278612  0.999474  0.081178  1
  O  O21  1  0.703455  0.918084  0.224656  1
  O  O22  1  0.518943  0.566968  0.276968  1
  O  O23  1  0.266977  0.262186  0.585775  1
  O  O24  1  0.848470  0.491387  0.419993  1
  O  O25  1  0.082236  0.214996  0.924768  1
  O  O26  1  0.920030  0.784400  0.075809  1
  O  O27  1  0.505764  0.927998  0.781835  1
  O  O28  1  0.733982  0.734252  0.412500  1
  O  O29  1  0.485078  0.429093  0.719803  1
  O  O30  1  0.295188  0.079732  0.776888  1
  O  O31  1  0.718264  0.997608  0.919262  1
  O  O32  1  0.725016  0.797120  0.716573  1
  O  O33  1  0.855422  0.285606  0.224161  1
