# generated using pymatgen
data_HoNp3Co4B15C
_symmetry_space_group_name_H-M   'P 1'
_cell_length_a   3.37215100
_cell_length_b   5.86916635
_cell_length_c   11.39539900
_cell_angle_alpha   89.96261801
_cell_angle_beta   90.00000000
_cell_angle_gamma   90.00000000
_symmetry_Int_Tables_number   1
_chemical_formula_structural   HoNp3Co4B15C
_chemical_formula_sum   'Ho1 Np3 Co4 B15 C1'
_cell_volume   225.53444322
_cell_formula_units_Z   1
loop_
 _symmetry_equiv_pos_site_id
 _symmetry_equiv_pos_as_xyz
  1  'x, y, z'
loop_
 _atom_site_type_symbol
 _atom_site_label
 _atom_site_symmetry_multiplicity
 _atom_site_fract_x
 _atom_site_fract_y
 _atom_site_fract_z
 _atom_site_occupancy
  Ho  Ho0  1  0.500000  0.873104  0.349733  1
  Np  Np1  1  0.500000  0.371036  0.150077  1
  Np  Np2  1  0.500000  0.628270  0.851154  1
  Np  Np3  1  0.500000  0.127083  0.649680  1
  Co  Co4  1  0.500000  0.367638  0.409712  1
  Co  Co5  1  0.500000  0.634177  0.588434  1
  Co  Co6  1  0.500000  0.134554  0.910013  1
  Co  Co7  1  0.500000  0.862728  0.090385  1
  B  B8  1  0.000000  0.896777  0.959417  1
  B  B9  1  0.000000  0.386666  0.546224  1
  B  B10  1  0.000000  0.612965  0.453810  1
  B  B11  1  0.000000  0.138236  0.465135  1
  B  B12  1  0.000000  0.863365  0.533323  1
  B  B13  1  0.000000  0.353736  0.968965  1
  B  B14  1  0.000000  0.633866  0.034819  1
  B  B15  1  0.000000  0.026267  0.185061  1
  B  B16  1  0.000000  0.976720  0.809786  1
  B  B17  1  0.000000  0.476175  0.691364  1
  B  B18  1  0.000000  0.525163  0.308897  1
  B  B19  1  0.000000  0.217987  0.312195  1
  B  B20  1  0.000000  0.783207  0.686139  1
  B  B21  1  0.000000  0.281915  0.814304  1
  B  B22  1  0.000000  0.715093  0.184611  1
  C  C23  1  0.000000  0.113275  0.046761  1
