# generated using pymatgen
data_Y18HoEr(CoBi2)4
_symmetry_space_group_name_H-M   'P 1'
_cell_length_a   8.03464315
_cell_length_b   8.89330959
_cell_length_c   12.42535980
_cell_angle_alpha   90.00820925
_cell_angle_beta   89.97182749
_cell_angle_gamma   89.96082505
_symmetry_Int_Tables_number   1
_chemical_formula_structural   Y18HoEr(CoBi2)4
_chemical_formula_sum   'Y18 Ho1 Er1 Co4 Bi8'
_cell_volume   887.84840535
_cell_formula_units_Z   1
loop_
 _symmetry_equiv_pos_site_id
 _symmetry_equiv_pos_as_xyz
  1  'x, y, z'
loop_
 _atom_site_type_symbol
 _atom_site_label
 _atom_site_symmetry_multiplicity
 _atom_site_fract_x
 _atom_site_fract_y
 _atom_site_fract_z
 _atom_site_occupancy
  Y  Y0  1  0.652306  0.750870  0.698890  1
  Y  Y1  1  0.347473  0.249185  0.301175  1
  Y  Y2  1  0.152770  0.250416  0.800998  1
  Y  Y3  1  0.847278  0.749577  0.198952  1
  Y  Y4  1  0.120376  0.749170  0.810032  1
  Y  Y5  1  0.879631  0.250831  0.189963  1
  Y  Y6  1  0.620477  0.248648  0.689643  1
  Y  Y7  1  0.379121  0.751449  0.310401  1
  Y  Y8  1  0.545847  0.749919  0.997887  1
  Y  Y9  1  0.454182  0.250110  0.002107  1
  Y  Y10  1  0.046546  0.247806  0.502204  1
  Y  Y11  1  0.953968  0.752140  0.497800  1
  Y  Y12  1  0.823852  0.465713  0.936092  1
  Y  Y13  1  0.176121  0.534306  0.063896  1
  Y  Y14  1  0.323717  0.534079  0.563221  1
  Y  Y15  1  0.176076  0.965703  0.063683  1
  Y  Y16  1  0.676316  0.466127  0.436815  1
  Y  Y17  1  0.823912  0.034316  0.936332  1
  Ho  Ho18  1  0.674352  0.034285  0.436910  1
  Er  Er19  1  0.326479  0.965385  0.563075  1
  Co  Co20  1  0.939499  0.749845  0.991851  1
  Co  Co21  1  0.060500  0.250172  0.008118  1
  Co  Co22  1  0.440631  0.247723  0.507833  1
  Co  Co23  1  0.558525  0.752310  0.492352  1
  Bi  Bi24  1  0.931251  0.007671  0.674275  1
  Bi  Bi25  1  0.068971  0.992255  0.325593  1
  Bi  Bi26  1  0.429034  0.991874  0.826260  1
  Bi  Bi27  1  0.070536  0.508077  0.327178  1
  Bi  Bi28  1  0.570861  0.008082  0.173626  1
  Bi  Bi29  1  0.929426  0.491945  0.672797  1
  Bi  Bi30  1  0.569520  0.492224  0.174158  1
  Bi  Bi31  1  0.430445  0.507788  0.825886  1
