# generated using pymatgen
data_Tm7Lu(Si4Ru3)4
_symmetry_space_group_name_H-M   'P 1'
_cell_length_a   10.19118961
_cell_length_b   10.19153262
_cell_length_c   13.71566600
_cell_angle_alpha   53.07213663
_cell_angle_beta   53.07327539
_cell_angle_gamma   30.80271690
_symmetry_Int_Tables_number   1
_chemical_formula_structural   Tm7Lu(Si4Ru3)4
_chemical_formula_sum   'Tm7 Lu1 Si16 Ru12'
_cell_volume   570.52205025
_cell_formula_units_Z   1
loop_
 _symmetry_equiv_pos_site_id
 _symmetry_equiv_pos_as_xyz
  1  'x, y, z'
loop_
 _atom_site_type_symbol
 _atom_site_label
 _atom_site_symmetry_multiplicity
 _atom_site_fract_x
 _atom_site_fract_y
 _atom_site_fract_z
 _atom_site_occupancy
  Tm  Tm0  1  0.038292  0.289608  0.640111  1
  Tm  Tm1  1  0.710822  0.961556  0.859916  1
  Tm  Tm2  1  0.961455  0.710541  0.359793  1
  Tm  Tm3  1  0.289367  0.038390  0.140104  1
  Tm  Tm4  1  0.299942  0.557172  0.643774  1
  Tm  Tm5  1  0.442841  0.700293  0.856324  1
  Tm  Tm6  1  0.700218  0.442504  0.356089  1
  Lu  Lu7  1  0.557424  0.299349  0.143943  1
  Si  Si8  1  0.979768  0.248194  0.894438  1
  Si  Si9  1  0.752143  0.020177  0.605561  1
  Si  Si10  1  0.020667  0.751606  0.105629  1
  Si  Si11  1  0.247621  0.979910  0.394198  1
  Si  Si12  1  0.138364  0.384418  0.900232  1
  Si  Si13  1  0.615770  0.861906  0.599700  1
  Si  Si14  1  0.861395  0.615745  0.099981  1
  Si  Si15  1  0.383540  0.138897  0.399925  1
  Si  Si16  1  0.081583  0.574530  0.568880  1
  Si  Si17  1  0.425601  0.918758  0.930916  1
  Si  Si18  1  0.918015  0.425510  0.431193  1
  Si  Si19  1  0.574457  0.081698  0.069127  1
  Si  Si20  1  0.620654  0.379382  0.750131  1
  Si  Si21  1  0.379711  0.620143  0.249762  1
  Si  Si22  1  0.131673  0.868450  0.750096  1
  Si  Si23  1  0.868332  0.131520  0.249763  1
  Ru  Ru24  1  0.898795  0.138165  0.587770  1
  Ru  Ru25  1  0.861611  0.101101  0.912650  1
  Ru  Ru26  1  0.101291  0.861327  0.412253  1
  Ru  Ru27  1  0.139122  0.898111  0.087651  1
  Ru  Ru28  1  0.836386  0.641050  0.783321  1
  Ru  Ru29  1  0.359118  0.163987  0.716567  1
  Ru  Ru30  1  0.163831  0.358796  0.216664  1
  Ru  Ru31  1  0.640601  0.836107  0.283474  1
  Ru  Ru32  1  0.252702  0.501754  0.932605  1
  Ru  Ru33  1  0.498851  0.747159  0.567713  1
  Ru  Ru34  1  0.746956  0.498844  0.067549  1
  Ru  Ru35  1  0.501084  0.253341  0.432200  1
