# generated using pymatgen
data_YEr3(Si5Os3)2
_symmetry_space_group_name_H-M   'P 1'
_cell_length_a   8.24623982
_cell_length_b   8.25027910
_cell_length_c   8.25027936
_cell_angle_alpha   139.94757767
_cell_angle_beta   108.52259975
_cell_angle_gamma   85.23783081
_symmetry_Int_Tables_number   1
_chemical_formula_structural   YEr3(Si5Os3)2
_chemical_formula_sum   'Y1 Er3 Si10 Os6'
_cell_volume   330.47079172
_cell_formula_units_Z   1
loop_
 _symmetry_equiv_pos_site_id
 _symmetry_equiv_pos_as_xyz
  1  'x, y, z'
loop_
 _atom_site_type_symbol
 _atom_site_label
 _atom_site_symmetry_multiplicity
 _atom_site_fract_x
 _atom_site_fract_y
 _atom_site_fract_z
 _atom_site_occupancy
  Y  Y0  1  0.904242  0.136419  0.767823  1
  Er  Er1  1  0.095536  0.863389  0.232147  1
  Er  Er2  1  0.631074  0.363290  0.267784  1
  Er  Er3  1  0.368968  0.636745  0.732223  1
  Si  Si4  1  0.000349  0.749873  0.750246  1
  Si  Si5  1  0.000349  0.250103  0.250476  1
  Si  Si6  1  0.707550  0.458275  0.749982  1
  Si  Si7  1  0.292381  0.042297  0.750217  1
  Si  Si8  1  0.292381  0.542164  0.250084  1
  Si  Si9  1  0.707550  0.957569  0.249276  1
  Si  Si10  1  0.236159  0.405060  0.831098  1
  Si  Si11  1  0.572960  0.904528  0.668432  1
  Si  Si12  1  0.426461  0.094979  0.331480  1
  Si  Si13  1  0.763588  0.595042  0.168546  1
  Os  Os14  1  0.757176  0.853002  0.904175  1
  Os  Os15  1  0.499631  0.249873  0.749803  1
  Os  Os16  1  0.948606  0.353301  0.595305  1
  Os  Os17  1  0.051956  0.647141  0.404815  1
  Os  Os18  1  0.243452  0.147122  0.096328  1
  Os  Os19  1  0.499631  0.749828  0.249758  1
