# generated using pymatgen
data_SrNb8IrS16
_symmetry_space_group_name_H-M   'P 1'
_cell_length_a   6.71805401
_cell_length_b   6.71820878
_cell_length_c   13.51921400
_cell_angle_alpha   89.99722826
_cell_angle_beta   89.99682735
_cell_angle_gamma   119.99995653
_symmetry_Int_Tables_number   1
_chemical_formula_structural   SrNb8IrS16
_chemical_formula_sum   'Sr1 Nb8 Ir1 S16'
_cell_volume   528.42000361
_cell_formula_units_Z   1
loop_
 _symmetry_equiv_pos_site_id
 _symmetry_equiv_pos_as_xyz
  1  'x, y, z'
loop_
 _atom_site_type_symbol
 _atom_site_label
 _atom_site_symmetry_multiplicity
 _atom_site_fract_x
 _atom_site_fract_y
 _atom_site_fract_z
 _atom_site_occupancy
  Sr  Sr0  1  0.000000  0.000000  0.500000  1
  Nb  Nb1  1  0.000033  0.000044  0.222185  1
  Nb  Nb2  1  0.999967  0.999956  0.777815  1
  Nb  Nb3  1  0.505173  0.010401  0.218946  1
  Nb  Nb4  1  0.989621  0.494821  0.218919  1
  Nb  Nb5  1  0.505158  0.494806  0.218916  1
  Nb  Nb6  1  0.494827  0.989599  0.781054  1
  Nb  Nb7  1  0.010379  0.505179  0.781081  1
  Nb  Nb8  1  0.494842  0.505194  0.781084  1
  Ir  Ir9  1  0.000000  0.000000  0.000000  1
  S  S10  1  0.333327  0.666675  0.898860  1
  S  S11  1  0.666673  0.333325  0.101140  1
  S  S12  1  0.666649  0.333339  0.339312  1
  S  S13  1  0.333351  0.666661  0.660688  1
  S  S14  1  0.168748  0.831177  0.335939  1
  S  S15  1  0.168753  0.337586  0.335926  1
  S  S16  1  0.662404  0.831203  0.335927  1
  S  S17  1  0.831252  0.168823  0.664061  1
  S  S18  1  0.831247  0.662414  0.664074  1
  S  S19  1  0.337596  0.168797  0.664073  1
  S  S20  1  0.833566  0.166386  0.894310  1
  S  S21  1  0.833569  0.667114  0.894338  1
  S  S22  1  0.332815  0.166371  0.894289  1
  S  S23  1  0.166434  0.833614  0.105690  1
  S  S24  1  0.166431  0.332886  0.105662  1
  S  S25  1  0.667185  0.833629  0.105711  1
