# generated using pymatgen
data_K12Rb8Si4AsP11
_symmetry_space_group_name_H-M   'P 1'
_cell_length_a   5.26634600
_cell_length_b   14.45285512
_cell_length_c   15.47290169
_cell_angle_alpha   90.12148551
_cell_angle_beta   90.00000000
_cell_angle_gamma   90.00000000
_symmetry_Int_Tables_number   1
_chemical_formula_structural   K12Rb8Si4AsP11
_chemical_formula_sum   'K12 Rb8 Si4 As1 P11'
_cell_volume   1177.69770376
_cell_formula_units_Z   1
loop_
 _symmetry_equiv_pos_site_id
 _symmetry_equiv_pos_as_xyz
  1  'x, y, z'
loop_
 _atom_site_type_symbol
 _atom_site_label
 _atom_site_symmetry_multiplicity
 _atom_site_fract_x
 _atom_site_fract_y
 _atom_site_fract_z
 _atom_site_occupancy
  K  K0  1  0.250000  0.427256  0.565469  1
  K  K1  1  0.750000  0.572352  0.436085  1
  K  K2  1  0.750000  0.927476  0.935031  1
  K  K3  1  0.250000  0.072780  0.064789  1
  K  K4  1  0.250000  0.823020  0.086441  1
  K  K5  1  0.750000  0.179382  0.912143  1
  K  K6  1  0.750000  0.320225  0.412575  1
  K  K7  1  0.250000  0.679332  0.588593  1
  K  K8  1  0.250000  0.233865  0.258039  1
  K  K9  1  0.750000  0.766005  0.741868  1
  K  K10  1  0.750000  0.734570  0.241974  1
  K  K11  1  0.250000  0.265962  0.758024  1
  Rb  Rb12  1  0.250000  0.945354  0.303908  1
  Rb  Rb13  1  0.750000  0.054967  0.696129  1
  Rb  Rb14  1  0.750000  0.443576  0.196522  1
  Rb  Rb15  1  0.250000  0.554861  0.804186  1
  Rb  Rb16  1  0.250000  0.130391  0.513681  1
  Rb  Rb17  1  0.750000  0.870034  0.486926  1
  Rb  Rb18  1  0.750000  0.630653  0.984060  1
  Rb  Rb19  1  0.250000  0.369166  0.012724  1
  Si  Si20  1  0.250000  0.585312  0.292398  1
  Si  Si21  1  0.750000  0.413972  0.710908  1
  Si  Si22  1  0.750000  0.085989  0.211227  1
  Si  Si23  1  0.250000  0.914283  0.788640  1
  As  As24  1  0.250000  0.598802  0.141447  1
  P  P25  1  0.750000  0.400153  0.853712  1
  P  P26  1  0.750000  0.099908  0.354198  1
  P  P27  1  0.250000  0.900369  0.645669  1
  P  P28  1  0.250000  0.446856  0.350637  1
  P  P29  1  0.750000  0.552496  0.650975  1
  P  P30  1  0.750000  0.947472  0.151111  1
  P  P31  1  0.250000  0.052737  0.849133  1
  P  P32  1  0.250000  0.710297  0.374579  1
  P  P33  1  0.750000  0.289878  0.626453  1
  P  P34  1  0.750000  0.209872  0.127059  1
  P  P35  1  0.250000  0.790379  0.872684  1
