# generated using pymatgen
data_Y4VRe2PN12
_symmetry_space_group_name_H-M   'P 1'
_cell_length_a   7.28382939
_cell_length_b   7.20412290
_cell_length_c   6.05727257
_cell_angle_alpha   74.64932374
_cell_angle_beta   74.37482451
_cell_angle_gamma   83.55804370
_symmetry_Int_Tables_number   1
_chemical_formula_structural   Y4VRe2PN12
_chemical_formula_sum   'Y4 V1 Re2 P1 N12'
_cell_volume   294.89378129
_cell_formula_units_Z   1
loop_
 _symmetry_equiv_pos_site_id
 _symmetry_equiv_pos_as_xyz
  1  'x, y, z'
loop_
 _atom_site_type_symbol
 _atom_site_label
 _atom_site_symmetry_multiplicity
 _atom_site_fract_x
 _atom_site_fract_y
 _atom_site_fract_z
 _atom_site_occupancy
  Y  Y0  1  0.910491  0.090031  0.752341  1
  Y  Y1  1  0.102694  0.902626  0.248868  1
  Y  Y2  1  0.710063  0.289660  0.254316  1
  Y  Y3  1  0.303108  0.696564  0.739350  1
  V  V4  1  0.198837  0.378265  0.226016  1
  Re  Re5  1  0.382100  0.200725  0.726172  1
  Re  Re6  1  0.783169  0.630398  0.779022  1
  P  P7  1  0.613252  0.815588  0.273966  1
  N  N8  1  0.660685  0.659367  0.082336  1
  N  N9  1  0.388887  0.865543  0.336109  1
  N  N10  1  0.363943  0.350926  0.437876  1
  N  N11  1  0.122338  0.611472  0.153861  1
  N  N12  1  0.005300  0.216424  0.343405  1
  N  N13  1  0.768291  0.981992  0.162327  1
  N  N14  1  0.217562  0.003701  0.838215  1
  N  N15  1  0.621772  0.109971  0.663397  1
  N  N16  1  0.352761  0.361392  0.929783  1
  N  N17  1  0.859519  0.382944  0.842567  1
  N  N18  1  0.644253  0.678490  0.545425  1
  N  N19  1  0.990974  0.773922  0.664646  1
