# generated using pymatgen
data_Ba8Sm3Tl(FeO5)4
_symmetry_space_group_name_H-M   'P 1'
_cell_length_a   6.19757845
_cell_length_b   8.02362995
_cell_length_c   12.88259748
_cell_angle_alpha   91.63114387
_cell_angle_beta   90.02481950
_cell_angle_gamma   89.96331421
_symmetry_Int_Tables_number   1
_chemical_formula_structural   Ba8Sm3Tl(FeO5)4
_chemical_formula_sum   'Ba8 Sm3 Tl1 Fe4 O20'
_cell_volume   640.35413494
_cell_formula_units_Z   1
loop_
 _symmetry_equiv_pos_site_id
 _symmetry_equiv_pos_as_xyz
  1  'x, y, z'
loop_
 _atom_site_type_symbol
 _atom_site_label
 _atom_site_symmetry_multiplicity
 _atom_site_fract_x
 _atom_site_fract_y
 _atom_site_fract_z
 _atom_site_occupancy
  Ba  Ba0  1  0.765125  0.480255  0.345868  1
  Ba  Ba1  1  0.733848  0.981126  0.839199  1
  Ba  Ba2  1  0.225544  0.514246  0.655487  1
  Ba  Ba3  1  0.267655  0.019271  0.156538  1
  Ba  Ba4  1  0.761670  0.994662  0.381575  1
  Ba  Ba5  1  0.737268  0.491762  0.874813  1
  Ba  Ba6  1  0.230494  0.009143  0.622794  1
  Ba  Ba7  1  0.263556  0.507663  0.121565  1
  Sm  Sm8  1  0.751564  0.769307  0.126725  1
  Sm  Sm9  1  0.251062  0.730995  0.373613  1
  Sm  Sm10  1  0.251202  0.230918  0.874696  1
  Tl  Tl11  1  0.745841  0.268187  0.626588  1
  Fe  Fe12  1  0.728306  0.741107  0.582235  1
  Fe  Fe13  1  0.769191  0.243910  0.083214  1
  Fe  Fe14  1  0.265255  0.256620  0.417828  1
  Fe  Fe15  1  0.229749  0.756360  0.916515  1
  O  O16  1  0.778506  0.963371  0.631268  1
  O  O17  1  0.729946  0.470053  0.131432  1
  O  O18  1  0.230799  0.030569  0.370312  1
  O  O19  1  0.271608  0.529011  0.869833  1
  O  O20  1  0.729967  0.066807  0.177002  1
  O  O21  1  0.778742  0.575286  0.680675  1
  O  O22  1  0.271961  0.935812  0.824620  1
  O  O23  1  0.232592  0.433469  0.324590  1
  O  O24  1  0.556159  0.746391  0.278185  1
  O  O25  1  0.959029  0.246509  0.769801  1
  O  O26  1  0.455702  0.253956  0.724802  1
  O  O27  1  0.057598  0.754912  0.221441  1
  O  O28  1  0.567541  0.218658  0.971859  1
  O  O29  1  0.930490  0.717537  0.470202  1
  O  O30  1  0.430795  0.780810  0.028600  1
  O  O31  1  0.053154  0.280989  0.524649  1
  O  O32  1  0.057111  0.234376  0.029090  1
  O  O33  1  0.437789  0.734003  0.532023  1
  O  O34  1  0.940126  0.765035  0.967378  1
  O  O35  1  0.553055  0.266915  0.472986  1
