# generated using pymatgen
data_Nd2Dy3TmTa2O14
_symmetry_space_group_name_H-M   'P 1'
_cell_length_a   6.50607471
_cell_length_b   6.49550011
_cell_length_c   7.60026100
_cell_angle_alpha   90.00000000
_cell_angle_beta   90.00000000
_cell_angle_gamma   109.29419804
_symmetry_Int_Tables_number   1
_chemical_formula_structural   Nd2Dy3TmTa2O14
_chemical_formula_sum   'Nd2 Dy3 Tm1 Ta2 O14'
_cell_volume   303.14887186
_cell_formula_units_Z   1
loop_
 _symmetry_equiv_pos_site_id
 _symmetry_equiv_pos_as_xyz
  1  'x, y, z'
loop_
 _atom_site_type_symbol
 _atom_site_label
 _atom_site_symmetry_multiplicity
 _atom_site_fract_x
 _atom_site_fract_y
 _atom_site_fract_z
 _atom_site_occupancy
  Nd  Nd0  1  0.510234  0.508591  0.499322  1
  Nd  Nd1  1  0.510234  0.508591  0.000678  1
  Dy  Dy2  1  0.000185  0.466050  0.750000  1
  Dy  Dy3  1  0.532538  0.001655  0.750000  1
  Dy  Dy4  1  0.465235  0.999546  0.250000  1
  Tm  Tm5  1  0.002293  0.532471  0.250000  1
  Ta  Ta6  1  0.000689  0.001330  0.499062  1
  Ta  Ta7  1  0.000689  0.001330  0.000938  1
  O  O8  1  0.936678  0.065530  0.750000  1
  O  O9  1  0.063968  0.932133  0.250000  1
  O  O10  1  0.354053  0.641638  0.250000  1
  O  O11  1  0.643738  0.358379  0.750000  1
  O  O12  1  0.364228  0.635085  0.750000  1
  O  O13  1  0.641549  0.366221  0.250000  1
  O  O14  1  0.318797  0.069560  0.967465  1
  O  O15  1  0.677213  0.926453  0.468319  1
  O  O16  1  0.318797  0.069560  0.532535  1
  O  O17  1  0.677213  0.926453  0.031681  1
  O  O18  1  0.061459  0.317097  0.462517  1
  O  O19  1  0.929377  0.677615  0.969624  1
  O  O20  1  0.929377  0.677615  0.530376  1
  O  O21  1  0.061459  0.317097  0.037483  1
