# generated using pymatgen
data_HoTm3(CBr)2
_symmetry_space_group_name_H-M   'P 1'
_cell_length_a   3.64106400
_cell_length_b   3.64106407
_cell_length_c   13.91068200
_cell_angle_alpha   90.00000000
_cell_angle_beta   90.00000000
_cell_angle_gamma   119.99999938
_symmetry_Int_Tables_number   1
_chemical_formula_structural   HoTm3(CBr)2
_chemical_formula_sum   'Ho1 Tm3 C2 Br2'
_cell_volume   159.71131692
_cell_formula_units_Z   1
loop_
 _symmetry_equiv_pos_site_id
 _symmetry_equiv_pos_as_xyz
  1  'x, y, z'
loop_
 _atom_site_type_symbol
 _atom_site_label
 _atom_site_symmetry_multiplicity
 _atom_site_fract_x
 _atom_site_fract_y
 _atom_site_fract_z
 _atom_site_occupancy
  Ho  Ho0  1  0.333333  0.666667  0.910676  1
  Tm  Tm1  1  0.333333  0.666667  0.588042  1
  Tm  Tm2  1  0.666667  0.333333  0.410651  1
  Tm  Tm3  1  0.666667  0.333333  0.090158  1
  C  C4  1  0.000000  0.000000  0.002591  1
  C  C5  1  0.000000  0.000000  0.499352  1
  Br  Br6  1  0.333333  0.666667  0.251048  1
  Br  Br7  1  0.666667  0.333333  0.747482  1
