# generated using pymatgen
data_Tm12Si12AgRh3
_symmetry_space_group_name_H-M   'P 1'
_cell_length_a   4.18016800
_cell_length_b   10.61633095
_cell_length_c   12.21072300
_cell_angle_alpha   90.10534847
_cell_angle_beta   90.00000000
_cell_angle_gamma   90.00000000
_symmetry_Int_Tables_number   1
_chemical_formula_structural   Tm12Si12AgRh3
_chemical_formula_sum   'Tm12 Si12 Ag1 Rh3'
_cell_volume   541.88712194
_cell_formula_units_Z   1
loop_
 _symmetry_equiv_pos_site_id
 _symmetry_equiv_pos_as_xyz
  1  'x, y, z'
loop_
 _atom_site_type_symbol
 _atom_site_label
 _atom_site_symmetry_multiplicity
 _atom_site_fract_x
 _atom_site_fract_y
 _atom_site_fract_z
 _atom_site_occupancy
  Tm  Tm0  1  0.250000  0.879356  0.022047  1
  Tm  Tm1  1  0.250000  0.624841  0.518345  1
  Tm  Tm2  1  0.750000  0.119894  0.981332  1
  Tm  Tm3  1  0.750000  0.379162  0.476290  1
  Tm  Tm4  1  0.250000  0.922176  0.600006  1
  Tm  Tm5  1  0.250000  0.579137  0.103024  1
  Tm  Tm6  1  0.750000  0.079049  0.395564  1
  Tm  Tm7  1  0.750000  0.420537  0.899499  1
  Tm  Tm8  1  0.250000  0.668182  0.802554  1
  Tm  Tm9  1  0.250000  0.840141  0.300437  1
  Tm  Tm10  1  0.750000  0.340122  0.199172  1
  Tm  Tm11  1  0.750000  0.155933  0.699760  1
  Si  Si12  1  0.250000  0.011657  0.822823  1
  Si  Si13  1  0.250000  0.485965  0.324250  1
  Si  Si14  1  0.750000  0.985126  0.177880  1
  Si  Si15  1  0.750000  0.527887  0.675700  1
  Si  Si16  1  0.250000  0.240761  0.849288  1
  Si  Si17  1  0.250000  0.250960  0.340199  1
  Si  Si18  1  0.750000  0.751415  0.158776  1
  Si  Si19  1  0.750000  0.753663  0.657818  1
  Si  Si20  1  0.250000  0.186352  0.535767  1
  Si  Si21  1  0.250000  0.300503  0.044404  1
  Si  Si22  1  0.750000  0.802287  0.456749  1
  Si  Si23  1  0.750000  0.698147  0.959515  1
  Ag  Ag24  1  0.250000  0.388862  0.681655  1
  Rh  Rh25  1  0.250000  0.107617  0.180668  1
  Rh  Rh26  1  0.750000  0.609001  0.317894  1
  Rh  Rh27  1  0.750000  0.891262  0.818584  1
