# generated using pymatgen
data_DyTm3Co8(PIr)12
_symmetry_space_group_name_H-M   'P 1'
_cell_length_a   3.85272900
_cell_length_b   10.58710700
_cell_length_c   12.17675600
_cell_angle_alpha   90.00067973
_cell_angle_beta   90.00000000
_cell_angle_gamma   90.00000000
_symmetry_Int_Tables_number   1
_chemical_formula_structural   DyTm3Co8(PIr)12
_chemical_formula_sum   'Dy1 Tm3 Co8 P12 Ir12'
_cell_volume   496.68079537
_cell_formula_units_Z   1
loop_
 _symmetry_equiv_pos_site_id
 _symmetry_equiv_pos_as_xyz
  1  'x, y, z'
loop_
 _atom_site_type_symbol
 _atom_site_label
 _atom_site_symmetry_multiplicity
 _atom_site_fract_x
 _atom_site_fract_y
 _atom_site_fract_z
 _atom_site_occupancy
  Dy  Dy0  1  0.250000  0.584681  0.710739  1
  Tm  Tm1  1  0.250000  0.915183  0.210552  1
  Tm  Tm2  1  0.750000  0.415146  0.289434  1
  Tm  Tm3  1  0.750000  0.084802  0.789435  1
  Co  Co4  1  0.250000  0.884484  0.697205  1
  Co  Co5  1  0.250000  0.615825  0.197372  1
  Co  Co6  1  0.750000  0.115791  0.302705  1
  Co  Co7  1  0.750000  0.383494  0.803043  1
  Co  Co8  1  0.250000  0.463668  0.933922  1
  Co  Co9  1  0.250000  0.035933  0.433372  1
  Co  Co10  1  0.750000  0.535951  0.066905  1
  Co  Co11  1  0.750000  0.964288  0.566494  1
  P  P12  1  0.250000  0.432276  0.111702  1
  P  P13  1  0.250000  0.067586  0.611525  1
  P  P14  1  0.750000  0.567655  0.889258  1
  P  P15  1  0.750000  0.932369  0.388440  1
  P  P16  1  0.250000  0.274240  0.870255  1
  P  P17  1  0.250000  0.225790  0.370340  1
  P  P18  1  0.750000  0.725864  0.129667  1
  P  P19  1  0.750000  0.774714  0.629374  1
  P  P20  1  0.250000  0.597341  0.376391  1
  P  P21  1  0.250000  0.902675  0.876222  1
  P  P22  1  0.750000  0.402145  0.623228  1
  P  P23  1  0.750000  0.097360  0.123725  1
  Ir  Ir24  1  0.250000  0.723823  0.990856  1
  Ir  Ir25  1  0.250000  0.776233  0.490762  1
  Ir  Ir26  1  0.750000  0.276081  0.009199  1
  Ir  Ir27  1  0.750000  0.223723  0.509000  1
  Ir  Ir28  1  0.250000  0.410505  0.475497  1
  Ir  Ir29  1  0.250000  0.089305  0.975456  1
  Ir  Ir30  1  0.750000  0.589293  0.522883  1
  Ir  Ir31  1  0.750000  0.910700  0.024564  1
  Ir  Ir32  1  0.250000  0.228226  0.179083  1
  Ir  Ir33  1  0.250000  0.271554  0.678892  1
  Ir  Ir34  1  0.750000  0.772911  0.821602  1
  Ir  Ir35  1  0.750000  0.728387  0.320900  1
