# generated using pymatgen
data_Tb2U3P7Ir9
_symmetry_space_group_name_H-M   'P 1'
_cell_length_a   4.09769500
_cell_length_b   9.90410929
_cell_length_c   9.89765189
_cell_angle_alpha   119.96409127
_cell_angle_beta   90.00029235
_cell_angle_gamma   90.00122539
_symmetry_Int_Tables_number   1
_chemical_formula_structural   Tb2U3P7Ir9
_chemical_formula_sum   'Tb2 U3 P7 Ir9'
_cell_volume   347.99651273
_cell_formula_units_Z   1
loop_
 _symmetry_equiv_pos_site_id
 _symmetry_equiv_pos_as_xyz
  1  'x, y, z'
loop_
 _atom_site_type_symbol
 _atom_site_label
 _atom_site_symmetry_multiplicity
 _atom_site_fract_x
 _atom_site_fract_y
 _atom_site_fract_z
 _atom_site_occupancy
  Tb  Tb0  1  0.261893  0.666580  0.333359  1
  Tb  Tb1  1  0.761907  0.333257  0.666486  1
  U  U2  1  0.761906  0.102034  0.869620  1
  U  U3  1  0.761909  0.130140  0.232358  1
  U  U4  1  0.761912  0.767644  0.898485  1
  P  P5  1  0.261932  0.000169  0.999744  1
  P  P6  1  0.761872  0.842998  0.577555  1
  P  P7  1  0.761891  0.422702  0.265723  1
  P  P8  1  0.761889  0.734191  0.156999  1
  P  P9  1  0.261886  0.107229  0.435422  1
  P  P10  1  0.261900  0.564785  0.671711  1
  P  P11  1  0.261900  0.328147  0.892566  1
  Ir  Ir12  1  0.261914  0.878144  0.174470  1
  Ir  Ir13  1  0.261895  0.825764  0.703718  1
  Ir  Ir14  1  0.261913  0.296760  0.122032  1
  Ir  Ir15  1  0.761903  0.585405  0.538448  1
  Ir  Ir16  1  0.761902  0.461120  0.046574  1
  Ir  Ir17  1  0.761914  0.952940  0.414586  1
  Ir  Ir18  1  0.261916  0.339451  0.430689  1
  Ir  Ir19  1  0.261919  0.569480  0.908907  1
  Ir  Ir20  1  0.261925  0.091056  0.660548  1
