# generated using pymatgen
data_TbHo7Tm8CdIn3Rh4
_symmetry_space_group_name_H-M   'P 1'
_cell_length_a   9.57367482
_cell_length_b   9.57108691
_cell_length_c   9.57687500
_cell_angle_alpha   59.97998965
_cell_angle_beta   59.98893842
_cell_angle_gamma   59.96239919
_symmetry_Int_Tables_number   1
_chemical_formula_structural   TbHo7Tm8CdIn3Rh4
_chemical_formula_sum   'Tb1 Ho7 Tm8 Cd1 In3 Rh4'
_cell_volume   620.18779868
_cell_formula_units_Z   1
loop_
 _symmetry_equiv_pos_site_id
 _symmetry_equiv_pos_as_xyz
  1  'x, y, z'
loop_
 _atom_site_type_symbol
 _atom_site_label
 _atom_site_symmetry_multiplicity
 _atom_site_fract_x
 _atom_site_fract_y
 _atom_site_fract_z
 _atom_site_occupancy
  Tb  Tb0  1  0.935820  0.934185  0.564998  1
  Ho  Ho1  1  0.311766  0.690493  0.307859  1
  Ho  Ho2  1  0.311766  0.690493  0.689883  1
  Ho  Ho3  1  0.936245  0.559579  0.565266  1
  Ho  Ho4  1  0.936245  0.559579  0.938909  1
  Ho  Ho5  1  0.562387  0.935953  0.562771  1
  Ho  Ho6  1  0.562387  0.935953  0.938890  1
  Ho  Ho7  1  0.311568  0.310207  0.689112  1
  Tm  Tm8  1  0.562655  0.558892  0.939226  1
  Tm  Tm9  1  0.691018  0.690497  0.309243  1
  Tm  Tm10  1  0.149145  0.549103  0.150876  1
  Tm  Tm11  1  0.689161  0.312768  0.688153  1
  Tm  Tm12  1  0.150840  0.150395  0.154184  1
  Tm  Tm13  1  0.548703  0.149421  0.150938  1
  Tm  Tm14  1  0.689161  0.312768  0.309917  1
  Tm  Tm15  1  0.150840  0.150395  0.544577  1
  Cd  Cd16  1  0.917300  0.247357  0.917671  1
  In  In17  1  0.917155  0.920186  0.246285  1
  In  In18  1  0.247608  0.919760  0.916317  1
  In  In19  1  0.917155  0.920186  0.916375  1
  Rh  Rh20  1  0.357981  0.357832  0.927976  1
  Rh  Rh21  1  0.359625  0.926135  0.357120  1
  Rh  Rh22  1  0.925489  0.360028  0.357241  1
  Rh  Rh23  1  0.357981  0.357832  0.356211  1
