# generated using pymatgen
data_Tb2ErMg(Co4P3)2
_symmetry_space_group_name_H-M   'P 1'
_cell_length_a   3.73384100
_cell_length_b   10.63557900
_cell_length_c   12.28948400
_cell_angle_alpha   90.00000000
_cell_angle_beta   90.00000000
_cell_angle_gamma   90.00000000
_symmetry_Int_Tables_number   1
_chemical_formula_structural   Tb2ErMg(Co4P3)2
_chemical_formula_sum   'Tb4 Er2 Mg2 Co16 P12'
_cell_volume   488.03459265
_cell_formula_units_Z   2
loop_
 _symmetry_equiv_pos_site_id
 _symmetry_equiv_pos_as_xyz
  1  'x, y, z'
loop_
 _atom_site_type_symbol
 _atom_site_label
 _atom_site_symmetry_multiplicity
 _atom_site_fract_x
 _atom_site_fract_y
 _atom_site_fract_z
 _atom_site_occupancy
  Tb  Tb0  1  0.750000  0.250000  0.473431  1
  Tb  Tb1  1  0.250000  0.750000  0.526157  1
  Tb  Tb2  1  0.250000  0.927952  0.793856  1
  Tb  Tb3  1  0.250000  0.572048  0.793856  1
  Er  Er4  1  0.750000  0.072351  0.206157  1
  Er  Er5  1  0.750000  0.427649  0.206157  1
  Mg  Mg6  1  0.250000  0.250000  0.843318  1
  Mg  Mg7  1  0.750000  0.750000  0.156758  1
  Co  Co8  1  0.250000  0.250000  0.293896  1
  Co  Co9  1  0.750000  0.750000  0.705221  1
  Co  Co10  1  0.750000  0.250000  0.011837  1
  Co  Co11  1  0.250000  0.750000  0.989553  1
  Co  Co12  1  0.250000  0.417044  0.003833  1
  Co  Co13  1  0.250000  0.082956  0.003833  1
  Co  Co14  1  0.750000  0.582156  0.997411  1
  Co  Co15  1  0.750000  0.917844  0.997411  1
  Co  Co16  1  0.250000  0.453944  0.567679  1
  Co  Co17  1  0.250000  0.046056  0.567679  1
  Co  Co18  1  0.750000  0.545750  0.431340  1
  Co  Co19  1  0.750000  0.954250  0.431340  1
  Co  Co20  1  0.250000  0.872752  0.294198  1
  Co  Co21  1  0.250000  0.627248  0.294198  1
  Co  Co22  1  0.750000  0.128010  0.705200  1
  Co  Co23  1  0.750000  0.371990  0.705200  1
  P  P24  1  0.250000  0.250000  0.115220  1
  P  P25  1  0.750000  0.750000  0.886050  1
  P  P26  1  0.250000  0.250000  0.644631  1
  P  P27  1  0.750000  0.750000  0.355271  1
  P  P28  1  0.250000  0.440558  0.383777  1
  P  P29  1  0.250000  0.059442  0.383777  1
  P  P30  1  0.750000  0.558910  0.614868  1
  P  P31  1  0.750000  0.941090  0.614868  1
  P  P32  1  0.250000  0.911732  0.107482  1
  P  P33  1  0.250000  0.588268  0.107482  1
  P  P34  1  0.750000  0.089288  0.893526  1
  P  P35  1  0.750000  0.410712  0.893526  1
