# generated using pymatgen
data_HfZrInRh5
_symmetry_space_group_name_H-M   'P 1'
_cell_length_a   4.16353600
_cell_length_b   5.61638629
_cell_length_c   11.18790651
_cell_angle_alpha   89.85855392
_cell_angle_beta   90.00000000
_cell_angle_gamma   90.00000000
_symmetry_Int_Tables_number   1
_chemical_formula_structural   HfZrInRh5
_chemical_formula_sum   'Hf2 Zr2 In2 Rh10'
_cell_volume   261.61750496
_cell_formula_units_Z   2
loop_
 _symmetry_equiv_pos_site_id
 _symmetry_equiv_pos_as_xyz
  1  'x, y, z'
loop_
 _atom_site_type_symbol
 _atom_site_label
 _atom_site_symmetry_multiplicity
 _atom_site_fract_x
 _atom_site_fract_y
 _atom_site_fract_z
 _atom_site_occupancy
  Hf  Hf0  1  0.500000  0.687632  0.860364  1
  Hf  Hf1  1  0.500000  0.312368  0.139636  1
  Zr  Zr2  1  0.500000  0.189092  0.639361  1
  Zr  Zr3  1  0.500000  0.810908  0.360639  1
  In  In4  1  0.000000  0.500000  0.500000  1
  In  In5  1  0.000000  0.000000  0.000000  1
  Rh  Rh6  1  0.500000  0.208990  0.882422  1
  Rh  Rh7  1  0.500000  0.791010  0.117578  1
  Rh  Rh8  1  0.500000  0.708898  0.618947  1
  Rh  Rh9  1  0.500000  0.291102  0.381053  1
  Rh  Rh10  1  0.000000  0.445901  0.751163  1
  Rh  Rh11  1  0.000000  0.554099  0.248837  1
  Rh  Rh12  1  0.000000  0.000000  0.500000  1
  Rh  Rh13  1  0.000000  0.500000  0.000000  1
  Rh  Rh14  1  0.000000  0.056159  0.249800  1
  Rh  Rh15  1  0.000000  0.943841  0.750200  1
