# generated using pymatgen
data_Pa4Tc7W
_symmetry_space_group_name_H-M   'P 1'
_cell_length_a   5.08394936
_cell_length_b   5.08394994
_cell_length_c   9.29405100
_cell_angle_alpha   90.00000000
_cell_angle_beta   90.00000000
_cell_angle_gamma   111.41123459
_symmetry_Int_Tables_number   1
_chemical_formula_structural   Pa4Tc7W
_chemical_formula_sum   'Pa4 Tc7 W1'
_cell_volume   223.64019777
_cell_formula_units_Z   1
loop_
 _symmetry_equiv_pos_site_id
 _symmetry_equiv_pos_as_xyz
  1  'x, y, z'
loop_
 _atom_site_type_symbol
 _atom_site_label
 _atom_site_symmetry_multiplicity
 _atom_site_fract_x
 _atom_site_fract_y
 _atom_site_fract_z
 _atom_site_occupancy
  Pa  Pa0  1  0.332649  0.667351  0.434799  1
  Pa  Pa1  1  0.666874  0.333126  0.566821  1
  Pa  Pa2  1  0.666874  0.333126  0.933179  1
  Pa  Pa3  1  0.332649  0.667351  0.065201  1
  Tc  Tc4  1  0.999029  0.000971  0.502272  1
  Tc  Tc5  1  0.999029  0.000971  0.997728  1
  Tc  Tc6  1  0.831911  0.657493  0.250000  1
  Tc  Tc7  1  0.342507  0.168089  0.250000  1
  Tc  Tc8  1  0.167361  0.832639  0.750000  1
  Tc  Tc9  1  0.168846  0.342840  0.750000  1
  Tc  Tc10  1  0.657160  0.831154  0.750000  1
  W  W11  1  0.835114  0.164886  0.250000  1
