# generated using pymatgen
data_YbCe(Ga2Ag)2
_symmetry_space_group_name_H-M   'P 1'
_cell_length_a   4.43701400
_cell_length_b   7.02641985
_cell_length_c   10.36284605
_cell_angle_alpha   90.18527817
_cell_angle_beta   90.00000000
_cell_angle_gamma   90.00000000
_symmetry_Int_Tables_number   1
_chemical_formula_structural   YbCe(Ga2Ag)2
_chemical_formula_sum   'Yb2 Ce2 Ga8 Ag4'
_cell_volume   323.07374893
_cell_formula_units_Z   2
loop_
 _symmetry_equiv_pos_site_id
 _symmetry_equiv_pos_as_xyz
  1  'x, y, z'
loop_
 _atom_site_type_symbol
 _atom_site_label
 _atom_site_symmetry_multiplicity
 _atom_site_fract_x
 _atom_site_fract_y
 _atom_site_fract_z
 _atom_site_occupancy
  Yb  Yb0  1  0.750000  0.723624  0.332515  1
  Yb  Yb1  1  0.250000  0.276376  0.667485  1
  Ce  Ce2  1  0.250000  0.782478  0.826754  1
  Ce  Ce3  1  0.750000  0.217522  0.173246  1
  Ga  Ga4  1  0.250000  0.693438  0.536331  1
  Ga  Ga5  1  0.750000  0.306562  0.463669  1
  Ga  Ga6  1  0.750000  0.794429  0.038345  1
  Ga  Ga7  1  0.250000  0.205571  0.961655  1
  Ga  Ga8  1  0.250000  0.923141  0.150666  1
  Ga  Ga9  1  0.750000  0.076859  0.849334  1
  Ga  Ga10  1  0.750000  0.572055  0.652756  1
  Ga  Ga11  1  0.250000  0.427945  0.347244  1
  Ag  Ag12  1  0.250000  0.541960  0.099460  1
  Ag  Ag13  1  0.750000  0.458040  0.900540  1
  Ag  Ag14  1  0.750000  0.961224  0.595349  1
  Ag  Ag15  1  0.250000  0.038776  0.404651  1
