# generated using pymatgen
data_TbDyCo8(P3Ru)2
_symmetry_space_group_name_H-M   'P 1'
_cell_length_a   3.69441100
_cell_length_b   10.40948900
_cell_length_c   11.78176500
_cell_angle_alpha   90.00000000
_cell_angle_beta   90.00000000
_cell_angle_gamma   90.00000000
_symmetry_Int_Tables_number   1
_chemical_formula_structural   TbDyCo8(P3Ru)2
_chemical_formula_sum   'Tb2 Dy2 Co16 P12 Ru4'
_cell_volume   453.09051973
_cell_formula_units_Z   2
loop_
 _symmetry_equiv_pos_site_id
 _symmetry_equiv_pos_as_xyz
  1  'x, y, z'
loop_
 _atom_site_type_symbol
 _atom_site_label
 _atom_site_symmetry_multiplicity
 _atom_site_fract_x
 _atom_site_fract_y
 _atom_site_fract_z
 _atom_site_occupancy
  Tb  Tb0  1  0.750000  0.413869  0.295895  1
  Tb  Tb1  1  0.750000  0.086131  0.795895  1
  Dy  Dy2  1  0.250000  0.586089  0.704058  1
  Dy  Dy3  1  0.250000  0.913911  0.204058  1
  Co  Co4  1  0.250000  0.408587  0.489872  1
  Co  Co5  1  0.250000  0.091413  0.989872  1
  Co  Co6  1  0.750000  0.591455  0.510276  1
  Co  Co7  1  0.750000  0.908545  0.010276  1
  Co  Co8  1  0.250000  0.221165  0.176615  1
  Co  Co9  1  0.250000  0.278835  0.676615  1
  Co  Co10  1  0.750000  0.778720  0.823380  1
  Co  Co11  1  0.750000  0.721280  0.323380  1
  Co  Co12  1  0.250000  0.887050  0.702264  1
  Co  Co13  1  0.250000  0.612950  0.202264  1
  Co  Co14  1  0.750000  0.112846  0.297667  1
  Co  Co15  1  0.750000  0.387154  0.797667  1
  Co  Co16  1  0.250000  0.465193  0.930787  1
  Co  Co17  1  0.250000  0.034807  0.430787  1
  Co  Co18  1  0.750000  0.534836  0.069143  1
  Co  Co19  1  0.750000  0.965164  0.569143  1
  P  P20  1  0.250000  0.419848  0.111713  1
  P  P21  1  0.250000  0.080152  0.611713  1
  P  P22  1  0.750000  0.580167  0.888169  1
  P  P23  1  0.750000  0.919833  0.388169  1
  P  P24  1  0.250000  0.272266  0.867042  1
  P  P25  1  0.250000  0.227734  0.367042  1
  P  P26  1  0.750000  0.727874  0.133007  1
  P  P27  1  0.750000  0.772126  0.633007  1
  P  P28  1  0.250000  0.596236  0.390376  1
  P  P29  1  0.250000  0.903764  0.890376  1
  P  P30  1  0.750000  0.403881  0.609697  1
  P  P31  1  0.750000  0.096119  0.109697  1
  Ru  Ru32  1  0.250000  0.716610  0.992161  1
  Ru  Ru33  1  0.250000  0.783390  0.492161  1
  Ru  Ru34  1  0.750000  0.283451  0.007879  1
  Ru  Ru35  1  0.750000  0.216549  0.507879  1
