# generated using pymatgen
data_Yb3Pr8Dy9Sn16
_symmetry_space_group_name_H-M   'P 1'
_cell_length_a   8.03128900
_cell_length_b   8.39532877
_cell_length_c   15.84525800
_cell_angle_alpha   90.00000000
_cell_angle_beta   90.00000000
_cell_angle_gamma   90.13343025
_symmetry_Int_Tables_number   1
_chemical_formula_structural   Yb3Pr8Dy9Sn16
_chemical_formula_sum   'Yb3 Pr8 Dy9 Sn16'
_cell_volume   1068.36856040
_cell_formula_units_Z   1
loop_
 _symmetry_equiv_pos_site_id
 _symmetry_equiv_pos_as_xyz
  1  'x, y, z'
loop_
 _atom_site_type_symbol
 _atom_site_label
 _atom_site_symmetry_multiplicity
 _atom_site_fract_x
 _atom_site_fract_y
 _atom_site_fract_z
 _atom_site_occupancy
  Yb  Yb0  1  0.333563  0.997784  0.750000  1
  Yb  Yb1  1  0.166072  0.496209  0.250000  1
  Yb  Yb2  1  0.665802  0.002065  0.250000  1
  Pr  Pr3  1  0.504266  0.680675  0.597517  1
  Pr  Pr4  1  0.006757  0.822206  0.903697  1
  Pr  Pr5  1  0.493348  0.319098  0.095996  1
  Pr  Pr6  1  0.992913  0.180492  0.404047  1
  Pr  Pr7  1  0.493348  0.319098  0.404004  1
  Pr  Pr8  1  0.992913  0.180492  0.095953  1
  Pr  Pr9  1  0.504266  0.680675  0.902483  1
  Pr  Pr10  1  0.006757  0.822206  0.596303  1
  Dy  Dy11  1  0.665707  0.169288  0.624831  1
  Dy  Dy12  1  0.168917  0.330874  0.875345  1
  Dy  Dy13  1  0.334060  0.828402  0.123833  1
  Dy  Dy14  1  0.833484  0.669192  0.376699  1
  Dy  Dy15  1  0.334060  0.828402  0.376167  1
  Dy  Dy16  1  0.833484  0.669192  0.123301  1
  Dy  Dy17  1  0.665707  0.169288  0.875169  1
  Dy  Dy18  1  0.168917  0.330874  0.624655  1
  Dy  Dy19  1  0.835535  0.502278  0.750000  1
  Sn  Sn20  1  0.674083  0.959038  0.462023  1
  Sn  Sn21  1  0.174852  0.538057  0.038595  1
  Sn  Sn22  1  0.325581  0.040182  0.961561  1
  Sn  Sn23  1  0.826018  0.462660  0.541892  1
  Sn  Sn24  1  0.325581  0.040182  0.538439  1
  Sn  Sn25  1  0.826018  0.462660  0.958108  1
  Sn  Sn26  1  0.674083  0.959038  0.037977  1
  Sn  Sn27  1  0.174852  0.538057  0.461405  1
  Sn  Sn28  1  0.471411  0.383576  0.750000  1
  Sn  Sn29  1  0.967588  0.125066  0.750000  1
  Sn  Sn30  1  0.533117  0.618323  0.250000  1
  Sn  Sn31  1  0.032952  0.879760  0.250000  1
  Sn  Sn32  1  0.708513  0.859232  0.750000  1
  Sn  Sn33  1  0.200383  0.637253  0.750000  1
  Sn  Sn34  1  0.291962  0.134231  0.250000  1
  Sn  Sn35  1  0.793128  0.363895  0.250000  1
