# generated using pymatgen
data_Tm3Al12Os3Ru
_symmetry_space_group_name_H-M   'P 1'
_cell_length_a   8.77004900
_cell_length_b   8.77004819
_cell_length_c   9.56321900
_cell_angle_alpha   90.00000000
_cell_angle_beta   90.00000000
_cell_angle_gamma   120.00000684
_symmetry_Int_Tables_number   1
_chemical_formula_structural   Tm3Al12Os3Ru
_chemical_formula_sum   'Tm6 Al24 Os6 Ru2'
_cell_volume   636.99892971
_cell_formula_units_Z   2
loop_
 _symmetry_equiv_pos_site_id
 _symmetry_equiv_pos_as_xyz
  1  'x, y, z'
loop_
 _atom_site_type_symbol
 _atom_site_label
 _atom_site_symmetry_multiplicity
 _atom_site_fract_x
 _atom_site_fract_y
 _atom_site_fract_z
 _atom_site_occupancy
  Tm  Tm0  1  0.805372  0.194628  0.750000  1
  Tm  Tm1  1  0.194628  0.805372  0.250000  1
  Tm  Tm2  1  0.389256  0.194628  0.750000  1
  Tm  Tm3  1  0.610744  0.805372  0.250000  1
  Tm  Tm4  1  0.805372  0.610744  0.750000  1
  Tm  Tm5  1  0.194628  0.389256  0.250000  1
  Al  Al6  1  0.666667  0.333333  0.981184  1
  Al  Al7  1  0.333333  0.666667  0.018816  1
  Al  Al8  1  0.333333  0.666667  0.481184  1
  Al  Al9  1  0.666667  0.333333  0.518816  1
  Al  Al10  1  0.837343  0.162657  0.422620  1
  Al  Al11  1  0.162657  0.837343  0.577380  1
  Al  Al12  1  0.325313  0.162657  0.422620  1
  Al  Al13  1  0.162657  0.837343  0.922620  1
  Al  Al14  1  0.674687  0.837343  0.577380  1
  Al  Al15  1  0.837343  0.162657  0.077380  1
  Al  Al16  1  0.837343  0.674687  0.422620  1
  Al  Al17  1  0.674687  0.837343  0.922620  1
  Al  Al18  1  0.162657  0.325313  0.577380  1
  Al  Al19  1  0.325313  0.162657  0.077380  1
  Al  Al20  1  0.162657  0.325313  0.922620  1
  Al  Al21  1  0.837343  0.674687  0.077380  1
  Al  Al22  1  0.438647  0.561353  0.750000  1
  Al  Al23  1  0.561353  0.438647  0.250000  1
  Al  Al24  1  0.122704  0.561353  0.750000  1
  Al  Al25  1  0.877296  0.438647  0.250000  1
  Al  Al26  1  0.438647  0.877296  0.750000  1
  Al  Al27  1  0.561353  0.122704  0.250000  1
  Al  Al28  1  0.000000  0.000000  0.750000  1
  Al  Al29  1  0.000000  0.000000  0.250000  1
  Os  Os30  1  0.500000  0.500000  0.000000  1
  Os  Os31  1  0.000000  0.500000  0.000000  1
  Os  Os32  1  0.500000  0.500000  0.500000  1
  Os  Os33  1  0.500000  0.000000  0.000000  1
  Os  Os34  1  0.000000  0.500000  0.500000  1
  Os  Os35  1  0.500000  0.000000  0.500000  1
  Ru  Ru36  1  0.000000  0.000000  0.000000  1
  Ru  Ru37  1  0.000000  0.000000  0.500000  1
