# generated using pymatgen
data_Ho2ThPa2Ga15
_symmetry_space_group_name_H-M   'P 1'
_cell_length_a   12.45062767
_cell_length_b   12.45062802
_cell_length_c   12.45062762
_cell_angle_alpha   28.80602562
_cell_angle_beta   28.80602361
_cell_angle_gamma   28.80602655
_symmetry_Int_Tables_number   1
_chemical_formula_structural   Ho2ThPa2Ga15
_chemical_formula_sum   'Ho2 Th1 Pa2 Ga15'
_cell_volume   396.24378468
_cell_formula_units_Z   1
loop_
 _symmetry_equiv_pos_site_id
 _symmetry_equiv_pos_as_xyz
  1  'x, y, z'
loop_
 _atom_site_type_symbol
 _atom_site_label
 _atom_site_symmetry_multiplicity
 _atom_site_fract_x
 _atom_site_fract_y
 _atom_site_fract_z
 _atom_site_occupancy
  Ho  Ho0  1  0.400183  0.400183  0.400183  1
  Ho  Ho1  1  0.599817  0.599817  0.599817  1
  Th  Th2  1  0.000000  0.000000  0.000000  1
  Pa  Pa3  1  0.129823  0.129823  0.129823  1
  Pa  Pa4  1  0.870177  0.870177  0.870177  1
  Ga  Ga5  1  0.440228  0.879875  0.879875  1
  Ga  Ga6  1  0.879875  0.879875  0.440228  1
  Ga  Ga7  1  0.879875  0.440228  0.879875  1
  Ga  Ga8  1  0.120125  0.559772  0.120125  1
  Ga  Ga9  1  0.120125  0.120125  0.559772  1
  Ga  Ga10  1  0.559772  0.120125  0.120125  1
  Ga  Ga11  1  0.129930  0.635220  0.635220  1
  Ga  Ga12  1  0.635220  0.635220  0.129930  1
  Ga  Ga13  1  0.635220  0.129930  0.635220  1
  Ga  Ga14  1  0.364780  0.870070  0.364780  1
  Ga  Ga15  1  0.364780  0.364780  0.870070  1
  Ga  Ga16  1  0.870070  0.364780  0.364780  1
  Ga  Ga17  1  0.500000  0.500000  0.000000  1
  Ga  Ga18  1  0.500000  0.000000  0.500000  1
  Ga  Ga19  1  0.000000  0.500000  0.500000  1
