# generated using pymatgen
data_UAg(I2Br)2
_symmetry_space_group_name_H-M   'P 1'
_cell_length_a   8.02202447
_cell_length_b   8.02202454
_cell_length_c   7.19220200
_cell_angle_alpha   82.14292709
_cell_angle_beta   82.14292702
_cell_angle_gamma   121.41091340
_symmetry_Int_Tables_number   1
_chemical_formula_structural   UAg(I2Br)2
_chemical_formula_sum   'U1 Ag1 I4 Br2'
_cell_volume   379.28103482
_cell_formula_units_Z   1
loop_
 _symmetry_equiv_pos_site_id
 _symmetry_equiv_pos_as_xyz
  1  'x, y, z'
loop_
 _atom_site_type_symbol
 _atom_site_label
 _atom_site_symmetry_multiplicity
 _atom_site_fract_x
 _atom_site_fract_y
 _atom_site_fract_z
 _atom_site_occupancy
  U  U0  1  0.992209  0.007791  0.000000  1
  Ag  Ag1  1  0.899045  0.100955  0.500000  1
  I  I2  1  0.042967  0.367065  0.740727  1
  I  I3  1  0.347579  0.074295  0.752364  1
  I  I4  1  0.925705  0.652421  0.247636  1
  I  I5  1  0.632935  0.957033  0.259273  1
  Br  Br6  1  0.241609  0.248051  0.202249  1
  Br  Br7  1  0.751949  0.758391  0.797751  1
