# generated using pymatgen
data_TmLu3(TcB6)2
_symmetry_space_group_name_H-M   'P 1'
_cell_length_a   3.62356800
_cell_length_b   9.06298103
_cell_length_c   11.41704406
_cell_angle_alpha   89.99877304
_cell_angle_beta   90.00000000
_cell_angle_gamma   90.00000000
_symmetry_Int_Tables_number   1
_chemical_formula_structural   TmLu3(TcB6)2
_chemical_formula_sum   'Tm2 Lu6 Tc4 B24'
_cell_volume   374.93947222
_cell_formula_units_Z   2
loop_
 _symmetry_equiv_pos_site_id
 _symmetry_equiv_pos_as_xyz
  1  'x, y, z'
loop_
 _atom_site_type_symbol
 _atom_site_label
 _atom_site_symmetry_multiplicity
 _atom_site_fract_x
 _atom_site_fract_y
 _atom_site_fract_z
 _atom_site_occupancy
  Tm  Tm0  1  0.500000  0.323837  0.414081  1
  Tm  Tm1  1  0.500000  0.676163  0.585919  1
  Lu  Lu2  1  0.500000  0.175978  0.914261  1
  Lu  Lu3  1  0.500000  0.824022  0.085739  1
  Lu  Lu4  1  0.500000  0.443426  0.130033  1
  Lu  Lu5  1  0.500000  0.556574  0.869967  1
  Lu  Lu6  1  0.500000  0.056528  0.630498  1
  Lu  Lu7  1  0.500000  0.943472  0.369502  1
  Tc  Tc8  1  0.500000  0.139268  0.179329  1
  Tc  Tc9  1  0.500000  0.860732  0.820671  1
  Tc  Tc10  1  0.500000  0.360262  0.680128  1
  Tc  Tc11  1  0.500000  0.639738  0.319872  1
  B  B12  1  0.000000  0.099154  0.472459  1
  B  B13  1  0.000000  0.900846  0.527541  1
  B  B14  1  0.000000  0.400338  0.972349  1
  B  B15  1  0.000000  0.599662  0.027651  1
  B  B16  1  0.000000  0.130701  0.315379  1
  B  B17  1  0.000000  0.869299  0.684621  1
  B  B18  1  0.000000  0.368974  0.816014  1
  B  B19  1  0.000000  0.631026  0.183986  1
  B  B20  1  0.000000  0.053337  0.066257  1
  B  B21  1  0.000000  0.946663  0.933743  1
  B  B22  1  0.000000  0.446453  0.566788  1
  B  B23  1  0.000000  0.553547  0.433212  1
  B  B24  1  0.000000  0.481580  0.287655  1
  B  B25  1  0.000000  0.518420  0.712345  1
  B  B26  1  0.000000  0.018727  0.788339  1
  B  B27  1  0.000000  0.981273  0.211661  1
  B  B28  1  0.000000  0.250480  0.080192  1
  B  B29  1  0.000000  0.749520  0.919808  1
  B  B30  1  0.000000  0.249254  0.580882  1
  B  B31  1  0.000000  0.750746  0.419118  1
  B  B32  1  0.000000  0.293391  0.234865  1
  B  B33  1  0.000000  0.706609  0.765135  1
  B  B34  1  0.000000  0.206339  0.735649  1
  B  B35  1  0.000000  0.793661  0.264351  1
