# generated using pymatgen
data_Pr16Ho4Si15Ir
_symmetry_space_group_name_H-M   'P 1'
_cell_length_a   7.87077430
_cell_length_b   7.84658970
_cell_length_c   15.21590000
_cell_angle_alpha   89.92445351
_cell_angle_beta   89.70930405
_cell_angle_gamma   90.16293131
_symmetry_Int_Tables_number   1
_chemical_formula_structural   Pr16Ho4Si15Ir
_chemical_formula_sum   'Pr16 Ho4 Si15 Ir1'
_cell_volume   939.69803033
_cell_formula_units_Z   1
loop_
 _symmetry_equiv_pos_site_id
 _symmetry_equiv_pos_as_xyz
  1  'x, y, z'
loop_
 _atom_site_type_symbol
 _atom_site_label
 _atom_site_symmetry_multiplicity
 _atom_site_fract_x
 _atom_site_fract_y
 _atom_site_fract_z
 _atom_site_occupancy
  Pr  Pr0  1  0.373666  0.011264  0.448105  1
  Pr  Pr1  1  0.487758  0.875918  0.698634  1
  Pr  Pr2  1  0.511433  0.123520  0.197164  1
  Pr  Pr3  1  0.875897  0.487400  0.301319  1
  Pr  Pr4  1  0.125045  0.506123  0.799790  1
  Pr  Pr5  1  0.626834  0.988402  0.948234  1
  Pr  Pr6  1  0.005698  0.373228  0.553381  1
  Pr  Pr7  1  0.988350  0.625815  0.052321  1
  Pr  Pr8  1  0.134394  0.985644  0.873569  1
  Pr  Pr9  1  0.520305  0.631628  0.126679  1
  Pr  Pr10  1  0.471373  0.361934  0.630464  1
  Pr  Pr11  1  0.627476  0.518618  0.872909  1
  Pr  Pr12  1  0.372468  0.480040  0.372476  1
  Pr  Pr13  1  0.873391  0.022530  0.377686  1
  Pr  Pr14  1  0.979969  0.126853  0.123180  1
  Pr  Pr15  1  0.026739  0.880840  0.623408  1
  Ho  Ho16  1  0.308935  0.308850  0.999964  1
  Ho  Ho17  1  0.189178  0.809614  0.250225  1
  Ho  Ho18  1  0.821583  0.188970  0.749246  1
  Ho  Ho19  1  0.690406  0.686762  0.500662  1
  Si  Si20  1  0.330613  0.690764  0.953857  1
  Si  Si21  1  0.665596  0.308358  0.455950  1
  Si  Si22  1  0.692423  0.332328  0.046450  1
  Si  Si23  1  0.310211  0.669820  0.544564  1
  Si  Si24  1  0.811167  0.829985  0.206714  1
  Si  Si25  1  0.170805  0.190866  0.294090  1
  Si  Si26  1  0.831337  0.808020  0.795266  1
  Si  Si27  1  0.287091  0.923944  0.061926  1
  Si  Si28  1  0.578599  0.785199  0.313463  1
  Si  Si29  1  0.430479  0.208002  0.815195  1
  Si  Si30  1  0.780182  0.582170  0.686485  1
  Si  Si31  1  0.213413  0.424160  0.186693  1
  Si  Si32  1  0.706114  0.071548  0.561109  1
  Si  Si33  1  0.921224  0.287093  0.938566  1
  Si  Si34  1  0.079447  0.716231  0.437418  1
  Ir  Ir35  1  0.180405  0.177557  0.702837  1
