# generated using pymatgen
data_Ac3La(Ga7Ni)2
_symmetry_space_group_name_H-M   'P 1'
_cell_length_a   6.24883284
_cell_length_b   6.23710536
_cell_length_c   11.46592100
_cell_angle_alpha   74.21761902
_cell_angle_beta   74.18716155
_cell_angle_gamma   90.00000019
_symmetry_Int_Tables_number   1
_chemical_formula_structural   Ac3La(Ga7Ni)2
_chemical_formula_sum   'Ac3 La1 Ga14 Ni2'
_cell_volume   412.43188911
_cell_formula_units_Z   1
loop_
 _symmetry_equiv_pos_site_id
 _symmetry_equiv_pos_as_xyz
  1  'x, y, z'
loop_
 _atom_site_type_symbol
 _atom_site_label
 _atom_site_symmetry_multiplicity
 _atom_site_fract_x
 _atom_site_fract_y
 _atom_site_fract_z
 _atom_site_occupancy
  Ac  Ac0  1  0.996131  0.996131  0.007736  1
  Ac  Ac1  1  0.500872  0.500872  0.998255  1
  Ac  Ac2  1  0.751167  0.251167  0.497666  1
  La  La3  1  0.244347  0.744347  0.511308  1
  Ga  Ga4  1  0.202100  0.202100  0.595800  1
  Ga  Ga5  1  0.812327  0.812327  0.375347  1
  Ga  Ga6  1  0.600076  0.127205  0.256450  1
  Ga  Ga7  1  0.143473  0.616344  0.256450  1
  Ga  Ga8  1  0.600076  0.616344  0.256450  1
  Ga  Ga9  1  0.143473  0.127205  0.256450  1
  Ga  Ga10  1  0.866148  0.355015  0.753143  1
  Ga  Ga11  1  0.380709  0.891841  0.753143  1
  Ga  Ga12  1  0.866148  0.891841  0.753143  1
  Ga  Ga13  1  0.380709  0.355015  0.753143  1
  Ga  Ga14  1  0.692443  0.692443  0.615113  1
  Ga  Ga15  1  0.063000  0.563000  0.873999  1
  Ga  Ga16  1  0.451624  0.951624  0.096751  1
  Ga  Ga17  1  0.940693  0.440693  0.118614  1
  Ni  Ni18  1  0.314190  0.314190  0.371619  1
  Ni  Ni19  1  0.565125  0.065125  0.869751  1
