# generated using pymatgen
data_Tb4Er8Ni4SnPd
_symmetry_space_group_name_H-M   'P 1'
_cell_length_a   8.29729737
_cell_length_b   8.29336503
_cell_length_c   8.29729896
_cell_angle_alpha   107.13022514
_cell_angle_beta   109.69821952
_cell_angle_gamma   111.63571097
_symmetry_Int_Tables_number   1
_chemical_formula_structural   Tb4Er8Ni4SnPd
_chemical_formula_sum   'Tb4 Er8 Ni4 Sn1 Pd1'
_cell_volume   438.73837292
_cell_formula_units_Z   1
loop_
 _symmetry_equiv_pos_site_id
 _symmetry_equiv_pos_as_xyz
  1  'x, y, z'
loop_
 _atom_site_type_symbol
 _atom_site_label
 _atom_site_symmetry_multiplicity
 _atom_site_fract_x
 _atom_site_fract_y
 _atom_site_fract_z
 _atom_site_occupancy
  Tb  Tb0  1  0.613973  0.796402  0.817476  1
  Tb  Tb1  1  0.978929  0.796402  0.182429  1
  Tb  Tb2  1  0.021071  0.203598  0.817571  1
  Tb  Tb3  1  0.386027  0.203598  0.182524  1
  Er  Er4  1  0.694554  0.284902  0.979531  1
  Er  Er5  1  0.305446  0.715098  0.020469  1
  Er  Er6  1  0.694629  0.715098  0.409651  1
  Er  Er7  1  0.305371  0.284902  0.590349  1
  Er  Er8  1  0.806453  0.128989  0.322536  1
  Er  Er9  1  0.806701  0.484333  0.677631  1
  Er  Er10  1  0.193547  0.871011  0.677464  1
  Er  Er11  1  0.193299  0.515667  0.322369  1
  Ni  Ni12  1  0.865239  0.500000  0.365239  1
  Ni  Ni13  1  0.134761  0.500000  0.634761  1
  Ni  Ni14  1  0.999765  0.127051  0.127286  1
  Ni  Ni15  1  0.000235  0.872949  0.872714  1
  Sn  Sn16  1  0.500000  0.000000  0.500000  1
  Pd  Pd17  1  0.500000  0.500000  0.000000  1
