# generated using pymatgen
data_Pr8Be3Si12B
_symmetry_space_group_name_H-M   'P 1'
_cell_length_a   7.90236000
_cell_length_b   7.90236042
_cell_length_c   8.68930800
_cell_angle_alpha   90.00000000
_cell_angle_beta   90.00000000
_cell_angle_gamma   119.99999822
_symmetry_Int_Tables_number   1
_chemical_formula_structural   Pr8Be3Si12B
_chemical_formula_sum   'Pr8 Be3 Si12 B1'
_cell_volume   469.92600109
_cell_formula_units_Z   1
loop_
 _symmetry_equiv_pos_site_id
 _symmetry_equiv_pos_as_xyz
  1  'x, y, z'
loop_
 _atom_site_type_symbol
 _atom_site_label
 _atom_site_symmetry_multiplicity
 _atom_site_fract_x
 _atom_site_fract_y
 _atom_site_fract_z
 _atom_site_occupancy
  Pr  Pr0  1  0.501826  0.498174  0.751569  1
  Pr  Pr1  1  0.501873  0.498127  0.248543  1
  Pr  Pr2  1  0.996348  0.498174  0.751569  1
  Pr  Pr3  1  0.996252  0.498127  0.248543  1
  Pr  Pr4  1  0.501826  0.003652  0.751569  1
  Pr  Pr5  1  0.501873  0.003748  0.248543  1
  Pr  Pr6  1  0.000000  0.000000  0.750982  1
  Pr  Pr7  1  0.000000  0.000000  0.249065  1
  Be  Be8  1  0.333333  0.666667  0.002254  1
  Be  Be9  1  0.333333  0.666667  0.497814  1
  Be  Be10  1  0.666667  0.333333  0.501835  1
  Si  Si11  1  0.821167  0.178833  0.000111  1
  Si  Si12  1  0.171694  0.828306  0.999800  1
  Si  Si13  1  0.357664  0.178833  0.000111  1
  Si  Si14  1  0.172191  0.827809  0.500198  1
  Si  Si15  1  0.656613  0.828306  0.999800  1
  Si  Si16  1  0.827277  0.172723  0.499866  1
  Si  Si17  1  0.821167  0.642336  0.000111  1
  Si  Si18  1  0.655620  0.827809  0.500198  1
  Si  Si19  1  0.171694  0.343387  0.999800  1
  Si  Si20  1  0.345445  0.172723  0.499866  1
  Si  Si21  1  0.172191  0.344380  0.500198  1
  Si  Si22  1  0.827277  0.654555  0.499866  1
  B  B23  1  0.666667  0.333333  0.997787  1
