# generated using pymatgen
data_Yb5PuRu2
_symmetry_space_group_name_H-M   'P 1'
_cell_length_a   6.36536642
_cell_length_b   7.55602529
_cell_length_c   9.54558600
_cell_angle_alpha   90.00000000
_cell_angle_beta   90.00000000
_cell_angle_gamma   86.97645585
_symmetry_Int_Tables_number   1
_chemical_formula_structural   Yb5PuRu2
_chemical_formula_sum   'Yb10 Pu2 Ru4'
_cell_volume   458.47369499
_cell_formula_units_Z   2
loop_
 _symmetry_equiv_pos_site_id
 _symmetry_equiv_pos_as_xyz
  1  'x, y, z'
loop_
 _atom_site_type_symbol
 _atom_site_label
 _atom_site_symmetry_multiplicity
 _atom_site_fract_x
 _atom_site_fract_y
 _atom_site_fract_z
 _atom_site_occupancy
  Yb  Yb0  1  0.671619  0.160090  0.066707  1
  Yb  Yb1  1  0.363664  0.531425  0.250000  1
  Yb  Yb2  1  0.847337  0.676890  0.067263  1
  Yb  Yb3  1  0.152663  0.323110  0.932737  1
  Yb  Yb4  1  0.328381  0.839910  0.933293  1
  Yb  Yb5  1  0.636336  0.468575  0.750000  1
  Yb  Yb6  1  0.328381  0.839910  0.566707  1
  Yb  Yb7  1  0.152663  0.323110  0.567263  1
  Yb  Yb8  1  0.847337  0.676890  0.432737  1
  Yb  Yb9  1  0.671619  0.160090  0.433293  1
  Pu  Pu10  1  0.832454  0.931422  0.750000  1
  Pu  Pu11  1  0.167546  0.068578  0.250000  1
  Ru  Ru12  1  0.971506  0.342663  0.250000  1
  Ru  Ru13  1  0.525325  0.113706  0.750000  1
  Ru  Ru14  1  0.474675  0.886294  0.250000  1
  Ru  Ru15  1  0.028494  0.657337  0.750000  1
