# generated using pymatgen
data_HfZr2SnC2
_symmetry_space_group_name_H-M   'P 1'
_cell_length_a   3.36184100
_cell_length_b   3.36184100
_cell_length_c   19.99284600
_cell_angle_alpha   90.00000000
_cell_angle_beta   90.00000000
_cell_angle_gamma   119.99999014
_symmetry_Int_Tables_number   1
_chemical_formula_structural   HfZr2SnC2
_chemical_formula_sum   'Hf2 Zr4 Sn2 C4'
_cell_volume   195.68594531
_cell_formula_units_Z   2
loop_
 _symmetry_equiv_pos_site_id
 _symmetry_equiv_pos_as_xyz
  1  'x, y, z'
loop_
 _atom_site_type_symbol
 _atom_site_label
 _atom_site_symmetry_multiplicity
 _atom_site_fract_x
 _atom_site_fract_y
 _atom_site_fract_z
 _atom_site_occupancy
  Hf  Hf0  1  0.000000  0.000000  0.000000  1
  Hf  Hf1  1  0.000000  0.000000  0.500000  1
  Zr  Zr2  1  0.333333  0.666667  0.128035  1
  Zr  Zr3  1  0.333333  0.666667  0.371965  1
  Zr  Zr4  1  0.666667  0.333333  0.628035  1
  Zr  Zr5  1  0.666667  0.333333  0.871965  1
  Sn  Sn6  1  0.000000  0.000000  0.250000  1
  Sn  Sn7  1  0.000000  0.000000  0.750000  1
  C  C8  1  0.333333  0.666667  0.932182  1
  C  C9  1  0.666667  0.333333  0.067818  1
  C  C10  1  0.666667  0.333333  0.432182  1
  C  C11  1  0.333333  0.666667  0.567818  1
