# generated using pymatgen
data_Ca8LaPt6
_symmetry_space_group_name_H-M   'P 1'
_cell_length_a   7.63500426
_cell_length_b   7.71605891
_cell_length_c   7.65185988
_cell_angle_alpha   71.03640888
_cell_angle_beta   71.06032738
_cell_angle_gamma   70.81151379
_symmetry_Int_Tables_number   1
_chemical_formula_structural   Ca8LaPt6
_chemical_formula_sum   'Ca8 La1 Pt6'
_cell_volume   390.48582581
_cell_formula_units_Z   1
loop_
 _symmetry_equiv_pos_site_id
 _symmetry_equiv_pos_as_xyz
  1  'x, y, z'
loop_
 _atom_site_type_symbol
 _atom_site_label
 _atom_site_symmetry_multiplicity
 _atom_site_fract_x
 _atom_site_fract_y
 _atom_site_fract_z
 _atom_site_occupancy
  Ca  Ca0  1  0.992558  0.997749  0.006028  1
  Ca  Ca1  1  0.805295  0.794554  0.801175  1
  Ca  Ca2  1  0.199971  0.200827  0.200732  1
  Ca  Ca3  1  0.332337  0.604026  0.849103  1
  Ca  Ca4  1  0.847775  0.333897  0.601577  1
  Ca  Ca5  1  0.603204  0.841718  0.330195  1
  Ca  Ca6  1  0.670021  0.397609  0.152577  1
  Ca  Ca7  1  0.152467  0.670896  0.394611  1
  La  La8  1  0.396447  0.148912  0.672886  1
  Pt  Pt9  1  0.163959  0.958548  0.585708  1
  Pt  Pt10  1  0.586805  0.164166  0.950712  1
  Pt  Pt11  1  0.954469  0.586572  0.158873  1
  Pt  Pt12  1  0.830809  0.046386  0.420026  1
  Pt  Pt13  1  0.410258  0.845776  0.038484  1
  Pt  Pt14  1  0.053625  0.408365  0.837312  1
