# generated using pymatgen
data_YHo7Ti11Si16Pd
_symmetry_space_group_name_H-M   'P 1'
_cell_length_a   7.04892091
_cell_length_b   7.04859651
_cell_length_c   12.87109125
_cell_angle_alpha   90.12710462
_cell_angle_beta   89.86945596
_cell_angle_gamma   89.68491837
_symmetry_Int_Tables_number   1
_chemical_formula_structural   YHo7Ti11Si16Pd
_chemical_formula_sum   'Y1 Ho7 Ti11 Si16 Pd1'
_cell_volume   639.48723992
_cell_formula_units_Z   1
loop_
 _symmetry_equiv_pos_site_id
 _symmetry_equiv_pos_as_xyz
  1  'x, y, z'
loop_
 _atom_site_type_symbol
 _atom_site_label
 _atom_site_symmetry_multiplicity
 _atom_site_fract_x
 _atom_site_fract_y
 _atom_site_fract_z
 _atom_site_occupancy
  Y  Y0  1  0.340376  0.003305  0.466742  1
  Ho  Ho1  1  0.497037  0.841827  0.717652  1
  Ho  Ho2  1  0.501263  0.157653  0.214228  1
  Ho  Ho3  1  0.841872  0.496951  0.282451  1
  Ho  Ho4  1  0.157583  0.501211  0.785699  1
  Ho  Ho5  1  0.656098  0.999830  0.968211  1
  Ho  Ho6  1  0.003002  0.340631  0.533374  1
  Ho  Ho7  1  0.999780  0.656079  0.031675  1
  Ti  Ti8  1  0.175537  0.825967  0.249001  1
  Ti  Ti9  1  0.826035  0.175623  0.750945  1
  Ti  Ti10  1  0.673247  0.672980  0.500015  1
  Ti  Ti11  1  0.148362  0.005791  0.876980  1
  Ti  Ti12  1  0.494574  0.653098  0.123992  1
  Ti  Ti13  1  0.507566  0.350217  0.626724  1
  Ti  Ti14  1  0.653123  0.494542  0.875988  1
  Ti  Ti15  1  0.350112  0.507535  0.373348  1
  Ti  Ti16  1  0.849989  0.993082  0.374486  1
  Ti  Ti17  1  0.005773  0.148415  0.123017  1
  Ti  Ti18  1  0.992975  0.849993  0.625576  1
  Si  Si19  1  0.201573  0.133041  0.685369  1
  Si  Si20  1  0.372896  0.711217  0.931630  1
  Si  Si21  1  0.631459  0.294652  0.432873  1
  Si  Si22  1  0.711228  0.372875  0.068327  1
  Si  Si23  1  0.294329  0.630949  0.567142  1
  Si  Si24  1  0.797455  0.867715  0.183068  1
  Si  Si25  1  0.132747  0.201921  0.314573  1
  Si  Si26  1  0.867718  0.797460  0.816946  1
  Si  Si27  1  0.286158  0.943457  0.064839  1
  Si  Si28  1  0.547643  0.791231  0.314594  1
  Si  Si29  1  0.450720  0.209803  0.813766  1
  Si  Si30  1  0.791514  0.547426  0.685274  1
  Si  Si31  1  0.209773  0.450677  0.186283  1
  Si  Si32  1  0.708799  0.047857  0.565177  1
  Si  Si33  1  0.943433  0.286148  0.935133  1
  Si  Si34  1  0.047626  0.708231  0.434903  1
  Pd  Pd35  1  0.330624  0.330612  0.999997  1
