# generated using pymatgen
data_TmLu2(FeCo2)3
_symmetry_space_group_name_H-M   'P 1'
_cell_length_a   5.04957632
_cell_length_b   5.04957683
_cell_length_c   8.34790479
_cell_angle_alpha   72.39544740
_cell_angle_beta   72.39544562
_cell_angle_gamma   60.00000551
_symmetry_Int_Tables_number   1
_chemical_formula_structural   TmLu2(FeCo2)3
_chemical_formula_sum   'Tm1 Lu2 Fe3 Co6'
_cell_volume   172.73251876
_cell_formula_units_Z   1
loop_
 _symmetry_equiv_pos_site_id
 _symmetry_equiv_pos_as_xyz
  1  'x, y, z'
loop_
 _atom_site_type_symbol
 _atom_site_label
 _atom_site_symmetry_multiplicity
 _atom_site_fract_x
 _atom_site_fract_y
 _atom_site_fract_z
 _atom_site_occupancy
  Tm  Tm0  1  0.000000  0.000000  0.000000  1
  Lu  Lu1  1  0.141087  0.141087  0.576738  1
  Lu  Lu2  1  0.858913  0.858913  0.423262  1
  Fe  Fe3  1  0.333820  0.333820  0.998541  1
  Fe  Fe4  1  0.666180  0.666180  0.001459  1
  Fe  Fe5  1  0.500000  0.500000  0.500000  1
  Co  Co6  1  0.079825  0.584047  0.752080  1
  Co  Co7  1  0.584047  0.584047  0.752080  1
  Co  Co8  1  0.584047  0.079825  0.752080  1
  Co  Co9  1  0.920175  0.415953  0.247920  1
  Co  Co10  1  0.415953  0.415953  0.247920  1
  Co  Co11  1  0.415953  0.920175  0.247920  1
