# generated using pymatgen
data_Ce6DyEr(AlRu)8
_symmetry_space_group_name_H-M   'P 1'
_cell_length_a   3.99887100
_cell_length_b   7.29477154
_cell_length_c   15.91014912
_cell_angle_alpha   89.88959080
_cell_angle_beta   90.00000000
_cell_angle_gamma   90.00000000
_symmetry_Int_Tables_number   1
_chemical_formula_structural   Ce6DyEr(AlRu)8
_chemical_formula_sum   'Ce6 Dy1 Er1 Al8 Ru8'
_cell_volume   464.11171774
_cell_formula_units_Z   1
loop_
 _symmetry_equiv_pos_site_id
 _symmetry_equiv_pos_as_xyz
  1  'x, y, z'
loop_
 _atom_site_type_symbol
 _atom_site_label
 _atom_site_symmetry_multiplicity
 _atom_site_fract_x
 _atom_site_fract_y
 _atom_site_fract_z
 _atom_site_occupancy
  Ce  Ce0  1  0.750000  0.821142  0.438207  1
  Ce  Ce1  1  0.750000  0.453821  0.282485  1
  Ce  Ce2  1  0.750000  0.330903  0.062756  1
  Ce  Ce3  1  0.250000  0.676874  0.938465  1
  Ce  Ce4  1  0.250000  0.049040  0.778836  1
  Ce  Ce5  1  0.250000  0.542586  0.718239  1
  Dy  Dy6  1  0.750000  0.957229  0.218410  1
  Er  Er7  1  0.250000  0.157374  0.559372  1
  Al  Al8  1  0.750000  0.485769  0.562908  1
  Al  Al9  1  0.750000  0.372944  0.850470  1
  Al  Al10  1  0.750000  0.009039  0.936757  1
  Al  Al11  1  0.750000  0.871255  0.648218  1
  Al  Al12  1  0.250000  0.484663  0.438407  1
  Al  Al13  1  0.250000  0.998740  0.066108  1
  Al  Al14  1  0.250000  0.638804  0.152979  1
  Al  Al15  1  0.250000  0.122765  0.345014  1
  Ru  Ru16  1  0.750000  0.753414  0.816532  1
  Ru  Ru17  1  0.250000  0.242594  0.938393  1
  Ru  Ru18  1  0.750000  0.261759  0.427436  1
  Ru  Ru19  1  0.250000  0.752231  0.324821  1
  Ru  Ru20  1  0.750000  0.765042  0.062187  1
  Ru  Ru21  1  0.750000  0.247177  0.689754  1
  Ru  Ru22  1  0.250000  0.273505  0.178700  1
  Ru  Ru23  1  0.250000  0.731329  0.564548  1
