# generated using pymatgen
data_CeDy4(ReB3)2
_symmetry_space_group_name_H-M   'P 1'
_cell_length_a   5.52724820
_cell_length_b   5.52724769
_cell_length_c   8.52150125
_cell_angle_alpha   71.07610909
_cell_angle_beta   71.07611041
_cell_angle_gamma   59.99998355
_symmetry_Int_Tables_number   1
_chemical_formula_structural   CeDy4(ReB3)2
_chemical_formula_sum   'Ce1 Dy4 Re2 B6'
_cell_volume   209.05174552
_cell_formula_units_Z   1
loop_
 _symmetry_equiv_pos_site_id
 _symmetry_equiv_pos_as_xyz
  1  'x, y, z'
loop_
 _atom_site_type_symbol
 _atom_site_label
 _atom_site_symmetry_multiplicity
 _atom_site_fract_x
 _atom_site_fract_y
 _atom_site_fract_z
 _atom_site_occupancy
  Ce  Ce0  1  0.000000  0.000000  0.000000  1
  Dy  Dy1  1  0.248468  0.248468  0.254596  1
  Dy  Dy2  1  0.751532  0.751532  0.745404  1
  Dy  Dy3  1  0.418262  0.418262  0.745216  1
  Dy  Dy4  1  0.581738  0.581738  0.254784  1
  Re  Re5  1  0.109859  0.109859  0.670423  1
  Re  Re6  1  0.890141  0.890141  0.329577  1
  B  B7  1  0.171054  0.828946  0.500000  1
  B  B8  1  0.828946  0.500000  0.500000  1
  B  B9  1  0.500000  0.171054  0.500000  1
  B  B10  1  0.171054  0.500000  0.500000  1
  B  B11  1  0.500000  0.828946  0.500000  1
  B  B12  1  0.828946  0.171054  0.500000  1
