# generated using pymatgen
data_Er2Ga10Tc2Pt
_symmetry_space_group_name_H-M   'P 1'
_cell_length_a   9.01640200
_cell_length_b   9.01640200
_cell_length_c   6.36261300
_cell_angle_alpha   90.00000000
_cell_angle_beta   90.00000000
_cell_angle_gamma   90.00000000
_symmetry_Int_Tables_number   1
_chemical_formula_structural   Er2Ga10Tc2Pt
_chemical_formula_sum   'Er4 Ga20 Tc4 Pt2'
_cell_volume   517.25183712
_cell_formula_units_Z   2
loop_
 _symmetry_equiv_pos_site_id
 _symmetry_equiv_pos_as_xyz
  1  'x, y, z'
loop_
 _atom_site_type_symbol
 _atom_site_label
 _atom_site_symmetry_multiplicity
 _atom_site_fract_x
 _atom_site_fract_y
 _atom_site_fract_z
 _atom_site_occupancy
  Er  Er0  1  0.682804  0.182804  0.000000  1
  Er  Er1  1  0.317196  0.817196  0.000000  1
  Er  Er2  1  0.817196  0.682804  0.000000  1
  Er  Er3  1  0.182804  0.317196  0.000000  1
  Ga  Ga4  1  0.938354  0.209656  0.294017  1
  Ga  Ga5  1  0.709656  0.438354  0.294017  1
  Ga  Ga6  1  0.500000  0.000000  0.285067  1
  Ga  Ga7  1  0.561646  0.709656  0.705983  1
  Ga  Ga8  1  0.290344  0.561646  0.705983  1
  Ga  Ga9  1  0.790344  0.938354  0.294017  1
  Ga  Ga10  1  0.938354  0.209656  0.705983  1
  Ga  Ga11  1  0.290344  0.561646  0.294017  1
  Ga  Ga12  1  0.061646  0.790344  0.294017  1
  Ga  Ga13  1  0.709656  0.438354  0.705983  1
  Ga  Ga14  1  0.438354  0.290344  0.705983  1
  Ga  Ga15  1  0.061646  0.790344  0.705983  1
  Ga  Ga16  1  0.209656  0.061646  0.705983  1
  Ga  Ga17  1  0.790344  0.938354  0.705983  1
  Ga  Ga18  1  0.209656  0.061646  0.294017  1
  Ga  Ga19  1  0.000000  0.500000  0.714933  1
  Ga  Ga20  1  0.000000  0.500000  0.285067  1
  Ga  Ga21  1  0.561646  0.709656  0.294017  1
  Ga  Ga22  1  0.438354  0.290344  0.294017  1
  Ga  Ga23  1  0.500000  0.000000  0.714933  1
  Tc  Tc24  1  0.678599  0.178599  0.500000  1
  Tc  Tc25  1  0.821401  0.678599  0.500000  1
  Tc  Tc26  1  0.178599  0.321401  0.500000  1
  Tc  Tc27  1  0.321401  0.821401  0.500000  1
  Pt  Pt28  1  0.000000  0.000000  0.000000  1
  Pt  Pt29  1  0.500000  0.500000  0.000000  1
