# generated using pymatgen
data_SmDy2Bi(Rh2O7)2
_symmetry_space_group_name_H-M   'P 1'
_cell_length_a   7.28683368
_cell_length_b   7.29453558
_cell_length_c   7.28683421
_cell_angle_alpha   59.79552520
_cell_angle_beta   59.72088094
_cell_angle_gamma   59.79552801
_symmetry_Int_Tables_number   1
_chemical_formula_structural   SmDy2Bi(Rh2O7)2
_chemical_formula_sum   'Sm1 Dy2 Bi1 Rh4 O14'
_cell_volume   272.45350449
_cell_formula_units_Z   1
loop_
 _symmetry_equiv_pos_site_id
 _symmetry_equiv_pos_as_xyz
  1  'x, y, z'
loop_
 _atom_site_type_symbol
 _atom_site_label
 _atom_site_symmetry_multiplicity
 _atom_site_fract_x
 _atom_site_fract_y
 _atom_site_fract_z
 _atom_site_occupancy
  Sm  Sm0  1  0.125000  0.625000  0.125000  1
  Dy  Dy1  1  0.625000  0.125000  0.125000  1
  Dy  Dy2  1  0.125000  0.125000  0.625000  1
  Bi  Bi3  1  0.125000  0.125000  0.125000  1
  Rh  Rh4  1  0.625000  0.625000  0.625000  1
  Rh  Rh5  1  0.625000  0.625000  0.125000  1
  Rh  Rh6  1  0.125000  0.625000  0.625000  1
  Rh  Rh7  1  0.625000  0.125000  0.625000  1
  O  O8  1  0.254781  0.244760  0.254781  1
  O  O9  1  0.290736  0.708560  0.290736  1
  O  O10  1  0.960145  0.960326  0.543194  1
  O  O11  1  0.538717  0.961567  0.538717  1
  O  O12  1  0.708020  0.714151  0.288755  1
  O  O13  1  0.961245  0.535849  0.541980  1
  O  O14  1  0.711283  0.288433  0.711283  1
  O  O15  1  0.289855  0.289674  0.706806  1
  O  O16  1  0.706806  0.289674  0.289855  1
  O  O17  1  0.288755  0.714151  0.708020  1
  O  O18  1  0.959264  0.541440  0.959264  1
  O  O19  1  0.541980  0.535849  0.961245  1
  O  O20  1  0.995219  0.005240  0.995219  1
  O  O21  1  0.543194  0.960326  0.960145  1
