# generated using pymatgen
data_Sm2Hf3Sc(SnRh)6
_symmetry_space_group_name_H-M   'P 1'
_cell_length_a   7.47027581
_cell_length_b   7.47229157
_cell_length_c   7.52995600
_cell_angle_alpha   90.00000000
_cell_angle_beta   90.00000000
_cell_angle_gamma   119.94394120
_symmetry_Int_Tables_number   1
_chemical_formula_structural   Sm2Hf3Sc(SnRh)6
_chemical_formula_sum   'Sm2 Hf3 Sc1 Sn6 Rh6'
_cell_volume   364.21561945
_cell_formula_units_Z   1
loop_
 _symmetry_equiv_pos_site_id
 _symmetry_equiv_pos_as_xyz
  1  'x, y, z'
loop_
 _atom_site_type_symbol
 _atom_site_label
 _atom_site_symmetry_multiplicity
 _atom_site_fract_x
 _atom_site_fract_y
 _atom_site_fract_z
 _atom_site_occupancy
  Sm  Sm0  1  0.003147  0.410181  0.250000  1
  Sm  Sm1  1  0.593605  0.589239  0.250000  1
  Hf  Hf2  1  0.994233  0.389174  0.750000  1
  Hf  Hf3  1  0.605091  0.611719  0.750000  1
  Hf  Hf4  1  0.397460  0.000081  0.750000  1
  Sc  Sc5  1  0.399733  0.996742  0.250000  1
  Sn  Sn6  1  0.267050  0.263758  0.510826  1
  Sn  Sn7  1  0.002899  0.736526  0.511346  1
  Sn  Sn8  1  0.002899  0.736526  0.988654  1
  Sn  Sn9  1  0.730389  0.000314  0.496469  1
  Sn  Sn10  1  0.730389  0.000314  0.003531  1
  Sn  Sn11  1  0.267050  0.263758  0.989174  1
  Rh  Rh12  1  0.334075  0.669168  0.540295  1
  Rh  Rh13  1  0.665541  0.331484  0.541431  1
  Rh  Rh14  1  0.334075  0.669168  0.959705  1
  Rh  Rh15  1  0.993547  0.000685  0.750000  1
  Rh  Rh16  1  0.013278  0.999676  0.250000  1
  Rh  Rh17  1  0.665541  0.331484  0.958569  1
