# generated using pymatgen
data_Pr3Pa(NbN2)4
_symmetry_space_group_name_H-M   'P 1'
_cell_length_a   3.40295400
_cell_length_b   5.83266982
_cell_length_c   11.09657538
_cell_angle_alpha   89.91006307
_cell_angle_beta   90.00000000
_cell_angle_gamma   90.00000000
_symmetry_Int_Tables_number   1
_chemical_formula_structural   Pr3Pa(NbN2)4
_chemical_formula_sum   'Pr3 Pa1 Nb4 N8'
_cell_volume   220.24796436
_cell_formula_units_Z   1
loop_
 _symmetry_equiv_pos_site_id
 _symmetry_equiv_pos_as_xyz
  1  'x, y, z'
loop_
 _atom_site_type_symbol
 _atom_site_label
 _atom_site_symmetry_multiplicity
 _atom_site_fract_x
 _atom_site_fract_y
 _atom_site_fract_z
 _atom_site_occupancy
  Pr  Pr0  1  0.250000  0.581874  0.857879  1
  Pr  Pr1  1  0.750000  0.416393  0.143183  1
  Pr  Pr2  1  0.750000  0.916937  0.358259  1
  Pa  Pa3  1  0.250000  0.078481  0.638104  1
  Nb  Nb4  1  0.250000  0.921904  0.104869  1
  Nb  Nb5  1  0.750000  0.079925  0.897061  1
  Nb  Nb6  1  0.750000  0.577311  0.600433  1
  Nb  Nb7  1  0.250000  0.422690  0.401548  1
  N  N8  1  0.250000  0.661053  0.250901  1
  N  N9  1  0.750000  0.328306  0.745690  1
  N  N10  1  0.750000  0.852932  0.738785  1
  N  N11  1  0.250000  0.162379  0.251367  1
  N  N12  1  0.250000  0.750725  0.516484  1
  N  N13  1  0.750000  0.247280  0.497365  1
  N  N14  1  0.750000  0.770696  0.011826  1
  N  N15  1  0.250000  0.231115  0.986245  1
