# generated using pymatgen
data_CrGa12Ir2Ru
_symmetry_space_group_name_H-M   'P 1'
_cell_length_a   6.51489423
_cell_length_b   6.50774904
_cell_length_c   6.81618600
_cell_angle_alpha   90.00000000
_cell_angle_beta   90.00000000
_cell_angle_gamma   90.10837717
_symmetry_Int_Tables_number   1
_chemical_formula_structural   CrGa12Ir2Ru
_chemical_formula_sum   'Cr1 Ga12 Ir2 Ru1'
_cell_volume   288.98734279
_cell_formula_units_Z   1
loop_
 _symmetry_equiv_pos_site_id
 _symmetry_equiv_pos_as_xyz
  1  'x, y, z'
loop_
 _atom_site_type_symbol
 _atom_site_label
 _atom_site_symmetry_multiplicity
 _atom_site_fract_x
 _atom_site_fract_y
 _atom_site_fract_z
 _atom_site_occupancy
  Cr  Cr0  1  0.155143  0.846172  0.500000  1
  Ga  Ga1  1  0.009025  0.507211  0.500000  1
  Ga  Ga2  1  0.498722  0.003393  0.000000  1
  Ga  Ga3  1  0.493674  0.987914  0.500000  1
  Ga  Ga4  1  0.000556  0.494168  0.000000  1
  Ga  Ga5  1  0.336568  0.657773  0.242689  1
  Ga  Ga6  1  0.647071  0.347731  0.236194  1
  Ga  Ga7  1  0.164612  0.147828  0.731612  1
  Ga  Ga8  1  0.855508  0.838460  0.729667  1
  Ga  Ga9  1  0.647071  0.347731  0.763806  1
  Ga  Ga10  1  0.336568  0.657773  0.757311  1
  Ga  Ga11  1  0.855508  0.838460  0.270333  1
  Ga  Ga12  1  0.164612  0.147828  0.268388  1
  Ir  Ir13  1  0.833423  0.167393  0.500000  1
  Ir  Ir14  1  0.660839  0.664789  0.000000  1
  Ru  Ru15  1  0.341099  0.345376  0.000000  1
