# generated using pymatgen
data_Tb3ErCu2(Si2Ru)2
_symmetry_space_group_name_H-M   'P 1'
_cell_length_a   4.23948700
_cell_length_b   7.00090075
_cell_length_c   7.36776559
_cell_angle_alpha   91.62258258
_cell_angle_beta   90.00000000
_cell_angle_gamma   90.00000000
_symmetry_Int_Tables_number   1
_chemical_formula_structural   Tb3ErCu2(Si2Ru)2
_chemical_formula_sum   'Tb3 Er1 Cu2 Si4 Ru2'
_cell_volume   218.58927820
_cell_formula_units_Z   1
loop_
 _symmetry_equiv_pos_site_id
 _symmetry_equiv_pos_as_xyz
  1  'x, y, z'
loop_
 _atom_site_type_symbol
 _atom_site_label
 _atom_site_symmetry_multiplicity
 _atom_site_fract_x
 _atom_site_fract_y
 _atom_site_fract_z
 _atom_site_occupancy
  Tb  Tb0  1  0.250000  0.992925  0.797522  1
  Tb  Tb1  1  0.750000  0.007517  0.203302  1
  Tb  Tb2  1  0.250000  0.492375  0.685768  1
  Er  Er3  1  0.750000  0.509352  0.310082  1
  Cu  Cu4  1  0.750000  0.833171  0.572721  1
  Cu  Cu5  1  0.250000  0.165502  0.426112  1
  Si  Si6  1  0.250000  0.300871  0.090845  1
  Si  Si7  1  0.750000  0.698934  0.911667  1
  Si  Si8  1  0.250000  0.795247  0.388533  1
  Si  Si9  1  0.750000  0.204656  0.610654  1
  Ru  Ru10  1  0.750000  0.348227  0.935097  1
  Ru  Ru11  1  0.250000  0.651225  0.067697  1
