# generated using pymatgen
data_Eu16In4Pt3Rh
_symmetry_space_group_name_H-M   'P 1'
_cell_length_a   10.22243958
_cell_length_b   10.22243983
_cell_length_c   10.31416969
_cell_angle_alpha   60.29376229
_cell_angle_beta   60.29376116
_cell_angle_gamma   60.00000742
_symmetry_Int_Tables_number   1
_chemical_formula_structural   Eu16In4Pt3Rh
_chemical_formula_sum   'Eu16 In4 Pt3 Rh1'
_cell_volume   765.49536994
_cell_formula_units_Z   1
loop_
 _symmetry_equiv_pos_site_id
 _symmetry_equiv_pos_as_xyz
  1  'x, y, z'
loop_
 _atom_site_type_symbol
 _atom_site_label
 _atom_site_symmetry_multiplicity
 _atom_site_fract_x
 _atom_site_fract_y
 _atom_site_fract_z
 _atom_site_occupancy
  Eu  Eu0  1  0.192754  0.192754  0.808026  1
  Eu  Eu1  1  0.598718  0.598718  0.203848  1
  Eu  Eu2  1  0.445189  0.054843  0.445124  1
  Eu  Eu3  1  0.444043  0.444043  0.053283  1
  Eu  Eu4  1  0.806466  0.192754  0.808026  1
  Eu  Eu5  1  0.192611  0.807242  0.192905  1
  Eu  Eu6  1  0.444043  0.058633  0.053283  1
  Eu  Eu7  1  0.192754  0.806466  0.808026  1
  Eu  Eu8  1  0.058633  0.444043  0.053283  1
  Eu  Eu9  1  0.807242  0.807242  0.192905  1
  Eu  Eu10  1  0.207479  0.596229  0.600064  1
  Eu  Eu11  1  0.054843  0.445189  0.445124  1
  Eu  Eu12  1  0.054843  0.054843  0.445124  1
  Eu  Eu13  1  0.807242  0.192611  0.192905  1
  Eu  Eu14  1  0.596229  0.207479  0.600064  1
  Eu  Eu15  1  0.596229  0.596229  0.600064  1
  In  In16  1  0.828821  0.828821  0.828311  1
  In  In17  1  0.828458  0.828458  0.514626  1
  In  In18  1  0.514048  0.828821  0.828311  1
  In  In19  1  0.828821  0.514048  0.828311  1
  Pt  Pt20  1  0.391126  0.828649  0.389100  1
  Pt  Pt21  1  0.391126  0.391126  0.389100  1
  Pt  Pt22  1  0.828649  0.391126  0.389100  1
  Rh  Rh23  1  0.389637  0.389637  0.831088  1
