# generated using pymatgen
data_Tb12YbPr7Sn16
_symmetry_space_group_name_H-M   'P 1'
_cell_length_a   8.10298273
_cell_length_b   8.34561521
_cell_length_c   15.76777084
_cell_angle_alpha   90.02369452
_cell_angle_beta   90.26000446
_cell_angle_gamma   89.84911823
_symmetry_Int_Tables_number   1
_chemical_formula_structural   Tb12YbPr7Sn16
_chemical_formula_sum   'Tb12 Yb1 Pr7 Sn16'
_cell_volume   1066.27089975
_cell_formula_units_Z   1
loop_
 _symmetry_equiv_pos_site_id
 _symmetry_equiv_pos_as_xyz
  1  'x, y, z'
loop_
 _atom_site_type_symbol
 _atom_site_label
 _atom_site_symmetry_multiplicity
 _atom_site_fract_x
 _atom_site_fract_y
 _atom_site_fract_z
 _atom_site_occupancy
  Tb  Tb0  1  0.650318  0.169854  0.624926  1
  Tb  Tb1  1  0.151509  0.333768  0.875785  1
  Tb  Tb2  1  0.351533  0.831250  0.123429  1
  Tb  Tb3  1  0.850022  0.668441  0.377871  1
  Tb  Tb4  1  0.352482  0.830081  0.376823  1
  Tb  Tb5  1  0.849266  0.669040  0.122868  1
  Tb  Tb6  1  0.650210  0.168889  0.874480  1
  Tb  Tb7  1  0.151205  0.334487  0.623105  1
  Tb  Tb8  1  0.492906  0.678752  0.598170  1
  Tb  Tb9  1  0.817142  0.501376  0.749056  1
  Tb  Tb10  1  0.318179  0.000972  0.749416  1
  Tb  Tb11  1  0.182714  0.498772  0.250313  1
  Yb  Yb12  1  0.682440  0.999872  0.250145  1
  Pr  Pr13  1  0.994513  0.821573  0.902018  1
  Pr  Pr14  1  0.505972  0.318738  0.096305  1
  Pr  Pr15  1  0.002656  0.178380  0.405409  1
  Pr  Pr16  1  0.506859  0.319726  0.404274  1
  Pr  Pr17  1  0.003145  0.178025  0.095230  1
  Pr  Pr18  1  0.494449  0.677922  0.903431  1
  Pr  Pr19  1  0.995048  0.820997  0.596720  1
  Sn  Sn20  1  0.684528  0.957636  0.463018  1
  Sn  Sn21  1  0.187095  0.538253  0.041630  1
  Sn  Sn22  1  0.314340  0.040193  0.959332  1
  Sn  Sn23  1  0.806988  0.464452  0.542427  1
  Sn  Sn24  1  0.315780  0.037708  0.541272  1
  Sn  Sn25  1  0.813330  0.460889  0.958705  1
  Sn  Sn26  1  0.685458  0.959114  0.037445  1
  Sn  Sn27  1  0.191460  0.539656  0.459390  1
  Sn  Sn28  1  0.451418  0.381431  0.749494  1
  Sn  Sn29  1  0.952926  0.121697  0.749631  1
  Sn  Sn30  1  0.550436  0.616000  0.250117  1
  Sn  Sn31  1  0.050887  0.879103  0.250598  1
  Sn  Sn32  1  0.685019  0.856535  0.748035  1
  Sn  Sn33  1  0.189060  0.642911  0.748721  1
  Sn  Sn34  1  0.305063  0.139936  0.250235  1
  Sn  Sn35  1  0.813642  0.363573  0.250177  1
