# generated using pymatgen
data_Ca2Pr7Nd(Si2Ge)2
_symmetry_space_group_name_H-M   'P 1'
_cell_length_a   7.81605328
_cell_length_b   9.02258659
_cell_length_c   7.81605328
_cell_angle_alpha   115.70733480
_cell_angle_beta   89.93519766
_cell_angle_gamma   115.70733480
_symmetry_Int_Tables_number   1
_chemical_formula_structural   Ca2Pr7Nd(Si2Ge)2
_chemical_formula_sum   'Ca2 Pr7 Nd1 Si4 Ge2'
_cell_volume   435.44619918
_cell_formula_units_Z   1
loop_
 _symmetry_equiv_pos_site_id
 _symmetry_equiv_pos_as_xyz
  1  'x, y, z'
loop_
 _atom_site_type_symbol
 _atom_site_label
 _atom_site_symmetry_multiplicity
 _atom_site_fract_x
 _atom_site_fract_y
 _atom_site_fract_z
 _atom_site_occupancy
  Ca  Ca0  1  0.999784  0.999729  0.999998  1
  Ca  Ca1  1  0.499998  0.999729  0.499784  1
  Pr  Pr2  1  0.532559  0.710342  0.677899  1
  Pr  Pr3  1  0.177899  0.710342  0.032559  1
  Pr  Pr4  1  0.032201  0.710489  0.532201  1
  Pr  Pr5  1  0.467752  0.289748  0.321868  1
  Pr  Pr6  1  0.821868  0.289748  0.967752  1
  Pr  Pr7  1  0.321961  0.289333  0.821961  1
  Pr  Pr8  1  0.967625  0.289386  0.467625  1
  Nd  Nd9  1  0.679271  0.712353  0.179271  1
  Si  Si10  1  0.885032  0.999181  0.613072  1
  Si  Si11  1  0.113072  0.999181  0.385032  1
  Si  Si12  1  0.614515  0.999334  0.114515  1
  Si  Si13  1  0.385748  0.999867  0.885748  1
  Ge  Ge14  1  0.749663  0.500619  0.751053  1
  Ge  Ge15  1  0.251053  0.500619  0.249663  1
