# generated using pymatgen
data_PrYPa2(Al3Ir)6
_symmetry_space_group_name_H-M   'P 1'
_cell_length_a   7.61975051
_cell_length_b   7.62005218
_cell_length_c   9.41343400
_cell_angle_alpha   90.00000000
_cell_angle_beta   90.00000000
_cell_angle_gamma   119.64412617
_symmetry_Int_Tables_number   1
_chemical_formula_structural   PrYPa2(Al3Ir)6
_chemical_formula_sum   'Pr1 Y1 Pa2 Al18 Ir6'
_cell_volume   475.03286394
_cell_formula_units_Z   1
loop_
 _symmetry_equiv_pos_site_id
 _symmetry_equiv_pos_as_xyz
  1  'x, y, z'
loop_
 _atom_site_type_symbol
 _atom_site_label
 _atom_site_symmetry_multiplicity
 _atom_site_fract_x
 _atom_site_fract_y
 _atom_site_fract_z
 _atom_site_occupancy
  Pr  Pr0  1  0.669323  0.993568  0.250000  1
  Y  Y1  1  0.329706  0.006444  0.750000  1
  Pa  Pa2  1  0.997735  0.671083  0.250000  1
  Pa  Pa3  1  0.002164  0.328633  0.750000  1
  Al  Al4  1  0.132856  0.127830  0.250000  1
  Al  Al5  1  0.869920  0.872508  0.750000  1
  Al  Al6  1  0.002625  0.333775  0.075357  1
  Al  Al7  1  0.999625  0.668231  0.922525  1
  Al  Al8  1  0.999625  0.668231  0.577475  1
  Al  Al9  1  0.336099  0.003169  0.427692  1
  Al  Al10  1  0.002625  0.333775  0.424643  1
  Al  Al11  1  0.661548  0.996631  0.576808  1
  Al  Al12  1  0.661548  0.996631  0.923192  1
  Al  Al13  1  0.336099  0.003169  0.072308  1
  Al  Al14  1  0.335157  0.333397  0.553880  1
  Al  Al15  1  0.664968  0.665047  0.449505  1
  Al  Al16  1  0.664968  0.665047  0.050495  1
  Al  Al17  1  0.335157  0.333397  0.946120  1
  Al  Al18  1  0.338358  0.545191  0.250000  1
  Al  Al19  1  0.659447  0.452098  0.750000  1
  Al  Al20  1  0.548965  0.343327  0.250000  1
  Al  Al21  1  0.450243  0.657789  0.750000  1
  Ir  Ir22  1  0.676014  0.330480  0.998744  1
  Ir  Ir23  1  0.323625  0.669453  0.999433  1
  Ir  Ir24  1  0.323625  0.669453  0.500567  1
  Ir  Ir25  1  0.676014  0.330480  0.501256  1
  Ir  Ir26  1  0.000982  0.000581  0.998805  1
  Ir  Ir27  1  0.000982  0.000581  0.501195  1
