# generated using pymatgen
data_Pr2TmAg(Ir2O7)2
_symmetry_space_group_name_H-M   'P 1'
_cell_length_a   7.40859846
_cell_length_b   7.40859854
_cell_length_c   7.23637948
_cell_angle_alpha   59.16848875
_cell_angle_beta   59.16848828
_cell_angle_gamma   60.24933904
_symmetry_Int_Tables_number   1
_chemical_formula_structural   Pr2TmAg(Ir2O7)2
_chemical_formula_sum   'Pr2 Tm1 Ag1 Ir4 O14'
_cell_volume   277.77587276
_cell_formula_units_Z   1
loop_
 _symmetry_equiv_pos_site_id
 _symmetry_equiv_pos_as_xyz
  1  'x, y, z'
loop_
 _atom_site_type_symbol
 _atom_site_label
 _atom_site_symmetry_multiplicity
 _atom_site_fract_x
 _atom_site_fract_y
 _atom_site_fract_z
 _atom_site_occupancy
  Pr  Pr0  1  0.625000  0.125000  0.125000  1
  Pr  Pr1  1  0.125000  0.625000  0.125000  1
  Tm  Tm2  1  0.125000  0.125000  0.125000  1
  Ag  Ag3  1  0.125000  0.125000  0.625000  1
  Ir  Ir4  1  0.625000  0.625000  0.625000  1
  Ir  Ir5  1  0.125000  0.625000  0.625000  1
  Ir  Ir6  1  0.625000  0.125000  0.625000  1
  Ir  Ir7  1  0.625000  0.625000  0.125000  1
  O  O8  1  0.948146  0.554154  0.551351  1
  O  O9  1  0.300786  0.300786  0.713533  1
  O  O10  1  0.957125  0.531147  0.962180  1
  O  O11  1  0.718853  0.292875  0.287820  1
  O  O12  1  0.540696  0.540696  0.962542  1
  O  O13  1  0.554154  0.948146  0.551351  1
  O  O14  1  0.531147  0.957125  0.962180  1
  O  O15  1  0.239514  0.239514  0.255147  1
  O  O16  1  0.301854  0.695846  0.698649  1
  O  O17  1  0.695846  0.301854  0.698649  1
  O  O18  1  0.010486  0.010486  0.994853  1
  O  O19  1  0.949214  0.949214  0.536467  1
  O  O20  1  0.292875  0.718853  0.287820  1
  O  O21  1  0.709304  0.709304  0.287458  1
