# generated using pymatgen
data_Ho2TcB8Mo
_symmetry_space_group_name_H-M   'P 1'
_cell_length_a   3.60284000
_cell_length_b   5.98958938
_cell_length_c   11.58736860
_cell_angle_alpha   89.89789830
_cell_angle_beta   90.00000000
_cell_angle_gamma   90.00000000
_symmetry_Int_Tables_number   1
_chemical_formula_structural   Ho2TcB8Mo
_chemical_formula_sum   'Ho4 Tc2 B16 Mo2'
_cell_volume   250.04959670
_cell_formula_units_Z   2
loop_
 _symmetry_equiv_pos_site_id
 _symmetry_equiv_pos_as_xyz
  1  'x, y, z'
loop_
 _atom_site_type_symbol
 _atom_site_label
 _atom_site_symmetry_multiplicity
 _atom_site_fract_x
 _atom_site_fract_y
 _atom_site_fract_z
 _atom_site_occupancy
  Ho  Ho0  1  0.000000  0.626951  0.348651  1
  Ho  Ho1  1  0.000000  0.373049  0.651349  1
  Ho  Ho2  1  0.000000  0.127484  0.148886  1
  Ho  Ho3  1  0.000000  0.872516  0.851114  1
  Tc  Tc4  1  0.000000  0.634416  0.086622  1
  Tc  Tc5  1  0.000000  0.365584  0.913378  1
  B  B6  1  0.500000  0.785291  0.184623  1
  B  B7  1  0.500000  0.214709  0.815377  1
  B  B8  1  0.500000  0.289361  0.312912  1
  B  B9  1  0.500000  0.710639  0.687088  1
  B  B10  1  0.500000  0.863964  0.031033  1
  B  B11  1  0.500000  0.136036  0.968967  1
  B  B12  1  0.500000  0.367537  0.467629  1
  B  B13  1  0.500000  0.632463  0.532371  1
  B  B14  1  0.500000  0.884818  0.452347  1
  B  B15  1  0.500000  0.115182  0.547653  1
  B  B16  1  0.500000  0.386896  0.047196  1
  B  B17  1  0.500000  0.613104  0.952804  1
  B  B18  1  0.500000  0.975602  0.305378  1
  B  B19  1  0.500000  0.024398  0.694622  1
  B  B20  1  0.500000  0.476923  0.191662  1
  B  B21  1  0.500000  0.523077  0.808338  1
  Mo  Mo22  1  0.000000  0.129429  0.415159  1
  Mo  Mo23  1  0.000000  0.870571  0.584841  1
