# generated using pymatgen
data_ErUS6
_symmetry_space_group_name_H-M   'P 1'
_cell_length_a   3.92865000
_cell_length_b   5.37848808
_cell_length_c   9.38672180
_cell_angle_alpha   82.69722619
_cell_angle_beta   90.00000000
_cell_angle_gamma   90.00000000
_symmetry_Int_Tables_number   1
_chemical_formula_structural   ErUS6
_chemical_formula_sum   'Er1 U1 S6'
_cell_volume   196.73437929
_cell_formula_units_Z   1
loop_
 _symmetry_equiv_pos_site_id
 _symmetry_equiv_pos_as_xyz
  1  'x, y, z'
loop_
 _atom_site_type_symbol
 _atom_site_label
 _atom_site_symmetry_multiplicity
 _atom_site_fract_x
 _atom_site_fract_y
 _atom_site_fract_z
 _atom_site_occupancy
  Er  Er0  1  0.250000  0.717221  0.147409  1
  U  U1  1  0.750000  0.279846  0.865443  1
  S  S2  1  0.250000  0.128829  0.689133  1
  S  S3  1  0.750000  0.874152  0.314275  1
  S  S4  1  0.750000  0.485758  0.313974  1
  S  S5  1  0.250000  0.509826  0.689570  1
  S  S6  1  0.750000  0.766833  0.924297  1
  S  S7  1  0.250000  0.237534  0.055898  1
