# generated using pymatgen
data_K5(EuI4)3
_symmetry_space_group_name_H-M   'P 1'
_cell_length_a   14.76088100
_cell_length_b   14.76088218
_cell_length_c   4.76995500
_cell_angle_alpha   90.00000000
_cell_angle_beta   90.00000000
_cell_angle_gamma   119.99999960
_symmetry_Int_Tables_number   1
_chemical_formula_structural   K5(EuI4)3
_chemical_formula_sum   'K5 Eu3 I12'
_cell_volume   900.05595173
_cell_formula_units_Z   1
loop_
 _symmetry_equiv_pos_site_id
 _symmetry_equiv_pos_as_xyz
  1  'x, y, z'
loop_
 _atom_site_type_symbol
 _atom_site_label
 _atom_site_symmetry_multiplicity
 _atom_site_fract_x
 _atom_site_fract_y
 _atom_site_fract_z
 _atom_site_occupancy
  K  K0  1  0.714538  0.000000  0.500000  1
  K  K1  1  0.285462  0.285462  0.500000  1
  K  K2  1  0.000000  0.714538  0.500000  1
  K  K3  1  0.666667  0.333333  0.500000  1
  K  K4  1  0.333333  0.666667  0.500000  1
  Eu  Eu5  1  0.324874  0.000000  0.000000  1
  Eu  Eu6  1  0.000000  0.324874  0.000000  1
  Eu  Eu7  1  0.675126  0.675126  0.000000  1
  I  I8  1  0.174703  0.000000  0.500000  1
  I  I9  1  0.247732  0.447296  0.000000  1
  I  I10  1  0.552704  0.800437  0.000000  1
  I  I11  1  0.000000  0.174703  0.500000  1
  I  I12  1  0.825297  0.825297  0.500000  1
  I  I13  1  0.000000  0.469628  0.500000  1
  I  I14  1  0.469628  0.000000  0.500000  1
  I  I15  1  0.530372  0.530372  0.500000  1
  I  I16  1  0.752268  0.199563  0.000000  1
  I  I17  1  0.447296  0.247732  0.000000  1
  I  I18  1  0.800437  0.552704  0.000000  1
  I  I19  1  0.199563  0.752268  0.000000  1
