# generated using pymatgen
data_Dy13Ho7Bi11Sb
_symmetry_space_group_name_H-M   'P 1'
_cell_length_a   8.23565176
_cell_length_b   9.50520200
_cell_length_c   12.03188303
_cell_angle_alpha   89.99947891
_cell_angle_beta   90.04167108
_cell_angle_gamma   89.99942559
_symmetry_Int_Tables_number   1
_chemical_formula_structural   Dy13Ho7Bi11Sb
_chemical_formula_sum   'Dy13 Ho7 Bi11 Sb1'
_cell_volume   941.87400648
_cell_formula_units_Z   1
loop_
 _symmetry_equiv_pos_site_id
 _symmetry_equiv_pos_as_xyz
  1  'x, y, z'
loop_
 _atom_site_type_symbol
 _atom_site_label
 _atom_site_symmetry_multiplicity
 _atom_site_fract_x
 _atom_site_fract_y
 _atom_site_fract_z
 _atom_site_occupancy
  Dy  Dy0  1  0.353210  0.750054  0.212759  1
  Dy  Dy1  1  0.852417  0.750043  0.284153  1
  Dy  Dy2  1  0.647716  0.250016  0.784304  1
  Dy  Dy3  1  0.147623  0.250024  0.715869  1
  Dy  Dy4  1  0.192636  0.563921  0.441341  1
  Dy  Dy5  1  0.475184  0.249986  0.487960  1
  Dy  Dy6  1  0.975722  0.250017  0.011729  1
  Dy  Dy7  1  0.525156  0.750042  0.512147  1
  Dy  Dy8  1  0.028136  0.750002  0.987816  1
  Dy  Dy9  1  0.312935  0.250000  0.218813  1
  Dy  Dy10  1  0.812706  0.250001  0.281254  1
  Dy  Dy11  1  0.683116  0.750003  0.783714  1
  Dy  Dy12  1  0.188645  0.750041  0.720379  1
  Ho  Ho13  1  0.690063  0.566087  0.057333  1
  Ho  Ho14  1  0.192628  0.935983  0.441321  1
  Ho  Ho15  1  0.308579  0.060309  0.941549  1
  Ho  Ho16  1  0.807394  0.436202  0.558542  1
  Ho  Ho17  1  0.308593  0.439681  0.941539  1
  Ho  Ho18  1  0.807351  0.063771  0.558555  1
  Ho  Ho19  1  0.690071  0.933910  0.057337  1
  Bi  Bi20  1  0.907750  0.750101  0.543416  1
  Bi  Bi21  1  0.592838  0.250001  0.042964  1
  Bi  Bi22  1  0.092518  0.249732  0.457191  1
  Bi  Bi23  1  0.565358  0.995364  0.325378  1
  Bi  Bi24  1  0.065289  0.504385  0.174345  1
  Bi  Bi25  1  0.434573  0.495392  0.674525  1
  Bi  Bi26  1  0.934349  0.004208  0.825540  1
  Bi  Bi27  1  0.434583  0.004630  0.674492  1
  Bi  Bi28  1  0.934332  0.495806  0.825544  1
  Bi  Bi29  1  0.565418  0.504651  0.325358  1
  Bi  Bi30  1  0.065310  0.995635  0.174372  1
  Sb  Sb31  1  0.407802  0.750000  0.958462  1
