# generated using pymatgen
data_LaCe2TlF10
_symmetry_space_group_name_H-M   'P 1'
_cell_length_a   8.75987007
_cell_length_b   8.75987141
_cell_length_c   8.71810600
_cell_angle_alpha   60.15759299
_cell_angle_beta   60.15758794
_cell_angle_gamma   59.68481555
_symmetry_Int_Tables_number   1
_chemical_formula_structural   LaCe2TlF10
_chemical_formula_sum   'La2 Ce4 Tl2 F20'
_cell_volume   473.02367727
_cell_formula_units_Z   2
loop_
 _symmetry_equiv_pos_site_id
 _symmetry_equiv_pos_as_xyz
  1  'x, y, z'
loop_
 _atom_site_type_symbol
 _atom_site_label
 _atom_site_symmetry_multiplicity
 _atom_site_fract_x
 _atom_site_fract_y
 _atom_site_fract_z
 _atom_site_occupancy
  La  La0  1  0.240867  0.240867  0.759133  1
  La  La1  1  0.759133  0.759133  0.240867  1
  Ce  Ce2  1  0.759529  0.240471  0.240471  1
  Ce  Ce3  1  0.240471  0.759529  0.759529  1
  Ce  Ce4  1  0.240471  0.759529  0.240471  1
  Ce  Ce5  1  0.759529  0.240471  0.759529  1
  Tl  Tl6  1  0.250000  0.250000  0.250000  1
  Tl  Tl7  1  0.750000  0.750000  0.750000  1
  F  F8  1  0.828286  0.497479  0.502521  1
  F  F9  1  0.171714  0.502521  0.497479  1
  F  F10  1  0.497479  0.828286  0.171714  1
  F  F11  1  0.502521  0.171714  0.828286  1
  F  F12  1  0.497479  0.828286  0.502521  1
  F  F13  1  0.171714  0.502521  0.828286  1
  F  F14  1  0.502521  0.171714  0.497479  1
  F  F15  1  0.828286  0.497479  0.171714  1
  F  F16  1  0.500000  0.500000  0.829902  1
  F  F17  1  0.500000  0.500000  0.170098  1
  F  F18  1  0.170098  0.829902  0.500000  1
  F  F19  1  0.829902  0.170098  0.500000  1
  F  F20  1  0.111060  0.111060  0.112024  1
  F  F21  1  0.888940  0.888940  0.887976  1
  F  F22  1  0.111060  0.111060  0.665858  1
  F  F23  1  0.112024  0.665858  0.111060  1
  F  F24  1  0.888940  0.888940  0.334142  1
  F  F25  1  0.887976  0.334142  0.888940  1
  F  F26  1  0.665858  0.112024  0.111060  1
  F  F27  1  0.334142  0.887976  0.888940  1
