# generated using pymatgen
data_Tb17Lu3(GaBi)8
_symmetry_space_group_name_H-M   'P 1'
_cell_length_a   7.95827300
_cell_length_b   8.00085160
_cell_length_c   15.26776500
_cell_angle_alpha   90.00000000
_cell_angle_beta   90.00000000
_cell_angle_gamma   90.02221407
_symmetry_Int_Tables_number   1
_chemical_formula_structural   Tb17Lu3(GaBi)8
_chemical_formula_sum   'Tb17 Lu3 Ga8 Bi8'
_cell_volume   972.14373655
_cell_formula_units_Z   1
loop_
 _symmetry_equiv_pos_site_id
 _symmetry_equiv_pos_as_xyz
  1  'x, y, z'
loop_
 _atom_site_type_symbol
 _atom_site_label
 _atom_site_symmetry_multiplicity
 _atom_site_fract_x
 _atom_site_fract_y
 _atom_site_fract_z
 _atom_site_occupancy
  Tb  Tb0  1  0.392786  0.834542  0.871769  1
  Tb  Tb1  1  0.892317  0.665464  0.627611  1
  Tb  Tb2  1  0.607982  0.166117  0.372158  1
  Tb  Tb3  1  0.106783  0.334685  0.127558  1
  Tb  Tb4  1  0.607982  0.166117  0.127842  1
  Tb  Tb5  1  0.106783  0.334685  0.372442  1
  Tb  Tb6  1  0.392786  0.834542  0.628231  1
  Tb  Tb7  1  0.892317  0.665464  0.872389  1
  Tb  Tb8  1  0.550058  0.324387  0.885597  1
  Tb  Tb9  1  0.050086  0.175504  0.614960  1
  Tb  Tb10  1  0.450428  0.674935  0.385801  1
  Tb  Tb11  1  0.949720  0.824212  0.114704  1
  Tb  Tb12  1  0.450428  0.674935  0.114199  1
  Tb  Tb13  1  0.949720  0.824212  0.385296  1
  Tb  Tb14  1  0.550058  0.324387  0.614403  1
  Tb  Tb15  1  0.050086  0.175504  0.885040  1
  Tb  Tb16  1  0.272094  0.995146  0.250000  1
  Lu  Lu17  1  0.229321  0.495227  0.750000  1
  Lu  Lu18  1  0.730876  0.004762  0.750000  1
  Lu  Lu19  1  0.769222  0.504806  0.250000  1
  Ga  Ga20  1  0.596205  0.613461  0.750000  1
  Ga  Ga21  1  0.095515  0.885653  0.750000  1
  Ga  Ga22  1  0.403759  0.387320  0.250000  1
  Ga  Ga23  1  0.902781  0.114801  0.250000  1
  Ga  Ga24  1  0.344840  0.134118  0.750000  1
  Ga  Ga25  1  0.844213  0.366548  0.750000  1
  Ga  Ga26  1  0.656843  0.865666  0.250000  1
  Ga  Ga27  1  0.154338  0.631197  0.250000  1
  Bi  Bi28  1  0.270863  0.021189  0.040756  1
  Bi  Bi29  1  0.770731  0.479369  0.457904  1
  Bi  Bi30  1  0.729029  0.979401  0.541799  1
  Bi  Bi31  1  0.229212  0.520844  0.957966  1
  Bi  Bi32  1  0.729029  0.979401  0.958201  1
  Bi  Bi33  1  0.229212  0.520844  0.542034  1
  Bi  Bi34  1  0.270863  0.021189  0.459244  1
  Bi  Bi35  1  0.770731  0.479369  0.042096  1
