# generated using pymatgen
data_LiLuCo4P3
_symmetry_space_group_name_H-M   'P 1'
_cell_length_a   3.66907200
_cell_length_b   10.19771300
_cell_length_c   11.87042500
_cell_angle_alpha   90.00000000
_cell_angle_beta   90.00000000
_cell_angle_gamma   90.00000000
_symmetry_Int_Tables_number   1
_chemical_formula_structural   LiLuCo4P3
_chemical_formula_sum   'Li4 Lu4 Co16 P12'
_cell_volume   444.14552203
_cell_formula_units_Z   4
loop_
 _symmetry_equiv_pos_site_id
 _symmetry_equiv_pos_as_xyz
  1  'x, y, z'
loop_
 _atom_site_type_symbol
 _atom_site_label
 _atom_site_symmetry_multiplicity
 _atom_site_fract_x
 _atom_site_fract_y
 _atom_site_fract_z
 _atom_site_occupancy
  Li  Li0  1  0.250000  0.704215  0.992085  1
  Li  Li1  1  0.250000  0.795785  0.492085  1
  Li  Li2  1  0.750000  0.295785  0.007915  1
  Li  Li3  1  0.750000  0.204215  0.507915  1
  Lu  Lu4  1  0.250000  0.578637  0.702757  1
  Lu  Lu5  1  0.250000  0.921363  0.202757  1
  Lu  Lu6  1  0.750000  0.421363  0.297243  1
  Lu  Lu7  1  0.750000  0.078637  0.797243  1
  Co  Co8  1  0.250000  0.405865  0.483932  1
  Co  Co9  1  0.250000  0.094135  0.983932  1
  Co  Co10  1  0.750000  0.594135  0.516068  1
  Co  Co11  1  0.750000  0.905865  0.016068  1
  Co  Co12  1  0.250000  0.221276  0.173654  1
  Co  Co13  1  0.250000  0.278724  0.673654  1
  Co  Co14  1  0.750000  0.778724  0.826346  1
  Co  Co15  1  0.750000  0.721276  0.326346  1
  Co  Co16  1  0.250000  0.879029  0.699975  1
  Co  Co17  1  0.250000  0.620971  0.199975  1
  Co  Co18  1  0.750000  0.120971  0.300025  1
  Co  Co19  1  0.750000  0.379029  0.800025  1
  Co  Co20  1  0.250000  0.465392  0.932232  1
  Co  Co21  1  0.250000  0.034608  0.432232  1
  Co  Co22  1  0.750000  0.534608  0.067768  1
  Co  Co23  1  0.750000  0.965392  0.567768  1
  P  P24  1  0.250000  0.424231  0.115892  1
  P  P25  1  0.250000  0.075769  0.615892  1
  P  P26  1  0.750000  0.575769  0.884108  1
  P  P27  1  0.750000  0.924231  0.384108  1
  P  P28  1  0.250000  0.267375  0.860366  1
  P  P29  1  0.250000  0.232625  0.360366  1
  P  P30  1  0.750000  0.732625  0.139634  1
  P  P31  1  0.750000  0.767375  0.639634  1
  P  P32  1  0.250000  0.600087  0.391764  1
  P  P33  1  0.250000  0.899913  0.891764  1
  P  P34  1  0.750000  0.399913  0.608236  1
  P  P35  1  0.750000  0.100087  0.108236  1
