# generated using pymatgen
data_Nd10In8CuIr3
_symmetry_space_group_name_H-M   'P 1'
_cell_length_a   3.79153100
_cell_length_b   8.29200218
_cell_length_c   18.62596645
_cell_angle_alpha   90.08008721
_cell_angle_beta   90.00000000
_cell_angle_gamma   90.00000000
_symmetry_Int_Tables_number   1
_chemical_formula_structural   Nd10In8CuIr3
_chemical_formula_sum   'Nd10 In8 Cu1 Ir3'
_cell_volume   585.58832640
_cell_formula_units_Z   1
loop_
 _symmetry_equiv_pos_site_id
 _symmetry_equiv_pos_as_xyz
  1  'x, y, z'
loop_
 _atom_site_type_symbol
 _atom_site_label
 _atom_site_symmetry_multiplicity
 _atom_site_fract_x
 _atom_site_fract_y
 _atom_site_fract_z
 _atom_site_occupancy
  Nd  Nd0  1  0.000000  0.115719  0.414052  1
  Nd  Nd1  1  0.000000  0.882946  0.589555  1
  Nd  Nd2  1  0.000000  0.383833  0.910924  1
  Nd  Nd3  1  0.000000  0.617991  0.084102  1
  Nd  Nd4  1  0.000000  0.226261  0.220997  1
  Nd  Nd5  1  0.000000  0.759533  0.778416  1
  Nd  Nd6  1  0.000000  0.257759  0.722785  1
  Nd  Nd7  1  0.000000  0.758076  0.279769  1
  Nd  Nd8  1  0.000000  0.999180  0.999029  1
  Nd  Nd9  1  0.000000  0.500647  0.500341  1
  In  In10  1  0.500000  0.426467  0.347494  1
  In  In11  1  0.500000  0.565986  0.650804  1
  In  In12  1  0.500000  0.066282  0.850514  1
  In  In13  1  0.500000  0.926016  0.148376  1
  In  In14  1  0.500000  0.292672  0.069566  1
  In  In15  1  0.500000  0.706851  0.930095  1
  In  In16  1  0.500000  0.208020  0.570062  1
  In  In17  1  0.500000  0.791627  0.430635  1
  Cu  Cu18  1  0.500000  0.516010  0.198595  1
  Ir  Ir19  1  0.500000  0.017734  0.304058  1
  Ir  Ir20  1  0.500000  0.990132  0.695883  1
  Ir  Ir21  1  0.500000  0.490255  0.803948  1
