# generated using pymatgen
data_Ac5(MoO6)2
_symmetry_space_group_name_H-M   'P 1'
_cell_length_a   7.40046551
_cell_length_b   7.40039915
_cell_length_c   8.05521057
_cell_angle_alpha   74.51075227
_cell_angle_beta   74.50983879
_cell_angle_gamma   51.11474574
_symmetry_Int_Tables_number   1
_chemical_formula_structural   Ac5(MoO6)2
_chemical_formula_sum   'Ac5 Mo2 O12'
_cell_volume   328.00544536
_cell_formula_units_Z   1
loop_
 _symmetry_equiv_pos_site_id
 _symmetry_equiv_pos_as_xyz
  1  'x, y, z'
loop_
 _atom_site_type_symbol
 _atom_site_label
 _atom_site_symmetry_multiplicity
 _atom_site_fract_x
 _atom_site_fract_y
 _atom_site_fract_z
 _atom_site_occupancy
  Ac  Ac0  1  0.309586  0.309584  0.357145  1
  Ac  Ac1  1  0.690414  0.690416  0.642855  1
  Ac  Ac2  1  0.307460  0.307461  0.833683  1
  Ac  Ac3  1  0.692540  0.692539  0.166317  1
  Ac  Ac4  1  0.000000  0.000000  0.500000  1
  Mo  Mo5  1  0.757841  0.242158  0.999998  1
  Mo  Mo6  1  0.242159  0.757842  0.000002  1
  O  O7  1  0.891423  0.419658  0.923793  1
  O  O8  1  0.419658  0.891424  0.923791  1
  O  O9  1  0.108577  0.580342  0.076207  1
  O  O10  1  0.580342  0.108576  0.076209  1
  O  O11  1  0.093640  0.596201  0.579288  1
  O  O12  1  0.596200  0.093641  0.579288  1
  O  O13  1  0.906360  0.403799  0.420712  1
  O  O14  1  0.403800  0.906359  0.420712  1
  O  O15  1  0.000990  0.000997  0.831784  1
  O  O16  1  0.999010  0.999003  0.168216  1
  O  O17  1  0.498685  0.498693  0.832105  1
  O  O18  1  0.501315  0.501307  0.167895  1
