# generated using pymatgen
data_CaHo3(Si5Os3)2
_symmetry_space_group_name_H-M   'P 1'
_cell_length_a   8.15489754
_cell_length_b   8.13851753
_cell_length_c   5.78408820
_cell_angle_alpha   70.50450774
_cell_angle_beta   70.38672715
_cell_angle_gamma   93.95687102
_symmetry_Int_Tables_number   1
_chemical_formula_structural   CaHo3(Si5Os3)2
_chemical_formula_sum   'Ca1 Ho3 Si10 Os6'
_cell_volume   333.71896627
_cell_formula_units_Z   1
loop_
 _symmetry_equiv_pos_site_id
 _symmetry_equiv_pos_as_xyz
  1  'x, y, z'
loop_
 _atom_site_type_symbol
 _atom_site_label
 _atom_site_symmetry_multiplicity
 _atom_site_fract_x
 _atom_site_fract_y
 _atom_site_fract_z
 _atom_site_occupancy
  Ca  Ca0  1  0.867061  0.602565  0.755116  1
  Ho  Ho1  1  0.399769  0.129322  0.745787  1
  Ho  Ho2  1  0.130060  0.400828  0.246293  1
  Ho  Ho3  1  0.601972  0.866314  0.256794  1
  Si  Si4  1  0.070636  0.261955  0.834559  1
  Si  Si5  1  0.737678  0.933467  0.666632  1
  Si  Si6  1  0.932711  0.738787  0.166656  1
  Si  Si7  1  0.262277  0.067937  0.333392  1
  Si  Si8  1  0.205061  0.791949  0.750342  1
  Si  Si9  1  0.791601  0.205146  0.254789  1
  Si  Si10  1  0.513128  0.487993  0.750040  1
  Si  Si11  1  0.487516  0.511535  0.246494  1
  Si  Si12  1  0.773518  0.223909  0.747744  1
  Si  Si13  1  0.224388  0.774732  0.251147  1
  Os  Os14  1  0.258246  0.542670  0.629661  1
  Os  Os15  1  0.455035  0.744725  0.869491  1
  Os  Os16  1  0.741843  0.456805  0.369153  1
  Os  Os17  1  0.544271  0.253612  0.129815  1
  Os  Os18  1  0.003484  0.002012  0.747716  1
  Os  Os19  1  0.999744  0.003739  0.248381  1
