# generated using pymatgen
data_Tb3HoAl4Pd3Rh
_symmetry_space_group_name_H-M   'P 1'
_cell_length_a   4.42964600
_cell_length_b   6.85287122
_cell_length_c   7.86177464
_cell_angle_alpha   89.88582232
_cell_angle_beta   90.00000000
_cell_angle_gamma   90.00000000
_symmetry_Int_Tables_number   1
_chemical_formula_structural   Tb3HoAl4Pd3Rh
_chemical_formula_sum   'Tb3 Ho1 Al4 Pd3 Rh1'
_cell_volume   238.64993435
_cell_formula_units_Z   1
loop_
 _symmetry_equiv_pos_site_id
 _symmetry_equiv_pos_as_xyz
  1  'x, y, z'
loop_
 _atom_site_type_symbol
 _atom_site_label
 _atom_site_symmetry_multiplicity
 _atom_site_fract_x
 _atom_site_fract_y
 _atom_site_fract_z
 _atom_site_occupancy
  Tb  Tb0  1  0.250000  0.534423  0.179796  1
  Tb  Tb1  1  0.750000  0.462405  0.817540  1
  Tb  Tb2  1  0.250000  0.037885  0.323631  1
  Ho  Ho3  1  0.750000  0.972158  0.679314  1
  Al  Al4  1  0.250000  0.636034  0.561332  1
  Al  Al5  1  0.750000  0.357823  0.441832  1
  Al  Al6  1  0.750000  0.858806  0.059553  1
  Al  Al7  1  0.250000  0.142494  0.937002  1
  Pd  Pd8  1  0.250000  0.770319  0.879085  1
  Pd  Pd9  1  0.750000  0.230975  0.121668  1
  Pd  Pd10  1  0.750000  0.731810  0.379394  1
  Rh  Rh11  1  0.250000  0.264869  0.619852  1
