# generated using pymatgen
data_NaTa6(CSe2)3
_symmetry_space_group_name_H-M   'P 1'
_cell_length_a   5.87894236
_cell_length_b   5.87894158
_cell_length_c   10.39151819
_cell_angle_alpha   84.44996360
_cell_angle_beta   84.44997215
_cell_angle_gamma   119.72303169
_symmetry_Int_Tables_number   1
_chemical_formula_structural   NaTa6(CSe2)3
_chemical_formula_sum   'Na1 Ta6 C3 Se6'
_cell_volume   306.05747870
_cell_formula_units_Z   1
loop_
 _symmetry_equiv_pos_site_id
 _symmetry_equiv_pos_as_xyz
  1  'x, y, z'
loop_
 _atom_site_type_symbol
 _atom_site_label
 _atom_site_symmetry_multiplicity
 _atom_site_fract_x
 _atom_site_fract_y
 _atom_site_fract_z
 _atom_site_occupancy
  Na  Na0  1  0.000000  0.000000  0.000000  1
  Ta  Ta1  1  0.130320  0.130320  0.609929  1
  Ta  Ta2  1  0.464574  0.798306  0.609777  1
  Ta  Ta3  1  0.798306  0.464574  0.609777  1
  Ta  Ta4  1  0.201694  0.535426  0.390223  1
  Ta  Ta5  1  0.535426  0.201694  0.390223  1
  Ta  Ta6  1  0.869680  0.869680  0.390071  1
  C  C7  1  0.166677  0.833323  0.500000  1
  C  C8  1  0.500000  0.500000  0.500000  1
  C  C9  1  0.833323  0.166677  0.500000  1
  Se  Se10  1  0.265424  0.265424  0.215734  1
  Se  Se11  1  0.592700  0.929148  0.215810  1
  Se  Se12  1  0.929148  0.592700  0.215810  1
  Se  Se13  1  0.070852  0.407300  0.784190  1
  Se  Se14  1  0.407300  0.070852  0.784190  1
  Se  Se15  1  0.734576  0.734576  0.784266  1
