# generated using pymatgen
data_Pr2Al2IrRh
_symmetry_space_group_name_H-M   'P 1'
_cell_length_a   4.32481800
_cell_length_b   7.12823679
_cell_length_c   8.13867433
_cell_angle_alpha   90.86218240
_cell_angle_beta   90.00000000
_cell_angle_gamma   90.00000000
_symmetry_Int_Tables_number   1
_chemical_formula_structural   Pr2Al2IrRh
_chemical_formula_sum   'Pr4 Al4 Ir2 Rh2'
_cell_volume   250.87330536
_cell_formula_units_Z   2
loop_
 _symmetry_equiv_pos_site_id
 _symmetry_equiv_pos_as_xyz
  1  'x, y, z'
loop_
 _atom_site_type_symbol
 _atom_site_label
 _atom_site_symmetry_multiplicity
 _atom_site_fract_x
 _atom_site_fract_y
 _atom_site_fract_z
 _atom_site_occupancy
  Pr  Pr0  1  0.250000  0.533537  0.181925  1
  Pr  Pr1  1  0.750000  0.466463  0.818075  1
  Pr  Pr2  1  0.750000  0.964569  0.681654  1
  Pr  Pr3  1  0.250000  0.035431  0.318346  1
  Al  Al4  1  0.250000  0.635392  0.563418  1
  Al  Al5  1  0.750000  0.364608  0.436582  1
  Al  Al6  1  0.750000  0.865011  0.059434  1
  Al  Al7  1  0.250000  0.134989  0.940566  1
  Ir  Ir8  1  0.250000  0.774888  0.883644  1
  Ir  Ir9  1  0.750000  0.225112  0.116356  1
  Rh  Rh10  1  0.750000  0.724685  0.386487  1
  Rh  Rh11  1  0.250000  0.275315  0.613513  1
