# generated using pymatgen
data_Hf16Nb2Pt5Rh
_symmetry_space_group_name_H-M   'P 1'
_cell_length_a   8.78067393
_cell_length_b   8.87994889
_cell_length_c   8.87994811
_cell_angle_alpha   60.37188941
_cell_angle_beta   60.43273169
_cell_angle_gamma   60.43274029
_symmetry_Int_Tables_number   1
_chemical_formula_structural   Hf16Nb2Pt5Rh
_chemical_formula_sum   'Hf16 Nb2 Pt5 Rh1'
_cell_volume   494.15727921
_cell_formula_units_Z   1
loop_
 _symmetry_equiv_pos_site_id
 _symmetry_equiv_pos_as_xyz
  1  'x, y, z'
loop_
 _atom_site_type_symbol
 _atom_site_label
 _atom_site_symmetry_multiplicity
 _atom_site_fract_x
 _atom_site_fract_y
 _atom_site_fract_z
 _atom_site_occupancy
  Hf  Hf0  1  0.159237  0.615229  0.615229  1
  Hf  Hf1  1  0.617543  0.143268  0.624323  1
  Hf  Hf2  1  0.617543  0.624323  0.143268  1
  Hf  Hf3  1  0.609230  0.614831  0.614831  1
  Hf  Hf4  1  0.817377  0.817562  0.186925  1
  Hf  Hf5  1  0.177305  0.186206  0.817835  1
  Hf  Hf6  1  0.817377  0.186925  0.817562  1
  Hf  Hf7  1  0.177305  0.817835  0.186206  1
  Hf  Hf8  1  0.175756  0.818271  0.818271  1
  Hf  Hf9  1  0.816860  0.182981  0.182981  1
  Hf  Hf10  1  0.447748  0.441895  0.057158  1
  Hf  Hf11  1  0.053957  0.056345  0.441407  1
  Hf  Hf12  1  0.447748  0.057158  0.441895  1
  Hf  Hf13  1  0.053957  0.441407  0.056345  1
  Hf  Hf14  1  0.046248  0.453832  0.453832  1
  Hf  Hf15  1  0.444437  0.056534  0.056534  1
  Nb  Nb16  1  0.837772  0.489670  0.835423  1
  Nb  Nb17  1  0.837772  0.835423  0.489670  1
  Pt  Pt18  1  0.803358  0.396895  0.396895  1
  Pt  Pt19  1  0.399739  0.809059  0.390964  1
  Pt  Pt20  1  0.399739  0.390964  0.809059  1
  Pt  Pt21  1  0.403492  0.397190  0.397190  1
  Pt  Pt22  1  0.491968  0.832758  0.832758  1
  Rh  Rh23  1  0.846536  0.833439  0.833439  1
