# generated using pymatgen
data_LuTi5(SnRu2)6
_symmetry_space_group_name_H-M   'P 1'
_cell_length_a   4.48160402
_cell_length_b   6.33538603
_cell_length_c   13.44220700
_cell_angle_alpha   89.99974922
_cell_angle_beta   89.99905383
_cell_angle_gamma   89.98967100
_symmetry_Int_Tables_number   1
_chemical_formula_structural   LuTi5(SnRu2)6
_chemical_formula_sum   'Lu1 Ti5 Sn6 Ru12'
_cell_volume   381.66042979
_cell_formula_units_Z   1
loop_
 _symmetry_equiv_pos_site_id
 _symmetry_equiv_pos_as_xyz
  1  'x, y, z'
loop_
 _atom_site_type_symbol
 _atom_site_label
 _atom_site_symmetry_multiplicity
 _atom_site_fract_x
 _atom_site_fract_y
 _atom_site_fract_z
 _atom_site_occupancy
  Lu  Lu0  1  0.999969  0.499999  0.000000  1
  Ti  Ti1  1  0.499921  0.000002  0.167170  1
  Ti  Ti2  1  0.999919  0.499999  0.333304  1
  Ti  Ti3  1  0.500001  0.999999  0.499999  1
  Ti  Ti4  1  0.000089  0.499999  0.666696  1
  Ti  Ti5  1  0.500081  0.000002  0.832828  1
  Sn  Sn6  1  0.999996  0.000006  0.000000  1
  Sn  Sn7  1  0.499969  0.499998  0.167554  1
  Sn  Sn8  1  0.999907  0.999997  0.336046  1
  Sn  Sn9  1  0.500004  0.500005  0.499999  1
  Sn  Sn10  1  0.000098  0.999995  0.663954  1
  Sn  Sn11  1  0.500031  0.499994  0.832449  1
  Ru  Ru12  1  0.499921  0.237473  0.999998  1
  Ru  Ru13  1  0.500083  0.762525  0.999998  1
  Ru  Ru14  1  0.999999  0.244354  0.172297  1
  Ru  Ru15  1  0.999838  0.755647  0.172292  1
  Ru  Ru16  1  0.499817  0.250369  0.334753  1
  Ru  Ru17  1  0.500013  0.749627  0.334755  1
  Ru  Ru18  1  0.000077  0.250866  0.500001  1
  Ru  Ru19  1  0.999927  0.749143  0.500000  1
  Ru  Ru20  1  0.499993  0.250365  0.665248  1
  Ru  Ru21  1  0.500183  0.749626  0.665248  1
  Ru  Ru22  1  0.000157  0.244359  0.827708  1
  Ru  Ru23  1  0.000000  0.755651  0.827706  1
