# generated using pymatgen
data_TbNd2TmAu2
_symmetry_space_group_name_H-M   'P 1'
_cell_length_a   5.00887500
_cell_length_b   7.29353200
_cell_length_c   9.05710700
_cell_angle_alpha   90.00000000
_cell_angle_beta   90.00000000
_cell_angle_gamma   90.00000000
_symmetry_Int_Tables_number   1
_chemical_formula_structural   TbNd2TmAu2
_chemical_formula_sum   'Tb2 Nd4 Tm2 Au4'
_cell_volume   330.87776607
_cell_formula_units_Z   2
loop_
 _symmetry_equiv_pos_site_id
 _symmetry_equiv_pos_as_xyz
  1  'x, y, z'
loop_
 _atom_site_type_symbol
 _atom_site_label
 _atom_site_symmetry_multiplicity
 _atom_site_fract_x
 _atom_site_fract_y
 _atom_site_fract_z
 _atom_site_occupancy
  Tb  Tb0  1  0.750000  0.151366  0.083277  1
  Tb  Tb1  1  0.750000  0.651366  0.416723  1
  Nd  Nd2  1  0.250000  0.490153  0.175363  1
  Nd  Nd3  1  0.250000  0.990153  0.324637  1
  Nd  Nd4  1  0.750000  0.511127  0.819678  1
  Nd  Nd5  1  0.750000  0.011127  0.680322  1
  Tm  Tm6  1  0.250000  0.850762  0.920633  1
  Tm  Tm7  1  0.250000  0.350762  0.579367  1
  Au  Au8  1  0.250000  0.243689  0.896293  1
  Au  Au9  1  0.250000  0.743689  0.603707  1
  Au  Au10  1  0.750000  0.752904  0.093274  1
  Au  Au11  1  0.750000  0.252904  0.406726  1
