# generated using pymatgen
data_Sc4TiCo16Si7Mo
_symmetry_space_group_name_H-M   'P 1'
_cell_length_a   7.97816501
_cell_length_b   7.99352502
_cell_length_c   7.98986700
_cell_angle_alpha   59.88800936
_cell_angle_beta   60.07874613
_cell_angle_gamma   60.37460568
_symmetry_Int_Tables_number   1
_chemical_formula_structural   Sc4TiCo16Si7Mo
_chemical_formula_sum   'Sc4 Ti1 Co16 Si7 Mo1'
_cell_volume   361.21701497
_cell_formula_units_Z   1
loop_
 _symmetry_equiv_pos_site_id
 _symmetry_equiv_pos_as_xyz
  1  'x, y, z'
loop_
 _atom_site_type_symbol
 _atom_site_label
 _atom_site_symmetry_multiplicity
 _atom_site_fract_x
 _atom_site_fract_y
 _atom_site_fract_z
 _atom_site_occupancy
  Sc  Sc0  1  0.801725  0.796377  0.200170  1
  Sc  Sc1  1  0.791374  0.208626  0.210540  1
  Sc  Sc2  1  0.203623  0.198275  0.798272  1
  Sc  Sc3  1  0.795778  0.204222  0.792116  1
  Ti  Ti4  1  0.213705  0.786295  0.207418  1
  Co  Co5  1  0.614666  0.622868  0.140828  1
  Co  Co6  1  0.171456  0.488129  0.170892  1
  Co  Co7  1  0.861562  0.381005  0.378308  1
  Co  Co8  1  0.511871  0.828544  0.830478  1
  Co  Co9  1  0.478757  0.174222  0.173716  1
  Co  Co10  1  0.828493  0.827603  0.516964  1
  Co  Co11  1  0.172231  0.172264  0.483315  1
  Co  Co12  1  0.146422  0.622123  0.615926  1
  Co  Co13  1  0.172397  0.171507  0.173059  1
  Co  Co14  1  0.377958  0.386675  0.855537  1
  Co  Co15  1  0.613325  0.622042  0.620170  1
  Co  Co16  1  0.377877  0.853578  0.384471  1
  Co  Co17  1  0.377132  0.385334  0.378361  1
  Co  Co18  1  0.827736  0.827769  0.827810  1
  Co  Co19  1  0.618995  0.138438  0.620874  1
  Co  Co20  1  0.825778  0.521243  0.826696  1
  Si  Si21  1  0.497413  0.995846  0.502278  1
  Si  Si22  1  0.497720  0.502280  0.997761  1
  Si  Si23  1  0.505335  0.494665  0.497492  1
  Si  Si24  1  0.005836  0.994164  0.501556  1
  Si  Si25  1  0.004154  0.502587  0.995538  1
  Si  Si26  1  0.001369  0.501604  0.499544  1
  Si  Si27  1  0.498396  0.998631  0.002517  1
  Mo  Mo28  1  0.206914  0.793086  0.797395  1
