# generated using pymatgen
data_Er6Zn22PdCl
_symmetry_space_group_name_H-M   'P 1'
_cell_length_a   9.01335490
_cell_length_b   9.01335467
_cell_length_c   9.01335500
_cell_angle_alpha   59.99999513
_cell_angle_beta   59.99999597
_cell_angle_gamma   59.99999860
_symmetry_Int_Tables_number   1
_chemical_formula_structural   Er6Zn22PdCl
_chemical_formula_sum   'Er6 Zn22 Pd1 Cl1'
_cell_volume   517.77893445
_cell_formula_units_Z   1
loop_
 _symmetry_equiv_pos_site_id
 _symmetry_equiv_pos_as_xyz
  1  'x, y, z'
loop_
 _atom_site_type_symbol
 _atom_site_label
 _atom_site_symmetry_multiplicity
 _atom_site_fract_x
 _atom_site_fract_y
 _atom_site_fract_z
 _atom_site_occupancy
  Er  Er0  1  0.716144  0.283856  0.283856  1
  Er  Er1  1  0.716144  0.283856  0.716144  1
  Er  Er2  1  0.716144  0.716144  0.283856  1
  Er  Er3  1  0.283856  0.716144  0.716144  1
  Er  Er4  1  0.283856  0.716144  0.283856  1
  Er  Er5  1  0.283856  0.283856  0.716144  1
  Zn  Zn6  1  0.632318  0.122561  0.122561  1
  Zn  Zn7  1  0.122561  0.632318  0.122561  1
  Zn  Zn8  1  0.122561  0.122561  0.632318  1
  Zn  Zn9  1  0.122561  0.122561  0.122561  1
  Zn  Zn10  1  0.367682  0.877439  0.877439  1
  Zn  Zn11  1  0.877439  0.367682  0.877439  1
  Zn  Zn12  1  0.877439  0.877439  0.367682  1
  Zn  Zn13  1  0.877439  0.877439  0.877439  1
  Zn  Zn14  1  0.500000  0.000000  0.000000  1
  Zn  Zn15  1  0.500000  0.000000  0.500000  1
  Zn  Zn16  1  0.500000  0.500000  0.000000  1
  Zn  Zn17  1  0.000000  0.500000  0.500000  1
  Zn  Zn18  1  0.000000  0.500000  0.000000  1
  Zn  Zn19  1  0.000000  0.000000  0.500000  1
  Zn  Zn20  1  0.010425  0.329858  0.329858  1
  Zn  Zn21  1  0.329858  0.010425  0.329858  1
  Zn  Zn22  1  0.329858  0.329858  0.010425  1
  Zn  Zn23  1  0.329858  0.329858  0.329858  1
  Zn  Zn24  1  0.989575  0.670142  0.670142  1
  Zn  Zn25  1  0.670142  0.989575  0.670142  1
  Zn  Zn26  1  0.670142  0.670142  0.989575  1
  Zn  Zn27  1  0.670142  0.670142  0.670142  1
  Pd  Pd28  1  0.000000  0.000000  0.000000  1
  Cl  Cl29  1  0.500000  0.500000  0.500000  1
