# generated using pymatgen
data_YTh2In3Ir2Pt
_symmetry_space_group_name_H-M   'P 1'
_cell_length_a   7.68016880
_cell_length_b   7.68018511
_cell_length_c   4.05538700
_cell_angle_alpha   90.00000000
_cell_angle_beta   90.00000000
_cell_angle_gamma   121.15018474
_symmetry_Int_Tables_number   1
_chemical_formula_structural   YTh2In3Ir2Pt
_chemical_formula_sum   'Y1 Th2 In3 Ir2 Pt1'
_cell_volume   204.71718995
_cell_formula_units_Z   1
loop_
 _symmetry_equiv_pos_site_id
 _symmetry_equiv_pos_as_xyz
  1  'x, y, z'
loop_
 _atom_site_type_symbol
 _atom_site_label
 _atom_site_symmetry_multiplicity
 _atom_site_fract_x
 _atom_site_fract_y
 _atom_site_fract_z
 _atom_site_occupancy
  Y  Y0  1  0.407461  0.407474  0.000000  1
  Th  Th1  1  0.585672  0.000821  0.000000  1
  Th  Th2  1  0.000822  0.585675  0.000000  1
  In  In3  1  0.014126  0.254017  0.500000  1
  In  In4  1  0.733395  0.733391  0.500000  1
  In  In5  1  0.254013  0.014118  0.500000  1
  Ir  Ir6  1  0.329919  0.683599  0.500000  1
  Ir  Ir7  1  0.683612  0.329932  0.500000  1
  Pt  Pt8  1  0.990979  0.990974  0.000000  1
