# generated using pymatgen
data_Tb2Dy3Sc3(P3Ir4)4
_symmetry_space_group_name_H-M   'P 1'
_cell_length_a   12.86510600
_cell_length_b   12.86510633
_cell_length_c   3.96725100
_cell_angle_alpha   90.00000000
_cell_angle_beta   90.00000000
_cell_angle_gamma   119.99999915
_symmetry_Int_Tables_number   1
_chemical_formula_structural   Tb2Dy3Sc3(P3Ir4)4
_chemical_formula_sum   'Tb2 Dy3 Sc3 P12 Ir16'
_cell_volume   568.65264374
_cell_formula_units_Z   1
loop_
 _symmetry_equiv_pos_site_id
 _symmetry_equiv_pos_as_xyz
  1  'x, y, z'
loop_
 _atom_site_type_symbol
 _atom_site_label
 _atom_site_symmetry_multiplicity
 _atom_site_fract_x
 _atom_site_fract_y
 _atom_site_fract_z
 _atom_site_occupancy
  Tb  Tb0  1  0.333333  0.666667  0.500000  1
  Tb  Tb1  1  0.666667  0.333333  0.500000  1
  Dy  Dy2  1  0.000000  0.811863  0.000000  1
  Dy  Dy3  1  0.188137  0.188137  0.000000  1
  Dy  Dy4  1  0.811863  0.000000  0.000000  1
  Sc  Sc5  1  0.000000  0.444951  0.500000  1
  Sc  Sc6  1  0.555049  0.555049  0.500000  1
  Sc  Sc7  1  0.444951  0.000000  0.500000  1
  P  P8  1  0.000000  0.645736  0.500000  1
  P  P9  1  0.354264  0.354264  0.500000  1
  P  P10  1  0.645736  0.000000  0.500000  1
  P  P11  1  0.517016  0.686557  0.000000  1
  P  P12  1  0.313443  0.830460  0.000000  1
  P  P13  1  0.169540  0.482984  0.000000  1
  P  P14  1  0.482984  0.169540  0.000000  1
  P  P15  1  0.686557  0.517016  0.000000  1
  P  P16  1  0.830460  0.313443  0.000000  1
  P  P17  1  0.000000  0.176970  0.500000  1
  P  P18  1  0.823030  0.823030  0.500000  1
  P  P19  1  0.176970  0.000000  0.500000  1
  Ir  Ir20  1  0.510186  0.867887  0.000000  1
  Ir  Ir21  1  0.132113  0.642299  0.000000  1
  Ir  Ir22  1  0.357701  0.489814  0.000000  1
  Ir  Ir23  1  0.489814  0.357701  0.000000  1
  Ir  Ir24  1  0.867887  0.510186  0.000000  1
  Ir  Ir25  1  0.642299  0.132113  0.000000  1
  Ir  Ir26  1  0.000000  0.277966  0.000000  1
  Ir  Ir27  1  0.722034  0.722034  0.000000  1
  Ir  Ir28  1  0.277966  0.000000  0.000000  1
  Ir  Ir29  1  0.627966  0.806779  0.500000  1
  Ir  Ir30  1  0.193221  0.821187  0.500000  1
  Ir  Ir31  1  0.178813  0.372034  0.500000  1
  Ir  Ir32  1  0.372034  0.178813  0.500000  1
  Ir  Ir33  1  0.806779  0.627966  0.500000  1
  Ir  Ir34  1  0.821187  0.193221  0.500000  1
  Ir  Ir35  1  0.000000  0.000000  0.500000  1
