# generated using pymatgen
data_RbAlGeS4
_symmetry_space_group_name_H-M   'P 1'
_cell_length_a   16.33877400
_cell_length_b   6.96998874
_cell_length_c   7.59555276
_cell_angle_alpha   70.69268841
_cell_angle_beta   90.00000000
_cell_angle_gamma   90.00000000
_symmetry_Int_Tables_number   1
_chemical_formula_structural   RbAlGeS4
_chemical_formula_sum   'Rb4 Al4 Ge4 S16'
_cell_volume   816.34159521
_cell_formula_units_Z   4
loop_
 _symmetry_equiv_pos_site_id
 _symmetry_equiv_pos_as_xyz
  1  'x, y, z'
loop_
 _atom_site_type_symbol
 _atom_site_label
 _atom_site_symmetry_multiplicity
 _atom_site_fract_x
 _atom_site_fract_y
 _atom_site_fract_z
 _atom_site_occupancy
  Rb  Rb0  1  0.395457  0.957347  0.178197  1
  Rb  Rb1  1  0.895457  0.042653  0.821803  1
  Rb  Rb2  1  0.604504  0.523251  0.822834  1
  Rb  Rb3  1  0.104504  0.476749  0.177166  1
  Al  Al4  1  0.582849  0.169822  0.475252  1
  Al  Al5  1  0.082849  0.830178  0.524748  1
  Al  Al6  1  0.272768  0.593475  0.704900  1
  Al  Al7  1  0.772768  0.406525  0.295100  1
  Ge  Ge8  1  0.419626  0.326440  0.535351  1
  Ge  Ge9  1  0.919626  0.673560  0.464649  1
  Ge  Ge10  1  0.724633  0.911510  0.277073  1
  Ge  Ge11  1  0.224633  0.088490  0.722927  1
  S  S12  1  0.596082  0.893894  0.380265  1
  S  S13  1  0.096082  0.106106  0.619735  1
  S  S14  1  0.407777  0.598503  0.624885  1
  S  S15  1  0.907777  0.401497  0.375115  1
  S  S16  1  0.800492  0.788773  0.541986  1
  S  S17  1  0.300492  0.211227  0.458014  1
  S  S18  1  0.199805  0.718677  0.445023  1
  S  S19  1  0.699805  0.281323  0.554977  1
  S  S20  1  0.763664  0.221894  0.096703  1
  S  S21  1  0.263664  0.778106  0.903297  1
  S  S22  1  0.238811  0.279266  0.906090  1
  S  S23  1  0.738811  0.720734  0.093910  1
  S  S24  1  0.999218  0.908354  0.265878  1
  S  S25  1  0.499218  0.091646  0.734122  1
  S  S26  1  0.994313  0.606477  0.726004  1
  S  S27  1  0.494313  0.393523  0.273996  1
