# generated using pymatgen
data_Nd4Zn4Pd3Ru
_symmetry_space_group_name_H-M   'P 1'
_cell_length_a   7.14091503
_cell_length_b   4.29954100
_cell_length_c   8.19149937
_cell_angle_alpha   90.00000000
_cell_angle_beta   90.21222446
_cell_angle_gamma   90.00000000
_symmetry_Int_Tables_number   1
_chemical_formula_structural   Nd4Zn4Pd3Ru
_chemical_formula_sum   'Nd4 Zn4 Pd3 Ru1'
_cell_volume   251.49907000
_cell_formula_units_Z   1
loop_
 _symmetry_equiv_pos_site_id
 _symmetry_equiv_pos_as_xyz
  1  'x, y, z'
loop_
 _atom_site_type_symbol
 _atom_site_label
 _atom_site_symmetry_multiplicity
 _atom_site_fract_x
 _atom_site_fract_y
 _atom_site_fract_z
 _atom_site_occupancy
  Nd  Nd0  1  0.037671  0.250000  0.316126  1
  Nd  Nd1  1  0.531233  0.250000  0.191093  1
  Nd  Nd2  1  0.977192  0.750000  0.694399  1
  Nd  Nd3  1  0.463654  0.750000  0.797288  1
  Zn  Zn4  1  0.647452  0.250000  0.568917  1
  Zn  Zn5  1  0.155099  0.250000  0.927509  1
  Zn  Zn6  1  0.345494  0.750000  0.431285  1
  Zn  Zn7  1  0.847719  0.750000  0.070797  1
  Pd  Pd8  1  0.769880  0.250000  0.891903  1
  Pd  Pd9  1  0.730922  0.750000  0.389802  1
  Pd  Pd10  1  0.230405  0.750000  0.109571  1
  Ru  Ru11  1  0.263280  0.250000  0.611309  1
