# generated using pymatgen
data_NaLa6IrI12
_symmetry_space_group_name_H-M   'P 1'
_cell_length_a   10.18566729
_cell_length_b   10.18566743
_cell_length_c   10.18566727
_cell_angle_alpha   107.13234272
_cell_angle_beta   107.13234703
_cell_angle_gamma   107.13234060
_symmetry_Int_Tables_number   1
_chemical_formula_structural   NaLa6IrI12
_chemical_formula_sum   'Na1 La6 Ir1 I12'
_cell_volume   876.86723838
_cell_formula_units_Z   1
loop_
 _symmetry_equiv_pos_site_id
 _symmetry_equiv_pos_as_xyz
  1  'x, y, z'
loop_
 _atom_site_type_symbol
 _atom_site_label
 _atom_site_symmetry_multiplicity
 _atom_site_fract_x
 _atom_site_fract_y
 _atom_site_fract_z
 _atom_site_occupancy
  Na  Na0  1  0.500000  0.500000  0.500000  1
  La  La1  1  0.310308  0.104423  0.031049  1
  La  La2  1  0.031049  0.310308  0.104423  1
  La  La3  1  0.104423  0.031049  0.310308  1
  La  La4  1  0.895576  0.968951  0.689692  1
  La  La5  1  0.968951  0.689692  0.895576  1
  La  La6  1  0.689692  0.895577  0.968950  1
  Ir  Ir7  1  0.000000  0.000000  0.000000  1
  I  I8  1  0.682545  0.226288  0.075037  1
  I  I9  1  0.378795  0.458206  0.150908  1
  I  I10  1  0.075037  0.682545  0.226288  1
  I  I11  1  0.773711  0.924963  0.317455  1
  I  I12  1  0.458206  0.150909  0.378794  1
  I  I13  1  0.150909  0.378794  0.458206  1
  I  I14  1  0.849092  0.621206  0.541795  1
  I  I15  1  0.541794  0.849092  0.621206  1
  I  I16  1  0.226288  0.075037  0.682545  1
  I  I17  1  0.924963  0.317455  0.773711  1
  I  I18  1  0.621206  0.541795  0.849092  1
  I  I19  1  0.317455  0.773711  0.924963  1
