# generated using pymatgen
data_Hf3ZrMn4Si3Ge
_symmetry_space_group_name_H-M   'P 1'
_cell_length_a   3.68571900
_cell_length_b   6.55521511
_cell_length_c   7.65515412
_cell_angle_alpha   89.87924146
_cell_angle_beta   90.00000000
_cell_angle_gamma   90.00000000
_symmetry_Int_Tables_number   1
_chemical_formula_structural   Hf3ZrMn4Si3Ge
_chemical_formula_sum   'Hf3 Zr1 Mn4 Si3 Ge1'
_cell_volume   184.95332504
_cell_formula_units_Z   1
loop_
 _symmetry_equiv_pos_site_id
 _symmetry_equiv_pos_as_xyz
  1  'x, y, z'
loop_
 _atom_site_type_symbol
 _atom_site_label
 _atom_site_symmetry_multiplicity
 _atom_site_fract_x
 _atom_site_fract_y
 _atom_site_fract_z
 _atom_site_occupancy
  Hf  Hf0  1  0.000000  0.534659  0.679950  1
  Hf  Hf1  1  0.500000  0.473986  0.317488  1
  Hf  Hf2  1  0.500000  0.971816  0.179862  1
  Zr  Zr3  1  0.000000  0.025338  0.822942  1
  Mn  Mn4  1  0.000000  0.640002  0.066547  1
  Mn  Mn5  1  0.000000  0.137131  0.428278  1
  Mn  Mn6  1  0.500000  0.362549  0.940269  1
  Mn  Mn7  1  0.500000  0.853108  0.563222  1
  Si  Si8  1  0.000000  0.272956  0.123745  1
  Si  Si9  1  0.000000  0.771435  0.375699  1
  Si  Si10  1  0.500000  0.725899  0.879938  1
  Ge  Ge11  1  0.500000  0.231119  0.622061  1
