# generated using pymatgen
data_Pr5Bi4Te
_symmetry_space_group_name_H-M   'P 1'
_cell_length_a   12.13771641
_cell_length_b   12.13771639
_cell_length_c   12.13771600
_cell_angle_alpha   158.02354253
_cell_angle_beta   149.11880755
_cell_angle_gamma   38.22647148
_symmetry_Int_Tables_number   1
_chemical_formula_structural   Pr5Bi4Te
_chemical_formula_sum   'Pr5 Bi4 Te1'
_cell_volume   342.96989326
_cell_formula_units_Z   1
loop_
 _symmetry_equiv_pos_site_id
 _symmetry_equiv_pos_as_xyz
  1  'x, y, z'
loop_
 _atom_site_type_symbol
 _atom_site_label
 _atom_site_symmetry_multiplicity
 _atom_site_fract_x
 _atom_site_fract_y
 _atom_site_fract_z
 _atom_site_occupancy
  Pr  Pr0  1  0.897521  0.897521  0.000000  1
  Pr  Pr1  1  0.102479  0.102479  0.000000  1
  Pr  Pr2  1  0.300551  0.300551  0.000000  1
  Pr  Pr3  1  0.699449  0.699449  0.000000  1
  Pr  Pr4  1  0.500000  0.500000  0.000000  1
  Bi  Bi5  1  0.599605  0.099605  0.500000  1
  Bi  Bi6  1  0.400395  0.900395  0.500000  1
  Bi  Bi7  1  0.800422  0.300422  0.500000  1
  Bi  Bi8  1  0.199578  0.699578  0.500000  1
  Te  Te9  1  0.000000  0.500000  0.500000  1
