# generated using pymatgen
data_Li4Ca3YSi8
_symmetry_space_group_name_H-M   'P 1'
_cell_length_a   3.80531700
_cell_length_b   7.86953443
_cell_length_c   10.51838472
_cell_angle_alpha   89.80327182
_cell_angle_beta   90.00000000
_cell_angle_gamma   90.00000000
_symmetry_Int_Tables_number   1
_chemical_formula_structural   Li4Ca3YSi8
_chemical_formula_sum   'Li4 Ca3 Y1 Si8'
_cell_volume   314.98246167
_cell_formula_units_Z   1
loop_
 _symmetry_equiv_pos_site_id
 _symmetry_equiv_pos_as_xyz
  1  'x, y, z'
loop_
 _atom_site_type_symbol
 _atom_site_label
 _atom_site_symmetry_multiplicity
 _atom_site_fract_x
 _atom_site_fract_y
 _atom_site_fract_z
 _atom_site_occupancy
  Li  Li0  1  0.250000  0.997648  0.388428  1
  Li  Li1  1  0.750000  0.000891  0.610550  1
  Li  Li2  1  0.250000  0.497491  0.109803  1
  Li  Li3  1  0.750000  0.507533  0.888187  1
  Ca  Ca4  1  0.750000  0.866495  0.134903  1
  Ca  Ca5  1  0.250000  0.635007  0.637203  1
  Ca  Ca6  1  0.750000  0.363868  0.365085  1
  Y  Y7  1  0.250000  0.128822  0.865460  1
  Si  Si8  1  0.750000  0.267665  0.061400  1
  Si  Si9  1  0.250000  0.738371  0.932712  1
  Si  Si10  1  0.750000  0.767608  0.432197  1
  Si  Si11  1  0.250000  0.226625  0.573155  1
  Si  Si12  1  0.750000  0.842518  0.823911  1
  Si  Si13  1  0.250000  0.164079  0.170404  1
  Si  Si14  1  0.750000  0.331042  0.681777  1
  Si  Si15  1  0.250000  0.664335  0.324826  1
