# generated using pymatgen
data_Lu12Tc2Hg2Ru
_symmetry_space_group_name_H-M   'P 1'
_cell_length_a   8.27132400
_cell_length_b   8.27132535
_cell_length_c   8.27132500
_cell_angle_alpha   109.41713602
_cell_angle_beta   109.41713933
_cell_angle_gamma   109.57943831
_symmetry_Int_Tables_number   1
_chemical_formula_structural   Lu12Tc2Hg2Ru
_chemical_formula_sum   'Lu12 Tc2 Hg2 Ru1'
_cell_volume   435.61435504
_cell_formula_units_Z   1
loop_
 _symmetry_equiv_pos_site_id
 _symmetry_equiv_pos_as_xyz
  1  'x, y, z'
loop_
 _atom_site_type_symbol
 _atom_site_label
 _atom_site_symmetry_multiplicity
 _atom_site_fract_x
 _atom_site_fract_y
 _atom_site_fract_z
 _atom_site_occupancy
  Lu  Lu0  1  0.316626  0.316626  0.635493  1
  Lu  Lu1  1  0.681133  0.681133  0.364507  1
  Lu  Lu2  1  0.681133  0.316626  0.000000  1
  Lu  Lu3  1  0.316626  0.681133  0.000000  1
  Lu  Lu4  1  0.185329  0.429470  0.244141  1
  Lu  Lu5  1  0.815948  0.572348  0.756400  1
  Lu  Lu6  1  0.185329  0.941187  0.755859  1
  Lu  Lu7  1  0.941187  0.185329  0.755859  1
  Lu  Lu8  1  0.815948  0.059549  0.243600  1
  Lu  Lu9  1  0.059549  0.815948  0.243600  1
  Lu  Lu10  1  0.429470  0.185329  0.244141  1
  Lu  Lu11  1  0.572348  0.815948  0.756400  1
  Tc  Tc12  1  0.342513  0.342513  0.000000  1
  Tc  Tc13  1  0.999592  0.999592  0.000000  1
  Hg  Hg14  1  0.999320  0.499320  0.500000  1
  Hg  Hg15  1  0.499320  0.999320  0.500000  1
  Ru  Ru16  1  0.658627  0.658627  0.000000  1
