# generated using pymatgen
data_Al5Ir2
_symmetry_space_group_name_H-M   'P 1'
_cell_length_a   8.03104700
_cell_length_b   8.03104749
_cell_length_c   7.86883300
_cell_angle_alpha   90.00000000
_cell_angle_beta   90.00000000
_cell_angle_gamma   120.00000209
_symmetry_Int_Tables_number   1
_chemical_formula_structural   Al5Ir2
_chemical_formula_sum   'Al20 Ir8'
_cell_volume   439.52675080
_cell_formula_units_Z   4
loop_
 _symmetry_equiv_pos_site_id
 _symmetry_equiv_pos_as_xyz
  1  'x, y, z'
loop_
 _atom_site_type_symbol
 _atom_site_label
 _atom_site_symmetry_multiplicity
 _atom_site_fract_x
 _atom_site_fract_y
 _atom_site_fract_z
 _atom_site_occupancy
  Al  Al0  1  0.000000  0.000000  0.000000  1
  Al  Al1  1  0.000000  0.000000  0.500000  1
  Al  Al2  1  0.474746  0.949490  0.250000  1
  Al  Al3  1  0.525254  0.474746  0.750000  1
  Al  Al4  1  0.949490  0.474746  0.750000  1
  Al  Al5  1  0.050510  0.525254  0.250000  1
  Al  Al6  1  0.474746  0.525254  0.250000  1
  Al  Al7  1  0.525254  0.050510  0.750000  1
  Al  Al8  1  0.190151  0.380302  0.938121  1
  Al  Al9  1  0.809849  0.190151  0.438121  1
  Al  Al10  1  0.380302  0.190151  0.438121  1
  Al  Al11  1  0.619698  0.809849  0.938121  1
  Al  Al12  1  0.190151  0.809849  0.938121  1
  Al  Al13  1  0.809849  0.619698  0.061879  1
  Al  Al14  1  0.809849  0.190151  0.061879  1
  Al  Al15  1  0.809849  0.619698  0.438121  1
  Al  Al16  1  0.380302  0.190151  0.061879  1
  Al  Al17  1  0.619698  0.809849  0.561879  1
  Al  Al18  1  0.190151  0.380302  0.561879  1
  Al  Al19  1  0.190151  0.809849  0.561879  1
  Ir  Ir20  1  0.333333  0.666667  0.750000  1
  Ir  Ir21  1  0.666667  0.333333  0.250000  1
  Ir  Ir22  1  0.131880  0.263760  0.250000  1
  Ir  Ir23  1  0.868120  0.131880  0.750000  1
  Ir  Ir24  1  0.263760  0.131880  0.750000  1
  Ir  Ir25  1  0.736240  0.868120  0.250000  1
  Ir  Ir26  1  0.131880  0.868120  0.250000  1
  Ir  Ir27  1  0.868120  0.736240  0.750000  1
