# generated using pymatgen
data_Zr6AlSe2
_symmetry_space_group_name_H-M   'P 1'
_cell_length_a   3.67816700
_cell_length_b   12.96184500
_cell_length_c   15.86174000
_cell_angle_alpha   90.00000000
_cell_angle_beta   90.00000000
_cell_angle_gamma   90.00000000
_symmetry_Int_Tables_number   1
_chemical_formula_structural   Zr6AlSe2
_chemical_formula_sum   'Zr24 Al4 Se8'
_cell_volume   756.22162828
_cell_formula_units_Z   4
loop_
 _symmetry_equiv_pos_site_id
 _symmetry_equiv_pos_as_xyz
  1  'x, y, z'
loop_
 _atom_site_type_symbol
 _atom_site_label
 _atom_site_symmetry_multiplicity
 _atom_site_fract_x
 _atom_site_fract_y
 _atom_site_fract_z
 _atom_site_occupancy
  Zr  Zr0  1  0.000000  0.027082  0.108021  1
  Zr  Zr1  1  0.000000  0.972918  0.891979  1
  Zr  Zr2  1  0.500000  0.472918  0.608021  1
  Zr  Zr3  1  0.500000  0.527082  0.391979  1
  Zr  Zr4  1  0.000000  0.406040  0.242884  1
  Zr  Zr5  1  0.000000  0.593960  0.757116  1
  Zr  Zr6  1  0.500000  0.093960  0.742884  1
  Zr  Zr7  1  0.500000  0.906040  0.257116  1
  Zr  Zr8  1  0.000000  0.079272  0.573777  1
  Zr  Zr9  1  0.000000  0.920728  0.426223  1
  Zr  Zr10  1  0.500000  0.420728  0.073777  1
  Zr  Zr11  1  0.500000  0.579272  0.926223  1
  Zr  Zr12  1  0.000000  0.354959  0.477758  1
  Zr  Zr13  1  0.000000  0.645041  0.522242  1
  Zr  Zr14  1  0.500000  0.145041  0.977758  1
  Zr  Zr15  1  0.500000  0.854959  0.022242  1
  Zr  Zr16  1  0.000000  0.688809  0.289850  1
  Zr  Zr17  1  0.000000  0.311191  0.710150  1
  Zr  Zr18  1  0.500000  0.811191  0.789850  1
  Zr  Zr19  1  0.500000  0.188809  0.210150  1
  Zr  Zr20  1  0.000000  0.619164  0.079948  1
  Zr  Zr21  1  0.000000  0.380836  0.920052  1
  Zr  Zr22  1  0.500000  0.880836  0.579948  1
  Zr  Zr23  1  0.500000  0.119164  0.420052  1
  Al  Al24  1  0.000000  0.256716  0.086870  1
  Al  Al25  1  0.000000  0.743284  0.913130  1
  Al  Al26  1  0.500000  0.243284  0.586870  1
  Al  Al27  1  0.500000  0.756716  0.413130  1
  Se  Se28  1  0.000000  0.062803  0.289848  1
  Se  Se29  1  0.000000  0.937197  0.710152  1
  Se  Se30  1  0.500000  0.437197  0.789848  1
  Se  Se31  1  0.500000  0.562803  0.210152  1
  Se  Se32  1  0.000000  0.813187  0.149931  1
  Se  Se33  1  0.000000  0.186813  0.850069  1
  Se  Se34  1  0.500000  0.686813  0.649931  1
  Se  Se35  1  0.500000  0.313187  0.350069  1
