# generated using pymatgen
data_Al8NiOs3Rh4
_symmetry_space_group_name_H-M   'P 1'
_cell_length_a   6.02448000
_cell_length_b   4.21839600
_cell_length_c   8.45747500
_cell_angle_alpha   90.00000000
_cell_angle_beta   89.99975442
_cell_angle_gamma   90.00000000
_symmetry_Int_Tables_number   1
_chemical_formula_structural   Al8NiOs3Rh4
_chemical_formula_sum   'Al8 Ni1 Os3 Rh4'
_cell_volume   214.93524470
_cell_formula_units_Z   1
loop_
 _symmetry_equiv_pos_site_id
 _symmetry_equiv_pos_as_xyz
  1  'x, y, z'
loop_
 _atom_site_type_symbol
 _atom_site_label
 _atom_site_symmetry_multiplicity
 _atom_site_fract_x
 _atom_site_fract_y
 _atom_site_fract_z
 _atom_site_occupancy
  Al  Al0  1  0.002379  0.750000  0.124978  1
  Al  Al1  1  0.497628  0.750000  0.125000  1
  Al  Al2  1  0.002170  0.250001  0.375496  1
  Al  Al3  1  0.497822  0.250001  0.375534  1
  Al  Al4  1  0.498057  0.750000  0.624973  1
  Al  Al5  1  0.001945  0.750000  0.625002  1
  Al  Al6  1  0.497821  0.250001  0.874492  1
  Al  Al7  1  0.002170  0.250001  0.874535  1
  Ni  Ni8  1  0.749974  0.250001  0.125010  1
  Os  Os9  1  0.249989  0.750000  0.372615  1
  Os  Os10  1  0.750011  0.250001  0.625006  1
  Os  Os11  1  0.250007  0.750000  0.877374  1
  Rh  Rh12  1  0.250036  0.250001  0.125003  1
  Rh  Rh13  1  0.750009  0.750000  0.367092  1
  Rh  Rh14  1  0.249989  0.250001  0.625007  1
  Rh  Rh15  1  0.749991  0.750000  0.882882  1
