# generated using pymatgen
data_Zr4Co6ReOs
_symmetry_space_group_name_H-M   'P 1'
_cell_length_a   4.99839500
_cell_length_b   4.99839521
_cell_length_c   8.23927000
_cell_angle_alpha   90.00000000
_cell_angle_beta   90.00000000
_cell_angle_gamma   120.00000524
_symmetry_Int_Tables_number   1
_chemical_formula_structural   Zr4Co6ReOs
_chemical_formula_sum   'Zr4 Co6 Re1 Os1'
_cell_volume   178.27092117
_cell_formula_units_Z   1
loop_
 _symmetry_equiv_pos_site_id
 _symmetry_equiv_pos_as_xyz
  1  'x, y, z'
loop_
 _atom_site_type_symbol
 _atom_site_label
 _atom_site_symmetry_multiplicity
 _atom_site_fract_x
 _atom_site_fract_y
 _atom_site_fract_z
 _atom_site_occupancy
  Zr  Zr0  1  0.333333  0.666667  0.432599  1
  Zr  Zr1  1  0.666667  0.333333  0.567401  1
  Zr  Zr2  1  0.666667  0.333333  0.935083  1
  Zr  Zr3  1  0.333333  0.666667  0.064917  1
  Co  Co4  1  0.829473  0.170527  0.250667  1
  Co  Co5  1  0.829473  0.658948  0.250667  1
  Co  Co6  1  0.341052  0.170527  0.250667  1
  Co  Co7  1  0.170527  0.829473  0.749333  1
  Co  Co8  1  0.170527  0.341052  0.749333  1
  Co  Co9  1  0.658948  0.829473  0.749333  1
  Re  Re10  1  0.000000  0.000000  0.500000  1
  Os  Os11  1  0.000000  0.000000  0.000000  1
