# generated using pymatgen
data_CaGdLu2(B6Ru)2
_symmetry_space_group_name_H-M   'P 1'
_cell_length_a   3.62754900
_cell_length_b   9.11051387
_cell_length_c   11.52048707
_cell_angle_alpha   89.84706897
_cell_angle_beta   90.00000000
_cell_angle_gamma   90.00000000
_symmetry_Int_Tables_number   1
_chemical_formula_structural   CaGdLu2(B6Ru)2
_chemical_formula_sum   'Ca2 Gd2 Lu4 B24 Ru4'
_cell_volume   380.73732533
_cell_formula_units_Z   2
loop_
 _symmetry_equiv_pos_site_id
 _symmetry_equiv_pos_as_xyz
  1  'x, y, z'
loop_
 _atom_site_type_symbol
 _atom_site_label
 _atom_site_symmetry_multiplicity
 _atom_site_fract_x
 _atom_site_fract_y
 _atom_site_fract_z
 _atom_site_occupancy
  Ca  Ca0  1  0.000000  0.323367  0.415373  1
  Ca  Ca1  1  0.000000  0.676633  0.584627  1
  Gd  Gd2  1  0.000000  0.821694  0.085881  1
  Gd  Gd3  1  0.000000  0.178306  0.914119  1
  Lu  Lu4  1  0.000000  0.942154  0.370370  1
  Lu  Lu5  1  0.000000  0.057846  0.629630  1
  Lu  Lu6  1  0.000000  0.443096  0.130926  1
  Lu  Lu7  1  0.000000  0.556904  0.869074  1
  B  B8  1  0.500000  0.554613  0.432098  1
  B  B9  1  0.500000  0.445387  0.567902  1
  B  B10  1  0.500000  0.054857  0.067909  1
  B  B11  1  0.500000  0.945143  0.932091  1
  B  B12  1  0.500000  0.749403  0.417353  1
  B  B13  1  0.500000  0.250597  0.582647  1
  B  B14  1  0.500000  0.250088  0.082427  1
  B  B15  1  0.500000  0.749912  0.917573  1
  B  B16  1  0.500000  0.791614  0.264949  1
  B  B17  1  0.500000  0.208386  0.735051  1
  B  B18  1  0.500000  0.291242  0.235000  1
  B  B19  1  0.500000  0.708758  0.765000  1
  B  B20  1  0.500000  0.630341  0.184844  1
  B  B21  1  0.500000  0.369659  0.815156  1
  B  B22  1  0.500000  0.130135  0.315032  1
  B  B23  1  0.500000  0.869865  0.684968  1
  B  B24  1  0.500000  0.983558  0.212822  1
  B  B25  1  0.500000  0.016442  0.787178  1
  B  B26  1  0.500000  0.483579  0.287646  1
  B  B27  1  0.500000  0.516421  0.712354  1
  B  B28  1  0.500000  0.599918  0.027245  1
  B  B29  1  0.500000  0.400082  0.972755  1
  B  B30  1  0.500000  0.097828  0.473271  1
  B  B31  1  0.500000  0.902172  0.526729  1
  Ru  Ru32  1  0.000000  0.640500  0.317815  1
  Ru  Ru33  1  0.000000  0.359500  0.682185  1
  Ru  Ru34  1  0.000000  0.138683  0.179834  1
  Ru  Ru35  1  0.000000  0.861317  0.820166  1
