# generated using pymatgen
data_TaP(Cl3O)2
_symmetry_space_group_name_H-M   'P 1'
_cell_length_a   8.69354500
_cell_length_b   11.09423375
_cell_length_c   11.75678100
_cell_angle_alpha   90.00000000
_cell_angle_beta   90.00000000
_cell_angle_gamma   108.78308553
_symmetry_Int_Tables_number   1
_chemical_formula_structural   TaP(Cl3O)2
_chemical_formula_sum   'Ta4 P4 Cl24 O8'
_cell_volume   1073.53293230
_cell_formula_units_Z   4
loop_
 _symmetry_equiv_pos_site_id
 _symmetry_equiv_pos_as_xyz
  1  'x, y, z'
loop_
 _atom_site_type_symbol
 _atom_site_label
 _atom_site_symmetry_multiplicity
 _atom_site_fract_x
 _atom_site_fract_y
 _atom_site_fract_z
 _atom_site_occupancy
  Ta  Ta0  1  0.804385  0.265505  0.542136  1
  Ta  Ta1  1  0.804385  0.765505  0.957864  1
  Ta  Ta2  1  0.195615  0.234495  0.042136  1
  Ta  Ta3  1  0.195615  0.734495  0.457864  1
  P  P4  1  0.195670  0.457774  0.596580  1
  P  P5  1  0.804330  0.042226  0.096580  1
  P  P6  1  0.804330  0.542226  0.403420  1
  P  P7  1  0.195670  0.957774  0.903420  1
  Cl  Cl8  1  0.681615  0.290629  0.711997  1
  Cl  Cl9  1  0.042987  0.717569  0.625854  1
  Cl  Cl10  1  0.289307  0.535307  0.743519  1
  Cl  Cl11  1  0.318385  0.709371  0.288003  1
  Cl  Cl12  1  0.854602  0.083345  0.596416  1
  Cl  Cl13  1  0.437508  0.836626  0.548669  1
  Cl  Cl14  1  0.437508  0.336626  0.951331  1
  Cl  Cl15  1  0.562492  0.663374  0.048669  1
  Cl  Cl16  1  0.710693  0.964693  0.243519  1
  Cl  Cl17  1  0.710693  0.464693  0.256481  1
  Cl  Cl18  1  0.042987  0.217569  0.874146  1
  Cl  Cl19  1  0.677991  0.655696  0.447462  1
  Cl  Cl20  1  0.957013  0.282431  0.374146  1
  Cl  Cl21  1  0.677991  0.155696  0.052538  1
  Cl  Cl22  1  0.957013  0.782431  0.125854  1
  Cl  Cl23  1  0.854602  0.583345  0.903584  1
  Cl  Cl24  1  0.289307  0.035307  0.756481  1
  Cl  Cl25  1  0.322009  0.844304  0.947462  1
  Cl  Cl26  1  0.322009  0.344304  0.552538  1
  Cl  Cl27  1  0.145398  0.916655  0.403584  1
  Cl  Cl28  1  0.681615  0.790629  0.788003  1
  Cl  Cl29  1  0.318385  0.209371  0.211997  1
  Cl  Cl30  1  0.562492  0.163374  0.451331  1
  Cl  Cl31  1  0.145398  0.416655  0.096416  1
  O  O32  1  0.777823  0.440103  0.493997  1
  O  O33  1  0.019454  0.378517  0.617052  1
  O  O34  1  0.222177  0.059897  0.993997  1
  O  O35  1  0.222177  0.559897  0.506003  1
  O  O36  1  0.019454  0.878517  0.882948  1
  O  O37  1  0.980546  0.121483  0.117052  1
  O  O38  1  0.777823  0.940103  0.006003  1
  O  O39  1  0.980546  0.621483  0.382948  1
