# generated using pymatgen
data_Zr10AlSn5PbAu
_symmetry_space_group_name_H-M   'P 1'
_cell_length_a   8.79207319
_cell_length_b   8.79291689
_cell_length_c   5.93992081
_cell_angle_alpha   90.03217765
_cell_angle_beta   89.94035424
_cell_angle_gamma   119.99836311
_symmetry_Int_Tables_number   1
_chemical_formula_structural   Zr10AlSn5PbAu
_chemical_formula_sum   'Zr10 Al1 Sn5 Pb1 Au1'
_cell_volume   397.68799118
_cell_formula_units_Z   1
loop_
 _symmetry_equiv_pos_site_id
 _symmetry_equiv_pos_as_xyz
  1  'x, y, z'
loop_
 _atom_site_type_symbol
 _atom_site_label
 _atom_site_symmetry_multiplicity
 _atom_site_fract_x
 _atom_site_fract_y
 _atom_site_fract_z
 _atom_site_occupancy
  Zr  Zr0  1  0.331300  0.664152  0.998933  1
  Zr  Zr1  1  0.667178  0.335867  0.501087  1
  Zr  Zr2  1  0.667066  0.335847  0.998931  1
  Zr  Zr3  1  0.331364  0.664121  0.501092  1
  Zr  Zr4  1  0.269631  0.000036  0.257295  1
  Zr  Zr5  1  0.272190  0.272313  0.743312  1
  Zr  Zr6  1  0.999823  0.727688  0.743350  1
  Zr  Zr7  1  0.004030  0.274441  0.256960  1
  Zr  Zr8  1  0.729559  0.725554  0.256965  1
  Zr  Zr9  1  0.728463  0.999961  0.743122  1
  Al  Al10  1  0.999526  0.000003  0.500486  1
  Sn  Sn11  1  0.615310  0.616083  0.752457  1
  Sn  Sn12  1  0.999246  0.383888  0.752418  1
  Sn  Sn13  1  0.000485  0.615306  0.247529  1
  Sn  Sn14  1  0.385232  0.384725  0.247494  1
  Sn  Sn15  1  0.384211  0.000024  0.752117  1
  Pb  Pb16  1  0.615938  0.999982  0.246987  1
  Au  Au17  1  0.999448  0.000008  0.999467  1
