# generated using pymatgen
data_UPa2(GaPt)3
_symmetry_space_group_name_H-M   'P 1'
_cell_length_a   7.06424570
_cell_length_b   7.06424586
_cell_length_c   4.15196500
_cell_angle_alpha   90.00000000
_cell_angle_beta   90.00000000
_cell_angle_gamma   119.86780906
_symmetry_Int_Tables_number   1
_chemical_formula_structural   UPa2(GaPt)3
_chemical_formula_sum   'U1 Pa2 Ga3 Pt3'
_cell_volume   179.67716095
_cell_formula_units_Z   1
loop_
 _symmetry_equiv_pos_site_id
 _symmetry_equiv_pos_as_xyz
  1  'x, y, z'
loop_
 _atom_site_type_symbol
 _atom_site_label
 _atom_site_symmetry_multiplicity
 _atom_site_fract_x
 _atom_site_fract_y
 _atom_site_fract_z
 _atom_site_occupancy
  U  U0  1  0.575609  0.575609  0.500000  1
  Pa  Pa1  1  0.419931  0.002499  0.500000  1
  Pa  Pa2  1  0.002499  0.419931  0.500000  1
  Ga  Ga3  1  0.756315  0.998702  0.000000  1
  Ga  Ga4  1  0.998702  0.756315  0.000000  1
  Ga  Ga5  1  0.243399  0.243399  0.000000  1
  Pt  Pt6  1  0.334078  0.668738  0.000000  1
  Pt  Pt7  1  0.668738  0.334078  0.000000  1
  Pt  Pt8  1  0.000730  0.000730  0.500000  1
