# generated using pymatgen
data_La2Pa2InGaRh4
_symmetry_space_group_name_H-M   'P 1'
_cell_length_a   7.70266849
_cell_length_b   7.85074652
_cell_length_c   3.71822500
_cell_angle_alpha   90.00000000
_cell_angle_beta   90.00000000
_cell_angle_gamma   90.12329342
_symmetry_Int_Tables_number   1
_chemical_formula_structural   La2Pa2InGaRh4
_chemical_formula_sum   'La2 Pa2 In1 Ga1 Rh4'
_cell_volume   224.84685790
_cell_formula_units_Z   1
loop_
 _symmetry_equiv_pos_site_id
 _symmetry_equiv_pos_as_xyz
  1  'x, y, z'
loop_
 _atom_site_type_symbol
 _atom_site_label
 _atom_site_symmetry_multiplicity
 _atom_site_fract_x
 _atom_site_fract_y
 _atom_site_fract_z
 _atom_site_occupancy
  La  La0  1  0.837615  0.683998  0.500000  1
  La  La1  1  0.314902  0.832187  0.500000  1
  Pa  Pa2  1  0.168026  0.323487  0.500000  1
  Pa  Pa3  1  0.682218  0.161745  0.500000  1
  In  In4  1  0.508516  0.493412  0.000000  1
  Ga  Ga5  1  0.002393  0.020747  0.000000  1
  Rh  Rh6  1  0.140677  0.578731  0.000000  1
  Rh  Rh7  1  0.640802  0.915210  0.000000  1
  Rh  Rh8  1  0.347931  0.149616  0.000000  1
  Rh  Rh9  1  0.856923  0.340868  0.000000  1
