# generated using pymatgen
data_Ca3Pr5(MnN3)4
_symmetry_space_group_name_H-M   'P 1'
_cell_length_a   6.10550244
_cell_length_b   6.10550357
_cell_length_c   11.83770996
_cell_angle_alpha   89.83652018
_cell_angle_beta   90.16347925
_cell_angle_gamma   126.96695913
_symmetry_Int_Tables_number   1
_chemical_formula_structural   Ca3Pr5(MnN3)4
_chemical_formula_sum   'Ca3 Pr5 Mn4 N12'
_cell_volume   352.57020912
_cell_formula_units_Z   1
loop_
 _symmetry_equiv_pos_site_id
 _symmetry_equiv_pos_as_xyz
  1  'x, y, z'
loop_
 _atom_site_type_symbol
 _atom_site_label
 _atom_site_symmetry_multiplicity
 _atom_site_fract_x
 _atom_site_fract_y
 _atom_site_fract_z
 _atom_site_occupancy
  Ca  Ca0  1  0.441181  0.558819  0.360149  1
  Ca  Ca1  1  0.555152  0.444848  0.642597  1
  Ca  Ca2  1  0.055900  0.944100  0.855464  1
  Pr  Pr3  1  0.944606  0.055394  0.143543  1
  Pr  Pr4  1  0.141260  0.858740  0.422795  1
  Pr  Pr5  1  0.857662  0.142338  0.578140  1
  Pr  Pr6  1  0.358236  0.641764  0.921383  1
  Pr  Pr7  1  0.643968  0.356032  0.074280  1
  Mn  Mn8  1  0.264159  0.735841  0.160114  1
  Mn  Mn9  1  0.736627  0.263373  0.837920  1
  Mn  Mn10  1  0.236782  0.763218  0.660833  1
  Mn  Mn11  1  0.759636  0.240364  0.340986  1
  N  N12  1  0.152476  0.847524  0.039861  1
  N  N13  1  0.844969  0.155031  0.959600  1
  N  N14  1  0.342237  0.657763  0.541343  1
  N  N15  1  0.655045  0.344955  0.460659  1
  N  N16  1  0.432993  0.567007  0.130580  1
  N  N17  1  0.570281  0.429719  0.866408  1
  N  N18  1  0.070537  0.929463  0.632507  1
  N  N19  1  0.929144  0.070856  0.368307  1
  N  N20  1  0.990208  0.511750  0.252005  1
  N  N21  1  0.514379  0.985689  0.749262  1
  N  N22  1  0.014311  0.485621  0.749262  1
  N  N23  1  0.488250  0.009792  0.252005  1
