# generated using pymatgen
data_La12Ru(AuI4)3
_symmetry_space_group_name_H-M   'P 1'
_cell_length_a   11.04216464
_cell_length_b   11.04216355
_cell_length_c   11.04216379
_cell_angle_alpha   108.96919642
_cell_angle_beta   108.96919372
_cell_angle_gamma   108.96918474
_symmetry_Int_Tables_number   1
_chemical_formula_structural   La12Ru(AuI4)3
_chemical_formula_sum   'La12 Ru1 Au3 I12'
_cell_volume   1055.25631625
_cell_formula_units_Z   1
loop_
 _symmetry_equiv_pos_site_id
 _symmetry_equiv_pos_as_xyz
  1  'x, y, z'
loop_
 _atom_site_type_symbol
 _atom_site_label
 _atom_site_symmetry_multiplicity
 _atom_site_fract_x
 _atom_site_fract_y
 _atom_site_fract_z
 _atom_site_occupancy
  La  La0  1  0.460884  0.471532  0.237820  1
  La  La1  1  0.750000  0.234690  0.265310  1
  La  La2  1  0.750000  0.015484  0.484516  1
  La  La3  1  0.237820  0.460884  0.471532  1
  La  La4  1  0.265310  0.750000  0.234690  1
  La  La5  1  0.039116  0.262180  0.028468  1
  La  La6  1  0.028468  0.039116  0.262180  1
  La  La7  1  0.484516  0.750000  0.015484  1
  La  La8  1  0.471532  0.237820  0.460884  1
  La  La9  1  0.015484  0.484516  0.750000  1
  La  La10  1  0.262180  0.028468  0.039116  1
  La  La11  1  0.234690  0.265310  0.750000  1
  Ru  Ru12  1  0.250000  0.250000  0.250000  1
  Au  Au13  1  0.499198  0.000802  0.250000  1
  Au  Au14  1  0.000802  0.250000  0.499198  1
  Au  Au15  1  0.250000  0.499198  0.000802  1
  I  I16  1  0.250000  0.756158  0.743842  1
  I  I17  1  0.516379  0.508720  0.759267  1
  I  I18  1  0.983621  0.740733  0.991280  1
  I  I19  1  0.743842  0.250000  0.756158  1
  I  I20  1  0.991280  0.983621  0.740733  1
  I  I21  1  0.250000  0.991288  0.508712  1
  I  I22  1  0.759267  0.516379  0.508720  1
  I  I23  1  0.508712  0.250000  0.991288  1
  I  I24  1  0.756158  0.743842  0.250000  1
  I  I25  1  0.740733  0.991280  0.983621  1
  I  I26  1  0.991288  0.508712  0.250000  1
  I  I27  1  0.508720  0.759267  0.516379  1
