# generated using pymatgen
data_Li4Ac2LaSn4
_symmetry_space_group_name_H-M   'P 1'
_cell_length_a   4.91061426
_cell_length_b   7.35009427
_cell_length_c   9.16641061
_cell_angle_alpha   113.63604989
_cell_angle_beta   105.53693508
_cell_angle_gamma   89.99999380
_symmetry_Int_Tables_number   1
_chemical_formula_structural   Li4Ac2LaSn4
_chemical_formula_sum   'Li4 Ac2 La1 Sn4'
_cell_volume   289.84783980
_cell_formula_units_Z   1
loop_
 _symmetry_equiv_pos_site_id
 _symmetry_equiv_pos_as_xyz
  1  'x, y, z'
loop_
 _atom_site_type_symbol
 _atom_site_label
 _atom_site_symmetry_multiplicity
 _atom_site_fract_x
 _atom_site_fract_y
 _atom_site_fract_z
 _atom_site_occupancy
  Li  Li0  1  0.670937  0.982368  0.341874  1
  Li  Li1  1  0.329063  0.017632  0.658126  1
  Li  Li2  1  0.329063  0.640496  0.658126  1
  Li  Li3  1  0.670937  0.359504  0.341874  1
  Ac  Ac4  1  0.132183  0.632183  0.264365  1
  Ac  Ac5  1  0.867817  0.367817  0.735635  1
  La  La6  1  0.000000  0.000000  0.000000  1
  Sn  Sn7  1  0.500000  0.698755  0.000000  1
  Sn  Sn8  1  0.500000  0.301245  0.000000  1
  Sn  Sn9  1  0.789007  0.789007  0.578012  1
  Sn  Sn10  1  0.210993  0.210993  0.421988  1
