# generated using pymatgen
data_TaBe8Nb2Ir
_symmetry_space_group_name_H-M   'P 1'
_cell_length_a   4.52833000
_cell_length_b   4.52833066
_cell_length_c   7.44684400
_cell_angle_alpha   90.00000000
_cell_angle_beta   90.00000000
_cell_angle_gamma   120.00000980
_symmetry_Int_Tables_number   1
_chemical_formula_structural   TaBe8Nb2Ir
_chemical_formula_sum   'Ta1 Be8 Nb2 Ir1'
_cell_volume   132.24493419
_cell_formula_units_Z   1
loop_
 _symmetry_equiv_pos_site_id
 _symmetry_equiv_pos_as_xyz
  1  'x, y, z'
loop_
 _atom_site_type_symbol
 _atom_site_label
 _atom_site_symmetry_multiplicity
 _atom_site_fract_x
 _atom_site_fract_y
 _atom_site_fract_z
 _atom_site_occupancy
  Ta  Ta0  1  0.666667  0.333333  0.057823  1
  Be  Be1  1  0.000000  0.000000  0.506242  1
  Be  Be2  1  0.000000  0.000000  0.000628  1
  Be  Be3  1  0.663498  0.831748  0.246761  1
  Be  Be4  1  0.168252  0.831748  0.246761  1
  Be  Be5  1  0.168252  0.336502  0.246761  1
  Be  Be6  1  0.336762  0.168382  0.752389  1
  Be  Be7  1  0.831618  0.168382  0.752389  1
  Be  Be8  1  0.831618  0.663238  0.752389  1
  Nb  Nb9  1  0.666667  0.333333  0.432664  1
  Nb  Nb10  1  0.333333  0.666667  0.569115  1
  Ir  Ir11  1  0.333333  0.666667  0.936081  1
