# generated using pymatgen
data_SrBiIrRuO7
_symmetry_space_group_name_H-M   'P 1'
_cell_length_a   7.39545017
_cell_length_b   7.39545073
_cell_length_c   7.35090300
_cell_angle_alpha   60.19905758
_cell_angle_beta   60.19905511
_cell_angle_gamma   60.17206021
_symmetry_Int_Tables_number   1
_chemical_formula_structural   SrBiIrRuO7
_chemical_formula_sum   'Sr2 Bi2 Ir2 Ru2 O14'
_cell_volume   285.50915469
_cell_formula_units_Z   2
loop_
 _symmetry_equiv_pos_site_id
 _symmetry_equiv_pos_as_xyz
  1  'x, y, z'
loop_
 _atom_site_type_symbol
 _atom_site_label
 _atom_site_symmetry_multiplicity
 _atom_site_fract_x
 _atom_site_fract_y
 _atom_site_fract_z
 _atom_site_occupancy
  Sr  Sr0  1  0.125000  0.125000  0.625000  1
  Sr  Sr1  1  0.125000  0.125000  0.125000  1
  Bi  Bi2  1  0.125000  0.625000  0.125000  1
  Bi  Bi3  1  0.625000  0.125000  0.125000  1
  Ir  Ir4  1  0.625000  0.625000  0.125000  1
  Ir  Ir5  1  0.625000  0.625000  0.625000  1
  Ru  Ru6  1  0.625000  0.125000  0.625000  1
  Ru  Ru7  1  0.125000  0.625000  0.625000  1
  O  O8  1  0.260799  0.260799  0.239201  1
  O  O9  1  0.989201  0.989201  0.010799  1
  O  O10  1  0.559847  0.947582  0.541215  1
  O  O11  1  0.302418  0.690153  0.298644  1
  O  O12  1  0.547901  0.547901  0.952099  1
  O  O13  1  0.947582  0.559847  0.541215  1
  O  O14  1  0.559847  0.947582  0.951356  1
  O  O15  1  0.937911  0.937911  0.562089  1
  O  O16  1  0.947582  0.559847  0.951356  1
  O  O17  1  0.690153  0.302418  0.298644  1
  O  O18  1  0.302418  0.690153  0.708785  1
  O  O19  1  0.690153  0.302418  0.708785  1
  O  O20  1  0.312089  0.312089  0.687911  1
  O  O21  1  0.702099  0.702099  0.297901  1
