# generated using pymatgen
data_Zr2Nb2Al2Au
_symmetry_space_group_name_H-M   'P 1'
_cell_length_a   5.26488788
_cell_length_b   5.26488839
_cell_length_c   5.31762900
_cell_angle_alpha   90.00000000
_cell_angle_beta   90.00000000
_cell_angle_gamma   119.00707389
_symmetry_Int_Tables_number   1
_chemical_formula_structural   Zr2Nb2Al2Au
_chemical_formula_sum   'Zr2 Nb2 Al2 Au1'
_cell_volume   128.90977872
_cell_formula_units_Z   1
loop_
 _symmetry_equiv_pos_site_id
 _symmetry_equiv_pos_as_xyz
  1  'x, y, z'
loop_
 _atom_site_type_symbol
 _atom_site_label
 _atom_site_symmetry_multiplicity
 _atom_site_fract_x
 _atom_site_fract_y
 _atom_site_fract_z
 _atom_site_occupancy
  Zr  Zr0  1  0.329364  0.670636  0.500000  1
  Zr  Zr1  1  0.670636  0.329364  0.500000  1
  Nb  Nb2  1  0.000000  0.000000  0.736161  1
  Nb  Nb3  1  0.000000  0.000000  0.263839  1
  Al  Al4  1  0.500000  0.000000  0.000000  1
  Al  Al5  1  0.000000  0.500000  0.000000  1
  Au  Au6  1  0.500000  0.500000  0.000000  1
