# generated using pymatgen
data_Ba4Nd7SmSe16
_symmetry_space_group_name_H-M   'P 1'
_cell_length_a   4.33975400
_cell_length_b   13.08331400
_cell_length_c   15.58433000
_cell_angle_alpha   89.99736299
_cell_angle_beta   90.00000000
_cell_angle_gamma   90.00000000
_symmetry_Int_Tables_number   1
_chemical_formula_structural   Ba4Nd7SmSe16
_chemical_formula_sum   'Ba4 Nd7 Sm1 Se16'
_cell_volume   884.85276509
_cell_formula_units_Z   1
loop_
 _symmetry_equiv_pos_site_id
 _symmetry_equiv_pos_as_xyz
  1  'x, y, z'
loop_
 _atom_site_type_symbol
 _atom_site_label
 _atom_site_symmetry_multiplicity
 _atom_site_fract_x
 _atom_site_fract_y
 _atom_site_fract_z
 _atom_site_occupancy
  Ba  Ba0  1  0.250000  0.757399  0.337397  1
  Ba  Ba1  1  0.250000  0.256819  0.163192  1
  Ba  Ba2  1  0.750000  0.242679  0.662216  1
  Ba  Ba3  1  0.750000  0.743011  0.837196  1
  Nd  Nd4  1  0.250000  0.430496  0.391169  1
  Nd  Nd5  1  0.250000  0.931659  0.109460  1
  Nd  Nd6  1  0.750000  0.568858  0.608790  1
  Nd  Nd7  1  0.750000  0.068876  0.891204  1
  Nd  Nd8  1  0.250000  0.420243  0.899391  1
  Nd  Nd9  1  0.250000  0.920778  0.600083  1
  Nd  Nd10  1  0.750000  0.579742  0.100615  1
  Sm  Sm11  1  0.750000  0.079335  0.399343  1
  Se  Se12  1  0.250000  0.207284  0.827379  1
  Se  Se13  1  0.250000  0.707345  0.672414  1
  Se  Se14  1  0.750000  0.792888  0.172578  1
  Se  Se15  1  0.750000  0.290714  0.328366  1
  Se  Se16  1  0.250000  0.129189  0.523939  1
  Se  Se17  1  0.250000  0.629804  0.973791  1
  Se  Se18  1  0.750000  0.872096  0.472915  1
  Se  Se19  1  0.750000  0.370226  0.026251  1
  Se  Se20  1  0.250000  0.523837  0.217102  1
  Se  Se21  1  0.250000  0.024712  0.284851  1
  Se  Se22  1  0.750000  0.476013  0.782997  1
  Se  Se23  1  0.750000  0.976122  0.716928  1
  Se  Se24  1  0.250000  0.415661  0.579170  1
  Se  Se25  1  0.250000  0.915697  0.921129  1
  Se  Se26  1  0.750000  0.584243  0.420862  1
  Se  Se27  1  0.750000  0.084271  0.079274  1
