# generated using pymatgen
data_LiNb2(GeRu2)3
_symmetry_space_group_name_H-M   'P 1'
_cell_length_a   4.35009000
_cell_length_b   6.16459700
_cell_length_c   12.97272300
_cell_angle_alpha   90.00000000
_cell_angle_beta   89.99947600
_cell_angle_gamma   90.00000000
_symmetry_Int_Tables_number   1
_chemical_formula_structural   LiNb2(GeRu2)3
_chemical_formula_sum   'Li2 Nb4 Ge6 Ru12'
_cell_volume   347.88369784
_cell_formula_units_Z   2
loop_
 _symmetry_equiv_pos_site_id
 _symmetry_equiv_pos_as_xyz
  1  'x, y, z'
loop_
 _atom_site_type_symbol
 _atom_site_label
 _atom_site_symmetry_multiplicity
 _atom_site_fract_x
 _atom_site_fract_y
 _atom_site_fract_z
 _atom_site_occupancy
  Li  Li0  1  0.999990  0.000000  0.999600  1
  Li  Li1  1  0.500032  0.500000  0.167138  1
  Nb  Nb2  1  0.000022  0.000000  0.321071  1
  Nb  Nb3  1  0.500000  0.500000  0.497053  1
  Nb  Nb4  1  0.999975  0.000000  0.669545  1
  Nb  Nb5  1  0.499979  0.500000  0.845648  1
  Ge  Ge6  1  0.999987  0.500000  0.005339  1
  Ge  Ge7  1  0.500020  0.000000  0.161387  1
  Ge  Ge8  1  0.000013  0.500000  0.317318  1
  Ge  Ge9  1  0.500000  0.000000  0.495538  1
  Ge  Ge10  1  0.999984  0.500000  0.671117  1
  Ge  Ge11  1  0.499988  0.000000  0.849288  1
  Ru  Ru12  1  0.499993  0.251509  0.003566  1
  Ru  Ru13  1  0.499993  0.748491  0.003566  1
  Ru  Ru14  1  0.000033  0.248338  0.163066  1
  Ru  Ru15  1  0.000033  0.751662  0.163066  1
  Ru  Ru16  1  0.500023  0.250969  0.334218  1
  Ru  Ru17  1  0.500023  0.749032  0.334218  1
  Ru  Ru18  1  0.000002  0.250736  0.499606  1
  Ru  Ru19  1  0.000002  0.749263  0.499606  1
  Ru  Ru20  1  0.499975  0.249254  0.667066  1
  Ru  Ru21  1  0.499975  0.750747  0.667066  1
  Ru  Ru22  1  0.999978  0.248995  0.832458  1
  Ru  Ru23  1  0.999978  0.751005  0.832458  1
