# generated using pymatgen
data_Li2Tb3Dy(ScSi2)4
_symmetry_space_group_name_H-M   'P 1'
_cell_length_a   6.90610212
_cell_length_b   7.41227724
_cell_length_c   14.09278841
_cell_angle_alpha   89.97633123
_cell_angle_beta   90.01403834
_cell_angle_gamma   89.98335455
_symmetry_Int_Tables_number   1
_chemical_formula_structural   Li2Tb3Dy(ScSi2)4
_chemical_formula_sum   'Li4 Tb6 Dy2 Sc8 Si16'
_cell_volume   721.40892961
_cell_formula_units_Z   2
loop_
 _symmetry_equiv_pos_site_id
 _symmetry_equiv_pos_as_xyz
  1  'x, y, z'
loop_
 _atom_site_type_symbol
 _atom_site_label
 _atom_site_symmetry_multiplicity
 _atom_site_fract_x
 _atom_site_fract_y
 _atom_site_fract_z
 _atom_site_occupancy
  Li  Li0  1  0.159195  0.505068  0.749975  1
  Li  Li1  1  0.840805  0.494932  0.250025  1
  Li  Li2  1  0.340878  0.005083  0.250025  1
  Li  Li3  1  0.659122  0.994917  0.749975  1
  Tb  Tb4  1  0.013768  0.181674  0.099336  1
  Tb  Tb5  1  0.986232  0.818326  0.900664  1
  Tb  Tb6  1  0.486232  0.681651  0.900734  1
  Tb  Tb7  1  0.986228  0.818268  0.599308  1
  Tb  Tb8  1  0.513768  0.318349  0.099266  1
  Tb  Tb9  1  0.013772  0.181732  0.400692  1
  Dy  Dy10  1  0.513803  0.318209  0.400681  1
  Dy  Dy11  1  0.486197  0.681791  0.599319  1
  Sc  Sc12  1  0.330399  0.179213  0.626444  1
  Sc  Sc13  1  0.669601  0.820787  0.373556  1
  Sc  Sc14  1  0.169827  0.679101  0.373562  1
  Sc  Sc15  1  0.669670  0.820841  0.126499  1
  Sc  Sc16  1  0.830173  0.320899  0.626438  1
  Sc  Sc17  1  0.330330  0.179159  0.873501  1
  Sc  Sc18  1  0.830284  0.320868  0.873502  1
  Sc  Sc19  1  0.169716  0.679132  0.126498  1
  Si  Si20  1  0.031847  0.104797  0.749973  1
  Si  Si21  1  0.968153  0.895203  0.250027  1
  Si  Si22  1  0.468297  0.604643  0.250118  1
  Si  Si23  1  0.531703  0.395357  0.749882  1
  Si  Si24  1  0.282237  0.882134  0.749887  1
  Si  Si25  1  0.717763  0.117866  0.250113  1
  Si  Si26  1  0.218144  0.382147  0.250139  1
  Si  Si27  1  0.781856  0.617853  0.749861  1
  Si  Si28  1  0.158091  0.463164  0.535325  1
  Si  Si29  1  0.841909  0.536836  0.464675  1
  Si  Si30  1  0.342423  0.963051  0.464744  1
  Si  Si31  1  0.842288  0.536983  0.035256  1
  Si  Si32  1  0.657577  0.036949  0.535256  1
  Si  Si33  1  0.157712  0.463017  0.964744  1
  Si  Si34  1  0.657695  0.036960  0.964739  1
  Si  Si35  1  0.342305  0.963040  0.035261  1
