# generated using pymatgen
data_SrEu3(AgAu)4
_symmetry_space_group_name_H-M   'P 1'
_cell_length_a   7.54564347
_cell_length_b   4.75437000
_cell_length_c   8.38450400
_cell_angle_alpha   90.00000000
_cell_angle_beta   89.68301915
_cell_angle_gamma   90.00000000
_symmetry_Int_Tables_number   1
_chemical_formula_structural   SrEu3(AgAu)4
_chemical_formula_sum   'Sr1 Eu3 Ag4 Au4'
_cell_volume   300.78764134
_cell_formula_units_Z   1
loop_
 _symmetry_equiv_pos_site_id
 _symmetry_equiv_pos_as_xyz
  1  'x, y, z'
loop_
 _atom_site_type_symbol
 _atom_site_label
 _atom_site_symmetry_multiplicity
 _atom_site_fract_x
 _atom_site_fract_y
 _atom_site_fract_z
 _atom_site_occupancy
  Sr  Sr0  1  0.993151  0.249999  0.792128  1
  Eu  Eu1  1  0.007193  0.749999  0.209713  1
  Eu  Eu2  1  0.506368  0.749999  0.291412  1
  Eu  Eu3  1  0.492645  0.249999  0.707298  1
  Ag  Ag4  1  0.313243  0.249999  0.082033  1
  Ag  Ag5  1  0.811390  0.249999  0.417533  1
  Ag  Ag6  1  0.196066  0.749999  0.580647  1
  Ag  Ag7  1  0.686081  0.749999  0.919383  1
  Au  Au8  1  0.717254  0.249999  0.095573  1
  Au  Au9  1  0.220382  0.249999  0.405264  1
  Au  Au10  1  0.771659  0.749999  0.591728  1
  Au  Au11  1  0.284569  0.749999  0.907291  1
