# generated using pymatgen
data_Hf2Zr6Co7Si14Os
_symmetry_space_group_name_H-M   'P 1'
_cell_length_a   9.51297055
_cell_length_b   9.50592799
_cell_length_c   9.52102001
_cell_angle_alpha   94.13644875
_cell_angle_beta   94.17442367
_cell_angle_gamma   148.74840583
_symmetry_Int_Tables_number   1
_chemical_formula_structural   Hf2Zr6Co7Si14Os
_chemical_formula_sum   'Hf2 Zr6 Co7 Si14 Os1'
_cell_volume   430.20764598
_cell_formula_units_Z   1
loop_
 _symmetry_equiv_pos_site_id
 _symmetry_equiv_pos_as_xyz
  1  'x, y, z'
loop_
 _atom_site_type_symbol
 _atom_site_label
 _atom_site_symmetry_multiplicity
 _atom_site_fract_x
 _atom_site_fract_y
 _atom_site_fract_z
 _atom_site_occupancy
  Hf  Hf0  1  0.138307  0.138312  0.276583  1
  Hf  Hf1  1  0.861935  0.861907  0.723895  1
  Zr  Zr2  1  0.862183  0.136919  0.000991  1
  Zr  Zr3  1  0.138761  0.864045  0.000946  1
  Zr  Zr4  1  0.498951  0.303980  0.803755  1
  Zr  Zr5  1  0.502109  0.696037  0.197169  1
  Zr  Zr6  1  0.695151  0.501212  0.197192  1
  Zr  Zr7  1  0.304680  0.499669  0.803754  1
  Co  Co8  1  0.103863  0.603867  0.207812  1
  Co  Co9  1  0.099324  0.896411  0.498923  1
  Co  Co10  1  0.399619  0.602562  0.498922  1
  Co  Co11  1  0.599226  0.395328  0.499135  1
  Co  Co12  1  0.899991  0.103840  0.499177  1
  Co  Co13  1  0.897850  0.397933  0.795762  1
  Co  Co14  1  0.602547  0.102545  0.205147  1
  Si  Si15  1  0.504816  0.097885  0.586465  1
  Si  Si16  1  0.502361  0.909473  0.407193  1
  Si  Si17  1  0.904835  0.497707  0.407196  1
  Si  Si18  1  0.081629  0.488552  0.586457  1
  Si  Si19  1  0.750413  0.750967  0.000282  1
  Si  Si20  1  0.249867  0.249324  0.000308  1
  Si  Si21  1  0.289497  0.289493  0.578899  1
  Si  Si22  1  0.710728  0.710732  0.421443  1
  Si  Si23  1  0.721939  0.302528  0.005441  1
  Si  Si24  1  0.283448  0.702848  0.005442  1
  Si  Si25  1  0.000966  0.302042  0.301794  1
  Si  Si26  1  0.988810  0.693528  0.697107  1
  Si  Si27  1  0.708391  0.003672  0.697112  1
  Si  Si28  1  0.300781  0.999728  0.301758  1
  Os  Os29  1  0.397021  0.896960  0.793938  1
