# generated using pymatgen
data_LaIrI
_symmetry_space_group_name_H-M   'P 1'
_cell_length_a   4.41395400
_cell_length_b   4.41395424
_cell_length_c   12.36768500
_cell_angle_alpha   90.00000000
_cell_angle_beta   90.00000000
_cell_angle_gamma   120.00001316
_symmetry_Int_Tables_number   1
_chemical_formula_structural   LaIrI
_chemical_formula_sum   'La2 Ir2 I2'
_cell_volume   208.67701668
_cell_formula_units_Z   2
loop_
 _symmetry_equiv_pos_site_id
 _symmetry_equiv_pos_as_xyz
  1  'x, y, z'
loop_
 _atom_site_type_symbol
 _atom_site_label
 _atom_site_symmetry_multiplicity
 _atom_site_fract_x
 _atom_site_fract_y
 _atom_site_fract_z
 _atom_site_occupancy
  La  La0  1  0.000000  0.000000  0.154308  1
  La  La1  1  0.000000  0.000000  0.845692  1
  Ir  Ir2  1  0.333333  0.666667  0.996729  1
  Ir  Ir3  1  0.666667  0.333333  0.003271  1
  I  I4  1  0.666667  0.333333  0.670366  1
  I  I5  1  0.333333  0.666667  0.329634  1
