# generated using pymatgen
data_NaCa4(PaH8)3
_symmetry_space_group_name_H-M   'P 1'
_cell_length_a   6.69815200
_cell_length_b   6.75477100
_cell_length_c   6.69815200
_cell_angle_alpha   90.00000000
_cell_angle_beta   90.00000000
_cell_angle_gamma   90.00000000
_symmetry_Int_Tables_number   1
_chemical_formula_structural   NaCa4(PaH8)3
_chemical_formula_sum   'Na1 Ca4 Pa3 H24'
_cell_volume   303.05442351
_cell_formula_units_Z   1
loop_
 _symmetry_equiv_pos_site_id
 _symmetry_equiv_pos_as_xyz
  1  'x, y, z'
loop_
 _atom_site_type_symbol
 _atom_site_label
 _atom_site_symmetry_multiplicity
 _atom_site_fract_x
 _atom_site_fract_y
 _atom_site_fract_z
 _atom_site_occupancy
  Na  Na0  1  0.500000  0.750000  0.000000  1
  Ca  Ca1  1  0.247858  0.993447  0.500000  1
  Ca  Ca2  1  0.752142  0.993447  0.500000  1
  Ca  Ca3  1  0.000000  0.506553  0.252142  1
  Ca  Ca4  1  0.000000  0.506553  0.747858  1
  Pa  Pa5  1  0.000000  0.000424  0.000000  1
  Pa  Pa6  1  0.500000  0.499576  0.500000  1
  Pa  Pa7  1  0.500000  0.250000  0.000000  1
  H  H8  1  0.000000  0.152824  0.283472  1
  H  H9  1  0.500000  0.213026  0.668062  1
  H  H10  1  0.500000  0.781874  0.350363  1
  H  H11  1  0.788120  0.650023  0.500000  1
  H  H12  1  0.211880  0.650023  0.500000  1
  H  H13  1  0.354061  0.472003  0.802352  1
  H  H14  1  0.645939  0.472003  0.802352  1
  H  H15  1  0.302352  0.027997  0.145939  1
  H  H16  1  0.168062  0.286974  0.000000  1
  H  H17  1  0.850363  0.718126  0.000000  1
  H  H18  1  0.302352  0.027997  0.854061  1
  H  H19  1  0.831938  0.286974  0.000000  1
  H  H20  1  0.697648  0.027997  0.145939  1
  H  H21  1  0.697648  0.027997  0.854061  1
  H  H22  1  0.149637  0.718126  0.000000  1
  H  H23  1  0.000000  0.849977  0.711880  1
  H  H24  1  0.000000  0.152824  0.716528  1
  H  H25  1  0.000000  0.849977  0.288120  1
  H  H26  1  0.645939  0.472003  0.197648  1
  H  H27  1  0.354061  0.472003  0.197648  1
  H  H28  1  0.783472  0.347176  0.500000  1
  H  H29  1  0.216528  0.347176  0.500000  1
  H  H30  1  0.500000  0.781874  0.649637  1
  H  H31  1  0.500000  0.213026  0.331938  1
