# generated using pymatgen
data_CsRb(VTe)6
_symmetry_space_group_name_H-M   'P 1'
_cell_length_a   4.52866300
_cell_length_b   10.17507515
_cell_length_c   10.22188707
_cell_angle_alpha   120.01745511
_cell_angle_beta   90.00000000
_cell_angle_gamma   90.00000000
_symmetry_Int_Tables_number   1
_chemical_formula_structural   CsRb(VTe)6
_chemical_formula_sum   'Cs1 Rb1 V6 Te6'
_cell_volume   407.84291771
_cell_formula_units_Z   1
loop_
 _symmetry_equiv_pos_site_id
 _symmetry_equiv_pos_as_xyz
  1  'x, y, z'
loop_
 _atom_site_type_symbol
 _atom_site_label
 _atom_site_symmetry_multiplicity
 _atom_site_fract_x
 _atom_site_fract_y
 _atom_site_fract_z
 _atom_site_occupancy
  Cs  Cs0  1  0.250000  0.333693  0.675077  1
  Rb  Rb1  1  0.750000  0.666945  0.326366  1
  V  V2  1  0.750000  0.962853  0.821415  1
  V  V3  1  0.750000  0.171391  0.153278  1
  V  V4  1  0.750000  0.899793  0.019515  1
  V  V5  1  0.250000  0.037612  0.176951  1
  V  V6  1  0.250000  0.829547  0.849229  1
  V  V7  1  0.250000  0.100343  0.978456  1
  Te  Te8  1  0.750000  0.659223  0.714134  1
  Te  Te9  1  0.750000  0.269133  0.951555  1
  Te  Te10  1  0.750000  0.049155  0.338160  1
  Te  Te11  1  0.250000  0.343132  0.286426  1
  Te  Te12  1  0.250000  0.731974  0.051760  1
  Te  Te13  1  0.250000  0.945207  0.657677  1
