# generated using pymatgen
data_Cs4Na2HoInBi4
_symmetry_space_group_name_H-M   'P 1'
_cell_length_a   11.84083301
_cell_length_b   11.84083353
_cell_length_c   7.62535000
_cell_angle_alpha   90.00000000
_cell_angle_beta   90.00000000
_cell_angle_gamma   101.63725818
_symmetry_Int_Tables_number   1
_chemical_formula_structural   Cs4Na2HoInBi4
_chemical_formula_sum   'Cs8 Na4 Ho2 In2 Bi8'
_cell_volume   1047.13831561
_cell_formula_units_Z   2
loop_
 _symmetry_equiv_pos_site_id
 _symmetry_equiv_pos_as_xyz
  1  'x, y, z'
loop_
 _atom_site_type_symbol
 _atom_site_label
 _atom_site_symmetry_multiplicity
 _atom_site_fract_x
 _atom_site_fract_y
 _atom_site_fract_z
 _atom_site_occupancy
  Cs  Cs0  1  0.073808  0.426192  0.250000  1
  Cs  Cs1  1  0.426192  0.073808  0.750000  1
  Cs  Cs2  1  0.920496  0.579504  0.750000  1
  Cs  Cs3  1  0.579504  0.920496  0.250000  1
  Cs  Cs4  1  0.676084  0.329094  0.217213  1
  Cs  Cs5  1  0.823916  0.170906  0.717213  1
  Cs  Cs6  1  0.329094  0.676084  0.782787  1
  Cs  Cs7  1  0.170906  0.823916  0.282787  1
  Na  Na8  1  0.381869  0.381869  0.000000  1
  Na  Na9  1  0.118131  0.118131  0.500000  1
  Na  Na10  1  0.620707  0.620707  0.000000  1
  Na  Na11  1  0.879293  0.879293  0.500000  1
  Ho  Ho12  1  0.126435  0.126435  0.000000  1
  Ho  Ho13  1  0.373565  0.373565  0.500000  1
  In  In14  1  0.869931  0.869931  0.000000  1
  In  In15  1  0.630069  0.630069  0.500000  1
  Bi  Bi16  1  0.844355  0.655644  0.250000  1
  Bi  Bi17  1  0.655644  0.844355  0.750000  1
  Bi  Bi18  1  0.157329  0.342670  0.750000  1
  Bi  Bi19  1  0.342670  0.157329  0.250000  1
  Bi  Bi20  1  0.899339  0.094862  0.211388  1
  Bi  Bi21  1  0.600661  0.405138  0.711388  1
  Bi  Bi22  1  0.094862  0.899339  0.788612  1
  Bi  Bi23  1  0.405138  0.600661  0.288612  1
