# generated using pymatgen
data_Hf3TiNbCuSb3
_symmetry_space_group_name_H-M   'P 1'
_cell_length_a   8.44830100
_cell_length_b   8.44830050
_cell_length_c   5.67040100
_cell_angle_alpha   90.00000000
_cell_angle_beta   90.00000000
_cell_angle_gamma   119.99999803
_symmetry_Int_Tables_number   1
_chemical_formula_structural   Hf3TiNbCuSb3
_chemical_formula_sum   'Hf6 Ti2 Nb2 Cu2 Sb6'
_cell_volume   350.49606350
_cell_formula_units_Z   2
loop_
 _symmetry_equiv_pos_site_id
 _symmetry_equiv_pos_as_xyz
  1  'x, y, z'
loop_
 _atom_site_type_symbol
 _atom_site_label
 _atom_site_symmetry_multiplicity
 _atom_site_fract_x
 _atom_site_fract_y
 _atom_site_fract_z
 _atom_site_occupancy
  Hf  Hf0  1  0.735256  0.735256  0.249663  1
  Hf  Hf1  1  0.264744  0.000000  0.249663  1
  Hf  Hf2  1  0.000000  0.264744  0.249663  1
  Hf  Hf3  1  0.264744  0.264744  0.750337  1
  Hf  Hf4  1  0.735256  0.000000  0.750337  1
  Hf  Hf5  1  0.000000  0.735256  0.750337  1
  Ti  Ti6  1  0.333333  0.666667  0.000000  1
  Ti  Ti7  1  0.666667  0.333333  0.000000  1
  Nb  Nb8  1  0.666667  0.333333  0.500000  1
  Nb  Nb9  1  0.333333  0.666667  0.500000  1
  Cu  Cu10  1  0.000000  0.000000  0.000000  1
  Cu  Cu11  1  0.000000  0.000000  0.500000  1
  Sb  Sb12  1  0.388630  0.388630  0.247858  1
  Sb  Sb13  1  0.611370  0.000000  0.247858  1
  Sb  Sb14  1  0.000000  0.611370  0.247858  1
  Sb  Sb15  1  0.611370  0.611370  0.752142  1
  Sb  Sb16  1  0.388630  0.000000  0.752142  1
  Sb  Sb17  1  0.000000  0.388630  0.752142  1
