# generated using pymatgen
data_Dy8Tm12Sn15Ru
_symmetry_space_group_name_H-M   'P 1'
_cell_length_a   7.83645084
_cell_length_b   8.17603085
_cell_length_c   15.26644900
_cell_angle_alpha   90.00000000
_cell_angle_beta   90.00000000
_cell_angle_gamma   89.88093083
_symmetry_Int_Tables_number   1
_chemical_formula_structural   Dy8Tm12Sn15Ru
_chemical_formula_sum   'Dy8 Tm12 Sn15 Ru1'
_cell_volume   978.13551502
_cell_formula_units_Z   1
loop_
 _symmetry_equiv_pos_site_id
 _symmetry_equiv_pos_as_xyz
  1  'x, y, z'
loop_
 _atom_site_type_symbol
 _atom_site_label
 _atom_site_symmetry_multiplicity
 _atom_site_fract_x
 _atom_site_fract_y
 _atom_site_fract_z
 _atom_site_occupancy
  Dy  Dy0  1  0.513005  0.331107  0.902630  1
  Dy  Dy1  1  0.021435  0.181574  0.598047  1
  Dy  Dy2  1  0.484335  0.682720  0.404917  1
  Dy  Dy3  1  0.983782  0.823610  0.095834  1
  Dy  Dy4  1  0.484335  0.682720  0.095083  1
  Dy  Dy5  1  0.983782  0.823610  0.404166  1
  Dy  Dy6  1  0.513005  0.331107  0.597370  1
  Dy  Dy7  1  0.021435  0.181574  0.901953  1
  Tm  Tm8  1  0.382796  0.815378  0.866703  1
  Tm  Tm9  1  0.821459  0.660984  0.633051  1
  Tm  Tm10  1  0.643624  0.166454  0.376514  1
  Tm  Tm11  1  0.147141  0.333018  0.124043  1
  Tm  Tm12  1  0.643624  0.166454  0.123486  1
  Tm  Tm13  1  0.147141  0.333018  0.375957  1
  Tm  Tm14  1  0.382796  0.815378  0.633297  1
  Tm  Tm15  1  0.821459  0.660984  0.866949  1
  Tm  Tm16  1  0.203551  0.504392  0.750000  1
  Tm  Tm17  1  0.692947  0.001184  0.750000  1
  Tm  Tm18  1  0.814030  0.499449  0.250000  1
  Tm  Tm19  1  0.311394  0.999915  0.250000  1
  Sn  Sn20  1  0.306248  0.034632  0.035785  1
  Sn  Sn21  1  0.810046  0.465466  0.460123  1
  Sn  Sn22  1  0.701791  0.970895  0.541414  1
  Sn  Sn23  1  0.182551  0.543634  0.958856  1
  Sn  Sn24  1  0.701791  0.970895  0.958586  1
  Sn  Sn25  1  0.182551  0.543634  0.541144  1
  Sn  Sn26  1  0.306248  0.034632  0.464215  1
  Sn  Sn27  1  0.810046  0.465466  0.039877  1
  Sn  Sn28  1  0.055931  0.880031  0.750000  1
  Sn  Sn29  1  0.448868  0.381827  0.250000  1
  Sn  Sn30  1  0.947279  0.118660  0.250000  1
  Sn  Sn31  1  0.320654  0.144715  0.750000  1
  Sn  Sn32  1  0.813917  0.355137  0.750000  1
  Sn  Sn33  1  0.675561  0.850989  0.250000  1
  Sn  Sn34  1  0.175542  0.649422  0.250000  1
  Ru  Ru35  1  0.543906  0.595334  0.750000  1
