# generated using pymatgen
data_Sc8Al3Co
_symmetry_space_group_name_H-M   'P 1'
_cell_length_a   9.56621500
_cell_length_b   9.56621370
_cell_length_c   6.27391700
_cell_angle_alpha   90.00000000
_cell_angle_beta   90.00000000
_cell_angle_gamma   120.00000102
_symmetry_Int_Tables_number   1
_chemical_formula_structural   Sc8Al3Co
_chemical_formula_sum   'Sc16 Al6 Co2'
_cell_volume   497.22117107
_cell_formula_units_Z   2
loop_
 _symmetry_equiv_pos_site_id
 _symmetry_equiv_pos_as_xyz
  1  'x, y, z'
loop_
 _atom_site_type_symbol
 _atom_site_label
 _atom_site_symmetry_multiplicity
 _atom_site_fract_x
 _atom_site_fract_y
 _atom_site_fract_z
 _atom_site_occupancy
  Sc  Sc0  1  0.000000  0.000000  0.275899  1
  Sc  Sc1  1  0.000000  0.000000  0.775899  1
  Sc  Sc2  1  0.176562  0.823438  0.003245  1
  Sc  Sc3  1  0.823438  0.176562  0.503245  1
  Sc  Sc4  1  0.176562  0.353125  0.003245  1
  Sc  Sc5  1  0.646875  0.823438  0.003245  1
  Sc  Sc6  1  0.353125  0.176562  0.503245  1
  Sc  Sc7  1  0.823438  0.646875  0.503245  1
  Sc  Sc8  1  0.333333  0.666667  0.666294  1
  Sc  Sc9  1  0.666667  0.333333  0.166294  1
  Sc  Sc10  1  0.471784  0.528216  0.288726  1
  Sc  Sc11  1  0.528216  0.471784  0.788726  1
  Sc  Sc12  1  0.471784  0.943568  0.288726  1
  Sc  Sc13  1  0.056432  0.528216  0.288726  1
  Sc  Sc14  1  0.943568  0.471784  0.788726  1
  Sc  Sc15  1  0.528216  0.056432  0.788726  1
  Al  Al16  1  0.162462  0.837538  0.527907  1
  Al  Al17  1  0.837538  0.162462  0.027907  1
  Al  Al18  1  0.162462  0.324925  0.527907  1
  Al  Al19  1  0.675075  0.837538  0.527907  1
  Al  Al20  1  0.324925  0.162462  0.027907  1
  Al  Al21  1  0.837538  0.675075  0.027907  1
  Co  Co22  1  0.333333  0.666667  0.071232  1
  Co  Co23  1  0.666667  0.333333  0.571232  1
