# generated using pymatgen
data_AcCCl
_symmetry_space_group_name_H-M   'P 1'
_cell_length_a   4.39874611
_cell_length_b   4.39874471
_cell_length_c   10.28980240
_cell_angle_alpha   86.71854991
_cell_angle_beta   86.71855034
_cell_angle_gamma   56.79485458
_symmetry_Int_Tables_number   1
_chemical_formula_structural   AcCCl
_chemical_formula_sum   'Ac2 C2 Cl2'
_cell_volume   166.23440603
_cell_formula_units_Z   2
loop_
 _symmetry_equiv_pos_site_id
 _symmetry_equiv_pos_as_xyz
  1  'x, y, z'
loop_
 _atom_site_type_symbol
 _atom_site_label
 _atom_site_symmetry_multiplicity
 _atom_site_fract_x
 _atom_site_fract_y
 _atom_site_fract_z
 _atom_site_occupancy
  Ac  Ac0  1  0.852537  0.852537  0.156929  1
  Ac  Ac1  1  0.147463  0.147463  0.843071  1
  C  C2  1  0.571813  0.571813  0.032189  1
  C  C3  1  0.428187  0.428187  0.967811  1
  Cl  Cl4  1  0.824014  0.824014  0.671279  1
  Cl  Cl5  1  0.175986  0.175986  0.328721  1
