# generated using pymatgen
data_TbHo3Er3Co6Sn23
_symmetry_space_group_name_H-M   'P 1'
_cell_length_a   9.67602000
_cell_length_b   9.67601939
_cell_length_c   9.94911100
_cell_angle_alpha   90.00000000
_cell_angle_beta   90.00000000
_cell_angle_gamma   119.99999525
_symmetry_Int_Tables_number   1
_chemical_formula_structural   TbHo3Er3Co6Sn23
_chemical_formula_sum   'Tb1 Ho3 Er3 Co6 Sn23'
_cell_volume   806.69323705
_cell_formula_units_Z   1
loop_
 _symmetry_equiv_pos_site_id
 _symmetry_equiv_pos_as_xyz
  1  'x, y, z'
loop_
 _atom_site_type_symbol
 _atom_site_label
 _atom_site_symmetry_multiplicity
 _atom_site_fract_x
 _atom_site_fract_y
 _atom_site_fract_z
 _atom_site_occupancy
  Tb  Tb0  1  0.000000  0.000000  0.999978  1
  Ho  Ho1  1  0.042944  0.521473  0.306434  1
  Ho  Ho2  1  0.478527  0.957056  0.306434  1
  Ho  Ho3  1  0.478527  0.521473  0.306434  1
  Er  Er4  1  0.521390  0.478610  0.693567  1
  Er  Er5  1  0.521390  0.042779  0.693567  1
  Er  Er6  1  0.957221  0.478610  0.693567  1
  Co  Co7  1  0.167809  0.832191  0.802716  1
  Co  Co8  1  0.167809  0.335617  0.802716  1
  Co  Co9  1  0.664383  0.832191  0.802716  1
  Co  Co10  1  0.335550  0.167775  0.197191  1
  Co  Co11  1  0.832225  0.664450  0.197191  1
  Co  Co12  1  0.832225  0.167775  0.197191  1
  Sn  Sn13  1  0.666667  0.333333  0.181819  1
  Sn  Sn14  1  0.666667  0.333333  0.881523  1
  Sn  Sn15  1  0.333333  0.666667  0.118069  1
  Sn  Sn16  1  0.346249  0.346288  0.999913  1
  Sn  Sn17  1  0.000039  0.653751  0.999913  1
  Sn  Sn18  1  0.653712  0.999961  0.999913  1
  Sn  Sn19  1  0.653712  0.653751  0.999913  1
  Sn  Sn20  1  0.333333  0.666667  0.818127  1
  Sn  Sn21  1  0.437448  0.218725  0.451823  1
  Sn  Sn22  1  0.218733  0.781267  0.548579  1
  Sn  Sn23  1  0.218733  0.437465  0.548579  1
  Sn  Sn24  1  0.562535  0.781267  0.548579  1
  Sn  Sn25  1  0.118326  0.881674  0.274594  1
  Sn  Sn26  1  0.781275  0.562552  0.451823  1
  Sn  Sn27  1  0.781275  0.218725  0.451823  1
  Sn  Sn28  1  0.346249  0.999961  0.999913  1
  Sn  Sn29  1  0.118326  0.236653  0.274594  1
  Sn  Sn30  1  0.763347  0.881674  0.274594  1
  Sn  Sn31  1  0.236830  0.118414  0.725421  1
  Sn  Sn32  1  0.881586  0.763170  0.725421  1
  Sn  Sn33  1  0.881586  0.118414  0.725421  1
  Sn  Sn34  1  0.000000  0.000000  0.500034  1
  Sn  Sn35  1  0.000039  0.346288  0.999913  1
