# generated using pymatgen
data_Dy7Er(LuRu2)2
_symmetry_space_group_name_H-M   'P 1'
_cell_length_a   6.31813808
_cell_length_b   7.24300522
_cell_length_c   8.44373269
_cell_angle_alpha   96.73248531
_cell_angle_beta   111.99262130
_cell_angle_gamma   89.94028033
_symmetry_Int_Tables_number   1
_chemical_formula_structural   Dy7Er(LuRu2)2
_chemical_formula_sum   'Dy7 Er1 Lu2 Ru4'
_cell_volume   355.43056989
_cell_formula_units_Z   1
loop_
 _symmetry_equiv_pos_site_id
 _symmetry_equiv_pos_as_xyz
  1  'x, y, z'
loop_
 _atom_site_type_symbol
 _atom_site_label
 _atom_site_symmetry_multiplicity
 _atom_site_fract_x
 _atom_site_fract_y
 _atom_site_fract_z
 _atom_site_occupancy
  Dy  Dy0  1  0.523450  0.083224  0.814526  1
  Dy  Dy1  1  0.476293  0.916502  0.185531  1
  Dy  Dy2  1  0.709062  0.416842  0.185552  1
  Dy  Dy3  1  0.291224  0.583381  0.814433  1
  Dy  Dy4  1  0.296608  0.313120  0.432831  1
  Dy  Dy5  1  0.703118  0.686919  0.567065  1
  Dy  Dy6  1  0.863956  0.186542  0.567012  1
  Er  Er7  1  0.135952  0.813608  0.432730  1
  Lu  Lu8  1  0.077992  0.250072  0.000047  1
  Lu  Lu9  1  0.922152  0.749889  0.000258  1
  Ru  Ru10  1  0.319897  0.575677  0.218696  1
  Ru  Ru11  1  0.680080  0.424513  0.781516  1
  Ru  Ru12  1  0.101554  0.924756  0.781057  1
  Ru  Ru13  1  0.898661  0.074954  0.218746  1
