# generated using pymatgen
data_SrTb6RuI12
_symmetry_space_group_name_H-M   'P 1'
_cell_length_a   9.84996986
_cell_length_b   9.84996954
_cell_length_c   9.84996881
_cell_angle_alpha   106.43958151
_cell_angle_beta   106.43958159
_cell_angle_gamma   106.43958280
_symmetry_Int_Tables_number   1
_chemical_formula_structural   SrTb6RuI12
_chemical_formula_sum   'Sr1 Tb6 Ru1 I12'
_cell_volume   807.74343874
_cell_formula_units_Z   1
loop_
 _symmetry_equiv_pos_site_id
 _symmetry_equiv_pos_as_xyz
  1  'x, y, z'
loop_
 _atom_site_type_symbol
 _atom_site_label
 _atom_site_symmetry_multiplicity
 _atom_site_fract_x
 _atom_site_fract_y
 _atom_site_fract_z
 _atom_site_occupancy
  Sr  Sr0  1  0.500000  0.500000  0.500000  1
  Tb  Tb1  1  0.906480  0.705234  0.979294  1
  Tb  Tb2  1  0.979294  0.906480  0.705234  1
  Tb  Tb3  1  0.705234  0.979294  0.906480  1
  Tb  Tb4  1  0.093520  0.294766  0.020706  1
  Tb  Tb5  1  0.020706  0.093520  0.294766  1
  Tb  Tb6  1  0.294766  0.020706  0.093520  1
  Ru  Ru7  1  0.000000  0.000000  0.000000  1
  I  I8  1  0.630257  0.862567  0.550374  1
  I  I9  1  0.550374  0.630257  0.862567  1
  I  I10  1  0.862567  0.550374  0.630257  1
  I  I11  1  0.369743  0.137433  0.449626  1
  I  I12  1  0.449626  0.369743  0.137433  1
  I  I13  1  0.137433  0.449626  0.369743  1
  I  I14  1  0.678797  0.073754  0.222894  1
  I  I15  1  0.222894  0.678797  0.073754  1
  I  I16  1  0.073754  0.222894  0.678797  1
  I  I17  1  0.321203  0.926246  0.777106  1
  I  I18  1  0.777106  0.321203  0.926246  1
  I  I19  1  0.926246  0.777106  0.321203  1
