# generated using pymatgen
data_Tb2NdP4Pd7
_symmetry_space_group_name_H-M   'P 1'
_cell_length_a   7.98004358
_cell_length_b   7.98004398
_cell_length_c   9.50151084
_cell_angle_alpha   55.78733472
_cell_angle_beta   55.78733136
_cell_angle_gamma   29.24074516
_symmetry_Int_Tables_number   1
_chemical_formula_structural   Tb2NdP4Pd7
_chemical_formula_sum   'Tb2 Nd1 P4 Pd7'
_cell_volume   240.54259917
_cell_formula_units_Z   1
loop_
 _symmetry_equiv_pos_site_id
 _symmetry_equiv_pos_as_xyz
  1  'x, y, z'
loop_
 _atom_site_type_symbol
 _atom_site_label
 _atom_site_symmetry_multiplicity
 _atom_site_fract_x
 _atom_site_fract_y
 _atom_site_fract_z
 _atom_site_occupancy
  Tb  Tb0  1  0.679431  0.679431  0.323835  1
  Tb  Tb1  1  0.320569  0.320569  0.676165  1
  Nd  Nd2  1  0.000000  0.000000  0.000000  1
  P  P3  1  0.337917  0.337917  0.258739  1
  P  P4  1  0.662083  0.662083  0.741261  1
  P  P5  1  0.893488  0.893488  0.817302  1
  P  P6  1  0.106512  0.106512  0.182698  1
  Pd  Pd7  1  0.304636  0.304636  0.030202  1
  Pd  Pd8  1  0.695364  0.695364  0.969798  1
  Pd  Pd9  1  0.509662  0.509662  0.713209  1
  Pd  Pd10  1  0.830306  0.830306  0.424558  1
  Pd  Pd11  1  0.490338  0.490338  0.286791  1
  Pd  Pd12  1  0.169694  0.169694  0.575442  1
  Pd  Pd13  1  0.000000  0.000000  0.500000  1
