# generated using pymatgen
data_Rb4PrUI10
_symmetry_space_group_name_H-M   'P 1'
_cell_length_a   9.48232030
_cell_length_b   10.06673100
_cell_length_c   15.09618256
_cell_angle_alpha   90.00000000
_cell_angle_beta   89.92079703
_cell_angle_gamma   90.00000000
_symmetry_Int_Tables_number   1
_chemical_formula_structural   Rb4PrUI10
_chemical_formula_sum   'Rb8 Pr2 U2 I20'
_cell_volume   1441.01933735
_cell_formula_units_Z   2
loop_
 _symmetry_equiv_pos_site_id
 _symmetry_equiv_pos_as_xyz
  1  'x, y, z'
loop_
 _atom_site_type_symbol
 _atom_site_label
 _atom_site_symmetry_multiplicity
 _atom_site_fract_x
 _atom_site_fract_y
 _atom_site_fract_z
 _atom_site_occupancy
  Rb  Rb0  1  0.943276  0.003035  0.826218  1
  Rb  Rb1  1  0.056724  0.996965  0.173782  1
  Rb  Rb2  1  0.443325  0.996973  0.673416  1
  Rb  Rb3  1  0.056724  0.503035  0.173782  1
  Rb  Rb4  1  0.556675  0.003027  0.326584  1
  Rb  Rb5  1  0.943276  0.496965  0.826218  1
  Rb  Rb6  1  0.556675  0.496973  0.326584  1
  Rb  Rb7  1  0.443325  0.503027  0.673416  1
  Pr  Pr8  1  0.421911  0.250000  0.995124  1
  Pr  Pr9  1  0.578089  0.750000  0.004876  1
  U  U10  1  0.924218  0.750000  0.503855  1
  U  U11  1  0.075782  0.250000  0.496145  1
  I  I12  1  0.121389  0.750000  0.675760  1
  I  I13  1  0.878611  0.250000  0.324240  1
  I  I14  1  0.622906  0.250000  0.823941  1
  I  I15  1  0.377094  0.750000  0.176059  1
  I  I16  1  0.837382  0.045497  0.573769  1
  I  I17  1  0.162618  0.954503  0.426231  1
  I  I18  1  0.335662  0.954662  0.926112  1
  I  I19  1  0.162618  0.545497  0.426231  1
  I  I20  1  0.664338  0.045338  0.073888  1
  I  I21  1  0.837382  0.454503  0.573769  1
  I  I22  1  0.664338  0.454662  0.073888  1
  I  I23  1  0.335662  0.545338  0.926112  1
  I  I24  1  0.581543  0.750000  0.510100  1
  I  I25  1  0.418457  0.250000  0.489900  1
  I  I26  1  0.080772  0.250000  0.989710  1
  I  I27  1  0.919228  0.750000  0.010290  1
  I  I28  1  0.658312  0.750000  0.798963  1
  I  I29  1  0.341688  0.250000  0.201037  1
  I  I30  1  0.158498  0.250000  0.700002  1
  I  I31  1  0.841502  0.750000  0.299998  1
