# generated using pymatgen
data_Th(Ga3Pd)3
_symmetry_space_group_name_H-M   'P 1'
_cell_length_a   10.52643145
_cell_length_b   10.52643037
_cell_length_c   10.52642959
_cell_angle_alpha   42.71446067
_cell_angle_beta   42.71446861
_cell_angle_gamma   42.71447055
_symmetry_Int_Tables_number   1
_chemical_formula_structural   Th(Ga3Pd)3
_chemical_formula_sum   'Th2 Ga18 Pd6'
_cell_volume   486.19782835
_cell_formula_units_Z   2
loop_
 _symmetry_equiv_pos_site_id
 _symmetry_equiv_pos_as_xyz
  1  'x, y, z'
loop_
 _atom_site_type_symbol
 _atom_site_label
 _atom_site_symmetry_multiplicity
 _atom_site_fract_x
 _atom_site_fract_y
 _atom_site_fract_z
 _atom_site_occupancy
  Th  Th0  1  0.166906  0.166906  0.166906  1
  Th  Th1  1  0.833094  0.833094  0.833094  1
  Ga  Ga2  1  0.048573  0.048573  0.048573  1
  Ga  Ga3  1  0.699660  0.500000  0.300340  1
  Ga  Ga4  1  0.664501  0.335499  0.000000  1
  Ga  Ga5  1  0.109371  0.435751  0.763100  1
  Ga  Ga6  1  0.435751  0.763100  0.109371  1
  Ga  Ga7  1  0.383772  0.383772  0.383772  1
  Ga  Ga8  1  0.335499  0.000000  0.664501  1
  Ga  Ga9  1  0.616228  0.616228  0.616228  1
  Ga  Ga10  1  0.236900  0.564249  0.890629  1
  Ga  Ga11  1  0.564249  0.890629  0.236900  1
  Ga  Ga12  1  0.500000  0.300340  0.699660  1
  Ga  Ga13  1  0.763100  0.109371  0.435751  1
  Ga  Ga14  1  0.951427  0.951427  0.951427  1
  Ga  Ga15  1  0.300340  0.699660  0.500000  1
  Ga  Ga16  1  0.000000  0.664501  0.335499  1
  Ga  Ga17  1  0.714511  0.714511  0.714511  1
  Ga  Ga18  1  0.285489  0.285489  0.285489  1
  Ga  Ga19  1  0.890629  0.236900  0.564249  1
  Pd  Pd20  1  0.241246  0.920513  0.580972  1
  Pd  Pd21  1  0.920513  0.580972  0.241246  1
  Pd  Pd22  1  0.758754  0.419028  0.079487  1
  Pd  Pd23  1  0.079487  0.758754  0.419028  1
  Pd  Pd24  1  0.419028  0.079487  0.758754  1
  Pd  Pd25  1  0.580972  0.241246  0.920513  1
