# generated using pymatgen
data_Yb3Zn(Rh2O7)2
_symmetry_space_group_name_H-M   'P 1'
_cell_length_a   7.22854559
_cell_length_b   7.08156411
_cell_length_c   7.22854600
_cell_angle_alpha   59.31100294
_cell_angle_beta   59.99999814
_cell_angle_gamma   59.31100630
_symmetry_Int_Tables_number   1
_chemical_formula_structural   Yb3Zn(Rh2O7)2
_chemical_formula_sum   'Yb3 Zn1 Rh4 O14'
_cell_volume   258.88915508
_cell_formula_units_Z   1
loop_
 _symmetry_equiv_pos_site_id
 _symmetry_equiv_pos_as_xyz
  1  'x, y, z'
loop_
 _atom_site_type_symbol
 _atom_site_label
 _atom_site_symmetry_multiplicity
 _atom_site_fract_x
 _atom_site_fract_y
 _atom_site_fract_z
 _atom_site_occupancy
  Yb  Yb0  1  0.125000  0.125000  0.125000  1
  Yb  Yb1  1  0.625000  0.125000  0.125000  1
  Yb  Yb2  1  0.125000  0.125000  0.625000  1
  Zn  Zn3  1  0.125000  0.625000  0.125000  1
  Rh  Rh4  1  0.625000  0.625000  0.625000  1
  Rh  Rh5  1  0.625000  0.625000  0.125000  1
  Rh  Rh6  1  0.125000  0.625000  0.625000  1
  Rh  Rh7  1  0.625000  0.125000  0.625000  1
  O  O8  1  0.234571  0.296289  0.234571  1
  O  O9  1  0.300492  0.700059  0.300492  1
  O  O10  1  0.956829  0.960594  0.541289  1
  O  O11  1  0.541289  0.960594  0.541289  1
  O  O12  1  0.698957  0.700059  0.300492  1
  O  O13  1  0.949508  0.549941  0.551043  1
  O  O14  1  0.708711  0.289406  0.708711  1
  O  O15  1  0.293171  0.289406  0.708711  1
  O  O16  1  0.708711  0.289406  0.293171  1
  O  O17  1  0.300492  0.700059  0.698957  1
  O  O18  1  0.949508  0.549941  0.949508  1
  O  O19  1  0.551043  0.549941  0.949508  1
  O  O20  1  0.015429  0.953711  0.015429  1
  O  O21  1  0.541289  0.960594  0.956829  1
