# generated using pymatgen
data_Os2WBr9
_symmetry_space_group_name_H-M   'P 1'
_cell_length_a   8.81651801
_cell_length_b   10.71644100
_cell_length_c   9.47124780
_cell_angle_alpha   90.00000000
_cell_angle_beta   111.38655120
_cell_angle_gamma   90.00000000
_symmetry_Int_Tables_number   1
_chemical_formula_structural   Os2WBr9
_chemical_formula_sum   'Os4 W2 Br18'
_cell_volume   833.24080353
_cell_formula_units_Z   2
loop_
 _symmetry_equiv_pos_site_id
 _symmetry_equiv_pos_as_xyz
  1  'x, y, z'
loop_
 _atom_site_type_symbol
 _atom_site_label
 _atom_site_symmetry_multiplicity
 _atom_site_fract_x
 _atom_site_fract_y
 _atom_site_fract_z
 _atom_site_occupancy
  Os  Os0  1  0.836087  0.128541  0.372122  1
  Os  Os1  1  0.836087  0.371458  0.372122  1
  Os  Os2  1  0.163913  0.628541  0.627878  1
  Os  Os3  1  0.163913  0.871459  0.627878  1
  W  W4  1  0.830550  0.250000  0.147735  1
  W  W5  1  0.169449  0.750000  0.852265  1
  Br  Br6  1  0.437666  0.750000  0.044707  1
  Br  Br7  1  0.088901  0.250000  0.110028  1
  Br  Br8  1  0.830505  0.008559  0.140586  1
  Br  Br9  1  0.830505  0.491441  0.140586  1
  Br  Br10  1  0.543479  0.091540  0.305727  1
  Br  Br11  1  0.543479  0.408460  0.305727  1
  Br  Br12  1  0.154981  0.750000  0.397360  1
  Br  Br13  1  0.144884  0.093770  0.488477  1
  Br  Br14  1  0.144884  0.406229  0.488477  1
  Br  Br15  1  0.855115  0.593770  0.511522  1
  Br  Br16  1  0.855115  0.906230  0.511522  1
  Br  Br17  1  0.845019  0.250000  0.602640  1
  Br  Br18  1  0.456521  0.591539  0.694273  1
  Br  Br19  1  0.456521  0.908461  0.694273  1
  Br  Br20  1  0.169495  0.508559  0.859414  1
  Br  Br21  1  0.169495  0.991442  0.859414  1
  Br  Br22  1  0.911098  0.750000  0.889972  1
  Br  Br23  1  0.562334  0.250000  0.955293  1
