# generated using pymatgen
data_HoLu2Co8P6Ru
_symmetry_space_group_name_H-M   'P 1'
_cell_length_a   3.67497600
_cell_length_b   10.47315600
_cell_length_c   12.17537100
_cell_angle_alpha   90.00000000
_cell_angle_beta   90.00000000
_cell_angle_gamma   90.00000000
_symmetry_Int_Tables_number   1
_chemical_formula_structural   HoLu2Co8P6Ru
_chemical_formula_sum   'Ho2 Lu4 Co16 P12 Ru2'
_cell_volume   468.61294707
_cell_formula_units_Z   2
loop_
 _symmetry_equiv_pos_site_id
 _symmetry_equiv_pos_as_xyz
  1  'x, y, z'
loop_
 _atom_site_type_symbol
 _atom_site_label
 _atom_site_symmetry_multiplicity
 _atom_site_fract_x
 _atom_site_fract_y
 _atom_site_fract_z
 _atom_site_occupancy
  Ho  Ho0  1  0.000000  0.500000  0.525527  1
  Ho  Ho1  1  0.500000  0.000000  0.474473  1
  Lu  Lu2  1  0.500000  0.818031  0.206871  1
  Lu  Lu3  1  0.500000  0.181969  0.206871  1
  Lu  Lu4  1  0.000000  0.681969  0.793129  1
  Lu  Lu5  1  0.000000  0.318031  0.793129  1
  Co  Co6  1  0.500000  0.500000  0.705130  1
  Co  Co7  1  0.000000  0.000000  0.294870  1
  Co  Co8  1  0.000000  0.500000  0.986547  1
  Co  Co9  1  0.500000  0.000000  0.013453  1
  Co  Co10  1  0.500000  0.332177  0.990184  1
  Co  Co11  1  0.500000  0.667823  0.990184  1
  Co  Co12  1  0.000000  0.167823  0.009816  1
  Co  Co13  1  0.000000  0.832177  0.009816  1
  Co  Co14  1  0.500000  0.297116  0.430885  1
  Co  Co15  1  0.500000  0.702884  0.430885  1
  Co  Co16  1  0.000000  0.202884  0.569115  1
  Co  Co17  1  0.000000  0.797116  0.569115  1
  Co  Co18  1  0.500000  0.877950  0.708007  1
  Co  Co19  1  0.500000  0.122050  0.708007  1
  Co  Co20  1  0.000000  0.622050  0.291993  1
  Co  Co21  1  0.000000  0.377950  0.291993  1
  P  P22  1  0.500000  0.500000  0.881122  1
  P  P23  1  0.000000  0.000000  0.118878  1
  P  P24  1  0.500000  0.500000  0.351065  1
  P  P25  1  0.000000  0.000000  0.648935  1
  P  P26  1  0.500000  0.312254  0.617544  1
  P  P27  1  0.500000  0.687746  0.617544  1
  P  P28  1  0.000000  0.187746  0.382456  1
  P  P29  1  0.000000  0.812254  0.382456  1
  P  P30  1  0.500000  0.845513  0.892173  1
  P  P31  1  0.500000  0.154487  0.892173  1
  P  P32  1  0.000000  0.654487  0.107827  1
  P  P33  1  0.000000  0.345513  0.107827  1
  Ru  Ru34  1  0.500000  0.500000  0.158854  1
  Ru  Ru35  1  0.000000  0.000000  0.841146  1
