# generated using pymatgen
data_TmGaSnI6
_symmetry_space_group_name_H-M   'P 1'
_cell_length_a   8.67985685
_cell_length_b   8.67996215
_cell_length_c   8.67977846
_cell_angle_alpha   54.52900202
_cell_angle_beta   54.53039133
_cell_angle_gamma   54.52889338
_symmetry_Int_Tables_number   1
_chemical_formula_structural   TmGaSnI6
_chemical_formula_sum   'Tm1 Ga1 Sn1 I6'
_cell_volume   403.43904429
_cell_formula_units_Z   1
loop_
 _symmetry_equiv_pos_site_id
 _symmetry_equiv_pos_as_xyz
  1  'x, y, z'
loop_
 _atom_site_type_symbol
 _atom_site_label
 _atom_site_symmetry_multiplicity
 _atom_site_fract_x
 _atom_site_fract_y
 _atom_site_fract_z
 _atom_site_occupancy
  Tm  Tm0  1  0.999735  0.999737  0.999724  1
  Ga  Ga1  1  0.669284  0.669285  0.669289  1
  Sn  Sn2  1  0.331454  0.331452  0.331457  1
  I  I3  1  0.228598  0.610573  0.922247  1
  I  I4  1  0.610565  0.922242  0.228601  1
  I  I5  1  0.922251  0.228603  0.610555  1
  I  I6  1  0.762771  0.380230  0.095118  1
  I  I7  1  0.380230  0.095105  0.762776  1
  I  I8  1  0.095114  0.762773  0.380234  1
