# generated using pymatgen
data_HfSc5As6
_symmetry_space_group_name_H-M   'P 1'
_cell_length_a   5.49384700
_cell_length_b   8.66124540
_cell_length_c   5.49309300
_cell_angle_alpha   90.00000000
_cell_angle_beta   90.00000000
_cell_angle_gamma   108.69301775
_symmetry_Int_Tables_number   1
_chemical_formula_structural   HfSc5As6
_chemical_formula_sum   'Hf1 Sc5 As6'
_cell_volume   247.59288932
_cell_formula_units_Z   1
loop_
 _symmetry_equiv_pos_site_id
 _symmetry_equiv_pos_as_xyz
  1  'x, y, z'
loop_
 _atom_site_type_symbol
 _atom_site_label
 _atom_site_symmetry_multiplicity
 _atom_site_fract_x
 _atom_site_fract_y
 _atom_site_fract_z
 _atom_site_occupancy
  Hf  Hf0  1  0.528229  0.860990  0.500000  1
  Sc  Sc1  1  0.694367  0.195302  0.000000  1
  Sc  Sc2  1  0.361441  0.527202  0.000000  1
  Sc  Sc3  1  0.028855  0.861170  0.000000  1
  Sc  Sc4  1  0.193390  0.195257  0.500000  1
  Sc  Sc5  1  0.860412  0.526752  0.500000  1
  As  As6  1  0.193975  0.194242  0.000000  1
  As  As7  1  0.861684  0.528180  0.000000  1
  As  As8  1  0.528703  0.861183  0.000000  1
  As  As9  1  0.691868  0.191897  0.500000  1
  As  As10  1  0.362185  0.530141  0.500000  1
  As  As11  1  0.028098  0.860990  0.500000  1
