# generated using pymatgen
data_Sm4Al24Pd5Pt4
_symmetry_space_group_name_H-M   'P 1'
_cell_length_a   7.53926198
_cell_length_b   7.56547924
_cell_length_c   13.20200600
_cell_angle_alpha   84.59426036
_cell_angle_beta   79.12526833
_cell_angle_gamma   59.97527412
_symmetry_Int_Tables_number   1
_chemical_formula_structural   Sm4Al24Pd5Pt4
_chemical_formula_sum   'Sm4 Al24 Pd5 Pt4'
_cell_volume   640.26185975
_cell_formula_units_Z   1
loop_
 _symmetry_equiv_pos_site_id
 _symmetry_equiv_pos_as_xyz
  1  'x, y, z'
loop_
 _atom_site_type_symbol
 _atom_site_label
 _atom_site_symmetry_multiplicity
 _atom_site_fract_x
 _atom_site_fract_y
 _atom_site_fract_z
 _atom_site_occupancy
  Sm  Sm0  1  0.393567  0.168224  0.808058  1
  Sm  Sm1  1  0.606433  0.831776  0.191942  1
  Sm  Sm2  1  0.733310  0.498177  0.808210  1
  Sm  Sm3  1  0.266690  0.501823  0.191790  1
  Al  Al4  1  0.685680  0.833782  0.945143  1
  Al  Al5  1  0.314320  0.166218  0.054857  1
  Al  Al6  1  0.146444  0.833613  0.561394  1
  Al  Al7  1  0.853556  0.166387  0.438606  1
  Al  Al8  1  0.480550  0.166003  0.558664  1
  Al  Al9  1  0.519450  0.833997  0.441336  1
  Al  Al10  1  0.215347  0.165912  0.332182  1
  Al  Al11  1  0.784653  0.834088  0.667818  1
  Al  Al12  1  0.436899  0.507016  0.667874  1
  Al  Al13  1  0.563101  0.492984  0.332126  1
  Al  Al14  1  0.110022  0.159728  0.667188  1
  Al  Al15  1  0.889978  0.840272  0.332812  1
  Al  Al16  1  0.351202  0.500828  0.945212  1
  Al  Al17  1  0.648798  0.499172  0.054788  1
  Al  Al18  1  0.015154  0.166602  0.954760  1
  Al  Al19  1  0.984846  0.833398  0.045240  1
  Al  Al20  1  0.187179  0.499351  0.441572  1
  Al  Al21  1  0.812821  0.500649  0.558428  1
  Al  Al22  1  0.735372  0.164506  0.183950  1
  Al  Al23  1  0.264628  0.835494  0.816050  1
  Al  Al24  1  0.061432  0.631571  0.814561  1
  Al  Al25  1  0.938568  0.368429  0.185439  1
  Al  Al26  1  0.856885  0.040023  0.815767  1
  Al  Al27  1  0.143115  0.959977  0.184233  1
  Pd  Pd28  1  0.120245  0.493232  0.637334  1
  Pd  Pd29  1  0.879755  0.506768  0.362666  1
  Pd  Pd30  1  0.657303  0.171299  0.000004  1
  Pd  Pd31  1  0.342697  0.828701  0.999996  1
  Pd  Pd32  1  0.000000  0.500000  0.000000  1
  Pt  Pt33  1  0.538390  0.166840  0.362730  1
  Pt  Pt34  1  0.461610  0.833160  0.637270  1
  Pt  Pt35  1  0.779649  0.174009  0.636195  1
  Pt  Pt36  1  0.220351  0.825991  0.363805  1
