# generated using pymatgen
data_KLaNd5RuBr12
_symmetry_space_group_name_H-M   'P 1'
_cell_length_a   9.67034532
_cell_length_b   9.53649296
_cell_length_c   9.54732400
_cell_angle_alpha   105.36142842
_cell_angle_beta   105.71592383
_cell_angle_gamma   105.61406839
_symmetry_Int_Tables_number   1
_chemical_formula_structural   KLaNd5RuBr12
_chemical_formula_sum   'K1 La1 Nd5 Ru1 Br12'
_cell_volume   760.15493872
_cell_formula_units_Z   1
loop_
 _symmetry_equiv_pos_site_id
 _symmetry_equiv_pos_as_xyz
  1  'x, y, z'
loop_
 _atom_site_type_symbol
 _atom_site_label
 _atom_site_symmetry_multiplicity
 _atom_site_fract_x
 _atom_site_fract_y
 _atom_site_fract_z
 _atom_site_occupancy
  K  K0  1  0.499868  0.500486  0.499369  1
  La  La1  1  0.894933  0.688189  0.982539  1
  Nd  Nd2  1  0.104839  0.308848  0.018114  1
  Nd  Nd3  1  0.310579  0.017821  0.105776  1
  Nd  Nd4  1  0.018817  0.105479  0.310845  1
  Nd  Nd5  1  0.981715  0.896321  0.689832  1
  Nd  Nd6  1  0.689315  0.981753  0.894311  1
  Ru  Ru7  1  0.998935  0.996743  0.000349  1
  Br  Br8  1  0.218478  0.677956  0.075000  1
  Br  Br9  1  0.433844  0.346984  0.125946  1
  Br  Br10  1  0.680000  0.075262  0.215578  1
  Br  Br11  1  0.926845  0.786277  0.326610  1
  Br  Br12  1  0.128399  0.436942  0.347659  1
  Br  Br13  1  0.346417  0.127241  0.437133  1
  Br  Br14  1  0.653834  0.873863  0.563250  1
  Br  Br15  1  0.871263  0.563375  0.647608  1
  Br  Br16  1  0.074775  0.217374  0.678681  1
  Br  Br17  1  0.320115  0.925703  0.784827  1
  Br  Br18  1  0.561666  0.652991  0.871638  1
  Br  Br19  1  0.785367  0.320392  0.924940  1
