# generated using pymatgen
data_DyHoAl8SiRh3
_symmetry_space_group_name_H-M   'P 1'
_cell_length_a   7.53745182
_cell_length_b   7.50995382
_cell_length_c   9.42909900
_cell_angle_alpha   89.98132344
_cell_angle_beta   89.86213945
_cell_angle_gamma   119.70552138
_symmetry_Int_Tables_number   1
_chemical_formula_structural   DyHoAl8SiRh3
_chemical_formula_sum   'Dy2 Ho2 Al16 Si2 Rh6'
_cell_volume   463.59826088
_cell_formula_units_Z   2
loop_
 _symmetry_equiv_pos_site_id
 _symmetry_equiv_pos_as_xyz
  1  'x, y, z'
loop_
 _atom_site_type_symbol
 _atom_site_label
 _atom_site_symmetry_multiplicity
 _atom_site_fract_x
 _atom_site_fract_y
 _atom_site_fract_z
 _atom_site_occupancy
  Dy  Dy0  1  0.675246  0.001254  0.747084  1
  Dy  Dy1  1  0.324754  0.998746  0.252916  1
  Ho  Ho2  1  0.994778  0.664240  0.743044  1
  Ho  Ho3  1  0.005222  0.335760  0.256956  1
  Al  Al4  1  0.128370  0.126870  0.750413  1
  Al  Al5  1  0.871630  0.873130  0.249587  1
  Al  Al6  1  0.998802  0.665685  0.069220  1
  Al  Al7  1  0.334710  0.999281  0.925290  1
  Al  Al8  1  0.001198  0.334315  0.930780  1
  Al  Al9  1  0.665290  0.000719  0.074710  1
  Al  Al10  1  0.661585  0.996465  0.422613  1
  Al  Al11  1  0.338415  0.003535  0.577387  1
  Al  Al12  1  0.333158  0.332107  0.054211  1
  Al  Al13  1  0.666842  0.667893  0.945789  1
  Al  Al14  1  0.663939  0.666768  0.554670  1
  Al  Al15  1  0.336061  0.333232  0.445330  1
  Al  Al16  1  0.339427  0.549444  0.749781  1
  Al  Al17  1  0.660573  0.450556  0.250219  1
  Al  Al18  1  0.547466  0.341090  0.750126  1
  Al  Al19  1  0.452534  0.658910  0.249874  1
  Si  Si20  1  0.002694  0.328230  0.577091  1
  Si  Si21  1  0.997306  0.671770  0.422909  1
  Rh  Rh22  1  0.690260  0.337623  0.501513  1
  Rh  Rh23  1  0.309740  0.662377  0.498487  1
  Rh  Rh24  1  0.327252  0.670958  0.000543  1
  Rh  Rh25  1  0.672748  0.329042  0.999457  1
  Rh  Rh26  1  0.000000  0.000000  0.500000  1
  Rh  Rh27  1  0.000000  0.000000  0.000000  1
