# generated using pymatgen
data_LaTm4(RuO6)2
_symmetry_space_group_name_H-M   'P 1'
_cell_length_a   6.93878309
_cell_length_b   6.93878493
_cell_length_c   7.29100690
_cell_angle_alpha   74.87207480
_cell_angle_beta   74.87206926
_cell_angle_gamma   47.98699245
_symmetry_Int_Tables_number   1
_chemical_formula_structural   LaTm4(RuO6)2
_chemical_formula_sum   'La1 Tm4 Ru2 O12'
_cell_volume   249.95088683
_cell_formula_units_Z   1
loop_
 _symmetry_equiv_pos_site_id
 _symmetry_equiv_pos_as_xyz
  1  'x, y, z'
loop_
 _atom_site_type_symbol
 _atom_site_label
 _atom_site_symmetry_multiplicity
 _atom_site_fract_x
 _atom_site_fract_y
 _atom_site_fract_z
 _atom_site_occupancy
  La  La0  1  0.000000  0.000000  0.000000  1
  Tm  Tm1  1  0.700134  0.700134  0.663352  1
  Tm  Tm2  1  0.699512  0.699512  0.138987  1
  Tm  Tm3  1  0.300488  0.300488  0.861013  1
  Tm  Tm4  1  0.299866  0.299866  0.336648  1
  Ru  Ru5  1  0.275694  0.724306  0.500000  1
  Ru  Ru6  1  0.724306  0.275694  0.500000  1
  O  O7  1  0.416110  0.908266  0.917917  1
  O  O8  1  0.564547  0.106546  0.581660  1
  O  O9  1  0.893454  0.435453  0.418340  1
  O  O10  1  0.091734  0.583890  0.082083  1
  O  O11  1  0.999898  0.999898  0.330809  1
  O  O12  1  0.501678  0.501678  0.714340  1
  O  O13  1  0.908266  0.416110  0.917917  1
  O  O14  1  0.106546  0.564547  0.581660  1
  O  O15  1  0.435453  0.893454  0.418340  1
  O  O16  1  0.583890  0.091734  0.082083  1
  O  O17  1  0.498322  0.498322  0.285660  1
  O  O18  1  0.000102  0.000102  0.669191  1
