# generated using pymatgen
data_Hf5Sc(Tc2Mo)6
_symmetry_space_group_name_H-M   'P 1'
_cell_length_a   4.47956500
_cell_length_b   6.37224700
_cell_length_c   13.58126900
_cell_angle_alpha   90.00000000
_cell_angle_beta   89.99999578
_cell_angle_gamma   90.00000000
_symmetry_Int_Tables_number   1
_chemical_formula_structural   Hf5Sc(Tc2Mo)6
_chemical_formula_sum   'Hf5 Sc1 Tc12 Mo6'
_cell_volume   387.67589258
_cell_formula_units_Z   1
loop_
 _symmetry_equiv_pos_site_id
 _symmetry_equiv_pos_as_xyz
  1  'x, y, z'
loop_
 _atom_site_type_symbol
 _atom_site_label
 _atom_site_symmetry_multiplicity
 _atom_site_fract_x
 _atom_site_fract_y
 _atom_site_fract_z
 _atom_site_occupancy
  Hf  Hf0  1  0.999996  0.000000  0.999083  1
  Hf  Hf1  1  0.499980  0.500000  0.166236  1
  Hf  Hf2  1  0.999968  0.000000  0.333332  1
  Hf  Hf3  1  0.500000  0.500000  0.500435  1
  Hf  Hf4  1  0.000027  0.000000  0.667585  1
  Sc  Sc5  1  0.500064  0.500000  0.833340  1
  Tc  Tc6  1  0.499997  0.250005  0.000529  1
  Tc  Tc7  1  0.499997  0.749995  0.000529  1
  Tc  Tc8  1  0.999974  0.249529  0.166959  1
  Tc  Tc9  1  0.999974  0.750471  0.166959  1
  Tc  Tc10  1  0.499978  0.250662  0.333337  1
  Tc  Tc11  1  0.499978  0.749338  0.333337  1
  Tc  Tc12  1  0.999999  0.249522  0.499710  1
  Tc  Tc13  1  0.999999  0.750478  0.499710  1
  Tc  Tc14  1  0.500018  0.250007  0.666130  1
  Tc  Tc15  1  0.500018  0.749993  0.666130  1
  Tc  Tc16  1  0.000021  0.250686  0.833330  1
  Tc  Tc17  1  0.000021  0.749314  0.833330  1
  Mo  Mo18  1  0.999996  0.500000  0.998370  1
  Mo  Mo19  1  0.499977  0.000000  0.165685  1
  Mo  Mo20  1  0.999981  0.500000  0.333330  1
  Mo  Mo21  1  0.499998  0.000000  0.500976  1
  Mo  Mo22  1  0.000015  0.500000  0.668298  1
  Mo  Mo23  1  0.500022  0.000000  0.833341  1
