# generated using pymatgen
data_Ti6Tl4SiCl18
_symmetry_space_group_name_H-M   'P 1'
_cell_length_a   9.73537835
_cell_length_b   9.96964456
_cell_length_c   10.07505400
_cell_angle_alpha   118.35055884
_cell_angle_beta   100.38771481
_cell_angle_gamma   104.17851804
_symmetry_Int_Tables_number   1
_chemical_formula_structural   Ti6Tl4SiCl18
_chemical_formula_sum   'Ti6 Tl4 Si1 Cl18'
_cell_volume   782.32401982
_cell_formula_units_Z   1
loop_
 _symmetry_equiv_pos_site_id
 _symmetry_equiv_pos_as_xyz
  1  'x, y, z'
loop_
 _atom_site_type_symbol
 _atom_site_label
 _atom_site_symmetry_multiplicity
 _atom_site_fract_x
 _atom_site_fract_y
 _atom_site_fract_z
 _atom_site_occupancy
  Ti  Ti0  1  0.159449  0.059181  0.240741  1
  Ti  Ti1  1  0.840551  0.940819  0.759259  1
  Ti  Ti2  1  0.853636  0.129888  0.136651  1
  Ti  Ti3  1  0.146364  0.870112  0.863349  1
  Ti  Ti4  1  0.153825  0.250165  0.047487  1
  Ti  Ti5  1  0.846175  0.749835  0.952513  1
  Tl  Tl6  1  0.659041  0.537183  0.229563  1
  Tl  Tl7  1  0.340959  0.462817  0.770437  1
  Tl  Tl8  1  0.693807  0.227583  0.563443  1
  Tl  Tl9  1  0.306193  0.772417  0.436557  1
  Si  Si10  1  0.000000  0.000000  0.000000  1
  Cl  Cl11  1  0.008217  0.398270  0.191022  1
  Cl  Cl12  1  0.991783  0.601730  0.808978  1
  Cl  Cl13  1  0.325703  0.326468  0.303875  1
  Cl  Cl14  1  0.674297  0.673532  0.696125  1
  Cl  Cl15  1  0.319972  0.515038  0.099808  1
  Cl  Cl16  1  0.680028  0.484962  0.900192  1
  Cl  Cl17  1  0.004460  0.800872  0.203566  1
  Cl  Cl18  1  0.995540  0.199128  0.796434  1
  Cl  Cl19  1  0.703592  0.266093  0.279818  1
  Cl  Cl20  1  0.296408  0.733907  0.720182  1
  Cl  Cl21  1  0.312472  0.127097  0.907772  1
  Cl  Cl22  1  0.687528  0.872903  0.092228  1
  Cl  Cl23  1  0.015325  0.198549  0.396571  1
  Cl  Cl24  1  0.984675  0.801451  0.603429  1
  Cl  Cl25  1  0.316173  0.926378  0.109227  1
  Cl  Cl26  1  0.683827  0.073622  0.890773  1
  Cl  Cl27  1  0.332035  0.121664  0.494652  1
  Cl  Cl28  1  0.667965  0.878336  0.505348  1
