# generated using pymatgen
data_Y7Tm13Si15Hg
_symmetry_space_group_name_H-M   'P 1'
_cell_length_a   7.60032923
_cell_length_b   7.54740508
_cell_length_c   14.03993200
_cell_angle_alpha   90.05024784
_cell_angle_beta   89.78962758
_cell_angle_gamma   90.21323771
_symmetry_Int_Tables_number   1
_chemical_formula_structural   Y7Tm13Si15Hg
_chemical_formula_sum   'Y7 Tm13 Si15 Hg1'
_cell_volume   805.35799200
_cell_formula_units_Z   1
loop_
 _symmetry_equiv_pos_site_id
 _symmetry_equiv_pos_as_xyz
  1  'x, y, z'
loop_
 _atom_site_type_symbol
 _atom_site_label
 _atom_site_symmetry_multiplicity
 _atom_site_fract_x
 _atom_site_fract_y
 _atom_site_fract_z
 _atom_site_occupancy
  Y  Y0  1  0.005624  0.350642  0.544120  1
  Y  Y1  1  0.643417  0.992343  0.958865  1
  Y  Y2  1  0.140809  0.508624  0.792268  1
  Y  Y3  1  0.850106  0.484370  0.285241  1
  Y  Y4  1  0.506948  0.140098  0.205475  1
  Y  Y5  1  0.494070  0.860123  0.710459  1
  Y  Y6  1  0.365436  0.014454  0.458607  1
  Tm  Tm7  1  0.366824  0.487521  0.374471  1
  Tm  Tm8  1  0.851708  0.016933  0.368723  1
  Tm  Tm9  1  0.992800  0.137915  0.124279  1
  Tm  Tm10  1  0.010126  0.864500  0.628956  1
  Tm  Tm11  1  0.641259  0.510709  0.877682  1
  Tm  Tm12  1  0.493783  0.357599  0.626691  1
  Tm  Tm13  1  0.508702  0.637714  0.122159  1
  Tm  Tm14  1  0.136914  0.991110  0.875718  1
  Tm  Tm15  1  0.994722  0.637495  0.041620  1
  Tm  Tm16  1  0.675766  0.685416  0.500820  1
  Tm  Tm17  1  0.816778  0.182473  0.750914  1
  Tm  Tm18  1  0.182056  0.814913  0.246583  1
  Tm  Tm19  1  0.317435  0.317825  0.999556  1
  Si  Si20  1  0.940944  0.295676  0.938264  1
  Si  Si21  1  0.706760  0.058661  0.563306  1
  Si  Si22  1  0.207289  0.438595  0.187279  1
  Si  Si23  1  0.791098  0.561729  0.688884  1
  Si  Si24  1  0.439342  0.207431  0.814160  1
  Si  Si25  1  0.560078  0.792621  0.309333  1
  Si  Si26  1  0.293829  0.938198  0.061007  1
  Si  Si27  1  0.845334  0.799649  0.813445  1
  Si  Si28  1  0.154690  0.201799  0.310070  1
  Si  Si29  1  0.796793  0.844593  0.184196  1
  Si  Si30  1  0.300876  0.650251  0.569175  1
  Si  Si31  1  0.705433  0.348532  0.063973  1
  Si  Si32  1  0.655239  0.301398  0.439521  1
  Si  Si33  1  0.345086  0.701278  0.937728  1
  Si  Si34  1  0.202514  0.155835  0.691110  1
  Hg  Hg35  1  0.059411  0.710976  0.435344  1
