# generated using pymatgen
data_AcAuSeO
_symmetry_space_group_name_H-M   'P 1'
_cell_length_a   4.33163233
_cell_length_b   4.33163235
_cell_length_c   19.24246500
_cell_angle_alpha   90.00000000
_cell_angle_beta   90.00000000
_cell_angle_gamma   89.90989566
_symmetry_Int_Tables_number   1
_chemical_formula_structural   AcAuSeO
_chemical_formula_sum   'Ac4 Au4 Se4 O4'
_cell_volume   361.04666943
_cell_formula_units_Z   4
loop_
 _symmetry_equiv_pos_site_id
 _symmetry_equiv_pos_as_xyz
  1  'x, y, z'
loop_
 _atom_site_type_symbol
 _atom_site_label
 _atom_site_symmetry_multiplicity
 _atom_site_fract_x
 _atom_site_fract_y
 _atom_site_fract_z
 _atom_site_occupancy
  Ac  Ac0  1  0.465100  0.034590  0.065069  1
  Ac  Ac1  1  0.965101  0.534591  0.434931  1
  Ac  Ac2  1  0.465409  0.034899  0.565070  1
  Ac  Ac3  1  0.965410  0.534900  0.934931  1
  Au  Au4  1  0.715632  0.280910  0.249886  1
  Au  Au5  1  0.215634  0.780908  0.250114  1
  Au  Au6  1  0.219090  0.784365  0.749886  1
  Au  Au7  1  0.719088  0.284366  0.750114  1
  Se  Se8  1  0.964550  0.533028  0.147106  1
  Se  Se9  1  0.464549  0.033028  0.352894  1
  Se  Se10  1  0.966972  0.535451  0.647106  1
  Se  Se11  1  0.466972  0.035450  0.852894  1
  O  O12  1  0.965294  0.034708  0.000000  1
  O  O13  1  0.465304  0.534698  0.000000  1
  O  O14  1  0.965304  0.034698  0.500000  1
  O  O15  1  0.465295  0.534707  0.500000  1
