# generated using pymatgen
data_La6PrNd3(Sn3Br)2
_symmetry_space_group_name_H-M   'P 1'
_cell_length_a   9.66441600
_cell_length_b   9.66441670
_cell_length_c   6.92824300
_cell_angle_alpha   90.00000000
_cell_angle_beta   90.00000000
_cell_angle_gamma   120.00000445
_symmetry_Int_Tables_number   1
_chemical_formula_structural   La6PrNd3(Sn3Br)2
_chemical_formula_sum   'La6 Pr1 Nd3 Sn6 Br2'
_cell_volume   560.40885209
_cell_formula_units_Z   1
loop_
 _symmetry_equiv_pos_site_id
 _symmetry_equiv_pos_as_xyz
  1  'x, y, z'
loop_
 _atom_site_type_symbol
 _atom_site_label
 _atom_site_symmetry_multiplicity
 _atom_site_fract_x
 _atom_site_fract_y
 _atom_site_fract_z
 _atom_site_occupancy
  La  La0  1  0.268780  0.268760  0.750013  1
  La  La1  1  0.999980  0.731220  0.750013  1
  La  La2  1  0.731240  0.000020  0.750013  1
  La  La3  1  0.999980  0.268760  0.249987  1
  La  La4  1  0.731240  0.731220  0.249987  1
  La  La5  1  0.268780  0.000020  0.249987  1
  Pr  Pr6  1  0.333333  0.666667  0.500000  1
  Nd  Nd7  1  0.666667  0.333333  0.500000  1
  Nd  Nd8  1  0.333333  0.666667  0.000000  1
  Nd  Nd9  1  0.666667  0.333333  0.000000  1
  Sn  Sn10  1  0.613102  0.000071  0.249958  1
  Sn  Sn11  1  0.999929  0.386898  0.750042  1
  Sn  Sn12  1  0.386969  0.000071  0.750042  1
  Sn  Sn13  1  0.613102  0.613031  0.750042  1
  Sn  Sn14  1  0.999929  0.613031  0.249958  1
  Sn  Sn15  1  0.386969  0.386898  0.249958  1
  Br  Br16  1  0.000000  0.000000  0.000000  1
  Br  Br17  1  0.000000  0.000000  0.500000  1
