# generated using pymatgen
data_Ca3InGePt2
_symmetry_space_group_name_H-M   'P 1'
_cell_length_a   5.77742600
_cell_length_b   8.18933200
_cell_length_c   13.84161500
_cell_angle_alpha   90.00000000
_cell_angle_beta   90.00000000
_cell_angle_gamma   90.00000000
_symmetry_Int_Tables_number   1
_chemical_formula_structural   Ca3InGePt2
_chemical_formula_sum   'Ca12 In4 Ge4 Pt8'
_cell_volume   654.89192405
_cell_formula_units_Z   4
loop_
 _symmetry_equiv_pos_site_id
 _symmetry_equiv_pos_as_xyz
  1  'x, y, z'
loop_
 _atom_site_type_symbol
 _atom_site_label
 _atom_site_symmetry_multiplicity
 _atom_site_fract_x
 _atom_site_fract_y
 _atom_site_fract_z
 _atom_site_occupancy
  Ca  Ca0  1  0.640548  0.252802  0.250000  1
  Ca  Ca1  1  0.359452  0.747198  0.750000  1
  Ca  Ca2  1  0.359452  0.752802  0.250000  1
  Ca  Ca3  1  0.640548  0.247198  0.750000  1
  Ca  Ca4  1  0.151362  0.396557  0.101548  1
  Ca  Ca5  1  0.848638  0.603443  0.898452  1
  Ca  Ca6  1  0.848638  0.603443  0.601548  1
  Ca  Ca7  1  0.848638  0.896557  0.398452  1
  Ca  Ca8  1  0.151362  0.396557  0.398452  1
  Ca  Ca9  1  0.151362  0.103443  0.601548  1
  Ca  Ca10  1  0.151362  0.103443  0.898452  1
  Ca  Ca11  1  0.848638  0.896557  0.101548  1
  In  In12  1  0.655710  0.250000  0.000000  1
  In  In13  1  0.344290  0.750000  0.000000  1
  In  In14  1  0.344290  0.750000  0.500000  1
  In  In15  1  0.655710  0.250000  0.500000  1
  Ge  Ge16  1  0.137911  0.104168  0.250000  1
  Ge  Ge17  1  0.862089  0.895832  0.750000  1
  Ge  Ge18  1  0.862089  0.604168  0.250000  1
  Ge  Ge19  1  0.137911  0.395832  0.750000  1
  Pt  Pt20  1  0.362472  0.041077  0.099569  1
  Pt  Pt21  1  0.637528  0.958923  0.900431  1
  Pt  Pt22  1  0.637528  0.958923  0.599569  1
  Pt  Pt23  1  0.637528  0.541077  0.400431  1
  Pt  Pt24  1  0.362472  0.041077  0.400431  1
  Pt  Pt25  1  0.362472  0.458923  0.599569  1
  Pt  Pt26  1  0.362472  0.458923  0.900431  1
  Pt  Pt27  1  0.637528  0.541077  0.099569  1
