# generated using pymatgen
data_TbDy4In4CoPt
_symmetry_space_group_name_H-M   'P 1'
_cell_length_a   3.60547800
_cell_length_b   8.09262028
_cell_length_c   18.18056802
_cell_angle_alpha   89.98735806
_cell_angle_beta   90.00000000
_cell_angle_gamma   90.00000000
_symmetry_Int_Tables_number   1
_chemical_formula_structural   TbDy4In4CoPt
_chemical_formula_sum   'Tb2 Dy8 In8 Co2 Pt2'
_cell_volume   530.46831704
_cell_formula_units_Z   2
loop_
 _symmetry_equiv_pos_site_id
 _symmetry_equiv_pos_as_xyz
  1  'x, y, z'
loop_
 _atom_site_type_symbol
 _atom_site_label
 _atom_site_symmetry_multiplicity
 _atom_site_fract_x
 _atom_site_fract_y
 _atom_site_fract_z
 _atom_site_occupancy
  Tb  Tb0  1  0.000000  0.000000  0.000000  1
  Tb  Tb1  1  0.000000  0.500000  0.500000  1
  Dy  Dy2  1  0.000000  0.113138  0.409893  1
  Dy  Dy3  1  0.000000  0.886862  0.590107  1
  Dy  Dy4  1  0.000000  0.381629  0.913435  1
  Dy  Dy5  1  0.000000  0.618371  0.086565  1
  Dy  Dy6  1  0.000000  0.233767  0.223790  1
  Dy  Dy7  1  0.000000  0.766233  0.776210  1
  Dy  Dy8  1  0.000000  0.244103  0.719730  1
  Dy  Dy9  1  0.000000  0.755897  0.280270  1
  In  In10  1  0.500000  0.424413  0.351226  1
  In  In11  1  0.500000  0.575587  0.648774  1
  In  In12  1  0.500000  0.069830  0.847660  1
  In  In13  1  0.500000  0.930170  0.152340  1
  In  In14  1  0.500000  0.291716  0.067967  1
  In  In15  1  0.500000  0.708284  0.932033  1
  In  In16  1  0.500000  0.204707  0.568801  1
  In  In17  1  0.500000  0.795293  0.431199  1
  Co  Co18  1  0.500000  0.018194  0.305463  1
  Co  Co19  1  0.500000  0.981806  0.694537  1
  Pt  Pt20  1  0.500000  0.478736  0.802552  1
  Pt  Pt21  1  0.500000  0.521264  0.197448  1
