# generated using pymatgen
data_Tm5Co19Si11P
_symmetry_space_group_name_H-M   'P 1'
_cell_length_a   12.04852893
_cell_length_b   12.08646188
_cell_length_c   3.69563300
_cell_angle_alpha   90.00000000
_cell_angle_beta   90.00000000
_cell_angle_gamma   120.10420107
_symmetry_Int_Tables_number   1
_chemical_formula_structural   Tm5Co19Si11P
_chemical_formula_sum   'Tm5 Co19 Si11 P1'
_cell_volume   465.58149708
_cell_formula_units_Z   1
loop_
 _symmetry_equiv_pos_site_id
 _symmetry_equiv_pos_as_xyz
  1  'x, y, z'
loop_
 _atom_site_type_symbol
 _atom_site_label
 _atom_site_symmetry_multiplicity
 _atom_site_fract_x
 _atom_site_fract_y
 _atom_site_fract_z
 _atom_site_occupancy
  Tm  Tm0  1  0.667200  0.333344  0.000000  1
  Tm  Tm1  1  0.332800  0.666145  0.000000  1
  Tm  Tm2  1  0.184715  0.185837  0.500000  1
  Tm  Tm3  1  0.815285  0.001122  0.500000  1
  Tm  Tm4  1  0.000000  0.814095  0.500000  1
  Co  Co5  1  0.823476  0.197265  0.000000  1
  Co  Co6  1  0.802624  0.622360  0.000000  1
  Co  Co7  1  0.377546  0.180264  0.000000  1
  Co  Co8  1  0.197376  0.819737  0.000000  1
  Co  Co9  1  0.622454  0.802719  0.000000  1
  Co  Co10  1  0.176524  0.373790  0.000000  1
  Co  Co11  1  0.558335  0.558716  0.000000  1
  Co  Co12  1  0.441665  0.000381  0.000000  1
  Co  Co13  1  0.000000  0.441534  0.000000  1
  Co  Co14  1  0.645187  0.124096  0.500000  1
  Co  Co15  1  0.876566  0.520126  0.500000  1
  Co  Co16  1  0.479137  0.356139  0.500000  1
  Co  Co17  1  0.123434  0.643560  0.500000  1
  Co  Co18  1  0.520863  0.877002  0.500000  1
  Co  Co19  1  0.354813  0.478909  0.500000  1
  Co  Co20  1  0.718646  0.718602  0.500000  1
  Co  Co21  1  0.281354  0.999956  0.500000  1
  Co  Co22  1  0.000000  0.278038  0.500000  1
  Co  Co23  1  0.000000  0.004824  0.000000  1
  Si  Si24  1  0.370157  0.370678  0.000000  1
  Si  Si25  1  0.629843  0.000521  0.000000  1
  Si  Si26  1  0.000000  0.629536  0.000000  1
  Si  Si27  1  0.839762  0.318214  0.500000  1
  Si  Si28  1  0.682233  0.521185  0.500000  1
  Si  Si29  1  0.479410  0.161391  0.500000  1
  Si  Si30  1  0.317767  0.838953  0.500000  1
  Si  Si31  1  0.520590  0.681982  0.500000  1
  Si  Si32  1  0.160238  0.478452  0.500000  1
  Si  Si33  1  0.817653  0.817443  0.000000  1
  Si  Si34  1  0.182347  0.999790  0.000000  1
  P  P35  1  0.000000  0.183293  0.000000  1
