# generated using pymatgen
data_PdRu5O12
_symmetry_space_group_name_H-M   'P 1'
_cell_length_a   4.56814430
_cell_length_b   4.56814379
_cell_length_c   9.40969400
_cell_angle_alpha   90.00000000
_cell_angle_beta   90.00000000
_cell_angle_gamma   90.31151393
_symmetry_Int_Tables_number   1
_chemical_formula_structural   PdRu5O12
_chemical_formula_sum   'Pd1 Ru5 O12'
_cell_volume   196.35802778
_cell_formula_units_Z   1
loop_
 _symmetry_equiv_pos_site_id
 _symmetry_equiv_pos_as_xyz
  1  'x, y, z'
loop_
 _atom_site_type_symbol
 _atom_site_label
 _atom_site_symmetry_multiplicity
 _atom_site_fract_x
 _atom_site_fract_y
 _atom_site_fract_z
 _atom_site_occupancy
  Pd  Pd0  1  0.000000  0.000000  0.000000  1
  Ru  Ru1  1  0.000000  0.000000  0.333908  1
  Ru  Ru2  1  0.000000  0.000000  0.666092  1
  Ru  Ru3  1  0.500000  0.500000  0.167327  1
  Ru  Ru4  1  0.500000  0.500000  0.500000  1
  Ru  Ru5  1  0.500000  0.500000  0.832673  1
  O  O6  1  0.193560  0.193560  0.500000  1
  O  O7  1  0.202200  0.202200  0.175916  1
  O  O8  1  0.202200  0.202200  0.824084  1
  O  O9  1  0.695556  0.304444  0.335015  1
  O  O10  1  0.695556  0.304444  0.664985  1
  O  O11  1  0.684890  0.315110  0.000000  1
  O  O12  1  0.315110  0.684890  0.000000  1
  O  O13  1  0.304444  0.695556  0.335015  1
  O  O14  1  0.304444  0.695556  0.664985  1
  O  O15  1  0.797800  0.797800  0.175916  1
  O  O16  1  0.797800  0.797800  0.824084  1
  O  O17  1  0.806440  0.806440  0.500000  1
