# generated using pymatgen
data_LaPr3(Si3Rh)2
_symmetry_space_group_name_H-M   'P 1'
_cell_length_a   8.28956615
_cell_length_b   8.32628720
_cell_length_c   4.27292000
_cell_angle_alpha   90.00000000
_cell_angle_beta   90.00000000
_cell_angle_gamma   120.14665090
_symmetry_Int_Tables_number   1
_chemical_formula_structural   LaPr3(Si3Rh)2
_chemical_formula_sum   'La1 Pr3 Si6 Rh2'
_cell_volume   255.03213342
_cell_formula_units_Z   1
loop_
 _symmetry_equiv_pos_site_id
 _symmetry_equiv_pos_as_xyz
  1  'x, y, z'
loop_
 _atom_site_type_symbol
 _atom_site_label
 _atom_site_symmetry_multiplicity
 _atom_site_fract_x
 _atom_site_fract_y
 _atom_site_fract_z
 _atom_site_occupancy
  La  La0  1  0.000000  0.500000  0.500000  1
  Pr  Pr1  1  0.000000  0.000000  0.500000  1
  Pr  Pr2  1  0.500000  0.500000  0.500000  1
  Pr  Pr3  1  0.500000  0.000000  0.500000  1
  Si  Si4  1  0.166871  0.332405  0.000000  1
  Si  Si5  1  0.666937  0.833469  0.000000  1
  Si  Si6  1  0.333063  0.166531  0.000000  1
  Si  Si7  1  0.166871  0.834467  0.000000  1
  Si  Si8  1  0.833129  0.667595  0.000000  1
  Si  Si9  1  0.833129  0.165533  0.000000  1
  Rh  Rh10  1  0.333015  0.666508  0.000000  1
  Rh  Rh11  1  0.666985  0.333492  0.000000  1
