# generated using pymatgen
data_Er16MgCd(InIr2)2
_symmetry_space_group_name_H-M   'P 1'
_cell_length_a   9.57547781
_cell_length_b   9.59331638
_cell_length_c   9.60883493
_cell_angle_alpha   60.05340634
_cell_angle_beta   60.14366521
_cell_angle_gamma   59.93834862
_symmetry_Int_Tables_number   1
_chemical_formula_structural   Er16MgCd(InIr2)2
_chemical_formula_sum   'Er16 Mg1 Cd1 In2 Ir4'
_cell_volume   624.77879055
_cell_formula_units_Z   1
loop_
 _symmetry_equiv_pos_site_id
 _symmetry_equiv_pos_as_xyz
  1  'x, y, z'
loop_
 _atom_site_type_symbol
 _atom_site_label
 _atom_site_symmetry_multiplicity
 _atom_site_fract_x
 _atom_site_fract_y
 _atom_site_fract_z
 _atom_site_occupancy
  Er  Er0  1  0.059631  0.064885  0.437406  1
  Er  Er1  1  0.651978  0.041392  0.651632  1
  Er  Er2  1  0.192714  0.806980  0.193325  1
  Er  Er3  1  0.436321  0.063555  0.436569  1
  Er  Er4  1  0.190029  0.188339  0.811971  1
  Er  Er5  1  0.651978  0.654999  0.651632  1
  Er  Er6  1  0.046191  0.652654  0.648504  1
  Er  Er7  1  0.437003  0.062779  0.062408  1
  Er  Er8  1  0.648734  0.651079  0.049110  1
  Er  Er9  1  0.190029  0.809662  0.811971  1
  Er  Er10  1  0.812185  0.187573  0.812669  1
  Er  Er11  1  0.810262  0.189910  0.191394  1
  Er  Er12  1  0.810262  0.808434  0.191394  1
  Er  Er13  1  0.059631  0.438077  0.437406  1
  Er  Er14  1  0.437003  0.437809  0.062408  1
  Er  Er15  1  0.058567  0.440296  0.060842  1
  Mg  Mg16  1  0.424844  0.422198  0.730762  1
  Cd  Cd17  1  0.745065  0.417640  0.419657  1
  In  In18  1  0.418409  0.747911  0.417894  1
  In  In19  1  0.418409  0.415785  0.417894  1
  Ir  Ir20  1  0.858908  0.856458  0.860017  1
  Ir  Ir21  1  0.423186  0.858208  0.860398  1
  Ir  Ir22  1  0.859755  0.858762  0.422721  1
  Ir  Ir23  1  0.858908  0.424618  0.860017  1
