# generated using pymatgen
data_Ho5Sc3(Co4P3)4
_symmetry_space_group_name_H-M   'P 1'
_cell_length_a   12.28951600
_cell_length_b   12.28951559
_cell_length_c   3.73563200
_cell_angle_alpha   90.00000000
_cell_angle_beta   90.00000000
_cell_angle_gamma   120.00000650
_symmetry_Int_Tables_number   1
_chemical_formula_structural   Ho5Sc3(Co4P3)4
_chemical_formula_sum   'Ho5 Sc3 Co16 P12'
_cell_volume   488.61211867
_cell_formula_units_Z   1
loop_
 _symmetry_equiv_pos_site_id
 _symmetry_equiv_pos_as_xyz
  1  'x, y, z'
loop_
 _atom_site_type_symbol
 _atom_site_label
 _atom_site_symmetry_multiplicity
 _atom_site_fract_x
 _atom_site_fract_y
 _atom_site_fract_z
 _atom_site_occupancy
  Ho  Ho0  1  0.666667  0.333333  0.000000  1
  Ho  Ho1  1  0.333333  0.666667  0.000000  1
  Ho  Ho2  1  0.815860  0.815860  0.500000  1
  Ho  Ho3  1  0.184140  0.000000  0.500000  1
  Ho  Ho4  1  0.000000  0.184140  0.500000  1
  Sc  Sc5  1  0.439804  0.439804  0.000000  1
  Sc  Sc6  1  0.560196  0.000000  0.000000  1
  Sc  Sc7  1  0.000000  0.560196  0.000000  1
  Co  Co8  1  0.875405  0.355122  0.500000  1
  Co  Co9  1  0.644878  0.520283  0.500000  1
  Co  Co10  1  0.479717  0.124595  0.500000  1
  Co  Co11  1  0.355122  0.875405  0.500000  1
  Co  Co12  1  0.520283  0.644878  0.500000  1
  Co  Co13  1  0.124595  0.479717  0.500000  1
  Co  Co14  1  0.804872  0.179096  0.000000  1
  Co  Co15  1  0.820904  0.625776  0.000000  1
  Co  Co16  1  0.374224  0.195128  0.000000  1
  Co  Co17  1  0.179096  0.804872  0.000000  1
  Co  Co18  1  0.625776  0.820904  0.000000  1
  Co  Co19  1  0.195128  0.374224  0.000000  1
  Co  Co20  1  0.278310  0.278310  0.500000  1
  Co  Co21  1  0.721690  0.000000  0.500000  1
  Co  Co22  1  0.000000  0.721690  0.500000  1
  Co  Co23  1  0.000000  0.000000  0.000000  1
  P  P24  1  0.692375  0.171124  0.500000  1
  P  P25  1  0.828876  0.521251  0.500000  1
  P  P26  1  0.478749  0.307625  0.500000  1
  P  P27  1  0.171124  0.692375  0.500000  1
  P  P28  1  0.521251  0.828876  0.500000  1
  P  P29  1  0.307625  0.478749  0.500000  1
  P  P30  1  0.179401  0.179401  0.000000  1
  P  P31  1  0.820599  0.000000  0.000000  1
  P  P32  1  0.000000  0.820599  0.000000  1
  P  P33  1  0.645395  0.645395  0.000000  1
  P  P34  1  0.354605  0.000000  0.000000  1
  P  P35  1  0.000000  0.354605  0.000000  1
