# generated using pymatgen
data_Rb4Al3TlS7
_symmetry_space_group_name_H-M   'P 1'
_cell_length_a   10.47553328
_cell_length_b   10.47553322
_cell_length_c   8.92886700
_cell_angle_alpha   76.27716989
_cell_angle_beta   76.27717561
_cell_angle_gamma   72.40559674
_symmetry_Int_Tables_number   1
_chemical_formula_structural   Rb4Al3TlS7
_chemical_formula_sum   'Rb8 Al6 Tl2 S14'
_cell_volume   892.71647402
_cell_formula_units_Z   2
loop_
 _symmetry_equiv_pos_site_id
 _symmetry_equiv_pos_as_xyz
  1  'x, y, z'
loop_
 _atom_site_type_symbol
 _atom_site_label
 _atom_site_symmetry_multiplicity
 _atom_site_fract_x
 _atom_site_fract_y
 _atom_site_fract_z
 _atom_site_occupancy
  Rb  Rb0  1  0.033065  0.433527  0.719159  1
  Rb  Rb1  1  0.433527  0.033065  0.719159  1
  Rb  Rb2  1  0.966935  0.566473  0.280841  1
  Rb  Rb3  1  0.566473  0.966935  0.280841  1
  Rb  Rb4  1  0.296868  0.703132  0.000000  1
  Rb  Rb5  1  0.703132  0.296868  0.000000  1
  Rb  Rb6  1  0.844999  0.155001  0.500000  1
  Rb  Rb7  1  0.155001  0.844999  0.500000  1
  Al  Al8  1  0.214825  0.214825  0.177226  1
  Al  Al9  1  0.785175  0.785175  0.822774  1
  Al  Al10  1  0.071971  0.071971  0.055557  1
  Al  Al11  1  0.928029  0.928029  0.944443  1
  Al  Al12  1  0.347717  0.347717  0.331843  1
  Al  Al13  1  0.652283  0.652283  0.668157  1
  Tl  Tl14  1  0.434303  0.434303  0.677934  1
  Tl  Tl15  1  0.565697  0.565697  0.322066  1
  S  S16  1  0.003366  0.285012  0.111592  1
  S  S17  1  0.285012  0.003366  0.111592  1
  S  S18  1  0.996634  0.714988  0.888408  1
  S  S19  1  0.714988  0.996634  0.888408  1
  S  S20  1  0.205913  0.205913  0.433699  1
  S  S21  1  0.794087  0.794087  0.566301  1
  S  S22  1  0.063721  0.063721  0.807489  1
  S  S23  1  0.936279  0.936279  0.192511  1
  S  S24  1  0.352956  0.352956  0.069534  1
  S  S25  1  0.647044  0.647044  0.930466  1
  S  S26  1  0.259843  0.553418  0.396582  1
  S  S27  1  0.553418  0.259843  0.396582  1
  S  S28  1  0.740157  0.446582  0.603418  1
  S  S29  1  0.446582  0.740157  0.603418  1
