# generated using pymatgen
data_Yb7Y(Si4Mo3)4
_symmetry_space_group_name_H-M   'P 1'
_cell_length_a   6.72468717
_cell_length_b   6.92323310
_cell_length_c   13.03225022
_cell_angle_alpha   89.92886352
_cell_angle_beta   89.98629512
_cell_angle_gamma   89.93021982
_symmetry_Int_Tables_number   1
_chemical_formula_structural   Yb7Y(Si4Mo3)4
_chemical_formula_sum   'Yb7 Y1 Si16 Mo12'
_cell_volume   606.73602327
_cell_formula_units_Z   1
loop_
 _symmetry_equiv_pos_site_id
 _symmetry_equiv_pos_as_xyz
  1  'x, y, z'
loop_
 _atom_site_type_symbol
 _atom_site_label
 _atom_site_symmetry_multiplicity
 _atom_site_fract_x
 _atom_site_fract_y
 _atom_site_fract_z
 _atom_site_occupancy
  Yb  Yb0  1  0.498225  0.334361  0.090226  1
  Yb  Yb1  1  0.998277  0.166136  0.409232  1
  Yb  Yb2  1  0.501614  0.666064  0.590956  1
  Yb  Yb3  1  0.001287  0.831550  0.907459  1
  Yb  Yb4  1  0.501425  0.666526  0.908602  1
  Yb  Yb5  1  0.001539  0.832990  0.590923  1
  Yb  Yb6  1  0.498460  0.334689  0.410096  1
  Y  Y7  1  0.000232  0.169814  0.093336  1
  Si  Si8  1  0.657870  0.043210  0.545783  1
  Si  Si9  1  0.158160  0.457783  0.953908  1
  Si  Si10  1  0.342001  0.956408  0.045228  1
  Si  Si11  1  0.842355  0.543280  0.454339  1
  Si  Si12  1  0.342400  0.956720  0.454547  1
  Si  Si13  1  0.841285  0.544511  0.044878  1
  Si  Si14  1  0.659252  0.042267  0.953954  1
  Si  Si15  1  0.157913  0.456317  0.545866  1
  Si  Si16  1  0.534975  0.373018  0.750309  1
  Si  Si17  1  0.034988  0.125541  0.749833  1
  Si  Si18  1  0.464869  0.628384  0.249345  1
  Si  Si19  1  0.964583  0.871991  0.250335  1
  Si  Si20  1  0.800510  0.630854  0.749792  1
  Si  Si21  1  0.301423  0.867784  0.749925  1
  Si  Si22  1  0.199994  0.369888  0.251301  1
  Si  Si23  1  0.696339  0.132525  0.251005  1
  Mo  Mo24  1  0.834960  0.330775  0.628157  1
  Mo  Mo25  1  0.333800  0.168039  0.872654  1
  Mo  Mo26  1  0.164989  0.668179  0.126904  1
  Mo  Mo27  1  0.665467  0.831011  0.372015  1
  Mo  Mo28  1  0.165618  0.668956  0.371893  1
  Mo  Mo29  1  0.667237  0.833341  0.127152  1
  Mo  Mo30  1  0.835524  0.330223  0.872860  1
  Mo  Mo31  1  0.334965  0.168349  0.628155  1
  Mo  Mo32  1  0.661213  0.008456  0.750193  1
  Mo  Mo33  1  0.161214  0.490515  0.750202  1
  Mo  Mo34  1  0.337203  0.992513  0.249558  1
  Mo  Mo35  1  0.837830  0.507031  0.249076  1
