# generated using pymatgen
data_YZr7(Si4Mo3)4
_symmetry_space_group_name_H-M   'P 1'
_cell_length_a   6.63610521
_cell_length_b   6.79266674
_cell_length_c   12.73397671
_cell_angle_alpha   90.07724745
_cell_angle_beta   90.01127406
_cell_angle_gamma   90.01366767
_symmetry_Int_Tables_number   1
_chemical_formula_structural   YZr7(Si4Mo3)4
_chemical_formula_sum   'Y1 Zr7 Si16 Mo12'
_cell_volume   574.00702313
_cell_formula_units_Z   1
loop_
 _symmetry_equiv_pos_site_id
 _symmetry_equiv_pos_as_xyz
  1  'x, y, z'
loop_
 _atom_site_type_symbol
 _atom_site_label
 _atom_site_symmetry_multiplicity
 _atom_site_fract_x
 _atom_site_fract_y
 _atom_site_fract_z
 _atom_site_occupancy
  Y  Y0  1  0.997622  0.167798  0.091380  1
  Zr  Zr1  1  0.497963  0.329804  0.092709  1
  Zr  Zr2  1  0.996986  0.171937  0.407011  1
  Zr  Zr3  1  0.503764  0.672075  0.593507  1
  Zr  Zr4  1  0.004078  0.825436  0.902996  1
  Zr  Zr5  1  0.505100  0.671217  0.904978  1
  Zr  Zr6  1  0.003594  0.828849  0.594193  1
  Zr  Zr7  1  0.495890  0.328944  0.408812  1
  Si  Si8  1  0.666045  0.041750  0.543295  1
  Si  Si9  1  0.167242  0.461448  0.954815  1
  Si  Si10  1  0.339503  0.955607  0.041996  1
  Si  Si11  1  0.834219  0.541714  0.457899  1
  Si  Si12  1  0.333208  0.958156  0.458031  1
  Si  Si13  1  0.833585  0.545084  0.042427  1
  Si  Si14  1  0.664345  0.040104  0.954860  1
  Si  Si15  1  0.165668  0.458593  0.543731  1
  Si  Si16  1  0.531934  0.376759  0.748988  1
  Si  Si17  1  0.032579  0.125330  0.750553  1
  Si  Si18  1  0.467030  0.624310  0.250821  1
  Si  Si19  1  0.965979  0.871694  0.252084  1
  Si  Si20  1  0.797452  0.635961  0.748737  1
  Si  Si21  1  0.299592  0.864462  0.749121  1
  Si  Si22  1  0.202459  0.363707  0.251608  1
  Si  Si23  1  0.697075  0.138081  0.251701  1
  Mo  Mo24  1  0.831567  0.334770  0.623610  1
  Mo  Mo25  1  0.334061  0.165517  0.875326  1
  Mo  Mo26  1  0.168825  0.664170  0.124282  1
  Mo  Mo27  1  0.666204  0.834809  0.377506  1
  Mo  Mo28  1  0.169333  0.663325  0.377389  1
  Mo  Mo29  1  0.665619  0.834067  0.125021  1
  Mo  Mo30  1  0.829718  0.337126  0.874714  1
  Mo  Mo31  1  0.331352  0.165222  0.623626  1
  Mo  Mo32  1  0.666678  0.988728  0.748722  1
  Mo  Mo33  1  0.165720  0.513087  0.749737  1
  Mo  Mo34  1  0.334130  0.008392  0.251887  1
  Mo  Mo35  1  0.833887  0.491968  0.251926  1
