# generated using pymatgen
data_NdEr3Ir2(RhO7)2
_symmetry_space_group_name_H-M   'P 1'
_cell_length_a   7.28640617
_cell_length_b   7.21244366
_cell_length_c   7.21244225
_cell_angle_alpha   60.10413198
_cell_angle_beta   60.33968855
_cell_angle_gamma   60.33969112
_symmetry_Int_Tables_number   1
_chemical_formula_structural   NdEr3Ir2(RhO7)2
_chemical_formula_sum   'Nd1 Er3 Ir2 Rh2 O14'
_cell_volume   269.59889863
_cell_formula_units_Z   1
loop_
 _symmetry_equiv_pos_site_id
 _symmetry_equiv_pos_as_xyz
  1  'x, y, z'
loop_
 _atom_site_type_symbol
 _atom_site_label
 _atom_site_symmetry_multiplicity
 _atom_site_fract_x
 _atom_site_fract_y
 _atom_site_fract_z
 _atom_site_occupancy
  Nd  Nd0  1  0.625000  0.125000  0.125000  1
  Er  Er1  1  0.125000  0.625000  0.125000  1
  Er  Er2  1  0.125000  0.125000  0.625000  1
  Er  Er3  1  0.125000  0.125000  0.125000  1
  Ir  Ir4  1  0.125000  0.625000  0.625000  1
  Ir  Ir5  1  0.625000  0.625000  0.625000  1
  Rh  Rh6  1  0.625000  0.125000  0.625000  1
  Rh  Rh7  1  0.625000  0.625000  0.125000  1
  O  O8  1  0.723750  0.699258  0.291418  1
  O  O9  1  0.285190  0.291014  0.709761  1
  O  O10  1  0.723750  0.291418  0.699258  1
  O  O11  1  0.285190  0.709761  0.291014  1
  O  O12  1  0.289516  0.709823  0.709823  1
  O  O13  1  0.724905  0.285140  0.285140  1
  O  O14  1  0.526250  0.550742  0.958582  1
  O  O15  1  0.964810  0.958986  0.540239  1
  O  O16  1  0.526250  0.958582  0.550742  1
  O  O17  1  0.964810  0.540239  0.958986  1
  O  O18  1  0.960484  0.540177  0.540177  1
  O  O19  1  0.525095  0.964860  0.964860  1
  O  O20  1  0.237837  0.254961  0.254961  1
  O  O21  1  0.012163  0.995039  0.995039  1
