# generated using pymatgen
data_Tb9Lu11Sn16
_symmetry_space_group_name_H-M   'P 1'
_cell_length_a   7.97556101
_cell_length_b   8.10421830
_cell_length_c   15.31666202
_cell_angle_alpha   90.03638839
_cell_angle_beta   89.99874267
_cell_angle_gamma   90.08236151
_symmetry_Int_Tables_number   1
_chemical_formula_structural   Tb9Lu11Sn16
_chemical_formula_sum   'Tb9 Lu11 Sn16'
_cell_volume   990.00175659
_cell_formula_units_Z   1
loop_
 _symmetry_equiv_pos_site_id
 _symmetry_equiv_pos_as_xyz
  1  'x, y, z'
loop_
 _atom_site_type_symbol
 _atom_site_label
 _atom_site_symmetry_multiplicity
 _atom_site_fract_x
 _atom_site_fract_y
 _atom_site_fract_z
 _atom_site_occupancy
  Tb  Tb0  1  0.866203  0.663566  0.877741  1
  Tb  Tb1  1  0.520352  0.321109  0.904170  1
  Tb  Tb2  1  0.020593  0.178740  0.595588  1
  Tb  Tb3  1  0.479248  0.678462  0.403880  1
  Tb  Tb4  1  0.978886  0.822429  0.097500  1
  Tb  Tb5  1  0.480703  0.677918  0.096228  1
  Tb  Tb6  1  0.979472  0.821701  0.403449  1
  Tb  Tb7  1  0.519707  0.321077  0.595391  1
  Tb  Tb8  1  0.020355  0.178371  0.903703  1
  Lu  Lu9  1  0.364511  0.837443  0.876184  1
  Lu  Lu10  1  0.865183  0.661938  0.623018  1
  Lu  Lu11  1  0.634945  0.161588  0.376627  1
  Lu  Lu12  1  0.135008  0.337934  0.123646  1
  Lu  Lu13  1  0.633853  0.162001  0.124663  1
  Lu  Lu14  1  0.134728  0.337429  0.376559  1
  Lu  Lu15  1  0.365970  0.838096  0.622733  1
  Lu  Lu16  1  0.196924  0.504865  0.749647  1
  Lu  Lu17  1  0.696065  0.995694  0.749208  1
  Lu  Lu18  1  0.803648  0.494814  0.250390  1
  Lu  Lu19  1  0.303251  0.004846  0.250012  1
  Sn  Sn20  1  0.296906  0.039437  0.041541  1
  Sn  Sn21  1  0.797169  0.460468  0.458215  1
  Sn  Sn22  1  0.703727  0.960186  0.541282  1
  Sn  Sn23  1  0.206777  0.538307  0.958962  1
  Sn  Sn24  1  0.700382  0.964000  0.958834  1
  Sn  Sn25  1  0.202269  0.539742  0.541395  1
  Sn  Sn26  1  0.296894  0.039495  0.458177  1
  Sn  Sn27  1  0.796857  0.458457  0.043355  1
  Sn  Sn28  1  0.561493  0.620192  0.748923  1
  Sn  Sn29  1  0.063305  0.881134  0.748883  1
  Sn  Sn30  1  0.437744  0.379626  0.250687  1
  Sn  Sn31  1  0.937747  0.120509  0.250116  1
  Sn  Sn32  1  0.330262  0.149063  0.749645  1
  Sn  Sn33  1  0.829863  0.350368  0.749305  1
  Sn  Sn34  1  0.669325  0.850223  0.250218  1
  Sn  Sn35  1  0.169677  0.648773  0.250122  1
