# generated using pymatgen
data_Ca3Tb(Si4Tc3)2
_symmetry_space_group_name_H-M   'P 1'
_cell_length_a   6.81528436
_cell_length_b   6.70837414
_cell_length_c   6.79411716
_cell_angle_alpha   70.46113897
_cell_angle_beta   90.00498929
_cell_angle_gamma   89.85396676
_symmetry_Int_Tables_number   1
_chemical_formula_structural   Ca3Tb(Si4Tc3)2
_chemical_formula_sum   'Ca3 Tb1 Si8 Tc6'
_cell_volume   292.73509506
_cell_formula_units_Z   1
loop_
 _symmetry_equiv_pos_site_id
 _symmetry_equiv_pos_as_xyz
  1  'x, y, z'
loop_
 _atom_site_type_symbol
 _atom_site_label
 _atom_site_symmetry_multiplicity
 _atom_site_fract_x
 _atom_site_fract_y
 _atom_site_fract_z
 _atom_site_occupancy
  Ca  Ca0  1  0.335720  0.555784  0.816163  1
  Ca  Ca1  1  0.833640  0.943179  0.186965  1
  Ca  Ca2  1  0.665054  0.444602  0.184423  1
  Tb  Tb3  1  0.166233  0.058080  0.808145  1
  Si  Si4  1  0.549900  0.881036  0.897526  1
  Si  Si5  1  0.047103  0.617951  0.105208  1
  Si  Si6  1  0.452587  0.119042  0.103783  1
  Si  Si7  1  0.952692  0.380570  0.898240  1
  Si  Si8  1  0.138424  0.864394  0.491522  1
  Si  Si9  1  0.638839  0.631950  0.507990  1
  Si  Si10  1  0.858206  0.133339  0.505043  1
  Si  Si11  1  0.363168  0.370912  0.489890  1
  Tc  Tc12  1  0.497221  0.999704  0.503170  1
  Tc  Tc13  1  0.000567  0.498459  0.501588  1
  Tc  Tc14  1  0.843968  0.756650  0.755783  1
  Tc  Tc15  1  0.341058  0.746399  0.242074  1
  Tc  Tc16  1  0.157275  0.242029  0.245530  1
  Tc  Tc17  1  0.658344  0.255919  0.756957  1
