# generated using pymatgen
data_La5Nd7(IrBr3)4
_symmetry_space_group_name_H-M   'P 1'
_cell_length_a   10.57510122
_cell_length_b   10.61407395
_cell_length_c   10.57856018
_cell_angle_alpha   109.36607972
_cell_angle_beta   109.52833513
_cell_angle_gamma   109.55874178
_symmetry_Int_Tables_number   1
_chemical_formula_structural   La5Nd7(IrBr3)4
_chemical_formula_sum   'La5 Nd7 Ir4 Br12'
_cell_volume   913.60482629
_cell_formula_units_Z   1
loop_
 _symmetry_equiv_pos_site_id
 _symmetry_equiv_pos_as_xyz
  1  'x, y, z'
loop_
 _atom_site_type_symbol
 _atom_site_label
 _atom_site_symmetry_multiplicity
 _atom_site_fract_x
 _atom_site_fract_y
 _atom_site_fract_z
 _atom_site_occupancy
  La  La0  1  0.268345  0.013564  0.033015  1
  La  La1  1  0.752582  0.234887  0.267598  1
  La  La2  1  0.746718  0.015157  0.481569  1
  La  La3  1  0.468396  0.484585  0.234649  1
  La  La4  1  0.032029  0.267144  0.015495  1
  Nd  Nd5  1  0.267378  0.751815  0.234435  1
  Nd  Nd6  1  0.480759  0.744387  0.013738  1
  Nd  Nd7  1  0.232878  0.466009  0.484459  1
  Nd  Nd8  1  0.018207  0.034105  0.266470  1
  Nd  Nd9  1  0.231603  0.265621  0.745861  1
  Nd  Nd10  1  0.018334  0.483925  0.752183  1
  Nd  Nd11  1  0.481797  0.235645  0.468580  1
  Ir  Ir12  1  0.501083  0.001297  0.250281  1
  Ir  Ir13  1  0.250079  0.498350  0.001344  1
  Ir  Ir14  1  0.997317  0.248832  0.498480  1
  Ir  Ir15  1  0.250301  0.251006  0.248542  1
  Br  Br16  1  0.250435  0.997441  0.503962  1
  Br  Br17  1  0.507489  0.503950  0.754100  1
  Br  Br18  1  0.250257  0.750305  0.744298  1
  Br  Br19  1  0.991539  0.744342  0.999331  1
  Br  Br20  1  0.002024  0.510191  0.254365  1
  Br  Br21  1  0.744249  0.990002  0.991786  1
  Br  Br22  1  0.755700  0.747680  0.245966  1
  Br  Br23  1  0.498228  0.752827  0.508598  1
  Br  Br24  1  0.502649  0.250719  0.992314  1
  Br  Br25  1  0.756161  0.508197  0.510685  1
  Br  Br26  1  0.744008  0.254693  0.752669  1
  Br  Br27  1  0.999456  0.993324  0.745225  1
