# generated using pymatgen
data_Li3Sc4Co12Ni5P12
_symmetry_space_group_name_H-M   'P 1'
_cell_length_a   3.61932600
_cell_length_b   10.09255069
_cell_length_c   11.87690559
_cell_angle_alpha   90.35327985
_cell_angle_beta   90.00000000
_cell_angle_gamma   90.00000000
_symmetry_Int_Tables_number   1
_chemical_formula_structural   Li3Sc4Co12Ni5P12
_chemical_formula_sum   'Li3 Sc4 Co12 Ni5 P12'
_cell_volume   433.83410553
_cell_formula_units_Z   1
loop_
 _symmetry_equiv_pos_site_id
 _symmetry_equiv_pos_as_xyz
  1  'x, y, z'
loop_
 _atom_site_type_symbol
 _atom_site_label
 _atom_site_symmetry_multiplicity
 _atom_site_fract_x
 _atom_site_fract_y
 _atom_site_fract_z
 _atom_site_occupancy
  Li  Li0  1  0.250000  0.705943  0.991751  1
  Li  Li1  1  0.250000  0.793727  0.491959  1
  Li  Li2  1  0.750000  0.293798  0.007869  1
  Sc  Sc3  1  0.250000  0.578510  0.708057  1
  Sc  Sc4  1  0.250000  0.920590  0.207526  1
  Sc  Sc5  1  0.750000  0.420570  0.291246  1
  Sc  Sc6  1  0.750000  0.078585  0.793156  1
  Co  Co7  1  0.250000  0.219199  0.176902  1
  Co  Co8  1  0.250000  0.277138  0.673113  1
  Co  Co9  1  0.750000  0.781628  0.825768  1
  Co  Co10  1  0.750000  0.718522  0.326259  1
  Co  Co11  1  0.250000  0.880645  0.698633  1
  Co  Co12  1  0.250000  0.621100  0.198485  1
  Co  Co13  1  0.750000  0.119512  0.303122  1
  Co  Co14  1  0.750000  0.378154  0.798280  1
  Co  Co15  1  0.250000  0.464465  0.931446  1
  Co  Co16  1  0.250000  0.036216  0.432947  1
  Co  Co17  1  0.750000  0.534204  0.066804  1
  Co  Co18  1  0.750000  0.965239  0.566849  1
  Ni  Ni19  1  0.750000  0.213661  0.509820  1
  Ni  Ni20  1  0.250000  0.408195  0.481972  1
  Ni  Ni21  1  0.250000  0.092973  0.983475  1
  Ni  Ni22  1  0.750000  0.592283  0.517041  1
  Ni  Ni23  1  0.750000  0.907888  0.018284  1
  P  P24  1  0.250000  0.421723  0.116304  1
  P  P25  1  0.250000  0.076754  0.614977  1
  P  P26  1  0.750000  0.577602  0.882805  1
  P  P27  1  0.750000  0.921707  0.383249  1
  P  P28  1  0.250000  0.265277  0.858231  1
  P  P29  1  0.250000  0.234811  0.362380  1
  P  P30  1  0.750000  0.733338  0.141329  1
  P  P31  1  0.750000  0.766413  0.641398  1
  P  P32  1  0.250000  0.599041  0.384368  1
  P  P33  1  0.250000  0.899976  0.885526  1
  P  P34  1  0.750000  0.399313  0.612391  1
  P  P35  1  0.750000  0.101300  0.116278  1
