# generated using pymatgen
data_Sr2CeUO6
_symmetry_space_group_name_H-M   'P 1'
_cell_length_a   6.08859340
_cell_length_b   6.24628800
_cell_length_c   8.72217063
_cell_angle_alpha   90.00000000
_cell_angle_beta   90.05642683
_cell_angle_gamma   90.00000000
_symmetry_Int_Tables_number   1
_chemical_formula_structural   Sr2CeUO6
_chemical_formula_sum   'Sr4 Ce2 U2 O12'
_cell_volume   331.71365160
_cell_formula_units_Z   2
loop_
 _symmetry_equiv_pos_site_id
 _symmetry_equiv_pos_as_xyz
  1  'x, y, z'
loop_
 _atom_site_type_symbol
 _atom_site_label
 _atom_site_symmetry_multiplicity
 _atom_site_fract_x
 _atom_site_fract_y
 _atom_site_fract_z
 _atom_site_occupancy
  Sr  Sr0  1  0.513065  0.543907  0.247757  1
  Sr  Sr1  1  0.986936  0.043906  0.252243  1
  Sr  Sr2  1  0.486935  0.456094  0.752243  1
  Sr  Sr3  1  0.013064  0.956095  0.747756  1
  Ce  Ce4  1  0.500000  0.000000  0.000000  1
  Ce  Ce5  1  0.000000  0.500001  0.499999  1
  U  U6  1  0.000000  0.500001  0.000000  1
  U  U7  1  0.500000  0.000000  0.499999  1
  O  O8  1  0.392753  0.952209  0.261953  1
  O  O9  1  0.107247  0.452210  0.238048  1
  O  O10  1  0.607247  0.047791  0.738047  1
  O  O11  1  0.892753  0.547789  0.761953  1
  O  O12  1  0.286958  0.693129  0.946411  1
  O  O13  1  0.213041  0.193131  0.553588  1
  O  O14  1  0.713042  0.306870  0.053589  1
  O  O15  1  0.786959  0.806870  0.446411  1
  O  O16  1  0.192133  0.215192  0.936761  1
  O  O17  1  0.307866  0.715193  0.563240  1
  O  O18  1  0.807865  0.784807  0.063240  1
  O  O19  1  0.692134  0.284806  0.436759  1
