# generated using pymatgen
data_Ac4Co3RuI2
_symmetry_space_group_name_H-M   'P 1'
_cell_length_a   4.22750100
_cell_length_b   4.22750189
_cell_length_c   18.90365500
_cell_angle_alpha   90.00000000
_cell_angle_beta   90.00000000
_cell_angle_gamma   120.00000086
_symmetry_Int_Tables_number   1
_chemical_formula_structural   Ac4Co3RuI2
_chemical_formula_sum   'Ac4 Co3 Ru1 I2'
_cell_volume   292.57953143
_cell_formula_units_Z   1
loop_
 _symmetry_equiv_pos_site_id
 _symmetry_equiv_pos_as_xyz
  1  'x, y, z'
loop_
 _atom_site_type_symbol
 _atom_site_label
 _atom_site_symmetry_multiplicity
 _atom_site_fract_x
 _atom_site_fract_y
 _atom_site_fract_z
 _atom_site_occupancy
  Ac  Ac0  1  0.000000  0.000000  0.105429  1
  Ac  Ac1  1  0.000000  0.000000  0.398148  1
  Ac  Ac2  1  0.000000  0.000000  0.894401  1
  Ac  Ac3  1  0.000000  0.000000  0.601728  1
  Co  Co4  1  0.666667  0.333333  0.000107  1
  Co  Co5  1  0.333333  0.666667  0.499840  1
  Co  Co6  1  0.666667  0.333333  0.499997  1
  Ru  Ru7  1  0.333333  0.666667  0.000197  1
  I  I8  1  0.333333  0.666667  0.747550  1
  I  I9  1  0.666667  0.333333  0.252601  1
