# generated using pymatgen
data_Y12CoTc2Ir
_symmetry_space_group_name_H-M   'P 1'
_cell_length_a   6.37252213
_cell_length_b   7.32053187
_cell_length_c   9.24672100
_cell_angle_alpha   90.00000000
_cell_angle_beta   90.00000000
_cell_angle_gamma   90.12113897
_symmetry_Int_Tables_number   1
_chemical_formula_structural   Y12CoTc2Ir
_chemical_formula_sum   'Y12 Co1 Tc2 Ir1'
_cell_volume   431.36089485
_cell_formula_units_Z   1
loop_
 _symmetry_equiv_pos_site_id
 _symmetry_equiv_pos_as_xyz
  1  'x, y, z'
loop_
 _atom_site_type_symbol
 _atom_site_label
 _atom_site_symmetry_multiplicity
 _atom_site_fract_x
 _atom_site_fract_y
 _atom_site_fract_z
 _atom_site_occupancy
  Y  Y0  1  0.328040  0.677971  0.065422  1
  Y  Y1  1  0.167471  0.177312  0.439073  1
  Y  Y2  1  0.667562  0.326804  0.565188  1
  Y  Y3  1  0.827272  0.820619  0.933842  1
  Y  Y4  1  0.667562  0.326804  0.934812  1
  Y  Y5  1  0.827272  0.820619  0.566158  1
  Y  Y6  1  0.328040  0.677971  0.434578  1
  Y  Y7  1  0.167471  0.177312  0.060927  1
  Y  Y8  1  0.867992  0.539565  0.250000  1
  Y  Y9  1  0.631974  0.042377  0.250000  1
  Y  Y10  1  0.142068  0.459527  0.750000  1
  Y  Y11  1  0.371948  0.951683  0.750000  1
  Co  Co12  1  0.538991  0.616373  0.750000  1
  Tc  Tc13  1  0.460803  0.388926  0.250000  1
  Tc  Tc14  1  0.965842  0.110422  0.750000  1
  Ir  Ir15  1  0.039691  0.885714  0.250000  1
