# generated using pymatgen
data_Tm3LuAs6Ru7
_symmetry_space_group_name_H-M   'P 1'
_cell_length_a   7.18229949
_cell_length_b   7.18823109
_cell_length_c   7.18229965
_cell_angle_alpha   109.48795261
_cell_angle_beta   109.45449174
_cell_angle_gamma   109.48795232
_symmetry_Int_Tables_number   1
_chemical_formula_structural   Tm3LuAs6Ru7
_chemical_formula_sum   'Tm3 Lu1 As6 Ru7'
_cell_volume   285.38911596
_cell_formula_units_Z   1
loop_
 _symmetry_equiv_pos_site_id
 _symmetry_equiv_pos_as_xyz
  1  'x, y, z'
loop_
 _atom_site_type_symbol
 _atom_site_label
 _atom_site_symmetry_multiplicity
 _atom_site_fract_x
 _atom_site_fract_y
 _atom_site_fract_z
 _atom_site_occupancy
  Tm  Tm0  1  0.000000  0.000000  0.500000  1
  Tm  Tm1  1  0.500000  0.000000  0.000000  1
  Tm  Tm2  1  0.500000  0.500000  0.500000  1
  Lu  Lu3  1  0.000000  0.500000  0.000000  1
  As  As4  1  0.314680  0.999802  0.314680  1
  As  As5  1  0.000000  0.314878  0.314680  1
  As  As6  1  0.000000  0.685122  0.685320  1
  As  As7  1  0.314680  0.314878  0.000000  1
  As  As8  1  0.685320  0.685122  0.000000  1
  As  As9  1  0.685320  0.000198  0.685320  1
  Ru  Ru10  1  0.750608  0.500000  0.249392  1
  Ru  Ru11  1  0.498784  0.749392  0.249392  1
  Ru  Ru12  1  0.501216  0.250608  0.750608  1
  Ru  Ru13  1  0.750608  0.250608  0.501216  1
  Ru  Ru14  1  0.249392  0.749392  0.498784  1
  Ru  Ru15  1  0.249392  0.500000  0.750608  1
  Ru  Ru16  1  0.000000  0.000000  0.000000  1
