# generated using pymatgen
data_Ca3Ga2Pd7
_symmetry_space_group_name_H-M   'P 1'
_cell_length_a   8.94333778
_cell_length_b   8.94333808
_cell_length_c   8.94333745
_cell_angle_alpha   36.67400185
_cell_angle_beta   36.67400218
_cell_angle_gamma   36.67400024
_symmetry_Int_Tables_number   1
_chemical_formula_structural   Ca3Ga2Pd7
_chemical_formula_sum   'Ca3 Ga2 Pd7'
_cell_volume   228.50191404
_cell_formula_units_Z   1
loop_
 _symmetry_equiv_pos_site_id
 _symmetry_equiv_pos_as_xyz
  1  'x, y, z'
loop_
 _atom_site_type_symbol
 _atom_site_label
 _atom_site_symmetry_multiplicity
 _atom_site_fract_x
 _atom_site_fract_y
 _atom_site_fract_z
 _atom_site_occupancy
  Ca  Ca0  1  0.358699  0.358699  0.358699  1
  Ca  Ca1  1  0.500000  0.500000  0.500000  1
  Ca  Ca2  1  0.641301  0.641301  0.641301  1
  Ga  Ga3  1  0.166717  0.166717  0.166717  1
  Ga  Ga4  1  0.833283  0.833283  0.833283  1
  Pd  Pd5  1  0.000000  0.000000  0.000000  1
  Pd  Pd6  1  0.576656  0.078693  0.078693  1
  Pd  Pd7  1  0.078693  0.576656  0.078693  1
  Pd  Pd8  1  0.921307  0.921307  0.423344  1
  Pd  Pd9  1  0.078693  0.078693  0.576656  1
  Pd  Pd10  1  0.921307  0.423344  0.921307  1
  Pd  Pd11  1  0.423344  0.921307  0.921307  1
