# generated using pymatgen
data_Yb3C3BrF
_symmetry_space_group_name_H-M   'P 1'
_cell_length_a   6.60807681
_cell_length_b   6.60807723
_cell_length_c   11.08606200
_cell_angle_alpha   90.00000000
_cell_angle_beta   90.00000000
_cell_angle_gamma   146.94927272
_symmetry_Int_Tables_number   1
_chemical_formula_structural   Yb3C3BrF
_chemical_formula_sum   'Yb6 C6 Br2 F2'
_cell_volume   264.01449658
_cell_formula_units_Z   2
loop_
 _symmetry_equiv_pos_site_id
 _symmetry_equiv_pos_as_xyz
  1  'x, y, z'
loop_
 _atom_site_type_symbol
 _atom_site_label
 _atom_site_symmetry_multiplicity
 _atom_site_fract_x
 _atom_site_fract_y
 _atom_site_fract_z
 _atom_site_occupancy
  Yb  Yb0  1  0.662253  0.337747  0.583256  1
  Yb  Yb1  1  0.337747  0.662253  0.416744  1
  Yb  Yb2  1  0.337747  0.662253  0.083256  1
  Yb  Yb3  1  0.662253  0.337747  0.916744  1
  Yb  Yb4  1  0.090224  0.909776  0.250000  1
  Yb  Yb5  1  0.909776  0.090224  0.750000  1
  C  C6  1  0.283846  0.716154  0.630471  1
  C  C7  1  0.716154  0.283846  0.369529  1
  C  C8  1  0.716154  0.283846  0.130471  1
  C  C9  1  0.283846  0.716154  0.869529  1
  C  C10  1  0.726026  0.273974  0.250000  1
  C  C11  1  0.273974  0.726026  0.750000  1
  Br  Br12  1  0.000000  0.000000  0.000000  1
  Br  Br13  1  0.000000  0.000000  0.500000  1
  F  F14  1  0.540526  0.459474  0.750000  1
  F  F15  1  0.459474  0.540526  0.250000  1
