# generated using pymatgen
data_TbNdTh2(CBr)2
_symmetry_space_group_name_H-M   'P 1'
_cell_length_a   3.73196600
_cell_length_b   3.73196605
_cell_length_c   15.10619900
_cell_angle_alpha   90.00000000
_cell_angle_beta   90.00000000
_cell_angle_gamma   119.99998181
_symmetry_Int_Tables_number   1
_chemical_formula_structural   TbNdTh2(CBr)2
_chemical_formula_sum   'Tb1 Nd1 Th2 C2 Br2'
_cell_volume   182.20541339
_cell_formula_units_Z   1
loop_
 _symmetry_equiv_pos_site_id
 _symmetry_equiv_pos_as_xyz
  1  'x, y, z'
loop_
 _atom_site_type_symbol
 _atom_site_label
 _atom_site_symmetry_multiplicity
 _atom_site_fract_x
 _atom_site_fract_y
 _atom_site_fract_z
 _atom_site_occupancy
  Tb  Tb0  1  0.333333  0.666667  0.907089  1
  Nd  Nd1  1  0.333333  0.666667  0.596986  1
  Th  Th2  1  0.666667  0.333333  0.411771  1
  Th  Th3  1  0.666667  0.333333  0.085639  1
  C  C4  1  0.000000  0.000000  0.990869  1
  C  C5  1  0.000000  0.000000  0.501197  1
  Br  Br6  1  0.333333  0.666667  0.247678  1
  Br  Br7  1  0.666667  0.333333  0.758772  1
