# generated using pymatgen
data_CaHf(Si7Rh3)2
_symmetry_space_group_name_H-M   'P 1'
_cell_length_a   7.96767064
_cell_length_b   7.96766958
_cell_length_c   7.96767081
_cell_angle_alpha   57.04270970
_cell_angle_beta   57.04270431
_cell_angle_gamma   57.04270021
_symmetry_Int_Tables_number   1
_chemical_formula_structural   CaHf(Si7Rh3)2
_chemical_formula_sum   'Ca1 Hf1 Si14 Rh6'
_cell_volume   333.28356290
_cell_formula_units_Z   1
loop_
 _symmetry_equiv_pos_site_id
 _symmetry_equiv_pos_as_xyz
  1  'x, y, z'
loop_
 _atom_site_type_symbol
 _atom_site_label
 _atom_site_symmetry_multiplicity
 _atom_site_fract_x
 _atom_site_fract_y
 _atom_site_fract_z
 _atom_site_occupancy
  Ca  Ca0  1  0.000000  0.000000  0.000000  1
  Hf  Hf1  1  0.500000  0.500000  0.500000  1
  Si  Si2  1  0.750057  0.750057  0.750057  1
  Si  Si3  1  0.249943  0.249943  0.249943  1
  Si  Si4  1  0.851149  0.067178  0.671776  1
  Si  Si5  1  0.671776  0.851149  0.067178  1
  Si  Si6  1  0.067178  0.671776  0.851149  1
  Si  Si7  1  0.648320  0.826577  0.435624  1
  Si  Si8  1  0.435624  0.648320  0.826577  1
  Si  Si9  1  0.826577  0.435624  0.648320  1
  Si  Si10  1  0.173423  0.564376  0.351680  1
  Si  Si11  1  0.564376  0.351680  0.173423  1
  Si  Si12  1  0.351680  0.173423  0.564376  1
  Si  Si13  1  0.932822  0.328224  0.148851  1
  Si  Si14  1  0.328224  0.148851  0.932822  1
  Si  Si15  1  0.148851  0.932822  0.328224  1
  Rh  Rh16  1  0.075646  0.433084  0.745121  1
  Rh  Rh17  1  0.254879  0.924354  0.566916  1
  Rh  Rh18  1  0.566916  0.254879  0.924354  1
  Rh  Rh19  1  0.924354  0.566916  0.254879  1
  Rh  Rh20  1  0.433084  0.745121  0.075646  1
  Rh  Rh21  1  0.745121  0.075646  0.433084  1
