# generated using pymatgen
data_DyTm3(NiB4)4
_symmetry_space_group_name_H-M   'P 1'
_cell_length_a   6.79158147
_cell_length_b   6.79158197
_cell_length_c   6.79158193
_cell_angle_alpha   112.98509131
_cell_angle_beta   112.98508761
_cell_angle_gamma   102.65130002
_symmetry_Int_Tables_number   1
_chemical_formula_structural   DyTm3(NiB4)4
_chemical_formula_sum   'Dy1 Tm3 Ni4 B16'
_cell_volume   238.63180623
_cell_formula_units_Z   1
loop_
 _symmetry_equiv_pos_site_id
 _symmetry_equiv_pos_as_xyz
  1  'x, y, z'
loop_
 _atom_site_type_symbol
 _atom_site_label
 _atom_site_symmetry_multiplicity
 _atom_site_fract_x
 _atom_site_fract_y
 _atom_site_fract_z
 _atom_site_occupancy
  Dy  Dy0  1  0.250000  0.750000  0.500000  1
  Tm  Tm1  1  0.796604  0.796604  0.000000  1
  Tm  Tm2  1  0.203396  0.203396  0.000000  1
  Tm  Tm3  1  0.750000  0.250000  0.500000  1
  Ni  Ni4  1  0.271045  0.499254  0.771791  1
  Ni  Ni5  1  0.727464  0.499254  0.228209  1
  Ni  Ni6  1  0.500746  0.728955  0.228209  1
  Ni  Ni7  1  0.500746  0.272536  0.771791  1
  B  B8  1  0.275430  0.111508  0.387001  1
  B  B9  1  0.724506  0.888429  0.612999  1
  B  B10  1  0.275430  0.888429  0.163923  1
  B  B11  1  0.724506  0.111508  0.836077  1
  B  B12  1  0.111571  0.724570  0.836077  1
  B  B13  1  0.888492  0.275494  0.163923  1
  B  B14  1  0.111571  0.275494  0.387001  1
  B  B15  1  0.888492  0.724570  0.612999  1
  B  B16  1  0.113368  0.114150  0.533666  1
  B  B17  1  0.580484  0.579701  0.466334  1
  B  B18  1  0.113368  0.579701  0.999218  1
  B  B19  1  0.580484  0.114150  0.000782  1
  B  B20  1  0.885850  0.886632  0.466334  1
  B  B21  1  0.420299  0.419516  0.533666  1
  B  B22  1  0.885850  0.419516  0.999218  1
  B  B23  1  0.420299  0.886632  0.000782  1
