# generated using pymatgen
data_Er4Mg4Ir3Pt
_symmetry_space_group_name_H-M   'P 1'
_cell_length_a   4.08930500
_cell_length_b   7.00383697
_cell_length_c   8.53394500
_cell_angle_alpha   89.30317335
_cell_angle_beta   90.00000000
_cell_angle_gamma   90.00000000
_symmetry_Int_Tables_number   1
_chemical_formula_structural   Er4Mg4Ir3Pt
_chemical_formula_sum   'Er4 Mg4 Ir3 Pt1'
_cell_volume   244.40115385
_cell_formula_units_Z   1
loop_
 _symmetry_equiv_pos_site_id
 _symmetry_equiv_pos_as_xyz
  1  'x, y, z'
loop_
 _atom_site_type_symbol
 _atom_site_label
 _atom_site_symmetry_multiplicity
 _atom_site_fract_x
 _atom_site_fract_y
 _atom_site_fract_z
 _atom_site_occupancy
  Er  Er0  1  0.250000  0.033665  0.667608  1
  Er  Er1  1  0.250000  0.547993  0.825239  1
  Er  Er2  1  0.750000  0.959863  0.325685  1
  Er  Er3  1  0.750000  0.463867  0.178903  1
  Mg  Mg4  1  0.250000  0.135983  0.062354  1
  Mg  Mg5  1  0.250000  0.635129  0.439917  1
  Mg  Mg6  1  0.750000  0.864396  0.939872  1
  Mg  Mg7  1  0.750000  0.363619  0.559459  1
  Ir  Ir8  1  0.250000  0.248350  0.370503  1
  Ir  Ir9  1  0.250000  0.748663  0.127016  1
  Ir  Ir10  1  0.750000  0.748808  0.631145  1
  Pt  Pt11  1  0.750000  0.249661  0.872298  1
