# generated using pymatgen
data_NdHo3Al18(RePd2)2
_symmetry_space_group_name_H-M   'P 1'
_cell_length_a   7.61174818
_cell_length_b   7.62528395
_cell_length_c   9.54802100
_cell_angle_alpha   90.00000000
_cell_angle_beta   90.00000000
_cell_angle_gamma   118.55042441
_symmetry_Int_Tables_number   1
_chemical_formula_structural   NdHo3Al18(RePd2)2
_chemical_formula_sum   'Nd1 Ho3 Al18 Re2 Pd4'
_cell_volume   486.79326627
_cell_formula_units_Z   1
loop_
 _symmetry_equiv_pos_site_id
 _symmetry_equiv_pos_as_xyz
  1  'x, y, z'
loop_
 _atom_site_type_symbol
 _atom_site_label
 _atom_site_symmetry_multiplicity
 _atom_site_fract_x
 _atom_site_fract_y
 _atom_site_fract_z
 _atom_site_occupancy
  Nd  Nd0  1  0.994226  0.678862  0.250000  1
  Ho  Ho1  1  0.005922  0.317425  0.750000  1
  Ho  Ho2  1  0.681707  0.994715  0.250000  1
  Ho  Ho3  1  0.317635  0.006896  0.750000  1
  Al  Al4  1  0.133119  0.134381  0.250000  1
  Al  Al5  1  0.867081  0.868066  0.750000  1
  Al  Al6  1  0.001927  0.332949  0.074860  1
  Al  Al7  1  0.998038  0.664745  0.920305  1
  Al  Al8  1  0.998038  0.664745  0.579695  1
  Al  Al9  1  0.336834  0.003889  0.425129  1
  Al  Al10  1  0.001927  0.332949  0.425140  1
  Al  Al11  1  0.664809  0.998631  0.577116  1
  Al  Al12  1  0.664809  0.998631  0.922884  1
  Al  Al13  1  0.336834  0.003889  0.074871  1
  Al  Al14  1  0.329674  0.329898  0.549849  1
  Al  Al15  1  0.669311  0.671017  0.454222  1
  Al  Al16  1  0.669311  0.671017  0.045778  1
  Al  Al17  1  0.329674  0.329898  0.950151  1
  Al  Al18  1  0.347456  0.553029  0.250000  1
  Al  Al19  1  0.654388  0.445902  0.750000  1
  Al  Al20  1  0.550859  0.342063  0.250000  1
  Al  Al21  1  0.446051  0.655312  0.750000  1
  Re  Re22  1  0.000503  0.000787  0.998664  1
  Re  Re23  1  0.000503  0.000787  0.501336  1
  Pd  Pd24  1  0.671710  0.327977  0.999632  1
  Pd  Pd25  1  0.327971  0.671780  0.999629  1
  Pd  Pd26  1  0.327971  0.671780  0.500371  1
  Pd  Pd27  1  0.671710  0.327977  0.500368  1
