# generated using pymatgen
data_Tb2LuHf(Al3Rh)6
_symmetry_space_group_name_H-M   'P 1'
_cell_length_a   7.53020274
_cell_length_b   7.51744715
_cell_length_c   9.39481300
_cell_angle_alpha   90.00000000
_cell_angle_beta   90.00000000
_cell_angle_gamma   119.46827754
_symmetry_Int_Tables_number   1
_chemical_formula_structural   Tb2LuHf(Al3Rh)6
_chemical_formula_sum   'Tb2 Lu1 Hf1 Al18 Rh6'
_cell_volume   463.01805050
_cell_formula_units_Z   1
loop_
 _symmetry_equiv_pos_site_id
 _symmetry_equiv_pos_as_xyz
  1  'x, y, z'
loop_
 _atom_site_type_symbol
 _atom_site_label
 _atom_site_symmetry_multiplicity
 _atom_site_fract_x
 _atom_site_fract_y
 _atom_site_fract_z
 _atom_site_occupancy
  Tb  Tb0  1  0.006109  0.327529  0.750000  1
  Tb  Tb1  1  0.328504  0.006357  0.750000  1
  Lu  Lu2  1  0.673005  0.995910  0.250000  1
  Hf  Hf3  1  0.996132  0.672817  0.250000  1
  Al  Al4  1  0.124053  0.121868  0.250000  1
  Al  Al5  1  0.870135  0.869271  0.750000  1
  Al  Al6  1  0.999306  0.338472  0.081869  1
  Al  Al7  1  0.999032  0.664676  0.929399  1
  Al  Al8  1  0.999032  0.664676  0.570601  1
  Al  Al9  1  0.333064  0.997201  0.418046  1
  Al  Al10  1  0.999306  0.338472  0.418131  1
  Al  Al11  1  0.664320  0.997985  0.573244  1
  Al  Al12  1  0.664320  0.997985  0.926756  1
  Al  Al13  1  0.333064  0.997201  0.081954  1
  Al  Al14  1  0.333931  0.333924  0.546779  1
  Al  Al15  1  0.669725  0.667770  0.441671  1
  Al  Al16  1  0.669725  0.667770  0.058329  1
  Al  Al17  1  0.333931  0.333924  0.953221  1
  Al  Al18  1  0.336794  0.552828  0.250000  1
  Al  Al19  1  0.660879  0.451391  0.750000  1
  Al  Al20  1  0.557491  0.344297  0.250000  1
  Al  Al21  1  0.450176  0.659371  0.750000  1
  Rh  Rh22  1  0.673156  0.328279  0.002096  1
  Rh  Rh23  1  0.327714  0.672954  0.002820  1
  Rh  Rh24  1  0.327714  0.672954  0.497180  1
  Rh  Rh25  1  0.673156  0.328279  0.497904  1
  Rh  Rh26  1  0.998113  0.997920  0.002737  1
  Rh  Rh27  1  0.998113  0.997920  0.497263  1
