# generated using pymatgen
data_Pr2Tm4MnCo17P12
_symmetry_space_group_name_H-M   'P 1'
_cell_length_a   3.70925500
_cell_length_b   10.56312800
_cell_length_c   12.23665100
_cell_angle_alpha   90.00000000
_cell_angle_beta   90.00000000
_cell_angle_gamma   90.00000000
_symmetry_Int_Tables_number   1
_chemical_formula_structural   Pr2Tm4MnCo17P12
_chemical_formula_sum   'Pr2 Tm4 Mn1 Co17 P12'
_cell_volume   479.44832639
_cell_formula_units_Z   1
loop_
 _symmetry_equiv_pos_site_id
 _symmetry_equiv_pos_as_xyz
  1  'x, y, z'
loop_
 _atom_site_type_symbol
 _atom_site_label
 _atom_site_symmetry_multiplicity
 _atom_site_fract_x
 _atom_site_fract_y
 _atom_site_fract_z
 _atom_site_occupancy
  Pr  Pr0  1  0.000000  0.500000  0.523260  1
  Pr  Pr1  1  0.500000  0.000000  0.477504  1
  Tm  Tm2  1  0.500000  0.818555  0.204517  1
  Tm  Tm3  1  0.500000  0.181445  0.204517  1
  Tm  Tm4  1  0.000000  0.682332  0.796629  1
  Tm  Tm5  1  0.000000  0.317668  0.796629  1
  Mn  Mn6  1  0.500000  0.500000  0.156354  1
  Co  Co7  1  0.000000  0.000000  0.843350  1
  Co  Co8  1  0.500000  0.500000  0.707284  1
  Co  Co9  1  0.000000  0.000000  0.292167  1
  Co  Co10  1  0.000000  0.500000  0.986131  1
  Co  Co11  1  0.500000  0.000000  0.013612  1
  Co  Co12  1  0.500000  0.332968  0.994072  1
  Co  Co13  1  0.500000  0.667032  0.994072  1
  Co  Co14  1  0.000000  0.166812  0.005765  1
  Co  Co15  1  0.000000  0.833188  0.005765  1
  Co  Co16  1  0.500000  0.296010  0.427679  1
  Co  Co17  1  0.500000  0.703990  0.427679  1
  Co  Co18  1  0.000000  0.204246  0.571358  1
  Co  Co19  1  0.000000  0.795754  0.571358  1
  Co  Co20  1  0.500000  0.879153  0.713318  1
  Co  Co21  1  0.500000  0.120847  0.713318  1
  Co  Co22  1  0.000000  0.620804  0.286346  1
  Co  Co23  1  0.000000  0.379196  0.286346  1
  P  P24  1  0.500000  0.500000  0.883409  1
  P  P25  1  0.000000  0.000000  0.116059  1
  P  P26  1  0.500000  0.500000  0.339792  1
  P  P27  1  0.000000  0.000000  0.661999  1
  P  P28  1  0.500000  0.307385  0.619457  1
  P  P29  1  0.500000  0.692615  0.619457  1
  P  P30  1  0.000000  0.192251  0.381008  1
  P  P31  1  0.000000  0.807749  0.381008  1
  P  P32  1  0.500000  0.846701  0.893844  1
  P  P33  1  0.500000  0.153299  0.893844  1
  P  P34  1  0.000000  0.654313  0.105546  1
  P  P35  1  0.000000  0.345687  0.105546  1
