# generated using pymatgen
data_CaYb3(ZrH5)4
_symmetry_space_group_name_H-M   'P 1'
_cell_length_a   3.42974246
_cell_length_b   5.22730349
_cell_length_c   14.12270941
_cell_angle_alpha   90.00434742
_cell_angle_beta   89.97095233
_cell_angle_gamma   90.05018651
_symmetry_Int_Tables_number   1
_chemical_formula_structural   CaYb3(ZrH5)4
_chemical_formula_sum   'Ca1 Yb3 Zr4 H20'
_cell_volume   253.19610776
_cell_formula_units_Z   1
loop_
 _symmetry_equiv_pos_site_id
 _symmetry_equiv_pos_as_xyz
  1  'x, y, z'
loop_
 _atom_site_type_symbol
 _atom_site_label
 _atom_site_symmetry_multiplicity
 _atom_site_fract_x
 _atom_site_fract_y
 _atom_site_fract_z
 _atom_site_occupancy
  Ca  Ca0  1  0.262007  0.001319  0.689766  1
  Yb  Yb1  1  0.737990  0.501436  0.809455  1
  Yb  Yb2  1  0.238378  0.998613  0.191439  1
  Yb  Yb3  1  0.761645  0.498620  0.308516  1
  Zr  Zr4  1  0.230138  0.000880  0.934334  1
  Zr  Zr5  1  0.728651  0.499212  0.066517  1
  Zr  Zr6  1  0.272164  0.999158  0.433178  1
  Zr  Zr7  1  0.771267  0.500753  0.565679  1
  H  H8  1  0.728344  0.751144  0.948980  1
  H  H9  1  0.228721  0.748309  0.051799  1
  H  H10  1  0.771860  0.247960  0.448214  1
  H  H11  1  0.271217  0.253496  0.550168  1
  H  H12  1  0.236270  0.754685  0.825242  1
  H  H13  1  0.736472  0.745875  0.175325  1
  H  H14  1  0.263093  0.246235  0.324529  1
  H  H15  1  0.763741  0.254178  0.675387  1
  H  H16  1  0.736815  0.251433  0.175042  1
  H  H17  1  0.235924  0.248110  0.825535  1
  H  H18  1  0.763445  0.748532  0.675109  1
  H  H19  1  0.263444  0.751032  0.324794  1
  H  H20  1  0.733458  0.001163  0.838734  1
  H  H21  1  0.235592  0.498826  0.164807  1
  H  H22  1  0.763960  0.998756  0.334773  1
  H  H23  1  0.265223  0.501250  0.663494  1
  H  H24  1  0.228220  0.250293  0.052044  1
  H  H25  1  0.728833  0.250303  0.948750  1
  H  H26  1  0.271757  0.747764  0.550377  1
  H  H27  1  0.771367  0.750665  0.448012  1
