# generated using pymatgen
data_YbY(Al3Pd)3
_symmetry_space_group_name_H-M   'P 1'
_cell_length_a   7.65323844
_cell_length_b   7.65132086
_cell_length_c   9.50375200
_cell_angle_alpha   90.00000000
_cell_angle_beta   90.00000000
_cell_angle_gamma   119.60297221
_symmetry_Int_Tables_number   1
_chemical_formula_structural   YbY(Al3Pd)3
_chemical_formula_sum   'Yb2 Y2 Al18 Pd6'
_cell_volume   483.87257573
_cell_formula_units_Z   2
loop_
 _symmetry_equiv_pos_site_id
 _symmetry_equiv_pos_as_xyz
  1  'x, y, z'
loop_
 _atom_site_type_symbol
 _atom_site_label
 _atom_site_symmetry_multiplicity
 _atom_site_fract_x
 _atom_site_fract_y
 _atom_site_fract_z
 _atom_site_occupancy
  Yb  Yb0  1  0.995453  0.668372  0.250000  1
  Yb  Yb1  1  0.004547  0.331628  0.750000  1
  Y  Y2  1  0.669023  0.996044  0.250000  1
  Y  Y3  1  0.330977  0.003956  0.750000  1
  Al  Al4  1  0.129456  0.130687  0.250000  1
  Al  Al5  1  0.870544  0.869313  0.750000  1
  Al  Al6  1  0.000771  0.334735  0.075998  1
  Al  Al7  1  0.999229  0.665265  0.924002  1
  Al  Al8  1  0.999229  0.665265  0.575998  1
  Al  Al9  1  0.334392  0.999802  0.423927  1
  Al  Al10  1  0.000771  0.334735  0.424002  1
  Al  Al11  1  0.665608  0.000198  0.576073  1
  Al  Al12  1  0.665608  0.000198  0.923927  1
  Al  Al13  1  0.334392  0.999802  0.076073  1
  Al  Al14  1  0.333287  0.333192  0.558381  1
  Al  Al15  1  0.666713  0.666808  0.441619  1
  Al  Al16  1  0.666713  0.666808  0.058381  1
  Al  Al17  1  0.333287  0.333192  0.941619  1
  Al  Al18  1  0.341137  0.547216  0.250000  1
  Al  Al19  1  0.658863  0.452784  0.750000  1
  Al  Al20  1  0.543302  0.335549  0.250000  1
  Al  Al21  1  0.456698  0.664451  0.750000  1
  Pd  Pd22  1  0.671728  0.328579  0.000121  1
  Pd  Pd23  1  0.328272  0.671421  0.999879  1
  Pd  Pd24  1  0.328272  0.671421  0.500121  1
  Pd  Pd25  1  0.671728  0.328579  0.499879  1
  Pd  Pd26  1  0.000000  0.000000  0.000000  1
  Pd  Pd27  1  0.000000  0.000000  0.500000  1
