# generated using pymatgen
data_Ti16CoPt7N4
_symmetry_space_group_name_H-M   'P 1'
_cell_length_a   8.24615818
_cell_length_b   8.24615750
_cell_length_c   8.24615747
_cell_angle_alpha   60.10776443
_cell_angle_beta   60.10776924
_cell_angle_gamma   60.10775855
_symmetry_Int_Tables_number   1
_chemical_formula_structural   Ti16CoPt7N4
_chemical_formula_sum   'Ti16 Co1 Pt7 N4'
_cell_volume   397.46510033
_cell_formula_units_Z   1
loop_
 _symmetry_equiv_pos_site_id
 _symmetry_equiv_pos_as_xyz
  1  'x, y, z'
loop_
 _atom_site_type_symbol
 _atom_site_label
 _atom_site_symmetry_multiplicity
 _atom_site_fract_x
 _atom_site_fract_y
 _atom_site_fract_z
 _atom_site_occupancy
  Ti  Ti0  1  0.113709  0.633738  0.633738  1
  Ti  Ti1  1  0.633738  0.113709  0.633738  1
  Ti  Ti2  1  0.633738  0.633738  0.113709  1
  Ti  Ti3  1  0.624597  0.624597  0.624597  1
  Ti  Ti4  1  0.819584  0.819584  0.171742  1
  Ti  Ti5  1  0.179915  0.179915  0.819179  1
  Ti  Ti6  1  0.819584  0.171742  0.819584  1
  Ti  Ti7  1  0.179915  0.819179  0.179915  1
  Ti  Ti8  1  0.171742  0.819584  0.819584  1
  Ti  Ti9  1  0.819179  0.179915  0.179915  1
  Ti  Ti10  1  0.430983  0.430983  0.070391  1
  Ti  Ti11  1  0.069268  0.069268  0.431510  1
  Ti  Ti12  1  0.430983  0.070391  0.430983  1
  Ti  Ti13  1  0.069268  0.431510  0.069268  1
  Ti  Ti14  1  0.070391  0.430983  0.430983  1
  Ti  Ti15  1  0.431510  0.069268  0.069268  1
  Co  Co16  1  0.844280  0.844280  0.844280  1
  Pt  Pt17  1  0.773851  0.407920  0.407920  1
  Pt  Pt18  1  0.407920  0.773851  0.407920  1
  Pt  Pt19  1  0.407920  0.407920  0.773851  1
  Pt  Pt20  1  0.411254  0.411254  0.411254  1
  Pt  Pt21  1  0.474414  0.841262  0.841262  1
  Pt  Pt22  1  0.841262  0.474414  0.841262  1
  Pt  Pt23  1  0.841262  0.841262  0.474414  1
  N  N24  1  0.625291  0.124765  0.124765  1
  N  N25  1  0.124765  0.625291  0.124765  1
  N  N26  1  0.124765  0.124765  0.625291  1
  N  N27  1  0.124912  0.124912  0.124912  1
