# generated using pymatgen
data_ZrSn2As6WO24
_symmetry_space_group_name_H-M   'P 1'
_cell_length_a   9.47754795
_cell_length_b   9.47754846
_cell_length_c   9.47754904
_cell_angle_alpha   56.28594295
_cell_angle_beta   56.28593864
_cell_angle_gamma   56.28594454
_symmetry_Int_Tables_number   1
_chemical_formula_structural   ZrSn2As6WO24
_chemical_formula_sum   'Zr1 Sn2 As6 W1 O24'
_cell_volume   550.23967443
_cell_formula_units_Z   1
loop_
 _symmetry_equiv_pos_site_id
 _symmetry_equiv_pos_as_xyz
  1  'x, y, z'
loop_
 _atom_site_type_symbol
 _atom_site_label
 _atom_site_symmetry_multiplicity
 _atom_site_fract_x
 _atom_site_fract_y
 _atom_site_fract_z
 _atom_site_occupancy
  Zr  Zr0  1  0.140188  0.140188  0.140188  1
  Sn  Sn1  1  0.353569  0.353569  0.353569  1
  Sn  Sn2  1  0.648102  0.648102  0.648102  1
  As  As3  1  0.034179  0.468201  0.739652  1
  As  As4  1  0.468201  0.739652  0.034179  1
  As  As5  1  0.739652  0.034179  0.468201  1
  As  As6  1  0.249353  0.973311  0.534195  1
  As  As7  1  0.534195  0.249353  0.973311  1
  As  As8  1  0.973311  0.534195  0.249353  1
  W  W9  1  0.856767  0.856767  0.856767  1
  O  O10  1  0.177671  0.527220  0.207287  1
  O  O11  1  0.207287  0.177671  0.527220  1
  O  O12  1  0.120816  0.266393  0.885402  1
  O  O13  1  0.527220  0.207287  0.177671  1
  O  O14  1  0.182239  0.507864  0.520171  1
  O  O15  1  0.995604  0.640189  0.794682  1
  O  O16  1  0.266393  0.885402  0.120816  1
  O  O17  1  0.507864  0.520171  0.182239  1
  O  O18  1  0.520171  0.182239  0.507864  1
  O  O19  1  0.202611  0.995782  0.373969  1
  O  O20  1  0.082759  0.897086  0.737889  1
  O  O21  1  0.373969  0.202611  0.995782  1
  O  O22  1  0.640189  0.794682  0.995604  1
  O  O23  1  0.885402  0.120816  0.266393  1
  O  O24  1  0.794682  0.995604  0.640189  1
  O  O25  1  0.459744  0.811992  0.522253  1
  O  O26  1  0.522253  0.459744  0.811992  1
  O  O27  1  0.737889  0.082759  0.897086  1
  O  O28  1  0.995782  0.373969  0.202611  1
  O  O29  1  0.811992  0.522253  0.459744  1
  O  O30  1  0.480383  0.785369  0.827110  1
  O  O31  1  0.897086  0.737889  0.082759  1
  O  O32  1  0.785369  0.827110  0.480383  1
  O  O33  1  0.827110  0.480383  0.785369  1
