# generated using pymatgen
data_Tb4Er6In8IrPd3
_symmetry_space_group_name_H-M   'P 1'
_cell_length_a   3.62805300
_cell_length_b   8.13532692
_cell_length_c   18.21333085
_cell_angle_alpha   89.92558342
_cell_angle_beta   90.00000000
_cell_angle_gamma   90.00000000
_symmetry_Int_Tables_number   1
_chemical_formula_structural   Tb4Er6In8IrPd3
_chemical_formula_sum   'Tb4 Er6 In8 Ir1 Pd3'
_cell_volume   537.57324193
_cell_formula_units_Z   1
loop_
 _symmetry_equiv_pos_site_id
 _symmetry_equiv_pos_as_xyz
  1  'x, y, z'
loop_
 _atom_site_type_symbol
 _atom_site_label
 _atom_site_symmetry_multiplicity
 _atom_site_fract_x
 _atom_site_fract_y
 _atom_site_fract_z
 _atom_site_occupancy
  Tb  Tb0  1  0.000000  0.500419  0.499898  1
  Tb  Tb1  1  0.000000  0.000270  0.000815  1
  Tb  Tb2  1  0.000000  0.729559  0.278464  1
  Tb  Tb3  1  0.000000  0.260428  0.718207  1
  Er  Er4  1  0.000000  0.760047  0.781083  1
  Er  Er5  1  0.000000  0.254576  0.219120  1
  Er  Er6  1  0.000000  0.614933  0.087480  1
  Er  Er7  1  0.000000  0.382774  0.915839  1
  Er  Er8  1  0.000000  0.881118  0.583920  1
  Er  Er9  1  0.000000  0.117886  0.414703  1
  In  In10  1  0.500000  0.706019  0.933695  1
  In  In11  1  0.500000  0.294383  0.067267  1
  In  In12  1  0.500000  0.794942  0.433073  1
  In  In13  1  0.500000  0.203248  0.565740  1
  In  In14  1  0.500000  0.581735  0.650564  1
  In  In15  1  0.500000  0.419666  0.350595  1
  In  In16  1  0.500000  0.924218  0.150488  1
  In  In17  1  0.500000  0.078567  0.849791  1
  Ir  Ir18  1  0.500000  0.518530  0.195084  1
  Pd  Pd19  1  0.500000  0.479171  0.804654  1
  Pd  Pd20  1  0.500000  0.973047  0.695797  1
  Pd  Pd21  1  0.500000  0.024464  0.303725  1
