# generated using pymatgen
data_Dy8Ta7Ti2Nb3Si16
_symmetry_space_group_name_H-M   'P 1'
_cell_length_a   7.05499351
_cell_length_b   7.05391141
_cell_length_c   12.99730601
_cell_angle_alpha   89.94701474
_cell_angle_beta   90.05833253
_cell_angle_gamma   90.01207604
_symmetry_Int_Tables_number   1
_chemical_formula_structural   Dy8Ta7Ti2Nb3Si16
_chemical_formula_sum   'Dy8 Ta7 Ti2 Nb3 Si16'
_cell_volume   646.81419659
_cell_formula_units_Z   1
loop_
 _symmetry_equiv_pos_site_id
 _symmetry_equiv_pos_as_xyz
  1  'x, y, z'
loop_
 _atom_site_type_symbol
 _atom_site_label
 _atom_site_symmetry_multiplicity
 _atom_site_fract_x
 _atom_site_fract_y
 _atom_site_fract_z
 _atom_site_occupancy
  Dy  Dy0  1  0.998646  0.657645  0.032650  1
  Dy  Dy1  1  0.002100  0.341343  0.532072  1
  Dy  Dy2  1  0.657753  0.998608  0.967320  1
  Dy  Dy3  1  0.159370  0.503015  0.782407  1
  Dy  Dy4  1  0.841573  0.498199  0.282114  1
  Dy  Dy5  1  0.502750  0.159488  0.217599  1
  Dy  Dy6  1  0.497871  0.841464  0.717890  1
  Dy  Dy7  1  0.341401  0.001559  0.467970  1
  Ta  Ta8  1  0.992173  0.846963  0.625671  1
  Ta  Ta9  1  0.508928  0.346297  0.624097  1
  Ta  Ta10  1  0.153639  0.008373  0.873390  1
  Ta  Ta11  1  0.672273  0.671977  0.500505  1
  Ta  Ta12  1  0.829353  0.170398  0.750145  1
  Ta  Ta13  1  0.170344  0.829395  0.249725  1
  Ta  Ta14  1  0.326466  0.326360  0.999586  1
  Ti  Ti15  1  0.492571  0.652981  0.123822  1
  Ti  Ti16  1  0.653182  0.492723  0.876070  1
  Nb  Nb17  1  0.346224  0.508420  0.376244  1
  Nb  Nb18  1  0.847377  0.992221  0.374642  1
  Nb  Nb19  1  0.008247  0.152882  0.126162  1
  Si  Si20  1  0.045357  0.706051  0.436240  1
  Si  Si21  1  0.952878  0.294867  0.935679  1
  Si  Si22  1  0.705731  0.045627  0.564101  1
  Si  Si23  1  0.208139  0.455357  0.185325  1
  Si  Si24  1  0.793678  0.545190  0.687271  1
  Si  Si25  1  0.455228  0.207965  0.814593  1
  Si  Si26  1  0.545209  0.793256  0.312548  1
  Si  Si27  1  0.294669  0.952779  0.063980  1
  Si  Si28  1  0.794777  0.865270  0.181875  1
  Si  Si29  1  0.296619  0.633438  0.568520  1
  Si  Si30  1  0.700606  0.368595  0.066138  1
  Si  Si31  1  0.633407  0.297080  0.432081  1
  Si  Si32  1  0.368219  0.701415  0.933744  1
  Si  Si33  1  0.133712  0.203936  0.317461  1
  Si  Si34  1  0.203990  0.133614  0.682209  1
  Si  Si35  1  0.865543  0.795250  0.818154  1
