# generated using pymatgen
data_SmCoSi3Rh4
_symmetry_space_group_name_H-M   'P 1'
_cell_length_a   3.87231700
_cell_length_b   10.97777500
_cell_length_c   12.55445600
_cell_angle_alpha   90.00000000
_cell_angle_beta   90.00000000
_cell_angle_gamma   90.00000000
_symmetry_Int_Tables_number   1
_chemical_formula_structural   SmCoSi3Rh4
_chemical_formula_sum   'Sm4 Co4 Si12 Rh16'
_cell_volume   533.68270267
_cell_formula_units_Z   4
loop_
 _symmetry_equiv_pos_site_id
 _symmetry_equiv_pos_as_xyz
  1  'x, y, z'
loop_
 _atom_site_type_symbol
 _atom_site_label
 _atom_site_symmetry_multiplicity
 _atom_site_fract_x
 _atom_site_fract_y
 _atom_site_fract_z
 _atom_site_occupancy
  Sm  Sm0  1  0.250000  0.586254  0.707278  1
  Sm  Sm1  1  0.250000  0.913746  0.207278  1
  Sm  Sm2  1  0.750000  0.413746  0.292722  1
  Sm  Sm3  1  0.750000  0.086254  0.792722  1
  Co  Co4  1  0.250000  0.470995  0.932658  1
  Co  Co5  1  0.250000  0.029005  0.432658  1
  Co  Co6  1  0.750000  0.529005  0.067342  1
  Co  Co7  1  0.750000  0.970995  0.567342  1
  Si  Si8  1  0.250000  0.419211  0.103271  1
  Si  Si9  1  0.250000  0.080789  0.603271  1
  Si  Si10  1  0.750000  0.580789  0.896729  1
  Si  Si11  1  0.750000  0.919211  0.396729  1
  Si  Si12  1  0.250000  0.278122  0.874967  1
  Si  Si13  1  0.250000  0.221878  0.374967  1
  Si  Si14  1  0.750000  0.721878  0.125033  1
  Si  Si15  1  0.750000  0.778122  0.625033  1
  Si  Si16  1  0.250000  0.604208  0.392997  1
  Si  Si17  1  0.250000  0.895792  0.892997  1
  Si  Si18  1  0.750000  0.395792  0.607003  1
  Si  Si19  1  0.750000  0.104208  0.107003  1
  Rh  Rh20  1  0.250000  0.706686  0.988387  1
  Rh  Rh21  1  0.250000  0.793314  0.488387  1
  Rh  Rh22  1  0.750000  0.293314  0.011613  1
  Rh  Rh23  1  0.750000  0.206686  0.511613  1
  Rh  Rh24  1  0.250000  0.405399  0.486688  1
  Rh  Rh25  1  0.250000  0.094601  0.986688  1
  Rh  Rh26  1  0.750000  0.594601  0.513312  1
  Rh  Rh27  1  0.750000  0.905399  0.013312  1
  Rh  Rh28  1  0.250000  0.223410  0.178431  1
  Rh  Rh29  1  0.250000  0.276590  0.678431  1
  Rh  Rh30  1  0.750000  0.776590  0.821569  1
  Rh  Rh31  1  0.750000  0.723410  0.321569  1
  Rh  Rh32  1  0.250000  0.890032  0.698946  1
  Rh  Rh33  1  0.250000  0.609968  0.198946  1
  Rh  Rh34  1  0.750000  0.109968  0.301054  1
  Rh  Rh35  1  0.750000  0.390032  0.801054  1
