# generated using pymatgen
data_EuDy2Se3
_symmetry_space_group_name_H-M   'P 1'
_cell_length_a   4.17004500
_cell_length_b   4.17004483
_cell_length_c   10.22603300
_cell_angle_alpha   90.00000000
_cell_angle_beta   90.00000000
_cell_angle_gamma   119.99999340
_symmetry_Int_Tables_number   1
_chemical_formula_structural   EuDy2Se3
_chemical_formula_sum   'Eu1 Dy2 Se3'
_cell_volume   153.99950191
_cell_formula_units_Z   1
loop_
 _symmetry_equiv_pos_site_id
 _symmetry_equiv_pos_as_xyz
  1  'x, y, z'
loop_
 _atom_site_type_symbol
 _atom_site_label
 _atom_site_symmetry_multiplicity
 _atom_site_fract_x
 _atom_site_fract_y
 _atom_site_fract_z
 _atom_site_occupancy
  Eu  Eu0  1  0.000000  0.000000  0.000000  1
  Dy  Dy1  1  0.333333  0.666667  0.656045  1
  Dy  Dy2  1  0.666667  0.333333  0.343955  1
  Se  Se3  1  0.333333  0.666667  0.179355  1
  Se  Se4  1  0.666667  0.333333  0.820645  1
  Se  Se5  1  0.000000  0.000000  0.500000  1
