# generated using pymatgen
data_Ce4Cd2IrPd3
_symmetry_space_group_name_H-M   'P 1'
_cell_length_a   7.81642140
_cell_length_b   7.81642140
_cell_length_c   3.77109300
_cell_angle_alpha   90.00000000
_cell_angle_beta   90.00000000
_cell_angle_gamma   90.03653362
_symmetry_Int_Tables_number   1
_chemical_formula_structural   Ce4Cd2IrPd3
_chemical_formula_sum   'Ce4 Cd2 Ir1 Pd3'
_cell_volume   230.40032342
_cell_formula_units_Z   1
loop_
 _symmetry_equiv_pos_site_id
 _symmetry_equiv_pos_as_xyz
  1  'x, y, z'
loop_
 _atom_site_type_symbol
 _atom_site_label
 _atom_site_symmetry_multiplicity
 _atom_site_fract_x
 _atom_site_fract_y
 _atom_site_fract_z
 _atom_site_occupancy
  Ce  Ce0  1  0.326826  0.841177  0.500000  1
  Ce  Ce1  1  0.832819  0.667181  0.500000  1
  Ce  Ce2  1  0.180341  0.319659  0.500000  1
  Ce  Ce3  1  0.658823  0.173174  0.500000  1
  Cd  Cd4  1  0.995586  0.000378  0.000000  1
  Cd  Cd5  1  0.499622  0.504414  0.000000  1
  Ir  Ir6  1  0.368550  0.131450  0.000000  1
  Pd  Pd7  1  0.869968  0.367335  0.000000  1
  Pd  Pd8  1  0.132665  0.630032  0.000000  1
  Pd  Pd9  1  0.634799  0.865201  0.000000  1
