# generated using pymatgen
data_BaMnAl4O9
_symmetry_space_group_name_H-M   'P 1'
_cell_length_a   5.66252800
_cell_length_b   5.69828098
_cell_length_c   13.61928500
_cell_angle_alpha   90.00000000
_cell_angle_beta   90.00000000
_cell_angle_gamma   119.79266249
_symmetry_Int_Tables_number   1
_chemical_formula_structural   BaMnAl4O9
_chemical_formula_sum   'Ba2 Mn2 Al8 O18'
_cell_volume   381.36667024
_cell_formula_units_Z   2
loop_
 _symmetry_equiv_pos_site_id
 _symmetry_equiv_pos_as_xyz
  1  'x, y, z'
loop_
 _atom_site_type_symbol
 _atom_site_label
 _atom_site_symmetry_multiplicity
 _atom_site_fract_x
 _atom_site_fract_y
 _atom_site_fract_z
 _atom_site_occupancy
  Ba  Ba0  1  0.332210  0.664421  0.250000  1
  Ba  Ba1  1  0.667790  0.335579  0.750000  1
  Mn  Mn2  1  0.500000  0.000000  0.500000  1
  Mn  Mn3  1  0.500000  0.000000  0.000000  1
  Al  Al4  1  0.500000  0.500000  0.500000  1
  Al  Al5  1  0.000000  0.500000  0.500000  1
  Al  Al6  1  0.500000  0.500000  0.000000  1
  Al  Al7  1  0.000000  0.500000  0.000000  1
  Al  Al8  1  0.003900  0.007801  0.122256  1
  Al  Al9  1  0.996100  0.992199  0.877744  1
  Al  Al10  1  0.996100  0.992199  0.622256  1
  Al  Al11  1  0.003900  0.007801  0.377744  1
  O  O12  1  0.998145  0.996290  0.250000  1
  O  O13  1  0.001855  0.003710  0.750000  1
  O  O14  1  0.170845  0.827657  0.080512  1
  O  O15  1  0.172690  0.345379  0.079710  1
  O  O16  1  0.656812  0.827657  0.080512  1
  O  O17  1  0.829155  0.172343  0.919488  1
  O  O18  1  0.827310  0.654621  0.920290  1
  O  O19  1  0.343188  0.172343  0.919488  1
  O  O20  1  0.829155  0.172343  0.580512  1
  O  O21  1  0.827310  0.654621  0.579710  1
  O  O22  1  0.343188  0.172343  0.580512  1
  O  O23  1  0.170845  0.827657  0.419488  1
  O  O24  1  0.172690  0.345379  0.420290  1
  O  O25  1  0.656812  0.827657  0.419488  1
  O  O26  1  0.331993  0.663987  0.930730  1
  O  O27  1  0.668007  0.336013  0.069270  1
  O  O28  1  0.668007  0.336013  0.430730  1
  O  O29  1  0.331993  0.663987  0.569270  1
