# generated using pymatgen
data_AgPb(ClO4)4
_symmetry_space_group_name_H-M   'P 1'
_cell_length_a   5.26446790
_cell_length_b   7.63493732
_cell_length_c   9.45427100
_cell_angle_alpha   90.15304533
_cell_angle_beta   89.50570932
_cell_angle_gamma   98.49865973
_symmetry_Int_Tables_number   1
_chemical_formula_structural   AgPb(ClO4)4
_chemical_formula_sum   'Ag1 Pb1 Cl4 O16'
_cell_volume   375.81679695
_cell_formula_units_Z   1
loop_
 _symmetry_equiv_pos_site_id
 _symmetry_equiv_pos_as_xyz
  1  'x, y, z'
loop_
 _atom_site_type_symbol
 _atom_site_label
 _atom_site_symmetry_multiplicity
 _atom_site_fract_x
 _atom_site_fract_y
 _atom_site_fract_z
 _atom_site_occupancy
  Ag  Ag0  1  0.500000  0.500000  0.500000  1
  Pb  Pb1  1  0.000000  0.000000  0.000000  1
  Cl  Cl2  1  0.543921  0.260856  0.182769  1
  Cl  Cl3  1  0.913861  0.254284  0.662436  1
  Cl  Cl4  1  0.456079  0.739144  0.817231  1
  Cl  Cl5  1  0.086139  0.745716  0.337564  1
  O  O6  1  0.559939  0.276769  0.337957  1
  O  O7  1  0.886640  0.229254  0.816887  1
  O  O8  1  0.440061  0.723231  0.662043  1
  O  O9  1  0.113360  0.770746  0.183113  1
  O  O10  1  0.273633  0.253041  0.139933  1
  O  O11  1  0.184872  0.270158  0.624357  1
  O  O12  1  0.726367  0.746959  0.860067  1
  O  O13  1  0.815128  0.729842  0.375643  1
  O  O14  1  0.623893  0.086810  0.147377  1
  O  O15  1  0.825643  0.428702  0.630735  1
  O  O16  1  0.376107  0.913190  0.852623  1
  O  O17  1  0.174357  0.571298  0.369265  1
  O  O18  1  0.704088  0.402691  0.112646  1
  O  O19  1  0.761502  0.113926  0.587211  1
  O  O20  1  0.295912  0.597309  0.887354  1
  O  O21  1  0.238498  0.886074  0.412789  1
