# generated using pymatgen
data_Dy16Lu4Si13As3
_symmetry_space_group_name_H-M   'P 1'
_cell_length_a   7.53811330
_cell_length_b   7.59740169
_cell_length_c   14.51955527
_cell_angle_alpha   89.86968567
_cell_angle_beta   89.17574183
_cell_angle_gamma   90.02233144
_symmetry_Int_Tables_number   1
_chemical_formula_structural   Dy16Lu4Si13As3
_chemical_formula_sum   'Dy16 Lu4 Si13 As3'
_cell_volume   831.44774517
_cell_formula_units_Z   1
loop_
 _symmetry_equiv_pos_site_id
 _symmetry_equiv_pos_as_xyz
  1  'x, y, z'
loop_
 _atom_site_type_symbol
 _atom_site_label
 _atom_site_symmetry_multiplicity
 _atom_site_fract_x
 _atom_site_fract_y
 _atom_site_fract_z
 _atom_site_occupancy
  Dy  Dy0  1  0.039158  0.824487  0.106601  1
  Dy  Dy1  1  0.525666  0.673675  0.397144  1
  Dy  Dy2  1  0.460254  0.325309  0.893375  1
  Dy  Dy3  1  0.973518  0.180285  0.602299  1
  Dy  Dy4  1  0.969377  0.177273  0.893915  1
  Dy  Dy5  1  0.477851  0.323471  0.601327  1
  Dy  Dy6  1  0.529943  0.677634  0.105697  1
  Dy  Dy7  1  0.020872  0.816960  0.397691  1
  Dy  Dy8  1  0.613454  0.837429  0.882107  1
  Dy  Dy9  1  0.120831  0.664119  0.619222  1
  Dy  Dy10  1  0.887536  0.336841  0.117243  1
  Dy  Dy11  1  0.378660  0.164513  0.382041  1
  Dy  Dy12  1  0.383618  0.164934  0.117087  1
  Dy  Dy13  1  0.878281  0.334471  0.380612  1
  Dy  Dy14  1  0.116416  0.665266  0.882501  1
  Dy  Dy15  1  0.623367  0.835050  0.618384  1
  Lu  Lu16  1  0.713011  0.998456  0.254077  1
  Lu  Lu17  1  0.213880  0.499943  0.250764  1
  Lu  Lu18  1  0.785640  0.498830  0.746478  1
  Lu  Lu19  1  0.286998  0.001389  0.751940  1
  Si  Si20  1  0.824708  0.629558  0.249503  1
  Si  Si21  1  0.325836  0.870085  0.250887  1
  Si  Si22  1  0.673625  0.131098  0.749654  1
  Si  Si23  1  0.173220  0.370107  0.749126  1
  Si  Si24  1  0.088050  0.111060  0.249626  1
  Si  Si25  1  0.587661  0.387220  0.248129  1
  Si  Si26  1  0.413302  0.613193  0.750134  1
  Si  Si27  1  0.912550  0.888886  0.750678  1
  Si  Si28  1  0.215400  0.468027  0.456190  1
  Si  Si29  1  0.224770  0.476117  0.046690  1
  Si  Si30  1  0.718769  0.029939  0.454950  1
  Si  Si31  1  0.275571  0.976047  0.953195  1
  Si  Si32  1  0.786481  0.531728  0.544554  1
  As  As33  1  0.772643  0.522863  0.952560  1
  As  As34  1  0.281613  0.970956  0.546524  1
  As  As35  1  0.727467  0.022779  0.047095  1
