# generated using pymatgen
data_Sm7IrI12
_symmetry_space_group_name_H-M   'P 1'
_cell_length_a   9.96414123
_cell_length_b   9.96414040
_cell_length_c   9.96414046
_cell_angle_alpha   106.85892722
_cell_angle_beta   106.85892776
_cell_angle_gamma   106.85892534
_symmetry_Int_Tables_number   1
_chemical_formula_structural   Sm7IrI12
_chemical_formula_sum   'Sm7 Ir1 I12'
_cell_volume   827.03254694
_cell_formula_units_Z   1
loop_
 _symmetry_equiv_pos_site_id
 _symmetry_equiv_pos_as_xyz
  1  'x, y, z'
loop_
 _atom_site_type_symbol
 _atom_site_label
 _atom_site_symmetry_multiplicity
 _atom_site_fract_x
 _atom_site_fract_y
 _atom_site_fract_z
 _atom_site_occupancy
  Sm  Sm0  1  0.095238  0.022867  0.298357  1
  Sm  Sm1  1  0.298357  0.095238  0.022867  1
  Sm  Sm2  1  0.022867  0.298357  0.095238  1
  Sm  Sm3  1  0.904762  0.977133  0.701643  1
  Sm  Sm4  1  0.701643  0.904762  0.977133  1
  Sm  Sm5  1  0.977133  0.701643  0.904762  1
  Sm  Sm6  1  0.500000  0.500000  0.500000  1
  Ir  Ir7  1  0.000000  0.000000  0.000000  1
  I  I8  1  0.069611  0.676289  0.224195  1
  I  I9  1  0.224195  0.069611  0.676289  1
  I  I10  1  0.676289  0.224195  0.069611  1
  I  I11  1  0.930389  0.323711  0.775805  1
  I  I12  1  0.775805  0.930389  0.323711  1
  I  I13  1  0.323711  0.775805  0.930389  1
  I  I14  1  0.463296  0.162311  0.386841  1
  I  I15  1  0.386841  0.463296  0.162311  1
  I  I16  1  0.162311  0.386841  0.463296  1
  I  I17  1  0.536704  0.837689  0.613159  1
  I  I18  1  0.613159  0.536704  0.837689  1
  I  I19  1  0.837689  0.613159  0.536704  1
