# generated using pymatgen
data_Er4Al7Ru
_symmetry_space_group_name_H-M   'P 1'
_cell_length_a   5.53850500
_cell_length_b   5.53850659
_cell_length_c   8.77781500
_cell_angle_alpha   90.00000000
_cell_angle_beta   90.00000000
_cell_angle_gamma   120.00000842
_symmetry_Int_Tables_number   1
_chemical_formula_structural   Er4Al7Ru
_chemical_formula_sum   'Er4 Al7 Ru1'
_cell_volume   233.18587897
_cell_formula_units_Z   1
loop_
 _symmetry_equiv_pos_site_id
 _symmetry_equiv_pos_as_xyz
  1  'x, y, z'
loop_
 _atom_site_type_symbol
 _atom_site_label
 _atom_site_symmetry_multiplicity
 _atom_site_fract_x
 _atom_site_fract_y
 _atom_site_fract_z
 _atom_site_occupancy
  Er  Er0  1  0.333333  0.666667  0.063574  1
  Er  Er1  1  0.666667  0.333333  0.556616  1
  Er  Er2  1  0.333333  0.666667  0.443384  1
  Er  Er3  1  0.666667  0.333333  0.936426  1
  Al  Al4  1  0.832121  0.664241  0.240711  1
  Al  Al5  1  0.167879  0.832121  0.759289  1
  Al  Al6  1  0.664241  0.832121  0.759289  1
  Al  Al7  1  0.335759  0.167879  0.240711  1
  Al  Al8  1  0.832121  0.167879  0.240711  1
  Al  Al9  1  0.167879  0.335759  0.759289  1
  Al  Al10  1  0.000000  0.000000  0.500000  1
  Ru  Ru11  1  0.000000  0.000000  0.000000  1
