# generated using pymatgen
data_Pr5GaSiSn
_symmetry_space_group_name_H-M   'P 1'
_cell_length_a   8.13197200
_cell_length_b   9.18751193
_cell_length_c   8.12676800
_cell_angle_alpha   116.24897355
_cell_angle_beta   90.00000000
_cell_angle_gamma   116.26706046
_symmetry_Int_Tables_number   1
_chemical_formula_structural   Pr5GaSiSn
_chemical_formula_sum   'Pr10 Ga2 Si2 Sn2'
_cell_volume   473.64830624
_cell_formula_units_Z   2
loop_
 _symmetry_equiv_pos_site_id
 _symmetry_equiv_pos_as_xyz
  1  'x, y, z'
loop_
 _atom_site_type_symbol
 _atom_site_label
 _atom_site_symmetry_multiplicity
 _atom_site_fract_x
 _atom_site_fract_y
 _atom_site_fract_z
 _atom_site_occupancy
  Pr  Pr0  1  0.006232  0.000000  0.000252  1
  Pr  Pr1  1  0.493768  0.000000  0.500252  1
  Pr  Pr2  1  0.526194  0.715379  0.685446  1
  Pr  Pr3  1  0.182381  0.715563  0.029685  1
  Pr  Pr4  1  0.689187  0.715379  0.185446  1
  Pr  Pr5  1  0.033185  0.715563  0.529685  1
  Pr  Pr6  1  0.466815  0.284437  0.314119  1
  Pr  Pr7  1  0.810813  0.284621  0.970066  1
  Pr  Pr8  1  0.317619  0.284437  0.814119  1
  Pr  Pr9  1  0.973806  0.284621  0.470066  1
  Ga  Ga10  1  0.878889  0.000000  0.622232  1
  Ga  Ga11  1  0.621111  0.000000  0.122232  1
  Si  Si12  1  0.120922  0.000000  0.379730  1
  Si  Si13  1  0.379078  0.000000  0.879730  1
  Sn  Sn14  1  0.750000  0.500000  0.748470  1
  Sn  Sn15  1  0.250000  0.500000  0.248470  1
