# generated using pymatgen
data_LiRh(CO3)2
_symmetry_space_group_name_H-M   'P 1'
_cell_length_a   4.67906725
_cell_length_b   5.73615298
_cell_length_c   8.11009860
_cell_angle_alpha   76.49505045
_cell_angle_beta   89.97902555
_cell_angle_gamma   114.18128137
_symmetry_Int_Tables_number   1
_chemical_formula_structural   LiRh(CO3)2
_chemical_formula_sum   'Li2 Rh2 C4 O12'
_cell_volume   191.94845002
_cell_formula_units_Z   2
loop_
 _symmetry_equiv_pos_site_id
 _symmetry_equiv_pos_as_xyz
  1  'x, y, z'
loop_
 _atom_site_type_symbol
 _atom_site_label
 _atom_site_symmetry_multiplicity
 _atom_site_fract_x
 _atom_site_fract_y
 _atom_site_fract_z
 _atom_site_occupancy
  Li  Li0  1  0.000014  0.000000  0.000004  1
  Li  Li1  1  0.499984  0.000001  0.499995  1
  Rh  Rh2  1  0.749983  0.500011  0.749985  1
  Rh  Rh3  1  0.249948  0.499982  0.249950  1
  C  C4  1  0.865905  0.730960  0.378580  1
  C  C5  1  0.365923  0.730941  0.878599  1
  C  C6  1  0.634089  0.269043  0.121408  1
  C  C7  1  0.134095  0.269028  0.621423  1
  O  O8  1  0.909252  0.264996  0.123643  1
  O  O9  1  0.409261  0.264999  0.623622  1
  O  O10  1  0.504371  0.735691  0.017153  1
  O  O11  1  0.004399  0.735715  0.517123  1
  O  O12  1  0.008739  0.734844  0.240231  1
  O  O13  1  0.508712  0.734881  0.740205  1
  O  O14  1  0.491311  0.265129  0.259796  1
  O  O15  1  0.991249  0.265134  0.759777  1
  O  O16  1  0.995601  0.264290  0.482877  1
  O  O17  1  0.495626  0.264303  0.982846  1
  O  O18  1  0.590763  0.735039  0.376401  1
  O  O19  1  0.090774  0.735017  0.876383  1
