# generated using pymatgen
data_Th4B20OsRu
_symmetry_space_group_name_H-M   'P 1'
_cell_length_a   4.20342300
_cell_length_b   5.74115901
_cell_length_c   11.47781603
_cell_angle_alpha   89.99183989
_cell_angle_beta   90.00000000
_cell_angle_gamma   90.00000000
_symmetry_Int_Tables_number   1
_chemical_formula_structural   Th4B20OsRu
_chemical_formula_sum   'Th4 B20 Os1 Ru1'
_cell_volume   276.98862033
_cell_formula_units_Z   1
loop_
 _symmetry_equiv_pos_site_id
 _symmetry_equiv_pos_as_xyz
  1  'x, y, z'
loop_
 _atom_site_type_symbol
 _atom_site_label
 _atom_site_symmetry_multiplicity
 _atom_site_fract_x
 _atom_site_fract_y
 _atom_site_fract_z
 _atom_site_occupancy
  Th  Th0  1  0.500000  0.285053  0.868167  1
  Th  Th1  1  0.500000  0.714947  0.131833  1
  Th  Th2  1  0.500000  0.784333  0.632250  1
  Th  Th3  1  0.500000  0.215667  0.367750  1
  B  B4  1  0.000000  0.118264  0.542676  1
  B  B5  1  0.000000  0.881736  0.457324  1
  B  B6  1  0.000000  0.618188  0.957209  1
  B  B7  1  0.000000  0.381812  0.042791  1
  B  B8  1  0.000000  0.131669  0.697066  1
  B  B9  1  0.000000  0.868331  0.302934  1
  B  B10  1  0.300902  0.221113  0.119021  1
  B  B11  1  0.300902  0.778887  0.880979  1
  B  B12  1  0.699168  0.721325  0.380908  1
  B  B13  1  0.699168  0.278675  0.619092  1
  B  B14  1  0.699098  0.778887  0.880979  1
  B  B15  1  0.699098  0.221113  0.119021  1
  B  B16  1  0.300832  0.278675  0.619092  1
  B  B17  1  0.300832  0.721325  0.380908  1
  B  B18  1  0.000000  0.058827  0.192699  1
  B  B19  1  0.000000  0.941173  0.807301  1
  B  B20  1  0.000000  0.558633  0.307038  1
  B  B21  1  0.000000  0.441367  0.692962  1
  B  B22  1  0.000000  0.368216  0.196767  1
  B  B23  1  0.000000  0.631784  0.803233  1
  Os  Os24  1  0.000000  0.500000  0.500000  1
  Ru  Ru25  1  0.000000  0.000000  0.000000  1
