# generated using pymatgen
data_Cs3Zr2P5Se18
_symmetry_space_group_name_H-M   'P 1'
_cell_length_a   7.43717165
_cell_length_b   7.43717167
_cell_length_c   36.87406400
_cell_angle_alpha   93.14800998
_cell_angle_beta   93.14800998
_cell_angle_gamma   93.19546375
_symmetry_Int_Tables_number   1
_chemical_formula_structural   Cs3Zr2P5Se18
_chemical_formula_sum   'Cs6 Zr4 P10 Se36'
_cell_volume   2029.87534905
_cell_formula_units_Z   2
loop_
 _symmetry_equiv_pos_site_id
 _symmetry_equiv_pos_as_xyz
  1  'x, y, z'
loop_
 _atom_site_type_symbol
 _atom_site_label
 _atom_site_symmetry_multiplicity
 _atom_site_fract_x
 _atom_site_fract_y
 _atom_site_fract_z
 _atom_site_occupancy
  Cs  Cs0  1  0.278652  0.493646  0.068836  1
  Cs  Cs1  1  0.148984  0.429016  0.253249  1
  Cs  Cs2  1  0.781517  0.963888  0.365273  1
  Cs  Cs3  1  0.493645  0.278651  0.568836  1
  Cs  Cs4  1  0.429016  0.148984  0.753248  1
  Cs  Cs5  1  0.963888  0.781517  0.865273  1
  Zr  Zr6  1  0.845218  0.028145  0.154351  1
  Zr  Zr7  1  0.038934  0.628735  0.463929  1
  Zr  Zr8  1  0.028146  0.845219  0.654351  1
  Zr  Zr9  1  0.628734  0.038933  0.963929  1
  P  P10  1  0.757521  0.058554  0.058775  1
  P  P11  1  0.302165  0.941548  0.172935  1
  P  P12  1  0.656866  0.149652  0.237673  1
  P  P13  1  0.243041  0.692246  0.380244  1
  P  P14  1  0.573293  0.522849  0.445360  1
  P  P15  1  0.058553  0.757520  0.558775  1
  P  P16  1  0.941548  0.302165  0.672935  1
  P  P17  1  0.149652  0.656866  0.737673  1
  P  P18  1  0.692247  0.243041  0.880244  1
  P  P19  1  0.522850  0.573294  0.945360  1
  Se  Se20  1  0.924870  0.124406  0.012538  1
  Se  Se21  1  0.484416  0.992360  0.031376  1
  Se  Se22  1  0.862639  0.830289  0.089548  1
  Se  Se23  1  0.773796  0.281759  0.102222  1
  Se  Se24  1  0.520523  0.840595  0.139118  1
  Se  Se25  1  0.185791  0.190787  0.153245  1
  Se  Se26  1  0.074505  0.734175  0.169652  1
  Se  Se27  1  0.668504  0.303987  0.187605  1
  Se  Se28  1  0.863832  0.951314  0.225875  1
  Se  Se29  1  0.378807  0.984009  0.234561  1
  Se  Se30  1  0.663473  0.296022  0.289631  1
  Se  Se31  1  0.254243  0.808031  0.328146  1
  Se  Se32  1  0.500218  0.527429  0.383641  1
  Se  Se33  1  0.011384  0.504422  0.392657  1
  Se  Se34  1  0.246583  0.880976  0.429355  1
  Se  Se35  1  0.781081  0.321338  0.448921  1
  Se  Se36  1  0.713414  0.783646  0.465792  1
  Se  Se37  1  0.342272  0.442788  0.478670  1
  Se  Se38  1  0.124406  0.924870  0.512538  1
  Se  Se39  1  0.992360  0.484416  0.531376  1
  Se  Se40  1  0.830288  0.862638  0.589548  1
  Se  Se41  1  0.281759  0.773796  0.602223  1
  Se  Se42  1  0.840595  0.520523  0.639118  1
  Se  Se43  1  0.190787  0.185791  0.653245  1
  Se  Se44  1  0.734175  0.074505  0.669652  1
  Se  Se45  1  0.303987  0.668504  0.687605  1
  Se  Se46  1  0.951314  0.863833  0.725876  1
  Se  Se47  1  0.984008  0.378806  0.734561  1
  Se  Se48  1  0.296022  0.663474  0.789631  1
  Se  Se49  1  0.808032  0.254244  0.828146  1
  Se  Se50  1  0.527429  0.500218  0.883641  1
  Se  Se51  1  0.504423  0.011384  0.892657  1
  Se  Se52  1  0.880978  0.246584  0.929355  1
  Se  Se53  1  0.321338  0.781081  0.948921  1
  Se  Se54  1  0.783646  0.713414  0.965792  1
  Se  Se55  1  0.442788  0.342272  0.978670  1
