# generated using pymatgen
data_Tb18Y2Co3Bi8Ru
_symmetry_space_group_name_H-M   'P 1'
_cell_length_a   8.05927510
_cell_length_b   8.92550900
_cell_length_c   12.49961622
_cell_angle_alpha   90.00000000
_cell_angle_beta   90.16984135
_cell_angle_gamma   90.00000000
_symmetry_Int_Tables_number   1
_chemical_formula_structural   Tb18Y2Co3Bi8Ru
_chemical_formula_sum   'Tb18 Y2 Co3 Bi8 Ru1'
_cell_volume   899.13259826
_cell_formula_units_Z   1
loop_
 _symmetry_equiv_pos_site_id
 _symmetry_equiv_pos_as_xyz
  1  'x, y, z'
loop_
 _atom_site_type_symbol
 _atom_site_label
 _atom_site_symmetry_multiplicity
 _atom_site_fract_x
 _atom_site_fract_y
 _atom_site_fract_z
 _atom_site_occupancy
  Tb  Tb0  1  0.847760  0.750000  0.800630  1
  Tb  Tb1  1  0.652706  0.750000  0.296867  1
  Tb  Tb2  1  0.378064  0.750000  0.693610  1
  Tb  Tb3  1  0.619259  0.250000  0.309612  1
  Tb  Tb4  1  0.880598  0.250000  0.810271  1
  Tb  Tb5  1  0.118883  0.750000  0.188487  1
  Tb  Tb6  1  0.952317  0.750000  0.503598  1
  Tb  Tb7  1  0.047549  0.250000  0.496772  1
  Tb  Tb8  1  0.453787  0.250000  0.997270  1
  Tb  Tb9  1  0.546388  0.750000  0.002558  1
  Tb  Tb10  1  0.677699  0.040313  0.564118  1
  Tb  Tb11  1  0.322195  0.967256  0.436591  1
  Tb  Tb12  1  0.176725  0.966885  0.937189  1
  Tb  Tb13  1  0.322195  0.532744  0.436591  1
  Tb  Tb14  1  0.822816  0.035246  0.062908  1
  Tb  Tb15  1  0.677699  0.459687  0.564118  1
  Tb  Tb16  1  0.822816  0.464754  0.062908  1
  Tb  Tb17  1  0.176725  0.533115  0.937189  1
  Y  Y18  1  0.151736  0.250000  0.198762  1
  Y  Y19  1  0.348097  0.250000  0.699324  1
  Co  Co20  1  0.437137  0.250000  0.490511  1
  Co  Co21  1  0.059292  0.250000  0.991264  1
  Co  Co22  1  0.939066  0.750000  0.007570  1
  Bi  Bi23  1  0.571595  0.491775  0.826414  1
  Bi  Bi24  1  0.427409  0.507411  0.173760  1
  Bi  Bi25  1  0.072206  0.507217  0.674782  1
  Bi  Bi26  1  0.427409  0.992589  0.173760  1
  Bi  Bi27  1  0.929477  0.492011  0.325486  1
  Bi  Bi28  1  0.571595  0.008225  0.826414  1
  Bi  Bi29  1  0.929477  0.007989  0.325486  1
  Bi  Bi30  1  0.072206  0.992783  0.674782  1
  Ru  Ru31  1  0.567113  0.750000  0.510401  1
