# generated using pymatgen
data_Sr2LaPr(Bi2O7)2
_symmetry_space_group_name_H-M   'P 1'
_cell_length_a   7.92719611
_cell_length_b   7.95411661
_cell_length_c   7.93449900
_cell_angle_alpha   60.08154848
_cell_angle_beta   59.96951659
_cell_angle_gamma   59.85298845
_symmetry_Int_Tables_number   1
_chemical_formula_structural   Sr2LaPr(Bi2O7)2
_chemical_formula_sum   'Sr2 La1 Pr1 Bi4 O14'
_cell_volume   353.50659264
_cell_formula_units_Z   1
loop_
 _symmetry_equiv_pos_site_id
 _symmetry_equiv_pos_as_xyz
  1  'x, y, z'
loop_
 _atom_site_type_symbol
 _atom_site_label
 _atom_site_symmetry_multiplicity
 _atom_site_fract_x
 _atom_site_fract_y
 _atom_site_fract_z
 _atom_site_occupancy
  Sr  Sr0  1  0.125000  0.125000  0.125000  1
  Sr  Sr1  1  0.125000  0.125000  0.625000  1
  La  La2  1  0.625000  0.125000  0.125000  1
  Pr  Pr3  1  0.125000  0.625000  0.125000  1
  Bi  Bi4  1  0.625000  0.625000  0.125000  1
  Bi  Bi5  1  0.625000  0.625000  0.625000  1
  Bi  Bi6  1  0.625000  0.125000  0.625000  1
  Bi  Bi7  1  0.125000  0.625000  0.625000  1
  O  O8  1  0.702987  0.293991  0.292777  1
  O  O9  1  0.710898  0.707717  0.290692  1
  O  O10  1  0.292776  0.702619  0.291776  1
  O  O11  1  0.985528  0.987682  0.013395  1
  O  O12  1  0.702987  0.293991  0.710245  1
  O  O13  1  0.957224  0.547381  0.537171  1
  O  O14  1  0.292776  0.702619  0.712829  1
  O  O15  1  0.547013  0.956009  0.539755  1
  O  O16  1  0.264472  0.262318  0.236605  1
  O  O17  1  0.957224  0.547381  0.958224  1
  O  O18  1  0.539102  0.542283  0.959308  1
  O  O19  1  0.954565  0.954384  0.545526  1
  O  O20  1  0.547013  0.956009  0.957223  1
  O  O21  1  0.295435  0.295616  0.704474  1
