# generated using pymatgen
data_TbYAl9PdRh2
_symmetry_space_group_name_H-M   'P 1'
_cell_length_a   7.59246409
_cell_length_b   7.59274976
_cell_length_c   9.48883101
_cell_angle_alpha   89.96129711
_cell_angle_beta   89.95791066
_cell_angle_gamma   119.55363531
_symmetry_Int_Tables_number   1
_chemical_formula_structural   TbYAl9PdRh2
_chemical_formula_sum   'Tb2 Y2 Al18 Pd2 Rh4'
_cell_volume   475.83965225
_cell_formula_units_Z   2
loop_
 _symmetry_equiv_pos_site_id
 _symmetry_equiv_pos_as_xyz
  1  'x, y, z'
loop_
 _atom_site_type_symbol
 _atom_site_label
 _atom_site_symmetry_multiplicity
 _atom_site_fract_x
 _atom_site_fract_y
 _atom_site_fract_z
 _atom_site_occupancy
  Tb  Tb0  1  0.995129  0.669851  0.250570  1
  Tb  Tb1  1  0.004871  0.330149  0.749430  1
  Y  Y2  1  0.669862  0.995132  0.250603  1
  Y  Y3  1  0.330138  0.004868  0.749397  1
  Al  Al4  1  0.126583  0.126581  0.251360  1
  Al  Al5  1  0.873417  0.873419  0.748640  1
  Al  Al6  1  0.001465  0.331177  0.077801  1
  Al  Al7  1  0.998535  0.668823  0.922199  1
  Al  Al8  1  0.000636  0.665368  0.574193  1
  Al  Al9  1  0.334679  0.999378  0.425820  1
  Al  Al10  1  0.999364  0.334632  0.425807  1
  Al  Al11  1  0.665321  0.000622  0.574180  1
  Al  Al12  1  0.668782  0.998519  0.922214  1
  Al  Al13  1  0.331218  0.001481  0.077786  1
  Al  Al14  1  0.331963  0.331952  0.548804  1
  Al  Al15  1  0.668037  0.668048  0.451196  1
  Al  Al16  1  0.668932  0.668949  0.056142  1
  Al  Al17  1  0.331068  0.331051  0.943858  1
  Al  Al18  1  0.340490  0.547620  0.254083  1
  Al  Al19  1  0.659510  0.452380  0.745917  1
  Al  Al20  1  0.547603  0.340480  0.254079  1
  Al  Al21  1  0.452397  0.659520  0.745921  1
  Pd  Pd22  1  0.672350  0.327595  0.999998  1
  Pd  Pd23  1  0.327650  0.672405  0.000002  1
  Rh  Rh24  1  0.328030  0.672017  0.499997  1
  Rh  Rh25  1  0.671970  0.327983  0.500003  1
  Rh  Rh26  1  0.000000  0.000000  0.000000  1
  Rh  Rh27  1  0.000000  0.000000  0.500000  1
