# generated using pymatgen
data_Ce2Tm5Lu(ReB6)4
_symmetry_space_group_name_H-M   'P 1'
_cell_length_a   3.67134500
_cell_length_b   9.13048744
_cell_length_c   11.50759110
_cell_angle_alpha   90.11618661
_cell_angle_beta   90.00000000
_cell_angle_gamma   90.00000000
_symmetry_Int_Tables_number   1
_chemical_formula_structural   Ce2Tm5Lu(ReB6)4
_chemical_formula_sum   'Ce2 Tm5 Lu1 Re4 B24'
_cell_volume   385.74711744
_cell_formula_units_Z   1
loop_
 _symmetry_equiv_pos_site_id
 _symmetry_equiv_pos_as_xyz
  1  'x, y, z'
loop_
 _atom_site_type_symbol
 _atom_site_label
 _atom_site_symmetry_multiplicity
 _atom_site_fract_x
 _atom_site_fract_y
 _atom_site_fract_z
 _atom_site_occupancy
  Ce  Ce0  1  0.000000  0.321855  0.413775  1
  Ce  Ce1  1  0.000000  0.678132  0.586450  1
  Tm  Tm2  1  0.000000  0.823902  0.085127  1
  Tm  Tm3  1  0.000000  0.176006  0.914697  1
  Tm  Tm4  1  0.000000  0.943784  0.370026  1
  Tm  Tm5  1  0.000000  0.056264  0.630116  1
  Tm  Tm6  1  0.000000  0.443151  0.127739  1
  Lu  Lu7  1  0.000000  0.557008  0.871782  1
  Re  Re8  1  0.000000  0.638352  0.320504  1
  Re  Re9  1  0.000000  0.361875  0.679688  1
  Re  Re10  1  0.000000  0.139171  0.179188  1
  Re  Re11  1  0.000000  0.860400  0.820776  1
  B  B12  1  0.500000  0.554489  0.431072  1
  B  B13  1  0.500000  0.445619  0.569135  1
  B  B14  1  0.500000  0.053304  0.065983  1
  B  B15  1  0.500000  0.946312  0.933940  1
  B  B16  1  0.500000  0.750475  0.416806  1
  B  B17  1  0.500000  0.249627  0.583308  1
  B  B18  1  0.500000  0.249415  0.079757  1
  B  B19  1  0.500000  0.750049  0.920088  1
  B  B20  1  0.500000  0.792863  0.263667  1
  B  B21  1  0.500000  0.207341  0.736461  1
  B  B22  1  0.500000  0.291625  0.232980  1
  B  B23  1  0.500000  0.707943  0.767145  1
  B  B24  1  0.500000  0.631110  0.183562  1
  B  B25  1  0.500000  0.369374  0.816526  1
  B  B26  1  0.500000  0.130327  0.313392  1
  B  B27  1  0.500000  0.869539  0.686714  1
  B  B28  1  0.500000  0.981808  0.210897  1
  B  B29  1  0.500000  0.018099  0.789165  1
  B  B30  1  0.500000  0.483182  0.285770  1
  B  B31  1  0.500000  0.517070  0.714560  1
  B  B32  1  0.500000  0.600793  0.027472  1
  B  B33  1  0.500000  0.399694  0.971599  1
  B  B34  1  0.500000  0.100811  0.472077  1
  B  B35  1  0.500000  0.899230  0.528055  1
