# generated using pymatgen
data_La2Pr3NdTa2O14
_symmetry_space_group_name_H-M   'P 1'
_cell_length_a   6.72574910
_cell_length_b   6.72948572
_cell_length_c   7.79382700
_cell_angle_alpha   90.00000000
_cell_angle_beta   90.00000000
_cell_angle_gamma   109.31560786
_symmetry_Int_Tables_number   1
_chemical_formula_structural   La2Pr3NdTa2O14
_chemical_formula_sum   'La2 Pr3 Nd1 Ta2 O14'
_cell_volume   332.89882501
_cell_formula_units_Z   1
loop_
 _symmetry_equiv_pos_site_id
 _symmetry_equiv_pos_as_xyz
  1  'x, y, z'
loop_
 _atom_site_type_symbol
 _atom_site_label
 _atom_site_symmetry_multiplicity
 _atom_site_fract_x
 _atom_site_fract_y
 _atom_site_fract_z
 _atom_site_occupancy
  La  La0  1  0.499580  0.499431  0.499741  1
  La  La1  1  0.499580  0.499431  0.000259  1
  Pr  Pr2  1  0.999207  0.535268  0.250000  1
  Pr  Pr3  1  0.000620  0.464580  0.750000  1
  Pr  Pr4  1  0.535043  0.999248  0.750000  1
  Nd  Nd5  1  0.464939  0.000410  0.250000  1
  Ta  Ta6  1  0.999794  0.999967  0.499719  1
  Ta  Ta7  1  0.999794  0.999967  0.000281  1
  O  O8  1  0.944286  0.055036  0.750000  1
  O  O9  1  0.056419  0.943958  0.250000  1
  O  O10  1  0.365454  0.636904  0.250000  1
  O  O11  1  0.634250  0.365143  0.750000  1
  O  O12  1  0.370460  0.629623  0.750000  1
  O  O13  1  0.628375  0.367943  0.250000  1
  O  O14  1  0.311427  0.065416  0.971960  1
  O  O15  1  0.689639  0.935778  0.468980  1
  O  O16  1  0.311427  0.065416  0.528040  1
  O  O17  1  0.689639  0.935778  0.031020  1
  O  O18  1  0.066707  0.311189  0.470765  1
  O  O19  1  0.933325  0.689162  0.970641  1
  O  O20  1  0.933325  0.689162  0.529359  1
  O  O21  1  0.066707  0.311189  0.029235  1
