# generated using pymatgen
data_Hf5Sc4Re4P
_symmetry_space_group_name_H-M   'P 1'
_cell_length_a   8.61479502
_cell_length_b   8.62879330
_cell_length_c   8.55207365
_cell_angle_alpha   89.99999709
_cell_angle_beta   90.06138873
_cell_angle_gamma   120.05377015
_symmetry_Int_Tables_number   1
_chemical_formula_structural   Hf5Sc4Re4P
_chemical_formula_sum   'Hf10 Sc8 Re8 P2'
_cell_volume   550.25142920
_cell_formula_units_Z   2
loop_
 _symmetry_equiv_pos_site_id
 _symmetry_equiv_pos_as_xyz
  1  'x, y, z'
loop_
 _atom_site_type_symbol
 _atom_site_label
 _atom_site_symmetry_multiplicity
 _atom_site_fract_x
 _atom_site_fract_y
 _atom_site_fract_z
 _atom_site_occupancy
  Hf  Hf0  1  0.611705  0.805852  0.453673  1
  Hf  Hf1  1  0.805481  0.196923  0.546361  1
  Hf  Hf2  1  0.805481  0.608559  0.546361  1
  Hf  Hf3  1  0.388048  0.194025  0.547745  1
  Hf  Hf4  1  0.803840  0.195402  0.953070  1
  Hf  Hf5  1  0.803840  0.608440  0.953070  1
  Hf  Hf6  1  0.390728  0.195364  0.952423  1
  Hf  Hf7  1  0.195144  0.804592  0.047204  1
  Hf  Hf8  1  0.195144  0.390551  0.047204  1
  Hf  Hf9  1  0.609778  0.804889  0.046882  1
  Sc  Sc10  1  0.197088  0.801966  0.452173  1
  Sc  Sc11  1  0.197088  0.395121  0.452173  1
  Sc  Sc12  1  0.539647  0.459658  0.250808  1
  Sc  Sc13  1  0.539647  0.079990  0.250808  1
  Sc  Sc14  1  0.918001  0.459001  0.248870  1
  Sc  Sc15  1  0.460173  0.539315  0.750551  1
  Sc  Sc16  1  0.460173  0.920858  0.750551  1
  Sc  Sc17  1  0.078414  0.539207  0.752594  1
  Re  Re18  1  0.889819  0.108689  0.249925  1
  Re  Re19  1  0.889819  0.781129  0.249925  1
  Re  Re20  1  0.217346  0.108672  0.248937  1
  Re  Re21  1  0.108232  0.890904  0.751509  1
  Re  Re22  1  0.108232  0.217329  0.751509  1
  Re  Re23  1  0.781697  0.890849  0.749485  1
  Re  Re24  1  0.002823  0.001412  0.498397  1
  Re  Re25  1  0.999179  0.999589  0.000094  1
  P  P26  1  0.336967  0.668484  0.248441  1
  P  P27  1  0.666464  0.333231  0.749257  1
