# generated using pymatgen
data_KSnPIrRh
_symmetry_space_group_name_H-M   'P 1'
_cell_length_a   7.85288328
_cell_length_b   7.85288254
_cell_length_c   7.85288244
_cell_angle_alpha   150.27140901
_cell_angle_beta   149.85430473
_cell_angle_gamma   42.85011968
_symmetry_Int_Tables_number   1
_chemical_formula_structural   KSnPIrRh
_chemical_formula_sum   'K1 Sn1 P1 Ir1 Rh1'
_cell_volume   120.29272990
_cell_formula_units_Z   1
loop_
 _symmetry_equiv_pos_site_id
 _symmetry_equiv_pos_as_xyz
  1  'x, y, z'
loop_
 _atom_site_type_symbol
 _atom_site_label
 _atom_site_symmetry_multiplicity
 _atom_site_fract_x
 _atom_site_fract_y
 _atom_site_fract_z
 _atom_site_occupancy
  K  K0  1  0.022692  0.022692  0.000000  1
  Sn  Sn1  1  0.353450  0.353450  0.000000  1
  P  P2  1  0.657630  0.657630  0.000000  1
  Ir  Ir3  1  0.734251  0.234251  0.500000  1
  Rh  Rh4  1  0.231977  0.731977  0.500000  1
