# generated using pymatgen
data_Nd6PdRh
_symmetry_space_group_name_H-M   'P 1'
_cell_length_a   6.54595470
_cell_length_b   7.37173974
_cell_length_c   10.01270500
_cell_angle_alpha   90.00000000
_cell_angle_beta   90.00000000
_cell_angle_gamma   90.12190671
_symmetry_Int_Tables_number   1
_chemical_formula_structural   Nd6PdRh
_chemical_formula_sum   'Nd12 Pd2 Rh2'
_cell_volume   483.16273110
_cell_formula_units_Z   2
loop_
 _symmetry_equiv_pos_site_id
 _symmetry_equiv_pos_as_xyz
  1  'x, y, z'
loop_
 _atom_site_type_symbol
 _atom_site_label
 _atom_site_symmetry_multiplicity
 _atom_site_fract_x
 _atom_site_fract_y
 _atom_site_fract_z
 _atom_site_occupancy
  Nd  Nd0  1  0.647061  0.026757  0.250000  1
  Nd  Nd1  1  0.352939  0.973243  0.750000  1
  Nd  Nd2  1  0.132084  0.461828  0.750000  1
  Nd  Nd3  1  0.867916  0.538172  0.250000  1
  Nd  Nd4  1  0.165936  0.173712  0.064262  1
  Nd  Nd5  1  0.834064  0.826288  0.935738  1
  Nd  Nd6  1  0.668731  0.318749  0.936798  1
  Nd  Nd7  1  0.834064  0.826288  0.564262  1
  Nd  Nd8  1  0.331269  0.681251  0.063202  1
  Nd  Nd9  1  0.165936  0.173712  0.435738  1
  Nd  Nd10  1  0.331269  0.681251  0.436798  1
  Nd  Nd11  1  0.668731  0.318749  0.563202  1
  Pd  Pd12  1  0.433718  0.384012  0.250000  1
  Pd  Pd13  1  0.566282  0.615988  0.750000  1
  Rh  Rh14  1  0.925895  0.118602  0.750000  1
  Rh  Rh15  1  0.074105  0.881398  0.250000  1
