# generated using pymatgen
data_CeHo(MgIr)2
_symmetry_space_group_name_H-M   'P 1'
_cell_length_a   7.04549100
_cell_length_b   4.13558600
_cell_length_c   8.61671300
_cell_angle_alpha   90.00000000
_cell_angle_beta   90.00000000
_cell_angle_gamma   90.00000000
_symmetry_Int_Tables_number   1
_chemical_formula_structural   CeHo(MgIr)2
_chemical_formula_sum   'Ce2 Ho2 Mg4 Ir4'
_cell_volume   251.06718250
_cell_formula_units_Z   2
loop_
 _symmetry_equiv_pos_site_id
 _symmetry_equiv_pos_as_xyz
  1  'x, y, z'
loop_
 _atom_site_type_symbol
 _atom_site_label
 _atom_site_symmetry_multiplicity
 _atom_site_fract_x
 _atom_site_fract_y
 _atom_site_fract_z
 _atom_site_occupancy
  Ce  Ce0  1  0.033932  0.750000  0.825603  1
  Ce  Ce1  1  0.533932  0.750000  0.674397  1
  Ho  Ho2  1  0.960769  0.250000  0.180325  1
  Ho  Ho3  1  0.460769  0.250000  0.319675  1
  Mg  Mg4  1  0.865747  0.250000  0.556055  1
  Mg  Mg5  1  0.365747  0.250000  0.943945  1
  Mg  Mg6  1  0.136384  0.750000  0.436354  1
  Mg  Mg7  1  0.636384  0.750000  0.063646  1
  Ir  Ir8  1  0.757838  0.250000  0.868768  1
  Ir  Ir9  1  0.257838  0.250000  0.631232  1
  Ir  Ir10  1  0.245328  0.750000  0.123554  1
  Ir  Ir11  1  0.745328  0.750000  0.376446  1
