# generated using pymatgen
data_TaSCl9
_symmetry_space_group_name_H-M   'P 1'
_cell_length_a   7.67801135
_cell_length_b   7.67801149
_cell_length_c   14.11095537
_cell_angle_alpha   74.48344134
_cell_angle_beta   74.48344044
_cell_angle_gamma   62.94697684
_symmetry_Int_Tables_number   1
_chemical_formula_structural   TaSCl9
_chemical_formula_sum   'Ta2 S2 Cl18'
_cell_volume   703.46191780
_cell_formula_units_Z   2
loop_
 _symmetry_equiv_pos_site_id
 _symmetry_equiv_pos_as_xyz
  1  'x, y, z'
loop_
 _atom_site_type_symbol
 _atom_site_label
 _atom_site_symmetry_multiplicity
 _atom_site_fract_x
 _atom_site_fract_y
 _atom_site_fract_z
 _atom_site_occupancy
  Ta  Ta0  1  0.000000  0.000000  0.000000  1
  Ta  Ta1  1  0.500000  0.500000  0.500000  1
  S  S2  1  0.845657  0.845657  0.719516  1
  S  S3  1  0.154343  0.154343  0.280484  1
  Cl  Cl4  1  0.033590  0.423094  0.197732  1
  Cl  Cl5  1  0.265928  0.685557  0.390209  1
  Cl  Cl6  1  0.314443  0.734072  0.609791  1
  Cl  Cl7  1  0.423094  0.033590  0.197732  1
  Cl  Cl8  1  0.685557  0.265928  0.390209  1
  Cl  Cl9  1  0.688065  0.688065  0.417632  1
  Cl  Cl10  1  0.213400  0.213400  0.396126  1
  Cl  Cl11  1  0.576906  0.966410  0.802268  1
  Cl  Cl12  1  0.708403  0.291597  0.000000  1
  Cl  Cl13  1  0.734072  0.314443  0.609791  1
  Cl  Cl14  1  0.966410  0.576906  0.802268  1
  Cl  Cl15  1  0.786600  0.786600  0.603874  1
  Cl  Cl16  1  0.808637  0.808637  0.037493  1
  Cl  Cl17  1  0.975346  0.975346  0.174584  1
  Cl  Cl18  1  0.311935  0.311935  0.582368  1
  Cl  Cl19  1  0.191363  0.191363  0.962507  1
  Cl  Cl20  1  0.291597  0.708403  0.000000  1
  Cl  Cl21  1  0.024654  0.024654  0.825416  1
