# generated using pymatgen
data_Er11Sc(Si3Au)4
_symmetry_space_group_name_H-M   'P 1'
_cell_length_a   4.18684000
_cell_length_b   10.91637233
_cell_length_c   12.27728565
_cell_angle_alpha   90.01294800
_cell_angle_beta   90.00000000
_cell_angle_gamma   90.00000000
_symmetry_Int_Tables_number   1
_chemical_formula_structural   Er11Sc(Si3Au)4
_chemical_formula_sum   'Er11 Sc1 Si12 Au4'
_cell_volume   561.13460684
_cell_formula_units_Z   1
loop_
 _symmetry_equiv_pos_site_id
 _symmetry_equiv_pos_as_xyz
  1  'x, y, z'
loop_
 _atom_site_type_symbol
 _atom_site_label
 _atom_site_symmetry_multiplicity
 _atom_site_fract_x
 _atom_site_fract_y
 _atom_site_fract_z
 _atom_site_occupancy
  Er  Er0  1  0.250000  0.875893  0.019112  1
  Er  Er1  1  0.250000  0.624877  0.519558  1
  Er  Er2  1  0.750000  0.124607  0.977472  1
  Er  Er3  1  0.750000  0.374373  0.481812  1
  Er  Er4  1  0.250000  0.925554  0.602038  1
  Er  Er5  1  0.250000  0.575675  0.101411  1
  Er  Er6  1  0.750000  0.076644  0.401782  1
  Er  Er7  1  0.750000  0.423099  0.896604  1
  Er  Er8  1  0.250000  0.665584  0.802223  1
  Er  Er9  1  0.250000  0.835450  0.302540  1
  Er  Er10  1  0.750000  0.332745  0.197710  1
  Sc  Sc11  1  0.750000  0.165732  0.698449  1
  Si  Si12  1  0.250000  0.029002  0.824324  1
  Si  Si13  1  0.250000  0.471375  0.326737  1
  Si  Si14  1  0.750000  0.973296  0.173297  1
  Si  Si15  1  0.750000  0.528210  0.673180  1
  Si  Si16  1  0.250000  0.247231  0.843892  1
  Si  Si17  1  0.250000  0.250675  0.350722  1
  Si  Si18  1  0.750000  0.751967  0.152167  1
  Si  Si19  1  0.750000  0.748848  0.651925  1
  Si  Si20  1  0.250000  0.184408  0.543103  1
  Si  Si21  1  0.250000  0.316300  0.033884  1
  Si  Si22  1  0.750000  0.816895  0.464408  1
  Si  Si23  1  0.750000  0.682561  0.964318  1
  Au  Au24  1  0.250000  0.389453  0.681555  1
  Au  Au25  1  0.250000  0.108727  0.183174  1
  Au  Au26  1  0.750000  0.607706  0.316939  1
  Au  Au27  1  0.750000  0.893108  0.815665  1
