# generated using pymatgen
data_Pr3ErUP12Ru19
_symmetry_space_group_name_H-M   'P 1'
_cell_length_a   12.64615344
_cell_length_b   12.63047574
_cell_length_c   3.98633000
_cell_angle_alpha   90.00000000
_cell_angle_beta   90.00000000
_cell_angle_gamma   120.07169529
_symmetry_Int_Tables_number   1
_chemical_formula_structural   Pr3ErUP12Ru19
_chemical_formula_sum   'Pr3 Er1 U1 P12 Ru19'
_cell_volume   551.02058875
_cell_formula_units_Z   1
loop_
 _symmetry_equiv_pos_site_id
 _symmetry_equiv_pos_as_xyz
  1  'x, y, z'
loop_
 _atom_site_type_symbol
 _atom_site_label
 _atom_site_symmetry_multiplicity
 _atom_site_fract_x
 _atom_site_fract_y
 _atom_site_fract_z
 _atom_site_occupancy
  Pr  Pr0  1  0.811459  0.998729  0.500000  1
  Pr  Pr1  1  0.999302  0.811961  0.500000  1
  Pr  Pr2  1  0.332999  0.664307  0.000000  1
  Er  Er3  1  0.664033  0.332760  0.000000  1
  U  U4  1  0.178601  0.179034  0.500000  1
  P  P5  1  0.815093  0.813813  0.000000  1
  P  P6  1  0.187470  0.998583  0.000000  1
  P  P7  1  0.995307  0.185869  0.000000  1
  P  P8  1  0.169689  0.475954  0.500000  1
  P  P9  1  0.524158  0.693762  0.500000  1
  P  P10  1  0.307101  0.831033  0.500000  1
  P  P11  1  0.694394  0.520197  0.500000  1
  P  P12  1  0.826820  0.306457  0.500000  1
  P  P13  1  0.479670  0.173876  0.500000  1
  P  P14  1  0.374490  0.374992  0.000000  1
  P  P15  1  0.624071  0.000849  0.000000  1
  P  P16  1  0.001046  0.624353  0.000000  1
  Ru  Ru17  1  0.554805  0.554615  0.000000  1
  Ru  Ru18  1  0.445929  0.005527  0.000000  1
  Ru  Ru19  1  0.005453  0.445948  0.000000  1
  Ru  Ru20  1  0.715759  0.713851  0.500000  1
  Ru  Ru21  1  0.286554  0.004761  0.500000  1
  Ru  Ru22  1  0.000765  0.284513  0.500000  1
  Ru  Ru23  1  0.183059  0.367836  0.000000  1
  Ru  Ru24  1  0.621723  0.805426  0.000000  1
  Ru  Ru25  1  0.197115  0.817724  0.000000  1
  Ru  Ru26  1  0.804668  0.618021  0.000000  1
  Ru  Ru27  1  0.814848  0.197758  0.000000  1
  Ru  Ru28  1  0.371157  0.186242  0.000000  1
  Ru  Ru29  1  0.364251  0.487180  0.500000  1
  Ru  Ru30  1  0.510385  0.878206  0.500000  1
  Ru  Ru31  1  0.125416  0.634610  0.500000  1
  Ru  Ru32  1  0.874889  0.506172  0.500000  1
  Ru  Ru33  1  0.633792  0.128939  0.500000  1
  Ru  Ru34  1  0.492717  0.365129  0.500000  1
  Ru  Ru35  1  0.011013  0.011018  0.000000  1
