# generated using pymatgen
data_K4CrCu3F12
_symmetry_space_group_name_H-M   'P 1'
_cell_length_a   5.83885445
_cell_length_b   5.83885483
_cell_length_c   8.27784200
_cell_angle_alpha   90.00000000
_cell_angle_beta   90.00000000
_cell_angle_gamma   89.88291942
_symmetry_Int_Tables_number   1
_chemical_formula_structural   K4CrCu3F12
_chemical_formula_sum   'K4 Cr1 Cu3 F12'
_cell_volume   282.20945079
_cell_formula_units_Z   1
loop_
 _symmetry_equiv_pos_site_id
 _symmetry_equiv_pos_as_xyz
  1  'x, y, z'
loop_
 _atom_site_type_symbol
 _atom_site_label
 _atom_site_symmetry_multiplicity
 _atom_site_fract_x
 _atom_site_fract_y
 _atom_site_fract_z
 _atom_site_occupancy
  K  K0  1  0.250000  0.750000  0.010033  1
  K  K1  1  0.750000  0.250000  0.489967  1
  K  K2  1  0.750000  0.250000  0.010033  1
  K  K3  1  0.250000  0.750000  0.489967  1
  Cr  Cr4  1  0.750000  0.750000  0.750000  1
  Cu  Cu5  1  0.250000  0.250000  0.250000  1
  Cu  Cu6  1  0.750000  0.750000  0.250000  1
  Cu  Cu7  1  0.250000  0.250000  0.750000  1
  F  F8  1  0.990829  0.509171  0.250000  1
  F  F9  1  0.513369  0.986631  0.750000  1
  F  F10  1  0.986631  0.513369  0.750000  1
  F  F11  1  0.509171  0.990829  0.250000  1
  F  F12  1  0.514022  0.514022  0.750000  1
  F  F13  1  0.006166  0.006166  0.250000  1
  F  F14  1  0.493834  0.493834  0.250000  1
  F  F15  1  0.985978  0.985978  0.750000  1
  F  F16  1  0.750000  0.750000  0.984851  1
  F  F17  1  0.250000  0.250000  0.512987  1
  F  F18  1  0.250000  0.250000  0.987013  1
  F  F19  1  0.750000  0.750000  0.515149  1
