# generated using pymatgen
data_Cs2Tb2AlCuTe6
_symmetry_space_group_name_H-M   'P 1'
_cell_length_a   8.97759309
_cell_length_b   8.97759303
_cell_length_c   11.71193100
_cell_angle_alpha   90.00000000
_cell_angle_beta   90.00000000
_cell_angle_gamma   151.30614245
_symmetry_Int_Tables_number   1
_chemical_formula_structural   Cs2Tb2AlCuTe6
_chemical_formula_sum   'Cs2 Tb2 Al1 Cu1 Te6'
_cell_volume   453.21752042
_cell_formula_units_Z   1
loop_
 _symmetry_equiv_pos_site_id
 _symmetry_equiv_pos_as_xyz
  1  'x, y, z'
loop_
 _atom_site_type_symbol
 _atom_site_label
 _atom_site_symmetry_multiplicity
 _atom_site_fract_x
 _atom_site_fract_y
 _atom_site_fract_z
 _atom_site_occupancy
  Cs  Cs0  1  0.250204  0.749794  0.250000  1
  Cs  Cs1  1  0.754757  0.245241  0.750000  1
  Tb  Tb2  1  0.494459  0.505539  0.021535  1
  Tb  Tb3  1  0.494459  0.505539  0.478465  1
  Al  Al4  1  0.034979  0.965020  0.750000  1
  Cu  Cu5  1  0.971241  0.028758  0.250000  1
  Te  Te6  1  0.880973  0.119026  0.064095  1
  Te  Te7  1  0.566426  0.433573  0.250000  1
  Te  Te8  1  0.880973  0.119026  0.435904  1
  Te  Te9  1  0.114529  0.885470  0.562808  1
  Te  Te10  1  0.442464  0.557535  0.750000  1
  Te  Te11  1  0.114529  0.885470  0.937192  1
