# generated using pymatgen
data_Lu3(ThSi2)2
_symmetry_space_group_name_H-M   'P 1'
_cell_length_a   7.64150800
_cell_length_b   7.45456328
_cell_length_c   7.69997953
_cell_angle_alpha   70.11667491
_cell_angle_beta   90.00000000
_cell_angle_gamma   90.00000000
_symmetry_Int_Tables_number   1
_chemical_formula_structural   Lu3(ThSi2)2
_chemical_formula_sum   'Lu6 Th4 Si8'
_cell_volume   412.47490744
_cell_formula_units_Z   2
loop_
 _symmetry_equiv_pos_site_id
 _symmetry_equiv_pos_as_xyz
  1  'x, y, z'
loop_
 _atom_site_type_symbol
 _atom_site_label
 _atom_site_symmetry_multiplicity
 _atom_site_fract_x
 _atom_site_fract_y
 _atom_site_fract_z
 _atom_site_occupancy
  Lu  Lu0  1  0.675539  0.742168  0.254820  1
  Lu  Lu1  1  0.324461  0.257832  0.745180  1
  Lu  Lu2  1  0.175539  0.757832  0.745180  1
  Lu  Lu3  1  0.824461  0.242168  0.254820  1
  Lu  Lu4  1  0.000000  0.000000  0.000000  1
  Lu  Lu5  1  0.500000  0.500000  0.000000  1
  Th  Th6  1  0.675757  0.929429  0.693704  1
  Th  Th7  1  0.324243  0.070571  0.306296  1
  Th  Th8  1  0.175757  0.570571  0.306296  1
  Th  Th9  1  0.824243  0.429429  0.693704  1
  Si  Si10  1  0.964109  0.852483  0.419799  1
  Si  Si11  1  0.035891  0.147517  0.580201  1
  Si  Si12  1  0.464109  0.647517  0.580201  1
  Si  Si13  1  0.535891  0.352483  0.419799  1
  Si  Si14  1  0.878590  0.626224  0.992938  1
  Si  Si15  1  0.121410  0.373776  0.007062  1
  Si  Si16  1  0.378590  0.873776  0.007062  1
  Si  Si17  1  0.621410  0.126224  0.992938  1
