# generated using pymatgen
data_MgSb2Rh(SeO3)8
_symmetry_space_group_name_H-M   'P 1'
_cell_length_a   8.25802513
_cell_length_b   8.17667431
_cell_length_c   8.27495755
_cell_angle_alpha   89.37896962
_cell_angle_beta   89.98006814
_cell_angle_gamma   89.73392072
_symmetry_Int_Tables_number   1
_chemical_formula_structural   MgSb2Rh(SeO3)8
_chemical_formula_sum   'Mg1 Sb2 Rh1 Se8 O24'
_cell_volume   558.71259280
_cell_formula_units_Z   1
loop_
 _symmetry_equiv_pos_site_id
 _symmetry_equiv_pos_as_xyz
  1  'x, y, z'
loop_
 _atom_site_type_symbol
 _atom_site_label
 _atom_site_symmetry_multiplicity
 _atom_site_fract_x
 _atom_site_fract_y
 _atom_site_fract_z
 _atom_site_occupancy
  Mg  Mg0  1  0.000000  0.500000  0.000000  1
  Sb  Sb1  1  0.000000  0.000000  0.500000  1
  Sb  Sb2  1  0.500000  0.000000  0.000000  1
  Rh  Rh3  1  0.500000  0.500000  0.500000  1
  Se  Se4  1  0.335668  0.661802  0.177626  1
  Se  Se5  1  0.821852  0.337606  0.335160  1
  Se  Se6  1  0.666172  0.815709  0.665368  1
  Se  Se7  1  0.168143  0.167593  0.832913  1
  Se  Se8  1  0.664332  0.338198  0.822374  1
  Se  Se9  1  0.178148  0.662394  0.664840  1
  Se  Se10  1  0.333828  0.184291  0.334632  1
  Se  Se11  1  0.831857  0.832407  0.167087  1
  O  O12  1  0.245887  0.541422  0.044756  1
  O  O13  1  0.739193  0.475187  0.478369  1
  O  O14  1  0.758715  0.962523  0.537927  1
  O  O15  1  0.260647  0.014685  0.961958  1
  O  O16  1  0.534074  0.954788  0.759528  1
  O  O17  1  0.475550  0.518751  0.260063  1
  O  O18  1  0.951971  0.463704  0.245042  1
  O  O19  1  0.034948  0.023539  0.738969  1
  O  O20  1  0.958943  0.240344  0.478548  1
  O  O21  1  0.529967  0.746537  0.523859  1
  O  O22  1  0.484820  0.760420  0.047889  1
  O  O23  1  0.042026  0.249704  0.965019  1
  O  O24  1  0.754113  0.458578  0.955244  1
  O  O25  1  0.260807  0.524813  0.521631  1
  O  O26  1  0.241285  0.037477  0.462073  1
  O  O27  1  0.739353  0.985315  0.038042  1
  O  O28  1  0.465926  0.045212  0.240472  1
  O  O29  1  0.524450  0.481249  0.739937  1
  O  O30  1  0.048029  0.536296  0.754958  1
  O  O31  1  0.965052  0.976461  0.261031  1
  O  O32  1  0.041057  0.759656  0.521452  1
  O  O33  1  0.470033  0.253463  0.476141  1
  O  O34  1  0.515180  0.239580  0.952111  1
  O  O35  1  0.957974  0.750296  0.034981  1
