# generated using pymatgen
data_Tb7DyAlPd24
_symmetry_space_group_name_H-M   'P 1'
_cell_length_a   8.37315546
_cell_length_b   8.37313181
_cell_length_c   8.37310700
_cell_angle_alpha   89.89379947
_cell_angle_beta   90.10646710
_cell_angle_gamma   90.10656876
_symmetry_Int_Tables_number   1
_chemical_formula_structural   Tb7DyAlPd24
_chemical_formula_sum   'Tb7 Dy1 Al1 Pd24'
_cell_volume   587.03159906
_cell_formula_units_Z   1
loop_
 _symmetry_equiv_pos_site_id
 _symmetry_equiv_pos_as_xyz
  1  'x, y, z'
loop_
 _atom_site_type_symbol
 _atom_site_label
 _atom_site_symmetry_multiplicity
 _atom_site_fract_x
 _atom_site_fract_y
 _atom_site_fract_z
 _atom_site_occupancy
  Tb  Tb0  1  0.251116  0.251858  0.251870  1
  Tb  Tb1  1  0.748247  0.748011  0.747997  1
  Tb  Tb2  1  0.748135  0.748893  0.251871  1
  Tb  Tb3  1  0.748136  0.251858  0.748876  1
  Tb  Tb4  1  0.251996  0.251746  0.747996  1
  Tb  Tb5  1  0.251998  0.748008  0.251760  1
  Tb  Tb6  1  0.252198  0.747809  0.747797  1
  Dy  Dy7  1  0.747676  0.252314  0.252327  1
  Al  Al8  1  0.000411  0.999589  0.999589  1
  Pd  Pd9  1  0.259392  0.499480  0.999864  1
  Pd  Pd10  1  0.740688  0.499530  0.001807  1
  Pd  Pd11  1  0.998195  0.259315  0.499530  1
  Pd  Pd12  1  0.500468  0.259317  0.001804  1
  Pd  Pd13  1  0.000137  0.740605  0.499480  1
  Pd  Pd14  1  0.500520  0.740602  0.999864  1
  Pd  Pd15  1  0.500467  0.001803  0.259296  1
  Pd  Pd16  1  0.259388  0.999864  0.499480  1
  Pd  Pd17  1  0.500520  0.999865  0.740622  1
  Pd  Pd18  1  0.740693  0.001805  0.499530  1
  Pd  Pd19  1  0.998196  0.499530  0.259300  1
  Pd  Pd20  1  0.000138  0.499480  0.740620  1
  Pd  Pd21  1  0.252266  0.499611  0.499611  1
  Pd  Pd22  1  0.747381  0.499663  0.499660  1
  Pd  Pd23  1  0.500337  0.252630  0.499660  1
  Pd  Pd24  1  0.500391  0.747724  0.499612  1
  Pd  Pd25  1  0.500339  0.499660  0.252605  1
  Pd  Pd26  1  0.500390  0.499610  0.747752  1
  Pd  Pd27  1  0.289280  0.999679  0.999677  1
  Pd  Pd28  1  0.711765  0.000753  0.000756  1
  Pd  Pd29  1  0.999247  0.288244  0.000753  1
  Pd  Pd30  1  0.000321  0.710710  0.999680  1
  Pd  Pd31  1  0.999247  0.000753  0.288225  1
  Pd  Pd32  1  0.000322  0.999681  0.710728  1
