# generated using pymatgen
data_Cs2GaCo3F12
_symmetry_space_group_name_H-M   'P 1'
_cell_length_a   7.55914588
_cell_length_b   7.55914583
_cell_length_c   7.55914600
_cell_angle_alpha   59.83871295
_cell_angle_beta   59.83871320
_cell_angle_gamma   59.83870919
_symmetry_Int_Tables_number   1
_chemical_formula_structural   Cs2GaCo3F12
_chemical_formula_sum   'Cs2 Ga1 Co3 F12'
_cell_volume   304.30601335
_cell_formula_units_Z   1
loop_
 _symmetry_equiv_pos_site_id
 _symmetry_equiv_pos_as_xyz
  1  'x, y, z'
loop_
 _atom_site_type_symbol
 _atom_site_label
 _atom_site_symmetry_multiplicity
 _atom_site_fract_x
 _atom_site_fract_y
 _atom_site_fract_z
 _atom_site_occupancy
  Cs  Cs0  1  0.373247  0.373247  0.373247  1
  Cs  Cs1  1  0.626753  0.626753  0.626753  1
  Ga  Ga2  1  0.000000  0.000000  0.000000  1
  Co  Co3  1  0.500000  0.000000  0.000000  1
  Co  Co4  1  0.000000  0.000000  0.500000  1
  Co  Co5  1  0.000000  0.500000  0.000000  1
  F  F6  1  0.939037  0.316555  0.316555  1
  F  F7  1  0.303760  0.936909  0.936909  1
  F  F8  1  0.316555  0.316555  0.939037  1
  F  F9  1  0.936909  0.936909  0.303760  1
  F  F10  1  0.936909  0.303760  0.936909  1
  F  F11  1  0.316555  0.939037  0.316555  1
  F  F12  1  0.060963  0.683445  0.683445  1
  F  F13  1  0.696240  0.063091  0.063091  1
  F  F14  1  0.683445  0.683445  0.060963  1
  F  F15  1  0.063091  0.063091  0.696240  1
  F  F16  1  0.063091  0.696240  0.063091  1
  F  F17  1  0.683445  0.060963  0.683445  1
