# generated using pymatgen
data_Ho3Lu5(Si3Pd)4
_symmetry_space_group_name_H-M   'P 1'
_cell_length_a   8.18899800
_cell_length_b   8.18899770
_cell_length_c   7.80017900
_cell_angle_alpha   90.00000000
_cell_angle_beta   90.00000000
_cell_angle_gamma   120.00912292
_symmetry_Int_Tables_number   1
_chemical_formula_structural   Ho3Lu5(Si3Pd)4
_chemical_formula_sum   'Ho3 Lu5 Si12 Pd4'
_cell_volume   452.95679943
_cell_formula_units_Z   1
loop_
 _symmetry_equiv_pos_site_id
 _symmetry_equiv_pos_as_xyz
  1  'x, y, z'
loop_
 _atom_site_type_symbol
 _atom_site_label
 _atom_site_symmetry_multiplicity
 _atom_site_fract_x
 _atom_site_fract_y
 _atom_site_fract_z
 _atom_site_occupancy
  Ho  Ho0  1  0.488230  0.511770  0.750000  1
  Ho  Ho1  1  0.000006  0.999994  0.250000  1
  Ho  Ho2  1  0.999771  0.000229  0.750000  1
  Lu  Lu3  1  0.511966  0.023548  0.250000  1
  Lu  Lu4  1  0.488352  0.977142  0.750000  1
  Lu  Lu5  1  0.976452  0.488034  0.250000  1
  Lu  Lu6  1  0.022858  0.511648  0.750000  1
  Lu  Lu7  1  0.511510  0.488490  0.250000  1
  Si  Si8  1  0.165705  0.332002  0.002798  1
  Si  Si9  1  0.834140  0.668274  0.998203  1
  Si  Si10  1  0.667998  0.834295  0.002798  1
  Si  Si11  1  0.834140  0.668274  0.501797  1
  Si  Si12  1  0.331726  0.165860  0.998203  1
  Si  Si13  1  0.165705  0.332002  0.497202  1
  Si  Si14  1  0.165850  0.834150  0.001938  1
  Si  Si15  1  0.331726  0.165860  0.501797  1
  Si  Si16  1  0.834535  0.165465  0.998186  1
  Si  Si17  1  0.667998  0.834295  0.497202  1
  Si  Si18  1  0.834535  0.165465  0.501814  1
  Si  Si19  1  0.165850  0.834150  0.498062  1
  Pd  Pd20  1  0.332826  0.667174  0.042943  1
  Pd  Pd21  1  0.667647  0.332353  0.963591  1
  Pd  Pd22  1  0.667647  0.332353  0.536409  1
  Pd  Pd23  1  0.332826  0.667174  0.457057  1
