# generated using pymatgen
data_Ca20Ag7Hg5
_symmetry_space_group_name_H-M   'P 1'
_cell_length_a   8.21732800
_cell_length_b   8.21768659
_cell_length_c   14.75312300
_cell_angle_alpha   90.00209865
_cell_angle_beta   89.99923302
_cell_angle_gamma   90.07782433
_symmetry_Int_Tables_number   1
_chemical_formula_structural   Ca20Ag7Hg5
_chemical_formula_sum   'Ca20 Ag7 Hg5'
_cell_volume   996.23950315
_cell_formula_units_Z   1
loop_
 _symmetry_equiv_pos_site_id
 _symmetry_equiv_pos_as_xyz
  1  'x, y, z'
loop_
 _atom_site_type_symbol
 _atom_site_label
 _atom_site_symmetry_multiplicity
 _atom_site_fract_x
 _atom_site_fract_y
 _atom_site_fract_z
 _atom_site_occupancy
  Ca  Ca0  1  0.667510  0.168457  0.104138  1
  Ca  Ca1  1  0.166509  0.665430  0.607851  1
  Ca  Ca2  1  0.330409  0.833752  0.104199  1
  Ca  Ca3  1  0.833685  0.334314  0.607835  1
  Ca  Ca4  1  0.837042  0.664138  0.104420  1
  Ca  Ca5  1  0.333349  0.167506  0.607613  1
  Ca  Ca6  1  0.165508  0.333255  0.105730  1
  Ca  Ca7  1  0.665899  0.833245  0.607000  1
  Ca  Ca8  1  0.835066  0.333641  0.893117  1
  Ca  Ca9  1  0.331126  0.832375  0.394896  1
  Ca  Ca10  1  0.165193  0.666150  0.893125  1
  Ca  Ca11  1  0.666713  0.169677  0.394832  1
  Ca  Ca12  1  0.666601  0.834587  0.893992  1
  Ca  Ca13  1  0.166927  0.333974  0.393301  1
  Ca  Ca14  1  0.332637  0.166163  0.893372  1
  Ca  Ca15  1  0.835737  0.663428  0.394661  1
  Ca  Ca16  1  0.499912  0.500422  0.752080  1
  Ca  Ca17  1  0.002571  0.001355  0.249953  1
  Ca  Ca18  1  0.999570  0.000086  0.750090  1
  Ca  Ca19  1  0.498627  0.497435  0.247829  1
  Ag  Ag20  1  0.625825  0.126364  0.750597  1
  Ag  Ag21  1  0.125761  0.626160  0.249447  1
  Ag  Ag22  1  0.873712  0.374356  0.249448  1
  Ag  Ag23  1  0.373773  0.874077  0.750563  1
  Ag  Ag24  1  0.873478  0.626428  0.750606  1
  Ag  Ag25  1  0.372137  0.127991  0.249308  1
  Ag  Ag26  1  0.126428  0.373645  0.750634  1
  Hg  Hg27  1  0.499600  0.499622  0.500687  1
  Hg  Hg28  1  0.499622  0.499645  0.999376  1
  Hg  Hg29  1  0.000384  0.000413  0.500618  1
  Hg  Hg30  1  0.628323  0.871525  0.249403  1
  Hg  Hg31  1  0.000365  0.000380  0.999278  1
