# generated using pymatgen
data_La2Nd14Cd4CoNi3
_symmetry_space_group_name_H-M   'P 1'
_cell_length_a   9.87089409
_cell_length_b   9.87089292
_cell_length_c   9.90511290
_cell_angle_alpha   59.71774429
_cell_angle_beta   59.71774081
_cell_angle_gamma   59.73216723
_symmetry_Int_Tables_number   1
_chemical_formula_structural   La2Nd14Cd4CoNi3
_chemical_formula_sum   'La2 Nd14 Cd4 Co1 Ni3'
_cell_volume   678.12857428
_cell_formula_units_Z   1
loop_
 _symmetry_equiv_pos_site_id
 _symmetry_equiv_pos_as_xyz
  1  'x, y, z'
loop_
 _atom_site_type_symbol
 _atom_site_label
 _atom_site_symmetry_multiplicity
 _atom_site_fract_x
 _atom_site_fract_y
 _atom_site_fract_z
 _atom_site_occupancy
  La  La0  1  0.596365  0.596365  0.597688  1
  La  La1  1  0.594390  0.594390  0.208787  1
  Nd  Nd2  1  0.596613  0.204047  0.598095  1
  Nd  Nd3  1  0.204047  0.596613  0.598095  1
  Nd  Nd4  1  0.066855  0.438752  0.438736  1
  Nd  Nd5  1  0.439129  0.060743  0.059478  1
  Nd  Nd6  1  0.438752  0.066855  0.438736  1
  Nd  Nd7  1  0.060743  0.439129  0.059478  1
  Nd  Nd8  1  0.438818  0.438818  0.065870  1
  Nd  Nd9  1  0.059693  0.059693  0.438843  1
  Nd  Nd10  1  0.188981  0.813312  0.813153  1
  Nd  Nd11  1  0.810158  0.187115  0.186866  1
  Nd  Nd12  1  0.813312  0.188981  0.813153  1
  Nd  Nd13  1  0.187115  0.810158  0.186866  1
  Nd  Nd14  1  0.813279  0.813279  0.188284  1
  Nd  Nd15  1  0.187148  0.187148  0.809780  1
  Cd  Cd16  1  0.830183  0.830183  0.828970  1
  Cd  Cd17  1  0.830640  0.830640  0.509773  1
  Cd  Cd18  1  0.831082  0.509579  0.829425  1
  Cd  Cd19  1  0.509579  0.831082  0.829425  1
  Co  Co20  1  0.393637  0.393637  0.391330  1
  Ni  Ni21  1  0.392433  0.392433  0.824371  1
  Ni  Ni22  1  0.392510  0.824535  0.392398  1
  Ni  Ni23  1  0.824535  0.392510  0.392398  1
