# generated using pymatgen
data_Zr6Zn21Ir2C
_symmetry_space_group_name_H-M   'P 1'
_cell_length_a   8.70186906
_cell_length_b   8.76750528
_cell_length_c   8.70186837
_cell_angle_alpha   59.94595249
_cell_angle_beta   60.27075913
_cell_angle_gamma   59.94594568
_symmetry_Int_Tables_number   1
_chemical_formula_structural   Zr6Zn21Ir2C
_chemical_formula_sum   'Zr6 Zn21 Ir2 C1'
_cell_volume   470.01329412
_cell_formula_units_Z   1
loop_
 _symmetry_equiv_pos_site_id
 _symmetry_equiv_pos_as_xyz
  1  'x, y, z'
loop_
 _atom_site_type_symbol
 _atom_site_label
 _atom_site_symmetry_multiplicity
 _atom_site_fract_x
 _atom_site_fract_y
 _atom_site_fract_z
 _atom_site_occupancy
  Zr  Zr0  1  0.687578  0.313473  0.305614  1
  Zr  Zr1  1  0.312422  0.686527  0.694386  1
  Zr  Zr2  1  0.311009  0.679573  0.311009  1
  Zr  Zr3  1  0.688991  0.320427  0.688991  1
  Zr  Zr4  1  0.305614  0.313473  0.687578  1
  Zr  Zr5  1  0.694386  0.686527  0.312422  1
  Zn  Zn6  1  0.119871  0.120630  0.119871  1
  Zn  Zn7  1  0.880129  0.879370  0.880129  1
  Zn  Zn8  1  0.119538  0.126497  0.636138  1
  Zn  Zn9  1  0.124062  0.633334  0.124062  1
  Zn  Zn10  1  0.880462  0.873503  0.363862  1
  Zn  Zn11  1  0.875938  0.366666  0.875938  1
  Zn  Zn12  1  0.636138  0.126497  0.119538  1
  Zn  Zn13  1  0.363862  0.873503  0.880462  1
  Zn  Zn14  1  0.500000  0.000000  0.000000  1
  Zn  Zn15  1  0.000000  0.500000  0.000000  1
  Zn  Zn16  1  0.500000  0.000000  0.500000  1
  Zn  Zn17  1  0.000000  0.000000  0.500000  1
  Zn  Zn18  1  0.333586  0.327774  0.333586  1
  Zn  Zn19  1  0.666414  0.672226  0.666414  1
  Zn  Zn20  1  0.333660  0.330069  0.000717  1
  Zn  Zn21  1  0.333973  0.994946  0.333973  1
  Zn  Zn22  1  0.666340  0.669931  0.999283  1
  Zn  Zn23  1  0.666027  0.005054  0.666027  1
  Zn  Zn24  1  0.000717  0.330069  0.333660  1
  Zn  Zn25  1  0.999283  0.669931  0.666340  1
  Zn  Zn26  1  0.000000  0.000000  0.000000  1
  Ir  Ir27  1  0.000000  0.500000  0.500000  1
  Ir  Ir28  1  0.500000  0.500000  0.000000  1
  C  C29  1  0.500000  0.500000  0.500000  1
