# generated using pymatgen
data_CaNdRu2O7
_symmetry_space_group_name_H-M   'P 1'
_cell_length_a   7.33925731
_cell_length_b   7.33925796
_cell_length_c   7.30915600
_cell_angle_alpha   60.13557499
_cell_angle_beta   60.13557208
_cell_angle_gamma   60.45207801
_symmetry_Int_Tables_number   1
_chemical_formula_structural   CaNdRu2O7
_chemical_formula_sum   'Ca2 Nd2 Ru4 O14'
_cell_volume   279.90547095
_cell_formula_units_Z   2
loop_
 _symmetry_equiv_pos_site_id
 _symmetry_equiv_pos_as_xyz
  1  'x, y, z'
loop_
 _atom_site_type_symbol
 _atom_site_label
 _atom_site_symmetry_multiplicity
 _atom_site_fract_x
 _atom_site_fract_y
 _atom_site_fract_z
 _atom_site_occupancy
  Ca  Ca0  1  0.125000  0.125000  0.625000  1
  Ca  Ca1  1  0.125000  0.125000  0.125000  1
  Nd  Nd2  1  0.625000  0.125000  0.125000  1
  Nd  Nd3  1  0.125000  0.625000  0.125000  1
  Ru  Ru4  1  0.125000  0.625000  0.625000  1
  Ru  Ru5  1  0.625000  0.125000  0.625000  1
  Ru  Ru6  1  0.625000  0.625000  0.125000  1
  Ru  Ru7  1  0.625000  0.625000  0.625000  1
  O  O8  1  0.704014  0.704014  0.295986  1
  O  O9  1  0.308232  0.308232  0.691768  1
  O  O10  1  0.697517  0.302676  0.699023  1
  O  O11  1  0.302676  0.697517  0.300784  1
  O  O12  1  0.302676  0.697517  0.699023  1
  O  O13  1  0.697517  0.302676  0.300784  1
  O  O14  1  0.545986  0.545986  0.954014  1
  O  O15  1  0.941768  0.941768  0.558232  1
  O  O16  1  0.552483  0.947324  0.550977  1
  O  O17  1  0.947324  0.552483  0.949216  1
  O  O18  1  0.947324  0.552483  0.550977  1
  O  O19  1  0.552483  0.947324  0.949216  1
  O  O20  1  0.247316  0.247316  0.252684  1
  O  O21  1  0.002684  0.002684  0.997316  1
