# generated using pymatgen
data_La7Pr3AlSi4Ge
_symmetry_space_group_name_H-M   'P 1'
_cell_length_a   7.93023432
_cell_length_b   9.19633028
_cell_length_c   7.92488726
_cell_angle_alpha   115.54888462
_cell_angle_beta   89.97517235
_cell_angle_gamma   115.57181297
_symmetry_Int_Tables_number   1
_chemical_formula_structural   La7Pr3AlSi4Ge
_chemical_formula_sum   'La7 Pr3 Al1 Si4 Ge1'
_cell_volume   457.95119280
_cell_formula_units_Z   1
loop_
 _symmetry_equiv_pos_site_id
 _symmetry_equiv_pos_as_xyz
  1  'x, y, z'
loop_
 _atom_site_type_symbol
 _atom_site_label
 _atom_site_symmetry_multiplicity
 _atom_site_fract_x
 _atom_site_fract_y
 _atom_site_fract_z
 _atom_site_occupancy
  La  La0  1  0.975957  0.951468  0.975704  1
  La  La1  1  0.524308  0.048792  0.524201  1
  La  La2  1  0.526505  0.715713  0.673184  1
  La  La3  1  0.189369  0.716416  0.042628  1
  La  La4  1  0.673877  0.716647  0.189325  1
  La  La5  1  0.043155  0.716512  0.527068  1
  La  La6  1  0.456983  0.284261  0.311473  1
  Pr  Pr7  1  0.826608  0.282150  0.972122  1
  Pr  Pr8  1  0.309220  0.282482  0.826196  1
  Pr  Pr9  1  0.972634  0.282394  0.456143  1
  Al  Al10  1  0.749673  0.498694  0.750227  1
  Si  Si11  1  0.886928  0.001825  0.615195  1
  Si  Si12  1  0.114057  0.001705  0.387320  1
  Si  Si13  1  0.615379  0.001573  0.114510  1
  Si  Si14  1  0.386947  0.001289  0.886183  1
  Ge  Ge15  1  0.248400  0.498080  0.248520  1
