# generated using pymatgen
data_Tb4Lu(TcO6)2
_symmetry_space_group_name_H-M   'P 1'
_cell_length_a   6.82717788
_cell_length_b   6.82717840
_cell_length_c   7.50219737
_cell_angle_alpha   73.72085891
_cell_angle_beta   73.72085859
_cell_angle_gamma   49.17048692
_symmetry_Int_Tables_number   1
_chemical_formula_structural   Tb4Lu(TcO6)2
_chemical_formula_sum   'Tb4 Lu1 Tc2 O12'
_cell_volume   251.70322000
_cell_formula_units_Z   1
loop_
 _symmetry_equiv_pos_site_id
 _symmetry_equiv_pos_as_xyz
  1  'x, y, z'
loop_
 _atom_site_type_symbol
 _atom_site_label
 _atom_site_symmetry_multiplicity
 _atom_site_fract_x
 _atom_site_fract_y
 _atom_site_fract_z
 _atom_site_occupancy
  Tb  Tb0  1  0.695887  0.695887  0.642503  1
  Tb  Tb1  1  0.304113  0.304113  0.357497  1
  Tb  Tb2  1  0.682833  0.682833  0.177185  1
  Tb  Tb3  1  0.317167  0.317167  0.822815  1
  Lu  Lu4  1  0.000000  0.000000  0.500000  1
  Tc  Tc5  1  0.786556  0.213444  0.000000  1
  Tc  Tc6  1  0.213444  0.786556  0.000000  1
  O  O7  1  0.001655  0.001655  0.206367  1
  O  O8  1  0.998345  0.998345  0.793633  1
  O  O9  1  0.584789  0.085619  0.084741  1
  O  O10  1  0.415211  0.914381  0.915259  1
  O  O11  1  0.914381  0.415211  0.915259  1
  O  O12  1  0.085619  0.584789  0.084741  1
  O  O13  1  0.498364  0.498364  0.176585  1
  O  O14  1  0.501636  0.501636  0.823415  1
  O  O15  1  0.398728  0.901410  0.429188  1
  O  O16  1  0.601272  0.098590  0.570812  1
  O  O17  1  0.098590  0.601272  0.570812  1
  O  O18  1  0.901410  0.398728  0.429188  1
