# generated using pymatgen
data_Ho(LuZn4)3
_symmetry_space_group_name_H-M   'P 1'
_cell_length_a   4.35695600
_cell_length_b   6.59905272
_cell_length_c   10.03089803
_cell_angle_alpha   90.16281518
_cell_angle_beta   90.00000000
_cell_angle_gamma   90.00000000
_symmetry_Int_Tables_number   1
_chemical_formula_structural   Ho(LuZn4)3
_chemical_formula_sum   'Ho1 Lu3 Zn12'
_cell_volume   288.40503258
_cell_formula_units_Z   1
loop_
 _symmetry_equiv_pos_site_id
 _symmetry_equiv_pos_as_xyz
  1  'x, y, z'
loop_
 _atom_site_type_symbol
 _atom_site_label
 _atom_site_symmetry_multiplicity
 _atom_site_fract_x
 _atom_site_fract_y
 _atom_site_fract_z
 _atom_site_occupancy
  Ho  Ho0  1  0.250000  0.279224  0.665110  1
  Lu  Lu1  1  0.250000  0.779583  0.835409  1
  Lu  Lu2  1  0.750000  0.720410  0.335286  1
  Lu  Lu3  1  0.750000  0.220537  0.165177  1
  Zn  Zn4  1  0.250000  0.535153  0.103131  1
  Zn  Zn5  1  0.250000  0.034691  0.395963  1
  Zn  Zn6  1  0.750000  0.464501  0.896966  1
  Zn  Zn7  1  0.750000  0.964108  0.602426  1
  Zn  Zn8  1  0.250000  0.919496  0.150133  1
  Zn  Zn9  1  0.250000  0.419746  0.349826  1
  Zn  Zn10  1  0.750000  0.079349  0.851281  1
  Zn  Zn11  1  0.750000  0.581915  0.649060  1
  Zn  Zn12  1  0.250000  0.214585  0.958455  1
  Zn  Zn13  1  0.250000  0.717561  0.542670  1
  Zn  Zn14  1  0.750000  0.784753  0.042958  1
  Zn  Zn15  1  0.750000  0.284388  0.456149  1
