# generated using pymatgen
data_DyCu7O12
_symmetry_space_group_name_H-M   'P 1'
_cell_length_a   6.33974498
_cell_length_b   6.33974587
_cell_length_c   6.33974500
_cell_angle_alpha   109.47121467
_cell_angle_beta   109.47121752
_cell_angle_gamma   109.47122542
_symmetry_Int_Tables_number   1
_chemical_formula_structural   DyCu7O12
_chemical_formula_sum   'Dy1 Cu7 O12'
_cell_volume   196.15236992
_cell_formula_units_Z   1
loop_
 _symmetry_equiv_pos_site_id
 _symmetry_equiv_pos_as_xyz
  1  'x, y, z'
loop_
 _atom_site_type_symbol
 _atom_site_label
 _atom_site_symmetry_multiplicity
 _atom_site_fract_x
 _atom_site_fract_y
 _atom_site_fract_z
 _atom_site_occupancy
  Dy  Dy0  1  0.000000  0.000000  0.000000  1
  Cu  Cu1  1  0.000000  0.000000  0.500000  1
  Cu  Cu2  1  0.000000  0.500000  0.000000  1
  Cu  Cu3  1  0.500000  0.000000  0.000000  1
  Cu  Cu4  1  0.500000  0.500000  0.500000  1
  Cu  Cu5  1  0.000000  0.500000  0.500000  1
  Cu  Cu6  1  0.500000  0.000000  0.500000  1
  Cu  Cu7  1  0.500000  0.500000  0.000000  1
  O  O8  1  0.305543  0.137053  0.831510  1
  O  O9  1  0.694457  0.862947  0.168490  1
  O  O10  1  0.694457  0.525966  0.831510  1
  O  O11  1  0.474034  0.168490  0.305543  1
  O  O12  1  0.168490  0.305543  0.474034  1
  O  O13  1  0.831510  0.305543  0.137053  1
  O  O14  1  0.862947  0.168490  0.694457  1
  O  O15  1  0.831510  0.694457  0.525966  1
  O  O16  1  0.305543  0.474034  0.168490  1
  O  O17  1  0.525966  0.831510  0.694457  1
  O  O18  1  0.168490  0.694457  0.862947  1
  O  O19  1  0.137053  0.831510  0.305543  1
