# generated using pymatgen
data_Er20Cd3Ru2Au3
_symmetry_space_group_name_H-M   'P 1'
_cell_length_a   9.48628800
_cell_length_b   9.48628679
_cell_length_c   9.52412200
_cell_angle_alpha   90.00000000
_cell_angle_beta   90.00000000
_cell_angle_gamma   120.00000421
_symmetry_Int_Tables_number   1
_chemical_formula_structural   Er20Cd3Ru2Au3
_chemical_formula_sum   'Er20 Cd3 Ru2 Au3'
_cell_volume   742.24643245
_cell_formula_units_Z   1
loop_
 _symmetry_equiv_pos_site_id
 _symmetry_equiv_pos_as_xyz
  1  'x, y, z'
loop_
 _atom_site_type_symbol
 _atom_site_label
 _atom_site_symmetry_multiplicity
 _atom_site_fract_x
 _atom_site_fract_y
 _atom_site_fract_z
 _atom_site_occupancy
  Er  Er0  1  0.000000  0.000000  0.462118  1
  Er  Er1  1  0.000000  0.000000  0.037882  1
  Er  Er2  1  0.209264  0.790736  0.440353  1
  Er  Er3  1  0.209264  0.418530  0.440353  1
  Er  Er4  1  0.581470  0.790736  0.440353  1
  Er  Er5  1  0.791695  0.208305  0.558194  1
  Er  Er6  1  0.791695  0.583388  0.558194  1
  Er  Er7  1  0.416612  0.208305  0.558194  1
  Er  Er8  1  0.791695  0.208305  0.941806  1
  Er  Er9  1  0.791695  0.583388  0.941806  1
  Er  Er10  1  0.416612  0.208305  0.941806  1
  Er  Er11  1  0.209264  0.790736  0.059647  1
  Er  Er12  1  0.209264  0.418530  0.059647  1
  Er  Er13  1  0.581470  0.790736  0.059647  1
  Er  Er14  1  0.540474  0.459526  0.250000  1
  Er  Er15  1  0.540474  0.080946  0.250000  1
  Er  Er16  1  0.919054  0.459526  0.250000  1
  Er  Er17  1  0.459047  0.540953  0.750000  1
  Er  Er18  1  0.459047  0.918096  0.750000  1
  Er  Er19  1  0.081904  0.540953  0.750000  1
  Cd  Cd20  1  0.110116  0.889884  0.750000  1
  Cd  Cd21  1  0.110116  0.220231  0.750000  1
  Cd  Cd22  1  0.779769  0.889884  0.750000  1
  Ru  Ru23  1  0.333333  0.666667  0.250000  1
  Ru  Ru24  1  0.666667  0.333333  0.750000  1
  Au  Au25  1  0.869862  0.130138  0.250000  1
  Au  Au26  1  0.869862  0.739724  0.250000  1
  Au  Au27  1  0.260276  0.130138  0.250000  1
