# generated using pymatgen
data_Dy5MnAuO12
_symmetry_space_group_name_H-M   'P 1'
_cell_length_a   6.87828971
_cell_length_b   6.87831039
_cell_length_c   7.24955096
_cell_angle_alpha   74.54887639
_cell_angle_beta   74.54876495
_cell_angle_gamma   50.77690082
_symmetry_Int_Tables_number   1
_chemical_formula_structural   Dy5MnAuO12
_chemical_formula_sum   'Dy5 Mn1 Au1 O12'
_cell_volume   253.88956013
_cell_formula_units_Z   1
loop_
 _symmetry_equiv_pos_site_id
 _symmetry_equiv_pos_as_xyz
  1  'x, y, z'
loop_
 _atom_site_type_symbol
 _atom_site_label
 _atom_site_symmetry_multiplicity
 _atom_site_fract_x
 _atom_site_fract_y
 _atom_site_fract_z
 _atom_site_occupancy
  Dy  Dy0  1  0.293712  0.305896  0.360319  1
  Dy  Dy1  1  0.694110  0.706283  0.639676  1
  Dy  Dy2  1  0.307994  0.301890  0.833739  1
  Dy  Dy3  1  0.698121  0.692002  0.166264  1
  Dy  Dy4  1  0.999634  0.000364  0.500001  1
  Mn  Mn5  1  0.247346  0.752643  0.000000  1
  Au  Au6  1  0.754866  0.245133  0.000000  1
  O  O7  1  0.905903  0.432401  0.914388  1
  O  O8  1  0.424030  0.897912  0.918411  1
  O  O9  1  0.102092  0.575984  0.081585  1
  O  O10  1  0.567598  0.094095  0.085613  1
  O  O11  1  0.095421  0.599854  0.574437  1
  O  O12  1  0.597241  0.099499  0.573360  1
  O  O13  1  0.900499  0.402757  0.426641  1
  O  O14  1  0.400145  0.904577  0.425564  1
  O  O15  1  0.013392  0.986794  0.816995  1
  O  O16  1  0.013204  0.986606  0.183008  1
  O  O17  1  0.492526  0.507835  0.813935  1
  O  O18  1  0.492165  0.507474  0.186065  1
