# generated using pymatgen
data_Na2CrP2Ir
_symmetry_space_group_name_H-M   'P 1'
_cell_length_a   3.97837100
_cell_length_b   3.97837100
_cell_length_c   6.80729000
_cell_angle_alpha   90.00000000
_cell_angle_beta   90.00000000
_cell_angle_gamma   90.00000000
_symmetry_Int_Tables_number   1
_chemical_formula_structural   Na2CrP2Ir
_chemical_formula_sum   'Na2 Cr1 P2 Ir1'
_cell_volume   107.74194554
_cell_formula_units_Z   1
loop_
 _symmetry_equiv_pos_site_id
 _symmetry_equiv_pos_as_xyz
  1  'x, y, z'
loop_
 _atom_site_type_symbol
 _atom_site_label
 _atom_site_symmetry_multiplicity
 _atom_site_fract_x
 _atom_site_fract_y
 _atom_site_fract_z
 _atom_site_occupancy
  Na  Na0  1  0.500000  0.000000  0.642787  1
  Na  Na1  1  0.000000  0.500000  0.357213  1
  Cr  Cr2  1  0.000000  0.000000  0.000000  1
  P  P3  1  0.500000  0.000000  0.191458  1
  P  P4  1  0.000000  0.500000  0.808542  1
  Ir  Ir5  1  0.500000  0.500000  0.000000  1
