# generated using pymatgen
data_Cs4BiWBr12
_symmetry_space_group_name_H-M   'P 1'
_cell_length_a   13.96496660
_cell_length_b   13.96496733
_cell_length_c   13.96496600
_cell_angle_alpha   131.79075362
_cell_angle_beta   131.79075632
_cell_angle_gamma   70.55971090
_symmetry_Int_Tables_number   1
_chemical_formula_structural   Cs4BiWBr12
_chemical_formula_sum   'Cs8 Bi2 W2 Br24'
_cell_volume   1483.30803747
_cell_formula_units_Z   2
loop_
 _symmetry_equiv_pos_site_id
 _symmetry_equiv_pos_as_xyz
  1  'x, y, z'
loop_
 _atom_site_type_symbol
 _atom_site_label
 _atom_site_symmetry_multiplicity
 _atom_site_fract_x
 _atom_site_fract_y
 _atom_site_fract_z
 _atom_site_occupancy
  Cs  Cs0  1  0.374992  0.844515  0.969489  1
  Cs  Cs1  1  0.594515  0.624992  0.469489  1
  Cs  Cs2  1  0.874981  0.844501  0.469492  1
  Cs  Cs3  1  0.594501  0.124981  0.969492  1
  Cs  Cs4  1  0.875019  0.405499  0.030508  1
  Cs  Cs5  1  0.155499  0.125019  0.530508  1
  Cs  Cs6  1  0.375008  0.405485  0.530511  1
  Cs  Cs7  1  0.155485  0.625008  0.030511  1
  Bi  Bi8  1  0.500004  0.499996  0.000000  1
  Bi  Bi9  1  0.249996  0.750004  0.500000  1
  W  W10  1  0.999972  0.000028  0.000000  1
  W  W11  1  0.750028  0.249972  0.500000  1
  Br  Br12  1  0.748100  0.495315  0.252741  1
  Br  Br13  1  0.504685  0.251900  0.747259  1
  Br  Br14  1  0.373578  0.373573  0.000007  1
  Br  Br15  1  0.123573  0.623578  0.500007  1
  Br  Br16  1  0.376422  0.876427  0.499993  1
  Br  Br17  1  0.626427  0.626422  0.999993  1
  Br  Br18  1  0.110551  0.110559  0.999953  1
  Br  Br19  1  0.860559  0.360551  0.499953  1
  Br  Br20  1  0.639449  0.139441  0.500047  1
  Br  Br21  1  0.889441  0.889449  0.000047  1
  Br  Br22  1  0.221881  0.001135  0.220922  1
  Br  Br23  1  0.750909  0.030220  0.278993  1
  Br  Br24  1  0.504647  0.757432  0.252756  1
  Br  Br25  1  0.528119  0.248865  0.279078  1
  Br  Br26  1  0.969780  0.249091  0.721007  1
  Br  Br27  1  0.999091  0.219780  0.221007  1
  Br  Br28  1  0.998865  0.778119  0.779078  1
  Br  Br29  1  0.780220  0.000909  0.778993  1
  Br  Br30  1  0.751135  0.471881  0.720922  1
  Br  Br31  1  0.245353  0.492568  0.247244  1
  Br  Br32  1  0.245315  0.998100  0.752741  1
  Br  Br33  1  0.001900  0.754685  0.247259  1
  Br  Br34  1  0.507432  0.754647  0.752756  1
  Br  Br35  1  0.242568  0.495353  0.747244  1
