# generated using pymatgen
data_S23I
_symmetry_space_group_name_H-M   'P 1'
_cell_length_a   5.67077619
_cell_length_b   9.75466424
_cell_length_c   16.42838406
_cell_angle_alpha   89.12204085
_cell_angle_beta   85.13516932
_cell_angle_gamma   90.27292351
_symmetry_Int_Tables_number   1
_chemical_formula_structural   S23I
_chemical_formula_sum   'S23 I1'
_cell_volume   905.36415456
_cell_formula_units_Z   1
loop_
 _symmetry_equiv_pos_site_id
 _symmetry_equiv_pos_as_xyz
  1  'x, y, z'
loop_
 _atom_site_type_symbol
 _atom_site_label
 _atom_site_symmetry_multiplicity
 _atom_site_fract_x
 _atom_site_fract_y
 _atom_site_fract_z
 _atom_site_occupancy
  S  S0  1  0.521450  0.794632  0.397827  1
  S  S1  1  0.000001  0.295125  0.100581  1
  S  S2  1  0.793847  0.242334  0.535290  1
  S  S3  1  0.314867  0.758466  0.505926  1
  S  S4  1  0.195157  0.254649  0.991838  1
  S  S5  1  0.806965  0.747574  0.004750  1
  S  S6  1  0.247757  0.388213  0.351437  1
  S  S7  1  0.689594  0.616649  0.360875  1
  S  S8  1  0.800459  0.123279  0.135434  1
  S  S9  1  0.195789  0.869033  0.129118  1
  S  S10  1  0.691677  0.633165  0.635790  1
  S  S11  1  0.310017  0.371221  0.637509  1
  S  S12  1  0.202992  0.877614  0.860952  1
  S  S13  1  0.802351  0.128387  0.870698  1
  S  S14  1  0.998285  0.699055  0.102913  1
  S  S15  1  0.505459  0.804585  0.603635  1
  S  S16  1  0.547213  0.203188  0.622226  1
  S  S17  1  0.005518  0.705194  0.896983  1
  S  S18  1  0.996136  0.300708  0.895317  1
  S  S19  1  0.470205  0.514846  0.284782  1
  S  S20  1  0.992842  0.995545  0.206116  1
  S  S21  1  0.469724  0.506931  0.710221  1
  S  S22  1  0.004462  0.004580  0.791767  1
  I  I23  1  0.437233  0.165026  0.368017  1
