# generated using pymatgen
data_CeUTcB6
_symmetry_space_group_name_H-M   'P 1'
_cell_length_a   3.69508600
_cell_length_b   9.32453900
_cell_length_c   11.42952600
_cell_angle_alpha   90.00000000
_cell_angle_beta   90.00000000
_cell_angle_gamma   90.00000000
_symmetry_Int_Tables_number   1
_chemical_formula_structural   CeUTcB6
_chemical_formula_sum   'Ce4 U4 Tc4 B24'
_cell_volume   393.80401562
_cell_formula_units_Z   4
loop_
 _symmetry_equiv_pos_site_id
 _symmetry_equiv_pos_as_xyz
  1  'x, y, z'
loop_
 _atom_site_type_symbol
 _atom_site_label
 _atom_site_symmetry_multiplicity
 _atom_site_fract_x
 _atom_site_fract_y
 _atom_site_fract_z
 _atom_site_occupancy
  Ce  Ce0  1  0.000000  0.336361  0.407815  1
  Ce  Ce1  1  0.000000  0.663639  0.592185  1
  Ce  Ce2  1  0.000000  0.836361  0.092185  1
  Ce  Ce3  1  0.000000  0.163639  0.907815  1
  U  U4  1  0.000000  0.957124  0.396329  1
  U  U5  1  0.000000  0.042876  0.603671  1
  U  U6  1  0.000000  0.457124  0.103671  1
  U  U7  1  0.000000  0.542876  0.896329  1
  Tc  Tc8  1  0.000000  0.646725  0.318570  1
  Tc  Tc9  1  0.000000  0.353275  0.681430  1
  Tc  Tc10  1  0.000000  0.146725  0.181430  1
  Tc  Tc11  1  0.000000  0.853275  0.818570  1
  B  B12  1  0.500000  0.553017  0.430073  1
  B  B13  1  0.500000  0.446983  0.569927  1
  B  B14  1  0.500000  0.053017  0.069927  1
  B  B15  1  0.500000  0.946983  0.930073  1
  B  B16  1  0.500000  0.744050  0.422458  1
  B  B17  1  0.500000  0.255950  0.577542  1
  B  B18  1  0.500000  0.244050  0.077542  1
  B  B19  1  0.500000  0.755950  0.922458  1
  B  B20  1  0.500000  0.802849  0.274710  1
  B  B21  1  0.500000  0.197151  0.725290  1
  B  B22  1  0.500000  0.302849  0.225290  1
  B  B23  1  0.500000  0.697151  0.774710  1
  B  B24  1  0.500000  0.644492  0.188446  1
  B  B25  1  0.500000  0.355508  0.811554  1
  B  B26  1  0.500000  0.144492  0.311554  1
  B  B27  1  0.500000  0.855508  0.688446  1
  B  B28  1  0.500000  0.989633  0.219781  1
  B  B29  1  0.500000  0.010367  0.780219  1
  B  B30  1  0.500000  0.489633  0.280219  1
  B  B31  1  0.500000  0.510367  0.719781  1
  B  B32  1  0.500000  0.639751  0.038550  1
  B  B33  1  0.500000  0.360249  0.961450  1
  B  B34  1  0.500000  0.139751  0.461450  1
  B  B35  1  0.500000  0.860249  0.538550  1
