# generated using pymatgen
data_Dy3Hf(Al3Rh)6
_symmetry_space_group_name_H-M   'P 1'
_cell_length_a   7.54028262
_cell_length_b   7.52496485
_cell_length_c   9.41630000
_cell_angle_alpha   90.00000000
_cell_angle_beta   90.00000000
_cell_angle_gamma   119.48339772
_symmetry_Int_Tables_number   1
_chemical_formula_structural   Dy3Hf(Al3Rh)6
_chemical_formula_sum   'Dy3 Hf1 Al18 Rh6'
_cell_volume   465.09357158
_cell_formula_units_Z   1
loop_
 _symmetry_equiv_pos_site_id
 _symmetry_equiv_pos_as_xyz
  1  'x, y, z'
loop_
 _atom_site_type_symbol
 _atom_site_label
 _atom_site_symmetry_multiplicity
 _atom_site_fract_x
 _atom_site_fract_y
 _atom_site_fract_z
 _atom_site_occupancy
  Dy  Dy0  1  0.006232  0.327496  0.750000  1
  Dy  Dy1  1  0.672290  0.995783  0.250000  1
  Dy  Dy2  1  0.328257  0.006297  0.750000  1
  Hf  Hf3  1  0.996356  0.672569  0.250000  1
  Al  Al4  1  0.124954  0.122218  0.250000  1
  Al  Al5  1  0.871132  0.869911  0.750000  1
  Al  Al6  1  0.000170  0.339087  0.080106  1
  Al  Al7  1  0.999481  0.664702  0.928345  1
  Al  Al8  1  0.999481  0.664702  0.571655  1
  Al  Al9  1  0.332026  0.997286  0.419870  1
  Al  Al10  1  0.000170  0.339087  0.419894  1
  Al  Al11  1  0.664266  0.998383  0.575315  1
  Al  Al12  1  0.664266  0.998383  0.924685  1
  Al  Al13  1  0.332026  0.997286  0.080130  1
  Al  Al14  1  0.333740  0.333704  0.548438  1
  Al  Al15  1  0.669826  0.667193  0.443417  1
  Al  Al16  1  0.669826  0.667193  0.056583  1
  Al  Al17  1  0.333740  0.333704  0.951562  1
  Al  Al18  1  0.335688  0.551381  0.250000  1
  Al  Al19  1  0.660842  0.450803  0.750000  1
  Al  Al20  1  0.556889  0.344844  0.250000  1
  Al  Al21  1  0.449362  0.659032  0.750000  1
  Rh  Rh22  1  0.672972  0.328450  0.001502  1
  Rh  Rh23  1  0.327268  0.672472  0.002055  1
  Rh  Rh24  1  0.327268  0.672472  0.497945  1
  Rh  Rh25  1  0.672972  0.328450  0.498498  1
  Rh  Rh26  1  0.999249  0.998553  0.001677  1
  Rh  Rh27  1  0.999249  0.998553  0.498323  1
