# generated using pymatgen
data_Ir3RhF24
_symmetry_space_group_name_H-M   'P 1'
_cell_length_a   5.19502570
_cell_length_b   8.92400900
_cell_length_c   9.82998626
_cell_angle_alpha   90.00000000
_cell_angle_beta   90.09291798
_cell_angle_gamma   90.00000000
_symmetry_Int_Tables_number   1
_chemical_formula_structural   Ir3RhF24
_chemical_formula_sum   'Ir3 Rh1 F24'
_cell_volume   455.72204659
_cell_formula_units_Z   1
loop_
 _symmetry_equiv_pos_site_id
 _symmetry_equiv_pos_as_xyz
  1  'x, y, z'
loop_
 _atom_site_type_symbol
 _atom_site_label
 _atom_site_symmetry_multiplicity
 _atom_site_fract_x
 _atom_site_fract_y
 _atom_site_fract_z
 _atom_site_occupancy
  Ir  Ir0  1  0.905673  0.250000  0.372666  1
  Ir  Ir1  1  0.406513  0.750000  0.126798  1
  Ir  Ir2  1  0.093913  0.750000  0.627440  1
  Rh  Rh3  1  0.593785  0.250000  0.873021  1
  F  F4  1  0.247329  0.601384  0.519488  1
  F  F5  1  0.252807  0.898728  0.019032  1
  F  F6  1  0.941218  0.898566  0.735402  1
  F  F7  1  0.194629  0.250000  0.487397  1
  F  F8  1  0.746717  0.101552  0.981116  1
  F  F9  1  0.559556  0.898560  0.235017  1
  F  F10  1  0.305457  0.250000  0.987161  1
  F  F11  1  0.247329  0.898616  0.519488  1
  F  F12  1  0.752332  0.398533  0.480603  1
  F  F13  1  0.441457  0.398266  0.764862  1
  F  F14  1  0.746717  0.398448  0.981116  1
  F  F15  1  0.804883  0.750000  0.512642  1
  F  F16  1  0.695307  0.750000  0.012509  1
  F  F17  1  0.252807  0.601272  0.019032  1
  F  F18  1  0.441457  0.101734  0.764862  1
  F  F19  1  0.058432  0.398412  0.264526  1
  F  F20  1  0.616174  0.250000  0.258204  1
  F  F21  1  0.559556  0.601440  0.235017  1
  F  F22  1  0.882779  0.250000  0.759226  1
  F  F23  1  0.117345  0.750000  0.241148  1
  F  F24  1  0.058432  0.101588  0.264526  1
  F  F25  1  0.941218  0.601434  0.735402  1
  F  F26  1  0.383848  0.750000  0.741692  1
  F  F27  1  0.752332  0.101467  0.480603  1
