# generated using pymatgen
data_Ag2SnP7Au
_symmetry_space_group_name_H-M   'P 1'
_cell_length_a   11.26997800
_cell_length_b   6.38454275
_cell_length_c   6.57576438
_cell_angle_alpha   71.32736346
_cell_angle_beta   90.00000000
_cell_angle_gamma   90.00000000
_symmetry_Int_Tables_number   1
_chemical_formula_structural   Ag2SnP7Au
_chemical_formula_sum   'Ag4 Sn2 P14 Au2'
_cell_volume   448.24521541
_cell_formula_units_Z   2
loop_
 _symmetry_equiv_pos_site_id
 _symmetry_equiv_pos_as_xyz
  1  'x, y, z'
loop_
 _atom_site_type_symbol
 _atom_site_label
 _atom_site_symmetry_multiplicity
 _atom_site_fract_x
 _atom_site_fract_y
 _atom_site_fract_z
 _atom_site_occupancy
  Ag  Ag0  1  0.600501  0.309401  0.313930  1
  Ag  Ag1  1  0.100501  0.690599  0.686070  1
  Ag  Ag2  1  0.399499  0.690599  0.686070  1
  Ag  Ag3  1  0.899499  0.309401  0.313930  1
  Sn  Sn4  1  0.250000  0.692641  0.042317  1
  Sn  Sn5  1  0.750000  0.307359  0.957683  1
  P  P6  1  0.250000  0.258041  0.282204  1
  P  P7  1  0.750000  0.741959  0.717796  1
  P  P8  1  0.588245  0.200556  0.715240  1
  P  P9  1  0.088245  0.799444  0.284760  1
  P  P10  1  0.411755  0.799444  0.284760  1
  P  P11  1  0.911755  0.200556  0.715240  1
  P  P12  1  0.408542  0.275819  0.806813  1
  P  P13  1  0.908542  0.724181  0.193187  1
  P  P14  1  0.918121  0.837823  0.838167  1
  P  P15  1  0.418121  0.162177  0.161833  1
  P  P16  1  0.081879  0.162177  0.161833  1
  P  P17  1  0.581879  0.837823  0.838167  1
  P  P18  1  0.091458  0.275819  0.806813  1
  P  P19  1  0.591458  0.724181  0.193187  1
  Au  Au20  1  0.250000  0.077523  0.679297  1
  Au  Au21  1  0.750000  0.922477  0.320703  1
