# generated using pymatgen
data_DyAuCl6
_symmetry_space_group_name_H-M   'P 1'
_cell_length_a   7.62426915
_cell_length_b   9.95156465
_cell_length_c   14.08439217
_cell_angle_alpha   103.94468089
_cell_angle_beta   96.74266335
_cell_angle_gamma   112.05666116
_symmetry_Int_Tables_number   1
_chemical_formula_structural   DyAuCl6
_chemical_formula_sum   'Dy4 Au4 Cl24'
_cell_volume   935.20347830
_cell_formula_units_Z   4
loop_
 _symmetry_equiv_pos_site_id
 _symmetry_equiv_pos_as_xyz
  1  'x, y, z'
loop_
 _atom_site_type_symbol
 _atom_site_label
 _atom_site_symmetry_multiplicity
 _atom_site_fract_x
 _atom_site_fract_y
 _atom_site_fract_z
 _atom_site_occupancy
  Dy  Dy0  1  0.580788  0.925757  0.621073  1
  Dy  Dy1  1  0.027572  0.687286  0.128613  1
  Dy  Dy2  1  0.419212  0.074243  0.378927  1
  Dy  Dy3  1  0.972428  0.312714  0.871387  1
  Au  Au4  1  0.294185  0.632443  0.765240  1
  Au  Au5  1  0.500000  0.500000  0.500000  1
  Au  Au6  1  0.705815  0.367557  0.234760  1
  Au  Au7  1  0.000000  0.000000  0.000000  1
  Cl  Cl8  1  0.776527  0.100114  0.967703  1
  Cl  Cl9  1  0.721375  0.151089  0.261858  1
  Cl  Cl10  1  0.278625  0.848911  0.738142  1
  Cl  Cl11  1  0.767732  0.792951  0.030207  1
  Cl  Cl12  1  0.616042  0.189404  0.743567  1
  Cl  Cl13  1  0.307707  0.411433  0.787384  1
  Cl  Cl14  1  0.692293  0.588567  0.212616  1
  Cl  Cl15  1  0.301475  0.629331  0.499791  1
  Cl  Cl16  1  0.232268  0.207049  0.969793  1
  Cl  Cl17  1  0.761135  0.731518  0.523586  1
  Cl  Cl18  1  0.223473  0.899886  0.032297  1
  Cl  Cl19  1  0.724893  0.048085  0.483574  1
  Cl  Cl20  1  0.612171  0.730853  0.746574  1
  Cl  Cl21  1  0.949655  0.059012  0.729300  1
  Cl  Cl22  1  0.238865  0.268482  0.476414  1
  Cl  Cl23  1  0.383958  0.810596  0.256433  1
  Cl  Cl24  1  0.973685  0.536347  0.780240  1
  Cl  Cl25  1  0.764367  0.437977  0.977490  1
  Cl  Cl26  1  0.235633  0.562023  0.022510  1
  Cl  Cl27  1  0.026315  0.463653  0.219760  1
  Cl  Cl28  1  0.387829  0.269147  0.253426  1
  Cl  Cl29  1  0.275107  0.951915  0.516426  1
  Cl  Cl30  1  0.698525  0.370669  0.500209  1
  Cl  Cl31  1  0.050345  0.940988  0.270700  1
