# generated using pymatgen
data_Yb3CeOs7Ru
_symmetry_space_group_name_H-M   'P 1'
_cell_length_a   5.25589300
_cell_length_b   5.25589201
_cell_length_c   9.00160800
_cell_angle_alpha   90.00000000
_cell_angle_beta   90.00000000
_cell_angle_gamma   119.99999995
_symmetry_Int_Tables_number   1
_chemical_formula_structural   Yb3CeOs7Ru
_chemical_formula_sum   'Yb3 Ce1 Os7 Ru1'
_cell_volume   215.34940531
_cell_formula_units_Z   1
loop_
 _symmetry_equiv_pos_site_id
 _symmetry_equiv_pos_as_xyz
  1  'x, y, z'
loop_
 _atom_site_type_symbol
 _atom_site_label
 _atom_site_symmetry_multiplicity
 _atom_site_fract_x
 _atom_site_fract_y
 _atom_site_fract_z
 _atom_site_occupancy
  Yb  Yb0  1  0.333333  0.666667  0.439719  1
  Yb  Yb1  1  0.666667  0.333333  0.563722  1
  Yb  Yb2  1  0.666667  0.333333  0.932902  1
  Ce  Ce3  1  0.333333  0.666667  0.064713  1
  Os  Os4  1  0.000000  0.000000  0.998459  1
  Os  Os5  1  0.828946  0.171054  0.251573  1
  Os  Os6  1  0.828946  0.657892  0.251573  1
  Os  Os7  1  0.342108  0.171054  0.251573  1
  Os  Os8  1  0.170714  0.829286  0.748990  1
  Os  Os9  1  0.170714  0.341427  0.748990  1
  Os  Os10  1  0.658573  0.829286  0.748990  1
  Ru  Ru11  1  0.000000  0.000000  0.498795  1
