# generated using pymatgen
data_Er3TmCoB14
_symmetry_space_group_name_H-M   'P 1'
_cell_length_a   7.17886800
_cell_length_b   7.17888800
_cell_length_c   7.44575000
_cell_angle_alpha   90.00000000
_cell_angle_beta   90.00000000
_cell_angle_gamma   89.99980845
_symmetry_Int_Tables_number   1
_chemical_formula_structural   Er3TmCoB14
_chemical_formula_sum   'Er6 Tm2 Co2 B28'
_cell_volume   383.72632634
_cell_formula_units_Z   2
loop_
 _symmetry_equiv_pos_site_id
 _symmetry_equiv_pos_as_xyz
  1  'x, y, z'
loop_
 _atom_site_type_symbol
 _atom_site_label
 _atom_site_symmetry_multiplicity
 _atom_site_fract_x
 _atom_site_fract_y
 _atom_site_fract_z
 _atom_site_occupancy
  Er  Er0  1  0.329884  0.806441  0.000000  1
  Er  Er1  1  0.693257  0.170106  0.500000  1
  Er  Er2  1  0.306910  0.829866  0.500000  1
  Er  Er3  1  0.806635  0.669993  0.000000  1
  Er  Er4  1  0.829817  0.693200  0.500000  1
  Er  Er5  1  0.170045  0.306847  0.500000  1
  Tm  Tm6  1  0.193250  0.330252  0.000000  1
  Tm  Tm7  1  0.669608  0.193028  0.000000  1
  Co  Co8  1  0.999848  0.000844  0.000000  1
  Co  Co9  1  0.500109  0.499925  0.500000  1
  B  B10  1  0.174828  0.038969  0.230286  1
  B  B11  1  0.961336  0.175099  0.230118  1
  B  B12  1  0.038683  0.825449  0.230453  1
  B  B13  1  0.674809  0.461079  0.269124  1
  B  B14  1  0.325172  0.538363  0.269047  1
  B  B15  1  0.825181  0.961633  0.230275  1
  B  B16  1  0.538667  0.674538  0.269164  1
  B  B17  1  0.461366  0.324892  0.269003  1
  B  B18  1  0.825181  0.961633  0.769725  1
  B  B19  1  0.038683  0.825449  0.769547  1
  B  B20  1  0.961336  0.175099  0.769882  1
  B  B21  1  0.325172  0.538363  0.730953  1
  B  B22  1  0.674809  0.461079  0.730876  1
  B  B23  1  0.174828  0.038969  0.769714  1
  B  B24  1  0.461366  0.324892  0.730997  1
  B  B25  1  0.538667  0.674538  0.730836  1
  B  B26  1  0.087971  0.587886  0.249417  1
  B  B27  1  0.412213  0.087860  0.249407  1
  B  B28  1  0.587973  0.912026  0.249596  1
  B  B29  1  0.912139  0.412132  0.249596  1
  B  B30  1  0.912139  0.412132  0.750404  1
  B  B31  1  0.587973  0.912026  0.750404  1
  B  B32  1  0.412213  0.087860  0.750593  1
  B  B33  1  0.087971  0.587886  0.750583  1
  B  B34  1  0.000022  0.000305  0.388371  1
  B  B35  1  0.499958  0.499518  0.111328  1
  B  B36  1  0.000022  0.000305  0.611629  1
  B  B37  1  0.499958  0.499518  0.888672  1
