# generated using pymatgen
data_YPa2Zn3PdPt2
_symmetry_space_group_name_H-M   'P 1'
_cell_length_a   7.38273442
_cell_length_b   7.41351153
_cell_length_c   3.79842300
_cell_angle_alpha   90.00000000
_cell_angle_beta   90.00000000
_cell_angle_gamma   120.13800055
_symmetry_Int_Tables_number   1
_chemical_formula_structural   YPa2Zn3PdPt2
_chemical_formula_sum   'Y1 Pa2 Zn3 Pd1 Pt2'
_cell_volume   179.79167030
_cell_formula_units_Z   1
loop_
 _symmetry_equiv_pos_site_id
 _symmetry_equiv_pos_as_xyz
  1  'x, y, z'
loop_
 _atom_site_type_symbol
 _atom_site_label
 _atom_site_symmetry_multiplicity
 _atom_site_fract_x
 _atom_site_fract_y
 _atom_site_fract_z
 _atom_site_occupancy
  Y  Y0  1  0.000000  0.403555  0.000000  1
  Pa  Pa1  1  0.588264  0.590553  0.000000  1
  Pa  Pa2  1  0.411736  0.002289  0.000000  1
  Zn  Zn3  1  0.241631  0.252456  0.500000  1
  Zn  Zn4  1  0.758369  0.010825  0.500000  1
  Zn  Zn5  1  0.000000  0.737404  0.500000  1
  Pd  Pd6  1  0.000000  0.987791  0.000000  1
  Pt  Pt7  1  0.352000  0.683564  0.500000  1
  Pt  Pt8  1  0.648000  0.331564  0.500000  1
