# generated using pymatgen
data_LaTb2Yb2Ir3
_symmetry_space_group_name_H-M   'P 1'
_cell_length_a   10.97296400
_cell_length_b   11.12681100
_cell_length_c   6.35305500
_cell_angle_alpha   90.00000000
_cell_angle_beta   90.00000000
_cell_angle_gamma   90.00000000
_symmetry_Int_Tables_number   1
_chemical_formula_structural   LaTb2Yb2Ir3
_chemical_formula_sum   'La4 Tb8 Yb8 Ir12'
_cell_volume   775.67051048
_cell_formula_units_Z   4
loop_
 _symmetry_equiv_pos_site_id
 _symmetry_equiv_pos_as_xyz
  1  'x, y, z'
loop_
 _atom_site_type_symbol
 _atom_site_label
 _atom_site_symmetry_multiplicity
 _atom_site_fract_x
 _atom_site_fract_y
 _atom_site_fract_z
 _atom_site_occupancy
  La  La0  1  0.593544  0.792177  0.880112  1
  La  La1  1  0.593544  0.207823  0.380112  1
  La  La2  1  0.406456  0.792177  0.380112  1
  La  La3  1  0.406456  0.207823  0.880112  1
  Tb  Tb4  1  0.208104  0.414219  0.620086  1
  Tb  Tb5  1  0.208104  0.585781  0.120086  1
  Tb  Tb6  1  0.791896  0.414219  0.120086  1
  Tb  Tb7  1  0.791896  0.585781  0.620086  1
  Tb  Tb8  1  0.912738  0.709796  0.125002  1
  Tb  Tb9  1  0.912738  0.290204  0.625002  1
  Tb  Tb10  1  0.087262  0.709796  0.625002  1
  Tb  Tb11  1  0.087262  0.290204  0.125002  1
  Yb  Yb12  1  0.286922  0.087504  0.379752  1
  Yb  Yb13  1  0.286922  0.912496  0.879752  1
  Yb  Yb14  1  0.713078  0.087504  0.879752  1
  Yb  Yb15  1  0.713078  0.912496  0.379752  1
  Yb  Yb16  1  0.000000  0.000000  0.497330  1
  Yb  Yb17  1  0.000000  0.000000  0.997330  1
  Yb  Yb18  1  0.500000  0.500000  0.992309  1
  Yb  Yb19  1  0.500000  0.500000  0.492309  1
  Ir  Ir20  1  0.854577  0.167654  0.248544  1
  Ir  Ir21  1  0.854577  0.832346  0.748544  1
  Ir  Ir22  1  0.145423  0.167654  0.748544  1
  Ir  Ir23  1  0.145423  0.832346  0.248544  1
  Ir  Ir24  1  0.661675  0.350045  0.746711  1
  Ir  Ir25  1  0.661675  0.649955  0.246711  1
  Ir  Ir26  1  0.338325  0.350045  0.246711  1
  Ir  Ir27  1  0.338325  0.649955  0.746711  1
  Ir  Ir28  1  0.500000  0.000000  0.124954  1
  Ir  Ir29  1  0.500000  0.000000  0.624954  1
  Ir  Ir30  1  0.000000  0.500000  0.884991  1
  Ir  Ir31  1  0.000000  0.500000  0.384991  1
