# generated using pymatgen
data_TmCo2(B2Ru)2
_symmetry_space_group_name_H-M   'P 1'
_cell_length_a   7.15694000
_cell_length_b   7.15694000
_cell_length_c   3.92954600
_cell_angle_alpha   90.00000000
_cell_angle_beta   90.00000000
_cell_angle_gamma   90.00000000
_symmetry_Int_Tables_number   1
_chemical_formula_structural   TmCo2(B2Ru)2
_chemical_formula_sum   'Tm2 Co4 B8 Ru4'
_cell_volume   201.27838065
_cell_formula_units_Z   2
loop_
 _symmetry_equiv_pos_site_id
 _symmetry_equiv_pos_as_xyz
  1  'x, y, z'
loop_
 _atom_site_type_symbol
 _atom_site_label
 _atom_site_symmetry_multiplicity
 _atom_site_fract_x
 _atom_site_fract_y
 _atom_site_fract_z
 _atom_site_occupancy
  Tm  Tm0  1  0.000000  0.000000  0.098306  1
  Tm  Tm1  1  0.500000  0.500000  0.598306  1
  Co  Co2  1  0.620397  0.119988  0.374074  1
  Co  Co3  1  0.379603  0.880012  0.374074  1
  Co  Co4  1  0.619988  0.879603  0.874074  1
  Co  Co5  1  0.380012  0.120397  0.874074  1
  B  B6  1  0.342128  0.820040  0.878117  1
  B  B7  1  0.657872  0.179960  0.878117  1
  B  B8  1  0.320040  0.157872  0.378117  1
  B  B9  1  0.679960  0.842128  0.378117  1
  B  B10  1  0.174623  0.727909  0.597035  1
  B  B11  1  0.825377  0.272091  0.597035  1
  B  B12  1  0.227909  0.325377  0.097035  1
  B  B13  1  0.772091  0.674623  0.097035  1
  Ru  Ru14  1  0.840218  0.388045  0.101620  1
  Ru  Ru15  1  0.159782  0.611955  0.101620  1
  Ru  Ru16  1  0.888045  0.659782  0.601620  1
  Ru  Ru17  1  0.111955  0.340218  0.601620  1
