# generated using pymatgen
data_Zr2InCo5B2
_symmetry_space_group_name_H-M   'P 1'
_cell_length_a   8.81694300
_cell_length_b   8.81694300
_cell_length_c   3.13337500
_cell_angle_alpha   90.00000000
_cell_angle_beta   90.00000000
_cell_angle_gamma   90.00000000
_symmetry_Int_Tables_number   1
_chemical_formula_structural   Zr2InCo5B2
_chemical_formula_sum   'Zr4 In2 Co10 B4'
_cell_volume   243.58382188
_cell_formula_units_Z   2
loop_
 _symmetry_equiv_pos_site_id
 _symmetry_equiv_pos_as_xyz
  1  'x, y, z'
loop_
 _atom_site_type_symbol
 _atom_site_label
 _atom_site_symmetry_multiplicity
 _atom_site_fract_x
 _atom_site_fract_y
 _atom_site_fract_z
 _atom_site_occupancy
  Zr  Zr0  1  0.822817  0.322817  0.000000  1
  Zr  Zr1  1  0.322817  0.177183  0.000000  1
  Zr  Zr2  1  0.677183  0.822817  0.000000  1
  Zr  Zr3  1  0.177183  0.677183  0.000000  1
  In  In4  1  0.000000  0.000000  0.000000  1
  In  In5  1  0.500000  0.500000  0.000000  1
  Co  Co6  1  0.500000  0.000000  0.500000  1
  Co  Co7  1  0.000000  0.500000  0.500000  1
  Co  Co8  1  0.069149  0.232652  0.500000  1
  Co  Co9  1  0.232652  0.930851  0.500000  1
  Co  Co10  1  0.767348  0.069149  0.500000  1
  Co  Co11  1  0.930851  0.767348  0.500000  1
  Co  Co12  1  0.430851  0.732652  0.500000  1
  Co  Co13  1  0.569149  0.267348  0.500000  1
  Co  Co14  1  0.732652  0.569149  0.500000  1
  Co  Co15  1  0.267348  0.430851  0.500000  1
  B  B16  1  0.617241  0.117241  0.000000  1
  B  B17  1  0.117241  0.382759  0.000000  1
  B  B18  1  0.882759  0.617241  0.000000  1
  B  B19  1  0.382759  0.882759  0.000000  1
