# generated using pymatgen
data_V(FeI4)3
_symmetry_space_group_name_H-M   'P 1'
_cell_length_a   7.59353971
_cell_length_b   8.12227021
_cell_length_c   11.62954350
_cell_angle_alpha   80.61962999
_cell_angle_beta   90.13344315
_cell_angle_gamma   89.35877726
_symmetry_Int_Tables_number   1
_chemical_formula_structural   V(FeI4)3
_chemical_formula_sum   'V1 Fe3 I12'
_cell_volume   707.63089598
_cell_formula_units_Z   1
loop_
 _symmetry_equiv_pos_site_id
 _symmetry_equiv_pos_as_xyz
  1  'x, y, z'
loop_
 _atom_site_type_symbol
 _atom_site_label
 _atom_site_symmetry_multiplicity
 _atom_site_fract_x
 _atom_site_fract_y
 _atom_site_fract_z
 _atom_site_occupancy
  V  V0  1  0.423206  0.165892  0.954808  1
  Fe  Fe1  1  0.082248  0.177573  0.451366  1
  Fe  Fe2  1  0.578846  0.830905  0.046255  1
  Fe  Fe3  1  0.917008  0.822807  0.548471  1
  I  I4  1  0.913092  0.406498  0.329098  1
  I  I5  1  0.415282  0.600023  0.168619  1
  I  I6  1  0.086626  0.593602  0.671054  1
  I  I7  1  0.583196  0.399377  0.831838  1
  I  I8  1  0.392274  0.252834  0.487109  1
  I  I9  1  0.891078  0.747058  0.012612  1
  I  I10  1  0.606746  0.747118  0.513074  1
  I  I11  1  0.111616  0.252952  0.986646  1
  I  I12  1  0.075225  0.913895  0.349676  1
  I  I13  1  0.577447  0.089389  0.155275  1
  I  I14  1  0.924298  0.086107  0.650217  1
  I  I15  1  0.421812  0.913968  0.843880  1
