# generated using pymatgen
data_Ce7Tm(HfIr3)2
_symmetry_space_group_name_H-M   'P 1'
_cell_length_a   11.01984409
_cell_length_b   11.03393400
_cell_length_c   6.15346031
_cell_angle_alpha   90.00000000
_cell_angle_beta   89.75417458
_cell_angle_gamma   90.00000000
_symmetry_Int_Tables_number   1
_chemical_formula_structural   Ce7Tm(HfIr3)2
_chemical_formula_sum   'Ce14 Tm2 Hf4 Ir12'
_cell_volume   748.20608925
_cell_formula_units_Z   2
loop_
 _symmetry_equiv_pos_site_id
 _symmetry_equiv_pos_as_xyz
  1  'x, y, z'
loop_
 _atom_site_type_symbol
 _atom_site_label
 _atom_site_symmetry_multiplicity
 _atom_site_fract_x
 _atom_site_fract_y
 _atom_site_fract_z
 _atom_site_occupancy
  Ce  Ce0  1  0.286344  0.087482  0.366875  1
  Ce  Ce1  1  0.286344  0.912518  0.866875  1
  Ce  Ce2  1  0.714424  0.089937  0.868921  1
  Ce  Ce3  1  0.714424  0.910063  0.368921  1
  Ce  Ce4  1  0.588663  0.784186  0.868466  1
  Ce  Ce5  1  0.588663  0.215814  0.368466  1
  Ce  Ce6  1  0.408603  0.783952  0.369905  1
  Ce  Ce7  1  0.408603  0.216048  0.869905  1
  Ce  Ce8  1  0.211379  0.412264  0.629793  1
  Ce  Ce9  1  0.211379  0.587736  0.129793  1
  Ce  Ce10  1  0.788705  0.411171  0.133310  1
  Ce  Ce11  1  0.788705  0.588829  0.633310  1
  Ce  Ce12  1  0.913928  0.716646  0.129434  1
  Ce  Ce13  1  0.913928  0.283354  0.629434  1
  Tm  Tm14  1  0.085889  0.712974  0.629045  1
  Tm  Tm15  1  0.085889  0.287026  0.129045  1
  Hf  Hf16  1  0.001058  0.996007  0.499122  1
  Hf  Hf17  1  0.001058  0.003993  0.999122  1
  Hf  Hf18  1  0.499742  0.499735  0.003136  1
  Hf  Hf19  1  0.499742  0.500265  0.503136  1
  Ir  Ir20  1  0.856244  0.143584  0.252309  1
  Ir  Ir21  1  0.856244  0.856416  0.752309  1
  Ir  Ir22  1  0.144628  0.142799  0.743692  1
  Ir  Ir23  1  0.144628  0.857201  0.243692  1
  Ir  Ir24  1  0.644188  0.356185  0.751744  1
  Ir  Ir25  1  0.644188  0.643815  0.251744  1
  Ir  Ir26  1  0.355394  0.354454  0.253061  1
  Ir  Ir27  1  0.355394  0.645546  0.753061  1
  Ir  Ir28  1  0.500772  0.999935  0.111890  1
  Ir  Ir29  1  0.500772  0.000065  0.611890  1
  Ir  Ir30  1  0.000038  0.498864  0.889296  1
  Ir  Ir31  1  0.000038  0.501136  0.389296  1
