# generated using pymatgen
data_Te4Pd5Pt
_symmetry_space_group_name_H-M   'P 1'
_cell_length_a   6.72927364
_cell_length_b   6.72927337
_cell_length_c   7.98412100
_cell_angle_alpha   90.00000000
_cell_angle_beta   90.00000000
_cell_angle_gamma   145.92437185
_symmetry_Int_Tables_number   1
_chemical_formula_structural   Te4Pd5Pt
_chemical_formula_sum   'Te4 Pd5 Pt1'
_cell_volume   202.56937758
_cell_formula_units_Z   1
loop_
 _symmetry_equiv_pos_site_id
 _symmetry_equiv_pos_as_xyz
  1  'x, y, z'
loop_
 _atom_site_type_symbol
 _atom_site_label
 _atom_site_symmetry_multiplicity
 _atom_site_fract_x
 _atom_site_fract_y
 _atom_site_fract_z
 _atom_site_occupancy
  Te  Te0  1  0.000517  0.999483  0.496249  1
  Te  Te1  1  0.000517  0.999483  0.003751  1
  Te  Te2  1  0.741653  0.258347  0.250000  1
  Te  Te3  1  0.257478  0.742522  0.750000  1
  Pd  Pd4  1  0.465033  0.534967  0.750000  1
  Pd  Pd5  1  0.662453  0.337547  0.567570  1
  Pd  Pd6  1  0.338008  0.661992  0.432936  1
  Pd  Pd7  1  0.662453  0.337547  0.932430  1
  Pd  Pd8  1  0.338008  0.661992  0.067064  1
  Pt  Pt9  1  0.533882  0.466118  0.250000  1
