# generated using pymatgen
data_Ta3Mn4P4W
_symmetry_space_group_name_H-M   'P 1'
_cell_length_a   3.64500600
_cell_length_b   6.05802929
_cell_length_c   6.96613794
_cell_angle_alpha   90.26872621
_cell_angle_beta   90.00000000
_cell_angle_gamma   90.00000000
_symmetry_Int_Tables_number   1
_chemical_formula_structural   Ta3Mn4P4W
_chemical_formula_sum   'Ta3 Mn4 P4 W1'
_cell_volume   153.82145301
_cell_formula_units_Z   1
loop_
 _symmetry_equiv_pos_site_id
 _symmetry_equiv_pos_as_xyz
  1  'x, y, z'
loop_
 _atom_site_type_symbol
 _atom_site_label
 _atom_site_symmetry_multiplicity
 _atom_site_fract_x
 _atom_site_fract_y
 _atom_site_fract_z
 _atom_site_occupancy
  Ta  Ta0  1  0.250000  0.523471  0.321309  1
  Ta  Ta1  1  0.250000  0.022449  0.174813  1
  Ta  Ta2  1  0.750000  0.477872  0.679022  1
  Mn  Mn3  1  0.750000  0.349511  0.059548  1
  Mn  Mn4  1  0.250000  0.648038  0.936791  1
  Mn  Mn5  1  0.750000  0.850647  0.442633  1
  Mn  Mn6  1  0.250000  0.148997  0.560553  1
  P  P7  1  0.250000  0.782782  0.625902  1
  P  P8  1  0.750000  0.220525  0.376971  1
  P  P9  1  0.250000  0.276982  0.876501  1
  P  P10  1  0.750000  0.720553  0.118062  1
  W  W11  1  0.750000  0.978172  0.827895  1
