# generated using pymatgen
data_Li3Th3AgSn4
_symmetry_space_group_name_H-M   'P 1'
_cell_length_a   8.78379704
_cell_length_b   8.80050922
_cell_length_c   8.80051106
_cell_angle_alpha   148.83702445
_cell_angle_beta   131.12279784
_cell_angle_gamma   59.12950533
_symmetry_Int_Tables_number   1
_chemical_formula_structural   Li3Th3AgSn4
_chemical_formula_sum   'Li3 Th3 Ag1 Sn4'
_cell_volume   263.02728686
_cell_formula_units_Z   1
loop_
 _symmetry_equiv_pos_site_id
 _symmetry_equiv_pos_as_xyz
  1  'x, y, z'
loop_
 _atom_site_type_symbol
 _atom_site_label
 _atom_site_symmetry_multiplicity
 _atom_site_fract_x
 _atom_site_fract_y
 _atom_site_fract_z
 _atom_site_occupancy
  Li  Li0  1  0.647815  0.329264  0.318553  1
  Li  Li1  1  0.353367  0.668800  0.684566  1
  Li  Li2  1  0.013575  0.328343  0.685232  1
  Th  Th3  1  0.372158  0.875323  0.496834  1
  Th  Th4  1  0.626556  0.125811  0.500745  1
  Th  Th5  1  0.000855  0.001926  0.998928  1
  Ag  Ag6  1  0.984074  0.671778  0.312295  1
  Sn  Sn7  1  0.231074  0.218256  0.012819  1
  Sn  Sn8  1  0.778290  0.785093  0.993197  1
  Sn  Sn9  1  0.698789  0.496108  0.202680  1
  Sn  Sn10  1  0.293448  0.499297  0.794151  1
