# generated using pymatgen
data_SrHo2Tm(Pt2O7)2
_symmetry_space_group_name_H-M   'P 1'
_cell_length_a   7.31695711
_cell_length_b   7.29458727
_cell_length_c   7.29458753
_cell_angle_alpha   60.03374274
_cell_angle_beta   60.08619523
_cell_angle_gamma   60.08620008
_symmetry_Int_Tables_number   1
_chemical_formula_structural   SrHo2Tm(Pt2O7)2
_chemical_formula_sum   'Sr1 Ho2 Tm1 Pt4 O14'
_cell_volume   275.73538080
_cell_formula_units_Z   1
loop_
 _symmetry_equiv_pos_site_id
 _symmetry_equiv_pos_as_xyz
  1  'x, y, z'
loop_
 _atom_site_type_symbol
 _atom_site_label
 _atom_site_symmetry_multiplicity
 _atom_site_fract_x
 _atom_site_fract_y
 _atom_site_fract_z
 _atom_site_occupancy
  Sr  Sr0  1  0.125000  0.625000  0.625000  1
  Ho  Ho1  1  0.625000  0.625000  0.125000  1
  Ho  Ho2  1  0.625000  0.125000  0.625000  1
  Tm  Tm3  1  0.625000  0.625000  0.625000  1
  Pt  Pt4  1  0.125000  0.125000  0.125000  1
  Pt  Pt5  1  0.625000  0.125000  0.125000  1
  Pt  Pt6  1  0.125000  0.625000  0.125000  1
  Pt  Pt7  1  0.125000  0.125000  0.625000  1
  O  O8  1  0.024360  0.459710  0.459710  1
  O  O9  1  0.784780  0.786746  0.215184  1
  O  O10  1  0.785039  0.213977  0.213977  1
  O  O11  1  0.465220  0.034816  0.463254  1
  O  O12  1  0.025787  0.055650  0.459301  1
  O  O13  1  0.025787  0.459301  0.055650  1
  O  O14  1  0.725791  0.756798  0.756798  1
  O  O15  1  0.524209  0.493202  0.493202  1
  O  O16  1  0.784780  0.215184  0.786746  1
  O  O17  1  0.224213  0.790699  0.194350  1
  O  O18  1  0.224213  0.194350  0.790699  1
  O  O19  1  0.464961  0.036023  0.036023  1
  O  O20  1  0.465220  0.463254  0.034816  1
  O  O21  1  0.225640  0.790290  0.790290  1
