# generated using pymatgen
data_Zr6Al8Si8Rh7
_symmetry_space_group_name_H-M   'P 1'
_cell_length_a   8.58316977
_cell_length_b   8.58316929
_cell_length_c   8.58316800
_cell_angle_alpha   59.99999726
_cell_angle_beta   59.99999912
_cell_angle_gamma   59.99999533
_symmetry_Int_Tables_number   1
_chemical_formula_structural   Zr6Al8Si8Rh7
_chemical_formula_sum   'Zr6 Al8 Si8 Rh7'
_cell_volume   447.12398686
_cell_formula_units_Z   1
loop_
 _symmetry_equiv_pos_site_id
 _symmetry_equiv_pos_as_xyz
  1  'x, y, z'
loop_
 _atom_site_type_symbol
 _atom_site_label
 _atom_site_symmetry_multiplicity
 _atom_site_fract_x
 _atom_site_fract_y
 _atom_site_fract_z
 _atom_site_occupancy
  Zr  Zr0  1  0.693350  0.306649  0.306649  1
  Zr  Zr1  1  0.306649  0.693350  0.693350  1
  Zr  Zr2  1  0.306649  0.693350  0.306649  1
  Zr  Zr3  1  0.306649  0.306649  0.693350  1
  Zr  Zr4  1  0.693350  0.306649  0.693350  1
  Zr  Zr5  1  0.693350  0.693350  0.306649  1
  Al  Al6  1  0.120515  0.120515  0.120515  1
  Al  Al7  1  0.120515  0.120515  0.638454  1
  Al  Al8  1  0.638454  0.120515  0.120515  1
  Al  Al9  1  0.120515  0.638454  0.120515  1
  Al  Al10  1  0.879484  0.879484  0.879484  1
  Al  Al11  1  0.879484  0.879484  0.361549  1
  Al  Al12  1  0.879484  0.361549  0.879484  1
  Al  Al13  1  0.361549  0.879484  0.879484  1
  Si  Si14  1  0.340353  0.340353  0.340353  1
  Si  Si15  1  0.340353  0.340353  0.978939  1
  Si  Si16  1  0.978939  0.340353  0.340353  1
  Si  Si17  1  0.340353  0.978939  0.340353  1
  Si  Si18  1  0.659647  0.659647  0.659647  1
  Si  Si19  1  0.659647  0.659647  0.021061  1
  Si  Si20  1  0.659647  0.021061  0.659647  1
  Si  Si21  1  0.021061  0.659647  0.659647  1
  Rh  Rh22  1  0.000000  0.000000  0.000000  1
  Rh  Rh23  1  0.500000  0.000000  0.000000  1
  Rh  Rh24  1  0.000000  0.500000  0.500000  1
  Rh  Rh25  1  0.000000  0.500000  0.000000  1
  Rh  Rh26  1  0.000000  0.000000  0.500000  1
  Rh  Rh27  1  0.500000  0.000000  0.500000  1
  Rh  Rh28  1  0.500000  0.500000  0.000000  1
