# generated using pymatgen
data_FeMo(ClO)2
_symmetry_space_group_name_H-M   'P 1'
_cell_length_a   5.27297904
_cell_length_b   5.20912978
_cell_length_c   9.39033423
_cell_angle_alpha   75.70033872
_cell_angle_beta   75.47915241
_cell_angle_gamma   96.23265579
_symmetry_Int_Tables_number   1
_chemical_formula_structural   FeMo(ClO)2
_chemical_formula_sum   'Fe2 Mo2 Cl4 O4'
_cell_volume   237.92499906
_cell_formula_units_Z   2
loop_
 _symmetry_equiv_pos_site_id
 _symmetry_equiv_pos_as_xyz
  1  'x, y, z'
loop_
 _atom_site_type_symbol
 _atom_site_label
 _atom_site_symmetry_multiplicity
 _atom_site_fract_x
 _atom_site_fract_y
 _atom_site_fract_z
 _atom_site_occupancy
  Fe  Fe0  1  0.692131  0.692121  0.115724  1
  Fe  Fe1  1  0.807880  0.307835  0.884290  1
  Mo  Mo2  1  0.192765  0.192745  0.114491  1
  Mo  Mo3  1  0.307239  0.807262  0.885502  1
  Cl  Cl4  1  0.339312  0.334814  0.312979  1
  Cl  Cl5  1  0.847657  0.852083  0.313012  1
  Cl  Cl6  1  0.160681  0.665198  0.687020  1
  Cl  Cl7  1  0.652347  0.147926  0.686985  1
  O  O8  1  0.038769  0.030575  0.954928  1
  O  O9  1  0.506341  0.514569  0.954869  1
  O  O10  1  0.461210  0.969417  0.045074  1
  O  O11  1  0.993670  0.485454  0.045127  1
