# generated using pymatgen
data_Be9NbVMo
_symmetry_space_group_name_H-M   'P 1'
_cell_length_a   7.37651329
_cell_length_b   7.37651365
_cell_length_c   7.37651389
_cell_angle_alpha   34.87904156
_cell_angle_beta   34.87903720
_cell_angle_gamma   34.87904417
_symmetry_Int_Tables_number   1
_chemical_formula_structural   Be9NbVMo
_chemical_formula_sum   'Be9 Nb1 V1 Mo1'
_cell_volume   117.16965657
_cell_formula_units_Z   1
loop_
 _symmetry_equiv_pos_site_id
 _symmetry_equiv_pos_as_xyz
  1  'x, y, z'
loop_
 _atom_site_type_symbol
 _atom_site_label
 _atom_site_symmetry_multiplicity
 _atom_site_fract_x
 _atom_site_fract_y
 _atom_site_fract_z
 _atom_site_occupancy
  Be  Be0  1  0.500436  0.500436  0.500436  1
  Be  Be1  1  0.333292  0.333292  0.333293  1
  Be  Be2  1  0.665050  0.665050  0.665049  1
  Be  Be3  1  0.078841  0.585316  0.585316  1
  Be  Be4  1  0.585316  0.585316  0.078841  1
  Be  Be5  1  0.585316  0.078841  0.585316  1
  Be  Be6  1  0.414254  0.921795  0.414254  1
  Be  Be7  1  0.921795  0.414254  0.414254  1
  Be  Be8  1  0.414254  0.414254  0.921795  1
  Nb  Nb9  1  0.000887  0.000887  0.000887  1
  V  V10  1  0.856880  0.856880  0.856880  1
  Mo  Mo11  1  0.143678  0.143678  0.143678  1
