# generated using pymatgen
data_Y2ErIn3Cu2Pt
_symmetry_space_group_name_H-M   'P 1'
_cell_length_a   7.56263710
_cell_length_b   7.53913172
_cell_length_c   3.90482700
_cell_angle_alpha   90.00000000
_cell_angle_beta   90.00000000
_cell_angle_gamma   120.08523337
_symmetry_Int_Tables_number   1
_chemical_formula_structural   Y2ErIn3Cu2Pt
_chemical_formula_sum   'Y2 Er1 In3 Cu2 Pt1'
_cell_volume   192.64306472
_cell_formula_units_Z   1
loop_
 _symmetry_equiv_pos_site_id
 _symmetry_equiv_pos_as_xyz
  1  'x, y, z'
loop_
 _atom_site_type_symbol
 _atom_site_label
 _atom_site_symmetry_multiplicity
 _atom_site_fract_x
 _atom_site_fract_y
 _atom_site_fract_z
 _atom_site_occupancy
  Y  Y0  1  0.006466  0.414252  0.500000  1
  Y  Y1  1  0.585789  0.592657  0.500000  1
  Er  Er2  1  0.406321  0.991155  0.500000  1
  In  In3  1  0.753102  0.009129  0.000000  1
  In  In4  1  0.991165  0.744113  0.000000  1
  In  In5  1  0.256711  0.247721  0.000000  1
  Cu  Cu6  1  0.663644  0.330013  0.000000  1
  Cu  Cu7  1  0.002707  0.000535  0.500000  1
  Pt  Pt8  1  0.334095  0.670424  0.000000  1
