# generated using pymatgen
data_Ho3Lu13(ZnIn3)2
_symmetry_space_group_name_H-M   'P 1'
_cell_length_a   10.45879900
_cell_length_b   10.45879784
_cell_length_c   6.68513500
_cell_angle_alpha   90.00000000
_cell_angle_beta   90.00000000
_cell_angle_gamma   120.00000683
_symmetry_Int_Tables_number   1
_chemical_formula_structural   Ho3Lu13(ZnIn3)2
_chemical_formula_sum   'Ho3 Lu13 Zn2 In6'
_cell_volume   633.29253522
_cell_formula_units_Z   1
loop_
 _symmetry_equiv_pos_site_id
 _symmetry_equiv_pos_as_xyz
  1  'x, y, z'
loop_
 _atom_site_type_symbol
 _atom_site_label
 _atom_site_symmetry_multiplicity
 _atom_site_fract_x
 _atom_site_fract_y
 _atom_site_fract_z
 _atom_site_occupancy
  Ho  Ho0  1  0.333333  0.666667  0.366653  1
  Ho  Ho1  1  0.000000  0.000000  0.498836  1
  Ho  Ho2  1  0.000000  0.000000  0.999008  1
  Lu  Lu3  1  0.520333  0.040665  0.517109  1
  Lu  Lu4  1  0.959335  0.479667  0.517109  1
  Lu  Lu5  1  0.520333  0.479667  0.517109  1
  Lu  Lu6  1  0.480582  0.961166  0.015953  1
  Lu  Lu7  1  0.038834  0.519418  0.015953  1
  Lu  Lu8  1  0.480582  0.519418  0.015953  1
  Lu  Lu9  1  0.173771  0.347543  0.734113  1
  Lu  Lu10  1  0.652457  0.826229  0.734113  1
  Lu  Lu11  1  0.173771  0.826229  0.734113  1
  Lu  Lu12  1  0.825977  0.651954  0.233153  1
  Lu  Lu13  1  0.348046  0.174023  0.233153  1
  Lu  Lu14  1  0.825977  0.174023  0.233153  1
  Lu  Lu15  1  0.666667  0.333333  0.869620  1
  Zn  Zn16  1  0.666667  0.333333  0.303421  1
  Zn  Zn17  1  0.333333  0.666667  0.807719  1
  In  In18  1  0.834674  0.669348  0.749961  1
  In  In19  1  0.330652  0.165326  0.749961  1
  In  In20  1  0.834674  0.165326  0.749961  1
  In  In21  1  0.164331  0.328663  0.249360  1
  In  In22  1  0.671337  0.835669  0.249360  1
  In  In23  1  0.164331  0.835669  0.249360  1
