# generated using pymatgen
data_Cs2U(Br2F)2
_symmetry_space_group_name_H-M   'P 1'
_cell_length_a   6.25073834
_cell_length_b   7.58479981
_cell_length_c   7.58479929
_cell_angle_alpha   66.08077415
_cell_angle_beta   98.38351359
_cell_angle_gamma   98.38351087
_symmetry_Int_Tables_number   1
_chemical_formula_structural   Cs2U(Br2F)2
_chemical_formula_sum   'Cs2 U1 Br4 F2'
_cell_volume   323.70674515
_cell_formula_units_Z   1
loop_
 _symmetry_equiv_pos_site_id
 _symmetry_equiv_pos_as_xyz
  1  'x, y, z'
loop_
 _atom_site_type_symbol
 _atom_site_label
 _atom_site_symmetry_multiplicity
 _atom_site_fract_x
 _atom_site_fract_y
 _atom_site_fract_z
 _atom_site_occupancy
  Cs  Cs0  1  0.678964  0.333578  0.333578  1
  Cs  Cs1  1  0.319581  0.665912  0.665912  1
  U  U2  1  0.998490  0.000027  0.000027  1
  Br  Br3  1  0.204083  0.648797  0.147459  1
  Br  Br4  1  0.794336  0.849794  0.352125  1
  Br  Br5  1  0.204083  0.147459  0.648797  1
  Br  Br6  1  0.794336  0.352125  0.849794  1
  F  F7  1  0.255263  0.128484  0.128484  1
  F  F8  1  0.740568  0.872424  0.872424  1
