# generated using pymatgen
data_Li3La4ScPt4
_symmetry_space_group_name_H-M   'P 1'
_cell_length_a   4.17659000
_cell_length_b   7.38851512
_cell_length_c   8.93557430
_cell_angle_alpha   92.05906427
_cell_angle_beta   90.00000000
_cell_angle_gamma   90.00000000
_symmetry_Int_Tables_number   1
_chemical_formula_structural   Li3La4ScPt4
_chemical_formula_sum   'Li3 La4 Sc1 Pt4'
_cell_volume   275.56304521
_cell_formula_units_Z   1
loop_
 _symmetry_equiv_pos_site_id
 _symmetry_equiv_pos_as_xyz
  1  'x, y, z'
loop_
 _atom_site_type_symbol
 _atom_site_label
 _atom_site_symmetry_multiplicity
 _atom_site_fract_x
 _atom_site_fract_y
 _atom_site_fract_z
 _atom_site_occupancy
  Li  Li0  1  0.250000  0.128790  0.053309  1
  Li  Li1  1  0.250000  0.641603  0.436506  1
  Li  Li2  1  0.750000  0.875927  0.948213  1
  La  La3  1  0.250000  0.021316  0.694878  1
  La  La4  1  0.250000  0.547731  0.829892  1
  La  La5  1  0.750000  0.960375  0.306917  1
  La  La6  1  0.750000  0.462335  0.179950  1
  Sc  Sc7  1  0.750000  0.374985  0.554793  1
  Pt  Pt8  1  0.250000  0.243898  0.394926  1
  Pt  Pt9  1  0.250000  0.753135  0.118732  1
  Pt  Pt10  1  0.750000  0.735988  0.617038  1
  Pt  Pt11  1  0.750000  0.253916  0.864843  1
