# generated using pymatgen
data_LuSc(SiTc2)4
_symmetry_space_group_name_H-M   'P 1'
_cell_length_a   7.27588846
_cell_length_b   7.27588846
_cell_length_c   4.14268700
_cell_angle_alpha   90.00000000
_cell_angle_beta   90.00000000
_cell_angle_gamma   88.77688685
_symmetry_Int_Tables_number   1
_chemical_formula_structural   LuSc(SiTc2)4
_chemical_formula_sum   'Lu1 Sc1 Si4 Tc8'
_cell_volume   219.25788624
_cell_formula_units_Z   1
loop_
 _symmetry_equiv_pos_site_id
 _symmetry_equiv_pos_as_xyz
  1  'x, y, z'
loop_
 _atom_site_type_symbol
 _atom_site_label
 _atom_site_symmetry_multiplicity
 _atom_site_fract_x
 _atom_site_fract_y
 _atom_site_fract_z
 _atom_site_occupancy
  Lu  Lu0  1  0.500000  0.500000  0.000000  1
  Sc  Sc1  1  0.000000  0.000000  0.500000  1
  Si  Si2  1  0.710158  0.710158  0.500000  1
  Si  Si3  1  0.289842  0.289842  0.500000  1
  Si  Si4  1  0.201718  0.798282  0.000000  1
  Si  Si5  1  0.798282  0.201718  0.000000  1
  Tc  Tc6  1  0.601433  0.152772  0.500000  1
  Tc  Tc7  1  0.398567  0.847228  0.500000  1
  Tc  Tc8  1  0.092533  0.341916  0.000000  1
  Tc  Tc9  1  0.907467  0.658084  0.000000  1
  Tc  Tc10  1  0.152772  0.601433  0.500000  1
  Tc  Tc11  1  0.847228  0.398567  0.500000  1
  Tc  Tc12  1  0.341916  0.092533  0.000000  1
  Tc  Tc13  1  0.658084  0.907467  0.000000  1
