# generated using pymatgen
data_Na3Nb8Tl(PS10)4
_symmetry_space_group_name_H-M   'P 1'
_cell_length_a   8.44573610
_cell_length_b   13.04687977
_cell_length_c   13.91793114
_cell_angle_alpha   90.56516398
_cell_angle_beta   107.59165517
_cell_angle_gamma   89.07878961
_symmetry_Int_Tables_number   1
_chemical_formula_structural   Na3Nb8Tl(PS10)4
_chemical_formula_sum   'Na3 Nb8 Tl1 P4 S40'
_cell_volume   1461.69435057
_cell_formula_units_Z   1
loop_
 _symmetry_equiv_pos_site_id
 _symmetry_equiv_pos_as_xyz
  1  'x, y, z'
loop_
 _atom_site_type_symbol
 _atom_site_label
 _atom_site_symmetry_multiplicity
 _atom_site_fract_x
 _atom_site_fract_y
 _atom_site_fract_z
 _atom_site_occupancy
  Na  Na0  1  0.053075  0.121184  0.116358  1
  Na  Na1  1  0.934590  0.381724  0.879172  1
  Na  Na2  1  0.946533  0.878389  0.881038  1
  Nb  Nb3  1  0.700069  0.222753  0.278717  1
  Nb  Nb4  1  0.580444  0.724485  0.279385  1
  Nb  Nb5  1  0.696883  0.513326  0.279283  1
  Nb  Nb6  1  0.584742  0.014731  0.279035  1
  Nb  Nb7  1  0.302836  0.486349  0.720637  1
  Nb  Nb8  1  0.418947  0.985180  0.723970  1
  Nb  Nb9  1  0.298279  0.777090  0.721464  1
  Nb  Nb10  1  0.424125  0.276455  0.723558  1
  Tl  Tl11  1  0.060832  0.621114  0.112836  1
  P  P12  1  0.237554  0.876251  0.205741  1
  P  P13  1  0.970208  0.365164  0.205238  1
  P  P14  1  0.768171  0.126347  0.799667  1
  P  P15  1  0.016900  0.631384  0.785407  1
  S  S16  1  0.098896  0.361210  0.105006  1
  S  S17  1  0.008617  0.879608  0.106013  1
  S  S18  1  0.464631  0.148873  0.141204  1
  S  S19  1  0.680251  0.647669  0.141974  1
  S  S20  1  0.688117  0.085073  0.142941  1
  S  S21  1  0.458387  0.587654  0.142847  1
  S  S22  1  0.711116  0.367149  0.145754  1
  S  S23  1  0.436963  0.869590  0.145921  1
  S  S24  1  0.013022  0.234515  0.291250  1
  S  S25  1  0.282690  0.747387  0.295625  1
  S  S26  1  0.283111  0.008285  0.290611  1
  S  S27  1  0.011047  0.495506  0.294222  1
  S  S28  1  0.798450  0.866531  0.313995  1
  S  S29  1  0.516906  0.369139  0.313370  1
  S  S30  1  0.754268  0.368881  0.409926  1
  S  S31  1  0.656918  0.870244  0.410327  1
  S  S32  1  0.825200  0.094581  0.413359  1
  S  S33  1  0.589950  0.596613  0.413548  1
  S  S34  1  0.596774  0.144016  0.413830  1
  S  S35  1  0.818551  0.641846  0.413995  1
  S  S36  1  0.188688  0.357046  0.585600  1
  S  S37  1  0.408654  0.856068  0.589229  1
  S  S38  1  0.179806  0.906941  0.587431  1
  S  S39  1  0.418176  0.403630  0.589433  1
  S  S40  1  0.246300  0.631098  0.590066  1
  S  S41  1  0.352190  0.129825  0.593173  1
  S  S42  1  0.206986  0.134046  0.687341  1
  S  S43  1  0.482682  0.631112  0.688573  1
  S  S44  1  0.987436  0.497748  0.702377  1
  S  S45  1  0.720992  0.994398  0.713662  1
  S  S46  1  0.726732  0.258219  0.714408  1
  S  S47  1  0.983256  0.764365  0.702706  1
  S  S48  1  0.566195  0.130850  0.857723  1
  S  S49  1  0.275956  0.632151  0.852325  1
  S  S50  1  0.309148  0.915032  0.857486  1
  S  S51  1  0.539546  0.414590  0.859635  1
  S  S52  1  0.317905  0.352861  0.858158  1
  S  S53  1  0.532293  0.848900  0.861355  1
  S  S54  1  0.998300  0.122920  0.896959  1
  S  S55  1  0.870706  0.631905  0.875136  1
