# generated using pymatgen
data_Nd8Ho12Si11Au5
_symmetry_space_group_name_H-M   'P 1'
_cell_length_a   7.65755335
_cell_length_b   7.73393733
_cell_length_c   15.09160837
_cell_angle_alpha   90.03889238
_cell_angle_beta   90.24618366
_cell_angle_gamma   89.47676797
_symmetry_Int_Tables_number   1
_chemical_formula_structural   Nd8Ho12Si11Au5
_chemical_formula_sum   'Nd8 Ho12 Si11 Au5'
_cell_volume   893.72519122
_cell_formula_units_Z   1
loop_
 _symmetry_equiv_pos_site_id
 _symmetry_equiv_pos_as_xyz
  1  'x, y, z'
loop_
 _atom_site_type_symbol
 _atom_site_label
 _atom_site_symmetry_multiplicity
 _atom_site_fract_x
 _atom_site_fract_y
 _atom_site_fract_z
 _atom_site_occupancy
  Nd  Nd0  1  0.986777  0.832008  0.094339  1
  Nd  Nd1  1  0.478052  0.674403  0.402857  1
  Nd  Nd2  1  0.521273  0.321192  0.897404  1
  Nd  Nd3  1  0.020242  0.178612  0.602667  1
  Nd  Nd4  1  0.025981  0.180402  0.896637  1
  Nd  Nd5  1  0.526670  0.321789  0.603346  1
  Nd  Nd6  1  0.473179  0.676506  0.095597  1
  Nd  Nd7  1  0.979068  0.825703  0.403842  1
  Ho  Ho8  1  0.664033  0.990046  0.252808  1
  Ho  Ho9  1  0.156127  0.513865  0.246429  1
  Ho  Ho10  1  0.843482  0.495883  0.749628  1
  Ho  Ho11  1  0.342210  0.005646  0.750829  1
  Ho  Ho12  1  0.670859  0.826248  0.875911  1
  Ho  Ho13  1  0.169960  0.672002  0.623776  1
  Ho  Ho14  1  0.828484  0.320320  0.121189  1
  Ho  Ho15  1  0.328974  0.175271  0.377849  1
  Ho  Ho16  1  0.323039  0.171290  0.121082  1
  Ho  Ho17  1  0.820717  0.324264  0.381195  1
  Ho  Ho18  1  0.179241  0.671767  0.878599  1
  Ho  Ho19  1  0.677675  0.827237  0.622611  1
  Si  Si20  1  0.269832  0.882115  0.249616  1
  Si  Si21  1  0.727635  0.122105  0.750495  1
  Si  Si22  1  0.227740  0.378522  0.750019  1
  Si  Si23  1  0.035274  0.113912  0.250670  1
  Si  Si24  1  0.527084  0.376544  0.248666  1
  Si  Si25  1  0.467730  0.614833  0.748938  1
  Si  Si26  1  0.967709  0.885251  0.750690  1
  Si  Si27  1  0.155273  0.466731  0.043520  1
  Si  Si28  1  0.654750  0.030810  0.458022  1
  Si  Si29  1  0.344772  0.968562  0.955246  1
  Si  Si30  1  0.843038  0.532406  0.544160  1
  Au  Au31  1  0.768258  0.623535  0.249594  1
  Au  Au32  1  0.846052  0.533195  0.959461  1
  Au  Au33  1  0.345461  0.968340  0.542781  1
  Au  Au34  1  0.652601  0.029299  0.042767  1
  Au  Au35  1  0.150751  0.469388  0.456763  1
