# generated using pymatgen
data_Y2ScU(NiP)4
_symmetry_space_group_name_H-M   'P 1'
_cell_length_a   3.87563500
_cell_length_b   3.87563493
_cell_length_c   14.98313800
_cell_angle_alpha   90.00000000
_cell_angle_beta   90.00000000
_cell_angle_gamma   120.00000911
_symmetry_Int_Tables_number   1
_chemical_formula_structural   Y2ScU(NiP)4
_chemical_formula_sum   'Y2 Sc1 U1 Ni4 P4'
_cell_volume   194.90325962
_cell_formula_units_Z   1
loop_
 _symmetry_equiv_pos_site_id
 _symmetry_equiv_pos_as_xyz
  1  'x, y, z'
loop_
 _atom_site_type_symbol
 _atom_site_label
 _atom_site_symmetry_multiplicity
 _atom_site_fract_x
 _atom_site_fract_y
 _atom_site_fract_z
 _atom_site_occupancy
  Y  Y0  1  0.000000  0.000000  0.009492  1
  Y  Y1  1  0.000000  0.000000  0.750642  1
  Sc  Sc2  1  0.000000  0.000000  0.248142  1
  U  U3  1  0.000000  0.000000  0.492355  1
  Ni  Ni4  1  0.333333  0.666667  0.352793  1
  Ni  Ni5  1  0.666667  0.333333  0.613163  1
  Ni  Ni6  1  0.666667  0.333333  0.877318  1
  Ni  Ni7  1  0.333333  0.666667  0.152082  1
  P  P8  1  0.333333  0.666667  0.879560  1
  P  P9  1  0.666667  0.333333  0.131093  1
  P  P10  1  0.666667  0.333333  0.373552  1
  P  P11  1  0.333333  0.666667  0.619808  1
