# generated using pymatgen
data_Pr2SiOsI
_symmetry_space_group_name_H-M   'P 1'
_cell_length_a   4.24392400
_cell_length_b   4.24392487
_cell_length_c   17.66247400
_cell_angle_alpha   90.00000000
_cell_angle_beta   90.00000000
_cell_angle_gamma   119.99999322
_symmetry_Int_Tables_number   1
_chemical_formula_structural   Pr2SiOsI
_chemical_formula_sum   'Pr4 Si2 Os2 I2'
_cell_volume   275.49738560
_cell_formula_units_Z   2
loop_
 _symmetry_equiv_pos_site_id
 _symmetry_equiv_pos_as_xyz
  1  'x, y, z'
loop_
 _atom_site_type_symbol
 _atom_site_label
 _atom_site_symmetry_multiplicity
 _atom_site_fract_x
 _atom_site_fract_y
 _atom_site_fract_z
 _atom_site_occupancy
  Pr  Pr0  1  0.000000  0.000000  0.607479  1
  Pr  Pr1  1  0.000000  0.000000  0.394499  1
  Pr  Pr2  1  0.000000  0.000000  0.107479  1
  Pr  Pr3  1  0.000000  0.000000  0.894499  1
  Si  Si4  1  0.666667  0.333333  0.501209  1
  Si  Si5  1  0.333333  0.666667  0.001209  1
  Os  Os6  1  0.666667  0.333333  0.998752  1
  Os  Os7  1  0.333333  0.666667  0.498752  1
  I  I8  1  0.666667  0.333333  0.248061  1
  I  I9  1  0.333333  0.666667  0.748061  1
