# generated using pymatgen
data_Cs3EuInI6
_symmetry_space_group_name_H-M   'P 1'
_cell_length_a   10.50672959
_cell_length_b   10.50673039
_cell_length_c   10.50672949
_cell_angle_alpha   91.81185721
_cell_angle_beta   91.81185672
_cell_angle_gamma   91.81186151
_symmetry_Int_Tables_number   1
_chemical_formula_structural   Cs3EuInI6
_chemical_formula_sum   'Cs6 Eu2 In2 I12'
_cell_volume   1158.07508233
_cell_formula_units_Z   2
loop_
 _symmetry_equiv_pos_site_id
 _symmetry_equiv_pos_as_xyz
  1  'x, y, z'
loop_
 _atom_site_type_symbol
 _atom_site_label
 _atom_site_symmetry_multiplicity
 _atom_site_fract_x
 _atom_site_fract_y
 _atom_site_fract_z
 _atom_site_occupancy
  Cs  Cs0  1  0.250000  0.627914  0.872086  1
  Cs  Cs1  1  0.872086  0.250000  0.627914  1
  Cs  Cs2  1  0.627914  0.872086  0.250000  1
  Cs  Cs3  1  0.750000  0.372086  0.127914  1
  Cs  Cs4  1  0.127914  0.750000  0.372086  1
  Cs  Cs5  1  0.372086  0.127914  0.750000  1
  Eu  Eu6  1  0.000000  0.000000  0.000000  1
  Eu  Eu7  1  0.500000  0.500000  0.500000  1
  In  In8  1  0.250000  0.250000  0.250000  1
  In  In9  1  0.750000  0.750000  0.750000  1
  I  I10  1  0.548237  0.203313  0.418487  1
  I  I11  1  0.418487  0.548237  0.203313  1
  I  I12  1  0.203313  0.418487  0.548237  1
  I  I13  1  0.951763  0.081513  0.296687  1
  I  I14  1  0.296687  0.951763  0.081513  1
  I  I15  1  0.081513  0.296687  0.951763  1
  I  I16  1  0.451763  0.796687  0.581513  1
  I  I17  1  0.581513  0.451763  0.796687  1
  I  I18  1  0.796687  0.581513  0.451763  1
  I  I19  1  0.048237  0.918487  0.703313  1
  I  I20  1  0.918487  0.703313  0.048237  1
  I  I21  1  0.703313  0.048237  0.918487  1
