# generated using pymatgen
data_Dy7Ho3In8Pt3Rh
_symmetry_space_group_name_H-M   'P 1'
_cell_length_a   3.62911600
_cell_length_b   8.14004225
_cell_length_c   18.25687212
_cell_angle_alpha   90.03836112
_cell_angle_beta   90.00000000
_cell_angle_gamma   90.00000000
_symmetry_Int_Tables_number   1
_chemical_formula_structural   Dy7Ho3In8Pt3Rh
_chemical_formula_sum   'Dy7 Ho3 In8 Pt3 Rh1'
_cell_volume   539.32901519
_cell_formula_units_Z   1
loop_
 _symmetry_equiv_pos_site_id
 _symmetry_equiv_pos_as_xyz
  1  'x, y, z'
loop_
 _atom_site_type_symbol
 _atom_site_label
 _atom_site_symmetry_multiplicity
 _atom_site_fract_x
 _atom_site_fract_y
 _atom_site_fract_z
 _atom_site_occupancy
  Dy  Dy0  1  0.000000  0.617034  0.085695  1
  Dy  Dy1  1  0.000000  0.239873  0.221687  1
  Dy  Dy2  1  0.000000  0.757022  0.779539  1
  Dy  Dy3  1  0.000000  0.256629  0.720836  1
  Dy  Dy4  1  0.000000  0.750617  0.279342  1
  Dy  Dy5  1  0.000000  0.999970  0.000057  1
  Dy  Dy6  1  0.000000  0.500177  0.499831  1
  Ho  Ho7  1  0.000000  0.114744  0.412275  1
  Ho  Ho8  1  0.000000  0.882736  0.585181  1
  Ho  Ho9  1  0.000000  0.383149  0.914834  1
  In  In10  1  0.500000  0.423525  0.351458  1
  In  In11  1  0.500000  0.575220  0.648513  1
  In  In12  1  0.500000  0.075345  0.851559  1
  In  In13  1  0.500000  0.927741  0.149471  1
  In  In14  1  0.500000  0.291842  0.066946  1
  In  In15  1  0.500000  0.707562  0.933277  1
  In  In16  1  0.500000  0.207292  0.566511  1
  In  In17  1  0.500000  0.793428  0.431663  1
  Pt  Pt18  1  0.500000  0.974737  0.696276  1
  Pt  Pt19  1  0.500000  0.474949  0.803609  1
  Pt  Pt20  1  0.500000  0.523398  0.197006  1
  Rh  Rh21  1  0.500000  0.023009  0.304434  1
