# generated using pymatgen
data_Ho2Er6Ga3Fe
_symmetry_space_group_name_H-M   'P 1'
_cell_length_a   9.90796210
_cell_length_b   9.90796191
_cell_length_c   6.89884009
_cell_angle_alpha   90.01592413
_cell_angle_beta   89.98407514
_cell_angle_gamma   119.99612760
_symmetry_Int_Tables_number   1
_chemical_formula_structural   Ho2Er6Ga3Fe
_chemical_formula_sum   'Ho4 Er12 Ga6 Fe2'
_cell_volume   586.53279215
_cell_formula_units_Z   2
loop_
 _symmetry_equiv_pos_site_id
 _symmetry_equiv_pos_as_xyz
  1  'x, y, z'
loop_
 _atom_site_type_symbol
 _atom_site_label
 _atom_site_symmetry_multiplicity
 _atom_site_fract_x
 _atom_site_fract_y
 _atom_site_fract_z
 _atom_site_occupancy
  Ho  Ho0  1  0.927046  0.463566  0.707279  1
  Ho  Ho1  1  0.536434  0.072954  0.707279  1
  Ho  Ho2  1  0.000012  0.999988  0.230546  1
  Ho  Ho3  1  0.000012  0.999988  0.730643  1
  Er  Er4  1  0.173339  0.826661  0.510082  1
  Er  Er5  1  0.653254  0.826554  0.510173  1
  Er  Er6  1  0.173446  0.346746  0.510173  1
  Er  Er7  1  0.826736  0.173264  0.010468  1
  Er  Er8  1  0.346707  0.173407  0.010388  1
  Er  Er9  1  0.826593  0.653293  0.010388  1
  Er  Er10  1  0.333395  0.666605  0.829773  1
  Er  Er11  1  0.666623  0.333377  0.329454  1
  Er  Er12  1  0.463384  0.536616  0.207192  1
  Er  Er13  1  0.073264  0.536636  0.207247  1
  Er  Er14  1  0.463364  0.926736  0.207247  1
  Er  Er15  1  0.536529  0.463471  0.707166  1
  Ga  Ga16  1  0.163761  0.836239  0.959613  1
  Ga  Ga17  1  0.672443  0.836213  0.959619  1
  Ga  Ga18  1  0.163787  0.327557  0.959619  1
  Ga  Ga19  1  0.836300  0.163700  0.459368  1
  Ga  Ga20  1  0.327463  0.163815  0.459466  1
  Ga  Ga21  1  0.836185  0.672537  0.459466  1
  Fe  Fe22  1  0.333332  0.666668  0.445537  1
  Fe  Fe23  1  0.666591  0.333409  0.945854  1
