# generated using pymatgen
data_CeNb(Zn2Rh3)2
_symmetry_space_group_name_H-M   'P 1'
_cell_length_a   3.47929000
_cell_length_b   4.22023271
_cell_length_c   12.60706375
_cell_angle_alpha   90.00743834
_cell_angle_beta   90.00000000
_cell_angle_gamma   90.00000000
_symmetry_Int_Tables_number   1
_chemical_formula_structural   CeNb(Zn2Rh3)2
_chemical_formula_sum   'Ce1 Nb1 Zn4 Rh6'
_cell_volume   185.11472808
_cell_formula_units_Z   1
loop_
 _symmetry_equiv_pos_site_id
 _symmetry_equiv_pos_as_xyz
  1  'x, y, z'
loop_
 _atom_site_type_symbol
 _atom_site_label
 _atom_site_symmetry_multiplicity
 _atom_site_fract_x
 _atom_site_fract_y
 _atom_site_fract_z
 _atom_site_occupancy
  Ce  Ce0  1  0.000000  0.252798  0.583380  1
  Nb  Nb1  1  0.000000  0.747255  0.083389  1
  Zn  Zn2  1  0.000000  0.248228  0.247190  1
  Zn  Zn3  1  0.000000  0.751906  0.762194  1
  Zn  Zn4  1  0.000000  0.752190  0.404382  1
  Zn  Zn5  1  0.000000  0.247524  0.919500  1
  Rh  Rh6  1  0.500000  0.748322  0.242388  1
  Rh  Rh7  1  0.500000  0.251471  0.761412  1
  Rh  Rh8  1  0.500000  0.753216  0.583339  1
  Rh  Rh9  1  0.500000  0.251693  0.405146  1
  Rh  Rh10  1  0.500000  0.747761  0.924273  1
  Rh  Rh11  1  0.500000  0.247635  0.083405  1
