# generated using pymatgen
data_Ca3Ga2Si(MoO6)2
_symmetry_space_group_name_H-M   'P 1'
_cell_length_a   10.90566335
_cell_length_b   10.90564460
_cell_length_c   10.90566326
_cell_angle_alpha   109.04948222
_cell_angle_beta   109.04954758
_cell_angle_gamma   110.31804222
_symmetry_Int_Tables_number   1
_chemical_formula_structural   Ca3Ga2Si(MoO6)2
_chemical_formula_sum   'Ca12 Ga8 Si4 Mo8 O48'
_cell_volume   998.30198149
_cell_formula_units_Z   4
loop_
 _symmetry_equiv_pos_site_id
 _symmetry_equiv_pos_as_xyz
  1  'x, y, z'
loop_
 _atom_site_type_symbol
 _atom_site_label
 _atom_site_symmetry_multiplicity
 _atom_site_fract_x
 _atom_site_fract_y
 _atom_site_fract_z
 _atom_site_occupancy
  Ca  Ca0  1  0.750000  0.750000  0.000000  1
  Ca  Ca1  1  0.875000  0.249464  0.874463  1
  Ca  Ca2  1  0.499463  0.125000  0.874463  1
  Ca  Ca3  1  0.250000  0.250000  0.000000  1
  Ca  Ca4  1  0.875001  0.749464  0.374464  1
  Ca  Ca5  1  0.250536  0.625000  0.125536  1
  Ca  Ca6  1  0.999464  0.125000  0.374464  1
  Ca  Ca7  1  0.000000  0.500000  0.500000  1
  Ca  Ca8  1  0.374999  0.000536  0.125536  1
  Ca  Ca9  1  0.750537  0.625000  0.625537  1
  Ca  Ca10  1  0.375000  0.500536  0.625537  1
  Ca  Ca11  1  0.500000  0.000000  0.500000  1
  Ga  Ga12  1  0.000143  0.625000  0.875143  1
  Ga  Ga13  1  0.374999  0.750142  0.875143  1
  Ga  Ga14  1  0.875000  0.499858  0.124857  1
  Ga  Ga15  1  0.749857  0.125000  0.124857  1
  Ga  Ga16  1  0.500143  0.625000  0.375143  1
  Ga  Ga17  1  0.375000  0.250142  0.375143  1
  Ga  Ga18  1  0.875001  0.999858  0.624857  1
  Ga  Ga19  1  0.249857  0.125000  0.624857  1
  Si  Si20  1  0.000000  0.000000  0.000000  1
  Si  Si21  1  0.500000  0.500000  0.999999  1
  Si  Si22  1  0.250000  0.750000  0.500000  1
  Si  Si23  1  0.750000  0.250000  0.500001  1
  Mo  Mo24  1  0.125000  0.375000  0.750000  1
  Mo  Mo25  1  0.625000  0.875000  0.250000  1
  Mo  Mo26  1  0.125000  0.875000  0.750000  1
  Mo  Mo27  1  0.625000  0.375000  0.250000  1
  Mo  Mo28  1  0.125000  0.375000  0.250000  1
  Mo  Mo29  1  0.125000  0.875000  0.250000  1
  Mo  Mo30  1  0.625000  0.875000  0.750000  1
  Mo  Mo31  1  0.625000  0.375000  0.750000  1
  O  O32  1  0.825831  0.871757  0.861193  1
  O  O33  1  0.030909  0.195019  0.776520  1
  O  O34  1  0.047380  0.475620  0.874127  1
  O  O35  1  0.804983  0.581500  0.835888  1
  O  O36  1  0.530904  0.754387  0.835888  1
  O  O37  1  0.535363  0.489437  0.861195  1
  O  O38  1  0.725620  0.351493  0.928240  1
  O  O39  1  0.918500  0.695019  0.164110  1
  O  O40  1  0.024380  0.452620  0.125874  1
  O  O41  1  0.035361  0.174168  0.045925  1
  O  O42  1  0.423253  0.797380  0.071759  1
  O  O43  1  0.245612  0.081500  0.776518  1
  O  O44  1  0.702619  0.076746  0.928240  1
  O  O45  1  0.325833  0.464638  0.954074  1
  O  O46  1  0.628243  0.674168  0.138807  1
  O  O47  1  0.510564  0.371757  0.045926  1
  O  O48  1  0.148507  0.774380  0.071759  1
  O  O49  1  0.326747  0.898507  0.874127  1
  O  O50  1  0.010564  0.964638  0.138805  1
  O  O51  1  0.831501  0.495613  0.276518  1
  O  O52  1  0.945019  0.280908  0.276519  1
  O  O53  1  0.601494  0.173254  0.125874  1
  O  O54  1  0.504388  0.780908  0.335889  1
  O  O55  1  0.128242  0.989437  0.954074  1
  O  O56  1  0.121758  0.760563  0.545926  1
  O  O57  1  0.745612  0.969092  0.164111  1
  O  O58  1  0.648506  0.576746  0.374126  1
  O  O59  1  0.304981  0.469092  0.223481  1
  O  O60  1  0.418499  0.254387  0.223482  1
  O  O61  1  0.239436  0.785362  0.361195  1
  O  O62  1  0.923253  0.851493  0.625873  1
  O  O63  1  0.101493  0.975620  0.428241  1
  O  O64  1  0.739436  0.378243  0.454074  1
  O  O65  1  0.621757  0.075832  0.361193  1
  O  O66  1  0.924167  0.285362  0.545926  1
  O  O67  1  0.547381  0.673254  0.571760  1
  O  O68  1  0.004388  0.668500  0.723482  1
  O  O69  1  0.826747  0.952620  0.428241  1
  O  O70  1  0.225620  0.297380  0.374126  1
  O  O71  1  0.214639  0.575832  0.454075  1
  O  O72  1  0.331500  0.054981  0.335890  1
  O  O73  1  0.524380  0.398507  0.571760  1
  O  O74  1  0.714637  0.260563  0.638805  1
  O  O75  1  0.719096  0.995613  0.664112  1
  O  O76  1  0.445017  0.168500  0.664112  1
  O  O77  1  0.202620  0.274380  0.625873  1
  O  O78  1  0.219091  0.554981  0.723480  1
  O  O79  1  0.424169  0.878243  0.638807  1
