# generated using pymatgen
data_Li4YbPr3Sb4
_symmetry_space_group_name_H-M   'P 1'
_cell_length_a   4.66463600
_cell_length_b   7.61862889
_cell_length_c   8.40792238
_cell_angle_alpha   89.64633806
_cell_angle_beta   90.00000000
_cell_angle_gamma   90.00000000
_symmetry_Int_Tables_number   1
_chemical_formula_structural   Li4YbPr3Sb4
_chemical_formula_sum   'Li4 Yb1 Pr3 Sb4'
_cell_volume   298.79615131
_cell_formula_units_Z   1
loop_
 _symmetry_equiv_pos_site_id
 _symmetry_equiv_pos_as_xyz
  1  'x, y, z'
loop_
 _atom_site_type_symbol
 _atom_site_label
 _atom_site_symmetry_multiplicity
 _atom_site_fract_x
 _atom_site_fract_y
 _atom_site_fract_z
 _atom_site_occupancy
  Li  Li0  1  0.250000  0.164090  0.922921  1
  Li  Li1  1  0.250000  0.669959  0.581583  1
  Li  Li2  1  0.750000  0.839252  0.070326  1
  Li  Li3  1  0.750000  0.327351  0.427267  1
  Yb  Yb4  1  0.750000  0.493410  0.790227  1
  Pr  Pr5  1  0.250000  0.005255  0.295807  1
  Pr  Pr6  1  0.250000  0.507226  0.214136  1
  Pr  Pr7  1  0.750000  0.993128  0.699871  1
  Sb  Sb8  1  0.250000  0.276795  0.594609  1
  Sb  Sb9  1  0.250000  0.768871  0.905157  1
  Sb  Sb10  1  0.750000  0.724722  0.406092  1
  Sb  Sb11  1  0.750000  0.229942  0.092004  1
