# generated using pymatgen
data_DyY2Sc3Sn6(Pd2Pt)2
_symmetry_space_group_name_H-M   'P 1'
_cell_length_a   7.55685800
_cell_length_b   7.56155999
_cell_length_c   7.61144700
_cell_angle_alpha   90.00000000
_cell_angle_beta   90.00000000
_cell_angle_gamma   119.99060357
_symmetry_Int_Tables_number   1
_chemical_formula_structural   DyY2Sc3Sn6(Pd2Pt)2
_chemical_formula_sum   'Dy1 Y2 Sc3 Sn6 Pd4 Pt2'
_cell_volume   376.69654437
_cell_formula_units_Z   1
loop_
 _symmetry_equiv_pos_site_id
 _symmetry_equiv_pos_as_xyz
  1  'x, y, z'
loop_
 _atom_site_type_symbol
 _atom_site_label
 _atom_site_symmetry_multiplicity
 _atom_site_fract_x
 _atom_site_fract_y
 _atom_site_fract_z
 _atom_site_occupancy
  Dy  Dy0  1  0.402326  0.999364  0.749972  1
  Y  Y1  1  0.596998  0.598106  0.749969  1
  Y  Y2  1  0.002251  0.403522  0.749971  1
  Sc  Sc3  1  0.392250  0.001423  0.250003  1
  Sc  Sc4  1  0.608757  0.607519  0.249998  1
  Sc  Sc5  1  0.998045  0.390862  0.250045  1
  Sn  Sn6  1  0.268994  0.269375  0.009839  1
  Sn  Sn7  1  0.999809  0.730762  0.009532  1
  Sn  Sn8  1  0.001289  0.731447  0.490521  1
  Sn  Sn9  1  0.730422  0.998498  0.491184  1
  Sn  Sn10  1  0.268147  0.270040  0.490240  1
  Sn  Sn11  1  0.731114  0.999950  0.008838  1
  Pd  Pd12  1  0.001584  0.999991  0.749952  1
  Pd  Pd13  1  0.999664  0.999815  0.250011  1
  Pd  Pd14  1  0.666087  0.332714  0.032627  1
  Pd  Pd15  1  0.333174  0.666981  0.461195  1
  Pt  Pt16  1  0.333136  0.667027  0.037548  1
  Pt  Pt17  1  0.665954  0.332604  0.468555  1
