# generated using pymatgen
data_Tb4YP12Ru19
_symmetry_space_group_name_H-M   'P 1'
_cell_length_a   12.55028900
_cell_length_b   12.55028953
_cell_length_c   3.98405500
_cell_angle_alpha   90.00000000
_cell_angle_beta   90.00000000
_cell_angle_gamma   119.99999597
_symmetry_Int_Tables_number   1
_chemical_formula_structural   Tb4YP12Ru19
_chemical_formula_sum   'Tb4 Y1 P12 Ru19'
_cell_volume   543.45482147
_cell_formula_units_Z   1
loop_
 _symmetry_equiv_pos_site_id
 _symmetry_equiv_pos_as_xyz
  1  'x, y, z'
loop_
 _atom_site_type_symbol
 _atom_site_label
 _atom_site_symmetry_multiplicity
 _atom_site_fract_x
 _atom_site_fract_y
 _atom_site_fract_z
 _atom_site_occupancy
  Tb  Tb0  1  0.000022  0.183454  0.500000  1
  Tb  Tb1  1  0.816546  0.816568  0.500000  1
  Tb  Tb2  1  0.183432  0.999978  0.500000  1
  Tb  Tb3  1  0.666667  0.333333  0.000000  1
  Y  Y4  1  0.333333  0.666667  0.000000  1
  P  P5  1  0.000071  0.815213  0.000000  1
  P  P6  1  0.184787  0.184857  0.000000  1
  P  P7  1  0.815143  0.999929  0.000000  1
  P  P8  1  0.693712  0.171279  0.500000  1
  P  P9  1  0.828721  0.522433  0.500000  1
  P  P10  1  0.477567  0.306288  0.500000  1
  P  P11  1  0.171329  0.693713  0.500000  1
  P  P12  1  0.522384  0.828671  0.500000  1
  P  P13  1  0.306287  0.477616  0.500000  1
  P  P14  1  0.999991  0.372987  0.000000  1
  P  P15  1  0.627013  0.627003  0.000000  1
  P  P16  1  0.372997  0.000009  0.000000  1
  Ru  Ru17  1  0.999941  0.554290  0.000000  1
  Ru  Ru18  1  0.445710  0.445650  0.000000  1
  Ru  Ru19  1  0.554350  0.000059  0.000000  1
  Ru  Ru20  1  0.000034  0.716367  0.500000  1
  Ru  Ru21  1  0.283633  0.283667  0.500000  1
  Ru  Ru22  1  0.716333  0.999966  0.500000  1
  Ru  Ru23  1  0.807331  0.184705  0.000000  1
  Ru  Ru24  1  0.815295  0.622627  0.000000  1
  Ru  Ru25  1  0.377373  0.192669  0.000000  1
  Ru  Ru26  1  0.184790  0.807278  0.000000  1
  Ru  Ru27  1  0.622489  0.815210  0.000000  1
  Ru  Ru28  1  0.192722  0.377511  0.000000  1
  Ru  Ru29  1  0.874261  0.365977  0.500000  1
  Ru  Ru30  1  0.634023  0.508284  0.500000  1
  Ru  Ru31  1  0.491716  0.125739  0.500000  1
  Ru  Ru32  1  0.366030  0.874125  0.500000  1
  Ru  Ru33  1  0.508095  0.633970  0.500000  1
  Ru  Ru34  1  0.125875  0.491905  0.500000  1
  Ru  Ru35  1  0.000000  0.000000  0.000000  1
