# generated using pymatgen
data_DyEr7(LuGa5)4
_symmetry_space_group_name_H-M   'P 1'
_cell_length_a   6.02274918
_cell_length_b   9.56195907
_cell_length_c   11.46349428
_cell_angle_alpha   90.00461871
_cell_angle_beta   90.02475225
_cell_angle_gamma   90.01256390
_symmetry_Int_Tables_number   1
_chemical_formula_structural   DyEr7(LuGa5)4
_chemical_formula_sum   'Dy1 Er7 Lu4 Ga20'
_cell_volume   660.17431453
_cell_formula_units_Z   1
loop_
 _symmetry_equiv_pos_site_id
 _symmetry_equiv_pos_as_xyz
  1  'x, y, z'
loop_
 _atom_site_type_symbol
 _atom_site_label
 _atom_site_symmetry_multiplicity
 _atom_site_fract_x
 _atom_site_fract_y
 _atom_site_fract_z
 _atom_site_occupancy
  Dy  Dy0  1  0.609430  0.506491  0.851304  1
  Er  Er1  1  0.890733  0.506484  0.351249  1
  Er  Er2  1  0.609328  0.993553  0.851261  1
  Er  Er3  1  0.109315  0.006515  0.648728  1
  Er  Er4  1  0.390565  0.493523  0.148970  1
  Er  Er5  1  0.109368  0.493463  0.648551  1
  Er  Er6  1  0.390629  0.006467  0.148823  1
  Er  Er7  1  0.890697  0.993438  0.351233  1
  Lu  Lu8  1  0.849283  0.750119  0.074111  1
  Lu  Lu9  1  0.650823  0.750029  0.573881  1
  Lu  Lu10  1  0.150521  0.249967  0.926083  1
  Lu  Lu11  1  0.349228  0.249982  0.425976  1
  Ga  Ga12  1  0.875707  0.052546  0.089908  1
  Ga  Ga13  1  0.624377  0.447295  0.589505  1
  Ga  Ga14  1  0.123871  0.552748  0.910234  1
  Ga  Ga15  1  0.375646  0.947414  0.410093  1
  Ga  Ga16  1  0.124338  0.947472  0.910119  1
  Ga  Ga17  1  0.375680  0.552584  0.410110  1
  Ga  Ga18  1  0.875726  0.447363  0.090046  1
  Ga  Ga19  1  0.624396  0.052547  0.589908  1
  Ga  Ga20  1  0.167217  0.750009  0.253793  1
  Ga  Ga21  1  0.332547  0.750331  0.753624  1
  Ga  Ga22  1  0.833176  0.249634  0.745943  1
  Ga  Ga23  1  0.667188  0.249985  0.246278  1
  Ga  Ga24  1  0.379252  0.750162  0.002241  1
  Ga  Ga25  1  0.120464  0.750009  0.502179  1
  Ga  Ga26  1  0.620493  0.249556  0.998280  1
  Ga  Ga27  1  0.879559  0.249963  0.497764  1
  Ga  Ga28  1  0.606292  0.749993  0.298416  1
  Ga  Ga29  1  0.894253  0.750462  0.798309  1
  Ga  Ga30  1  0.393594  0.249895  0.701522  1
  Ga  Ga31  1  0.106304  0.250002  0.201560  1
