# generated using pymatgen
data_Y3Ga2Ag3Ge
_symmetry_space_group_name_H-M   'P 1'
_cell_length_a   7.30753900
_cell_length_b   7.30753876
_cell_length_c   4.14030900
_cell_angle_alpha   90.00000000
_cell_angle_beta   90.00000000
_cell_angle_gamma   119.99998751
_symmetry_Int_Tables_number   1
_chemical_formula_structural   Y3Ga2Ag3Ge
_chemical_formula_sum   'Y3 Ga2 Ag3 Ge1'
_cell_volume   191.47219250
_cell_formula_units_Z   1
loop_
 _symmetry_equiv_pos_site_id
 _symmetry_equiv_pos_as_xyz
  1  'x, y, z'
loop_
 _atom_site_type_symbol
 _atom_site_label
 _atom_site_symmetry_multiplicity
 _atom_site_fract_x
 _atom_site_fract_y
 _atom_site_fract_z
 _atom_site_occupancy
  Y  Y0  1  0.582991  0.003096  0.000000  1
  Y  Y1  1  0.996904  0.579894  0.000000  1
  Y  Y2  1  0.420106  0.417009  0.000000  1
  Ga  Ga3  1  0.333333  0.666667  0.500000  1
  Ga  Ga4  1  0.000000  0.000000  0.000000  1
  Ag  Ag5  1  0.247517  0.995744  0.500000  1
  Ag  Ag6  1  0.004256  0.251772  0.500000  1
  Ag  Ag7  1  0.748228  0.752483  0.500000  1
  Ge  Ge8  1  0.666667  0.333333  0.500000  1
