# generated using pymatgen
data_Li2BrO3F
_symmetry_space_group_name_H-M   'P 1'
_cell_length_a   5.67530588
_cell_length_b   5.58671091
_cell_length_c   6.52259351
_cell_angle_alpha   89.25688258
_cell_angle_beta   78.61102499
_cell_angle_gamma   101.61381950
_symmetry_Int_Tables_number   1
_chemical_formula_structural   Li2BrO3F
_chemical_formula_sum   'Li4 Br2 O6 F2'
_cell_volume   198.28485191
_cell_formula_units_Z   2
loop_
 _symmetry_equiv_pos_site_id
 _symmetry_equiv_pos_as_xyz
  1  'x, y, z'
loop_
 _atom_site_type_symbol
 _atom_site_label
 _atom_site_symmetry_multiplicity
 _atom_site_fract_x
 _atom_site_fract_y
 _atom_site_fract_z
 _atom_site_occupancy
  Li  Li0  1  0.845253  0.537193  0.884815  1
  Li  Li1  1  0.812930  0.434961  0.446632  1
  Li  Li2  1  0.242906  0.472655  0.488418  1
  Li  Li3  1  0.090509  0.910294  0.407977  1
  Br  Br4  1  0.679389  0.898586  0.159597  1
  Br  Br5  1  0.337575  0.175930  0.843143  1
  O  O6  1  0.874715  0.715584  0.209116  1
  O  O7  1  0.517695  0.287461  0.010363  1
  O  O8  1  0.477129  0.330111  0.609209  1
  O  O9  1  0.416037  0.793742  0.337349  1
  O  O10  1  0.629424  0.803072  0.928282  1
  O  O11  1  0.076383  0.276633  0.909349  1
  F  F12  1  0.018037  0.214435  0.408694  1
  F  F13  1  0.997294  0.644708  0.610272  1
