# generated using pymatgen
data_Y(Er3Bi2)3
_symmetry_space_group_name_H-M   'P 1'
_cell_length_a   8.20685700
_cell_length_b   9.48011500
_cell_length_c   11.96665900
_cell_angle_alpha   90.00000000
_cell_angle_beta   90.00000000
_cell_angle_gamma   90.00000000
_symmetry_Int_Tables_number   1
_chemical_formula_structural   Y(Er3Bi2)3
_chemical_formula_sum   'Y2 Er18 Bi12'
_cell_volume   931.02938303
_cell_formula_units_Z   2
loop_
 _symmetry_equiv_pos_site_id
 _symmetry_equiv_pos_as_xyz
  1  'x, y, z'
loop_
 _atom_site_type_symbol
 _atom_site_label
 _atom_site_symmetry_multiplicity
 _atom_site_fract_x
 _atom_site_fract_y
 _atom_site_fract_z
 _atom_site_occupancy
  Y  Y0  1  0.685676  0.750000  0.781772  1
  Y  Y1  1  0.185676  0.750000  0.718228  1
  Er  Er2  1  0.353665  0.750000  0.216679  1
  Er  Er3  1  0.853665  0.750000  0.283321  1
  Er  Er4  1  0.646377  0.250000  0.783355  1
  Er  Er5  1  0.146377  0.250000  0.716645  1
  Er  Er6  1  0.692114  0.564638  0.059285  1
  Er  Er7  1  0.192114  0.935362  0.440715  1
  Er  Er8  1  0.307960  0.064724  0.940957  1
  Er  Er9  1  0.807960  0.435276  0.559043  1
  Er  Er10  1  0.307960  0.435276  0.940957  1
  Er  Er11  1  0.807960  0.064724  0.559043  1
  Er  Er12  1  0.692114  0.935362  0.059285  1
  Er  Er13  1  0.192114  0.564638  0.440715  1
  Er  Er14  1  0.476565  0.250000  0.488877  1
  Er  Er15  1  0.976565  0.250000  0.011123  1
  Er  Er16  1  0.523411  0.750000  0.510599  1
  Er  Er17  1  0.023411  0.750000  0.989401  1
  Er  Er18  1  0.314068  0.250000  0.217907  1
  Er  Er19  1  0.814068  0.250000  0.282093  1
  Bi  Bi20  1  0.405050  0.750000  0.958027  1
  Bi  Bi21  1  0.905050  0.750000  0.541973  1
  Bi  Bi22  1  0.594761  0.250000  0.042512  1
  Bi  Bi23  1  0.094761  0.250000  0.457488  1
  Bi  Bi24  1  0.566165  0.996214  0.325704  1
  Bi  Bi25  1  0.066165  0.503786  0.174296  1
  Bi  Bi26  1  0.433974  0.495673  0.674074  1
  Bi  Bi27  1  0.933974  0.004327  0.825926  1
  Bi  Bi28  1  0.433974  0.004327  0.674074  1
  Bi  Bi29  1  0.933974  0.495673  0.825926  1
  Bi  Bi30  1  0.566165  0.503786  0.325704  1
  Bi  Bi31  1  0.066165  0.996214  0.174296  1
