# generated using pymatgen
data_PrSi4(Ir2Rh)2
_symmetry_space_group_name_H-M   'P 1'
_cell_length_a   7.03398000
_cell_length_b   7.05150576
_cell_length_c   3.87567700
_cell_angle_alpha   90.00000000
_cell_angle_beta   90.00000000
_cell_angle_gamma   119.91781787
_symmetry_Int_Tables_number   1
_chemical_formula_structural   PrSi4(Ir2Rh)2
_chemical_formula_sum   'Pr1 Si4 Ir4 Rh2'
_cell_volume   166.61736229
_cell_formula_units_Z   1
loop_
 _symmetry_equiv_pos_site_id
 _symmetry_equiv_pos_as_xyz
  1  'x, y, z'
loop_
 _atom_site_type_symbol
 _atom_site_label
 _atom_site_symmetry_multiplicity
 _atom_site_fract_x
 _atom_site_fract_y
 _atom_site_fract_z
 _atom_site_occupancy
  Pr  Pr0  1  0.999708  0.999416  0.000000  1
  Si  Si1  1  0.333605  0.667212  0.000000  1
  Si  Si2  1  0.400371  0.200335  0.499999  1
  Si  Si3  1  0.799965  0.200335  0.499999  1
  Si  Si4  1  0.798958  0.597914  0.499999  1
  Ir  Ir5  1  0.532511  0.065022  0.000000  1
  Ir  Ir6  1  0.935036  0.468174  0.000000  1
  Ir  Ir7  1  0.533136  0.468174  0.000000  1
  Ir  Ir8  1  0.199536  0.399075  0.499999  1
  Rh  Rh9  1  0.199446  0.800506  0.499999  1
  Rh  Rh10  1  0.601059  0.800506  0.499999  1
