# generated using pymatgen
data_Tb4Tm12MgNi4Hg3
_symmetry_space_group_name_H-M   'P 1'
_cell_length_a   9.45402861
_cell_length_b   9.43563265
_cell_length_c   9.43563100
_cell_angle_alpha   60.00000227
_cell_angle_beta   60.06434906
_cell_angle_gamma   60.06435144
_symmetry_Int_Tables_number   1
_chemical_formula_structural   Tb4Tm12MgNi4Hg3
_chemical_formula_sum   'Tb4 Tm12 Mg1 Ni4 Hg3'
_cell_volume   595.75216441
_cell_formula_units_Z   1
loop_
 _symmetry_equiv_pos_site_id
 _symmetry_equiv_pos_as_xyz
  1  'x, y, z'
loop_
 _atom_site_type_symbol
 _atom_site_label
 _atom_site_symmetry_multiplicity
 _atom_site_fract_x
 _atom_site_fract_y
 _atom_site_fract_z
 _atom_site_occupancy
  Tb  Tb0  1  0.600230  0.599128  0.599128  1
  Tb  Tb1  1  0.600230  0.599128  0.201514  1
  Tb  Tb2  1  0.600230  0.201514  0.599128  1
  Tb  Tb3  1  0.191892  0.602703  0.602703  1
  Tm  Tm4  1  0.060624  0.438275  0.438275  1
  Tm  Tm5  1  0.434293  0.064632  0.064632  1
  Tm  Tm6  1  0.434293  0.064632  0.436444  1
  Tm  Tm7  1  0.060624  0.438275  0.062827  1
  Tm  Tm8  1  0.434293  0.436444  0.064632  1
  Tm  Tm9  1  0.060624  0.062827  0.438275  1
  Tm  Tm10  1  0.184282  0.815365  0.815365  1
  Tm  Tm11  1  0.813755  0.185495  0.185495  1
  Tm  Tm12  1  0.813755  0.185495  0.815255  1
  Tm  Tm13  1  0.184282  0.815365  0.184989  1
  Tm  Tm14  1  0.813755  0.815255  0.185495  1
  Tm  Tm15  1  0.184282  0.184989  0.815365  1
  Mg  Mg16  1  0.532406  0.822531  0.822531  1
  Ni  Ni17  1  0.389825  0.393094  0.393094  1
  Ni  Ni18  1  0.389825  0.393094  0.823988  1
  Ni  Ni19  1  0.389825  0.823988  0.393094  1
  Ni  Ni20  1  0.824433  0.391856  0.391856  1
  Hg  Hg21  1  0.834081  0.837967  0.837967  1
  Hg  Hg22  1  0.834081  0.837967  0.489986  1
  Hg  Hg23  1  0.834081  0.489986  0.837967  1
