# generated using pymatgen
data_HoPaInPt2
_symmetry_space_group_name_H-M   'P 1'
_cell_length_a   7.88354400
_cell_length_b   7.76641900
_cell_length_c   3.64341900
_cell_angle_alpha   90.00000000
_cell_angle_beta   90.00000000
_cell_angle_gamma   90.00000000
_symmetry_Int_Tables_number   1
_chemical_formula_structural   HoPaInPt2
_chemical_formula_sum   'Ho2 Pa2 In2 Pt4'
_cell_volume   223.07527230
_cell_formula_units_Z   2
loop_
 _symmetry_equiv_pos_site_id
 _symmetry_equiv_pos_as_xyz
  1  'x, y, z'
loop_
 _atom_site_type_symbol
 _atom_site_label
 _atom_site_symmetry_multiplicity
 _atom_site_fract_x
 _atom_site_fract_y
 _atom_site_fract_z
 _atom_site_occupancy
  Ho  Ho0  1  0.173219  0.327208  0.500000  1
  Ho  Ho1  1  0.673219  0.172792  0.500000  1
  Pa  Pa2  1  0.330783  0.834104  0.500000  1
  Pa  Pa3  1  0.830783  0.665896  0.500000  1
  In  In4  1  0.995406  0.009258  0.000000  1
  In  In5  1  0.495406  0.490742  0.000000  1
  Pt  Pt6  1  0.369864  0.115939  0.000000  1
  Pt  Pt7  1  0.869864  0.384061  0.000000  1
  Pt  Pt8  1  0.130728  0.645297  0.000000  1
  Pt  Pt9  1  0.630728  0.854703  0.000000  1
