# generated using pymatgen
data_TaGaPt6
_symmetry_space_group_name_H-M   'P 1'
_cell_length_a   5.64595978
_cell_length_b   5.64595978
_cell_length_c   3.95494700
_cell_angle_alpha   90.00000000
_cell_angle_beta   90.00000000
_cell_angle_gamma   90.14911626
_symmetry_Int_Tables_number   1
_chemical_formula_structural   TaGaPt6
_chemical_formula_sum   'Ta1 Ga1 Pt6'
_cell_volume   126.07087214
_cell_formula_units_Z   1
loop_
 _symmetry_equiv_pos_site_id
 _symmetry_equiv_pos_as_xyz
  1  'x, y, z'
loop_
 _atom_site_type_symbol
 _atom_site_label
 _atom_site_symmetry_multiplicity
 _atom_site_fract_x
 _atom_site_fract_y
 _atom_site_fract_z
 _atom_site_occupancy
  Ta  Ta0  1  0.000000  0.500000  0.500000  1
  Ga  Ga1  1  0.500000  0.000000  0.500000  1
  Pt  Pt2  1  0.753365  0.253365  0.000000  1
  Pt  Pt3  1  0.246635  0.746635  0.000000  1
  Pt  Pt4  1  0.244452  0.255548  0.000000  1
  Pt  Pt5  1  0.755548  0.744452  0.000000  1
  Pt  Pt6  1  0.500000  0.500000  0.500000  1
  Pt  Pt7  1  0.000000  0.000000  0.500000  1
