# generated using pymatgen
data_Ti8PbS16
_symmetry_space_group_name_H-M   'P 1'
_cell_length_a   6.84303500
_cell_length_b   6.84303549
_cell_length_c   13.98927000
_cell_angle_alpha   90.00000000
_cell_angle_beta   90.00000000
_cell_angle_gamma   119.99999281
_symmetry_Int_Tables_number   1
_chemical_formula_structural   Ti8PbS16
_chemical_formula_sum   'Ti8 Pb1 S16'
_cell_volume   567.31369682
_cell_formula_units_Z   1
loop_
 _symmetry_equiv_pos_site_id
 _symmetry_equiv_pos_as_xyz
  1  'x, y, z'
loop_
 _atom_site_type_symbol
 _atom_site_label
 _atom_site_symmetry_multiplicity
 _atom_site_fract_x
 _atom_site_fract_y
 _atom_site_fract_z
 _atom_site_occupancy
  Ti  Ti0  1  0.502794  0.497206  0.740541  1
  Ti  Ti1  1  0.497206  0.502794  0.259459  1
  Ti  Ti2  1  0.502794  0.005586  0.740541  1
  Ti  Ti3  1  0.497206  0.994414  0.259459  1
  Ti  Ti4  1  0.994414  0.497206  0.740541  1
  Ti  Ti5  1  0.005586  0.502794  0.259459  1
  Ti  Ti6  1  0.000000  0.000000  0.735532  1
  Ti  Ti7  1  0.000000  0.000000  0.264468  1
  Pb  Pb8  1  0.000000  0.000000  0.000000  1
  S  S9  1  0.833354  0.666709  0.156591  1
  S  S10  1  0.832505  0.665011  0.638040  1
  S  S11  1  0.833354  0.166646  0.156591  1
  S  S12  1  0.832505  0.167495  0.638040  1
  S  S13  1  0.333333  0.666667  0.155114  1
  S  S14  1  0.333333  0.666667  0.642983  1
  S  S15  1  0.333291  0.166646  0.156591  1
  S  S16  1  0.334989  0.167495  0.638040  1
  S  S17  1  0.666709  0.833354  0.843409  1
  S  S18  1  0.665011  0.832505  0.361960  1
  S  S19  1  0.666667  0.333333  0.844886  1
  S  S20  1  0.666667  0.333333  0.357017  1
  S  S21  1  0.166646  0.833354  0.843409  1
  S  S22  1  0.167495  0.832505  0.361960  1
  S  S23  1  0.166646  0.333291  0.843409  1
  S  S24  1  0.167495  0.334989  0.361960  1
