# generated using pymatgen
data_Hg3Se2BrF
_symmetry_space_group_name_H-M   'P 1'
_cell_length_a   10.29857383
_cell_length_b   10.29857373
_cell_length_c   9.01236034
_cell_angle_alpha   89.11755121
_cell_angle_beta   89.11754908
_cell_angle_gamma   53.98545349
_symmetry_Int_Tables_number   1
_chemical_formula_structural   Hg3Se2BrF
_chemical_formula_sum   'Hg12 Se8 Br4 F4'
_cell_volume   773.04602704
_cell_formula_units_Z   4
loop_
 _symmetry_equiv_pos_site_id
 _symmetry_equiv_pos_as_xyz
  1  'x, y, z'
loop_
 _atom_site_type_symbol
 _atom_site_label
 _atom_site_symmetry_multiplicity
 _atom_site_fract_x
 _atom_site_fract_y
 _atom_site_fract_z
 _atom_site_occupancy
  Hg  Hg0  1  0.348407  0.895250  0.325082  1
  Hg  Hg1  1  0.651593  0.104750  0.674918  1
  Hg  Hg2  1  0.104750  0.651593  0.674918  1
  Hg  Hg3  1  0.895250  0.348407  0.325082  1
  Hg  Hg4  1  0.475566  0.475566  0.314822  1
  Hg  Hg5  1  0.524434  0.524434  0.685178  1
  Hg  Hg6  1  0.500000  0.000000  0.000000  1
  Hg  Hg7  1  0.000000  0.500000  0.000000  1
  Hg  Hg8  1  0.774468  0.774468  0.322384  1
  Hg  Hg9  1  0.225532  0.225532  0.677616  1
  Hg  Hg10  1  0.758427  0.241573  0.000000  1
  Hg  Hg11  1  0.241573  0.758427  0.000000  1
  Se  Se12  1  0.492115  0.028244  0.286050  1
  Se  Se13  1  0.507885  0.971756  0.713950  1
  Se  Se14  1  0.971756  0.507885  0.713950  1
  Se  Se15  1  0.028244  0.492115  0.286050  1
  Se  Se16  1  0.756159  0.212837  0.284261  1
  Se  Se17  1  0.243841  0.787163  0.715739  1
  Se  Se18  1  0.787163  0.243841  0.715739  1
  Se  Se19  1  0.212837  0.756159  0.284261  1
  Br  Br20  1  0.130109  0.130109  0.012589  1
  Br  Br21  1  0.869891  0.869891  0.987411  1
  Br  Br22  1  0.623327  0.623327  0.008771  1
  Br  Br23  1  0.376673  0.376673  0.991229  1
  F  F24  1  0.598840  0.598840  0.452192  1
  F  F25  1  0.401160  0.401160  0.547808  1
  F  F26  1  0.859878  0.859878  0.526653  1
  F  F27  1  0.140122  0.140122  0.473347  1
