# generated using pymatgen
data_Ho2Co2P6Ru3Rh5
_symmetry_space_group_name_H-M   'P 1'
_cell_length_a   3.83663800
_cell_length_b   10.80267200
_cell_length_c   12.25397900
_cell_angle_alpha   90.00000000
_cell_angle_beta   90.00000000
_cell_angle_gamma   90.00000000
_symmetry_Int_Tables_number   1
_chemical_formula_structural   Ho2Co2P6Ru3Rh5
_chemical_formula_sum   'Ho4 Co4 P12 Ru6 Rh10'
_cell_volume   507.87770164
_cell_formula_units_Z   2
loop_
 _symmetry_equiv_pos_site_id
 _symmetry_equiv_pos_as_xyz
  1  'x, y, z'
loop_
 _atom_site_type_symbol
 _atom_site_label
 _atom_site_symmetry_multiplicity
 _atom_site_fract_x
 _atom_site_fract_y
 _atom_site_fract_z
 _atom_site_occupancy
  Ho  Ho0  1  0.250000  0.586359  0.706341  1
  Ho  Ho1  1  0.250000  0.913641  0.206341  1
  Ho  Ho2  1  0.750000  0.412669  0.294109  1
  Ho  Ho3  1  0.750000  0.087331  0.794109  1
  Co  Co4  1  0.250000  0.464298  0.933334  1
  Co  Co5  1  0.250000  0.035702  0.433334  1
  Co  Co6  1  0.750000  0.535070  0.066029  1
  Co  Co7  1  0.750000  0.964930  0.566029  1
  P  P8  1  0.250000  0.423688  0.106619  1
  P  P9  1  0.250000  0.076312  0.606619  1
  P  P10  1  0.750000  0.576342  0.892897  1
  P  P11  1  0.750000  0.923658  0.392897  1
  P  P12  1  0.250000  0.269403  0.877974  1
  P  P13  1  0.250000  0.230597  0.377974  1
  P  P14  1  0.750000  0.727305  0.123763  1
  P  P15  1  0.750000  0.772695  0.623763  1
  P  P16  1  0.250000  0.595644  0.390975  1
  P  P17  1  0.250000  0.904356  0.890975  1
  P  P18  1  0.750000  0.401290  0.607135  1
  P  P19  1  0.750000  0.098710  0.107135  1
  Ru  Ru20  1  0.250000  0.717444  0.989546  1
  Ru  Ru21  1  0.250000  0.782556  0.489546  1
  Ru  Ru22  1  0.750000  0.284207  0.009719  1
  Ru  Ru23  1  0.750000  0.215793  0.509719  1
  Ru  Ru24  1  0.250000  0.407382  0.489697  1
  Ru  Ru25  1  0.250000  0.092618  0.989697  1
  Rh  Rh26  1  0.750000  0.594429  0.513549  1
  Rh  Rh27  1  0.750000  0.905571  0.013549  1
  Rh  Rh28  1  0.250000  0.231808  0.181083  1
  Rh  Rh29  1  0.250000  0.268192  0.681083  1
  Rh  Rh30  1  0.750000  0.769151  0.818883  1
  Rh  Rh31  1  0.750000  0.730849  0.318883  1
  Rh  Rh32  1  0.250000  0.890297  0.700637  1
  Rh  Rh33  1  0.250000  0.609703  0.200637  1
  Rh  Rh34  1  0.750000  0.108752  0.297711  1
  Rh  Rh35  1  0.750000  0.391248  0.797711  1
