# generated using pymatgen
data_TbLuPa2(Al8Pt3)3
_symmetry_space_group_name_H-M   'P 1'
_cell_length_a   7.56264121
_cell_length_b   7.57162253
_cell_length_c   13.10206204
_cell_angle_alpha   84.50273174
_cell_angle_beta   78.91390240
_cell_angle_gamma   59.92768966
_symmetry_Int_Tables_number   1
_chemical_formula_structural   TbLuPa2(Al8Pt3)3
_chemical_formula_sum   'Tb1 Lu1 Pa2 Al24 Pt9'
_cell_volume   637.14011184
_cell_formula_units_Z   1
loop_
 _symmetry_equiv_pos_site_id
 _symmetry_equiv_pos_as_xyz
  1  'x, y, z'
loop_
 _atom_site_type_symbol
 _atom_site_label
 _atom_site_symmetry_multiplicity
 _atom_site_fract_x
 _atom_site_fract_y
 _atom_site_fract_z
 _atom_site_occupancy
  Tb  Tb0  1  0.733688  0.498388  0.808313  1
  Lu  Lu1  1  0.265589  0.501496  0.193187  1
  Pa  Pa2  1  0.394971  0.168367  0.805207  1
  Pa  Pa3  1  0.604875  0.831865  0.194677  1
  Al  Al4  1  0.684233  0.833672  0.944651  1
  Al  Al5  1  0.315531  0.167431  0.056238  1
  Al  Al6  1  0.145648  0.832565  0.561236  1
  Al  Al7  1  0.854520  0.167289  0.438428  1
  Al  Al8  1  0.480299  0.167630  0.557938  1
  Al  Al9  1  0.519730  0.832402  0.441726  1
  Al  Al10  1  0.215049  0.168227  0.329696  1
  Al  Al11  1  0.785406  0.832207  0.669419  1
  Al  Al12  1  0.437118  0.509203  0.670300  1
  Al  Al13  1  0.562585  0.490852  0.328902  1
  Al  Al14  1  0.107891  0.159418  0.668380  1
  Al  Al15  1  0.892991  0.840035  0.330772  1
  Al  Al16  1  0.352940  0.499564  0.944170  1
  Al  Al17  1  0.645373  0.500483  0.057384  1
  Al  Al18  1  0.015843  0.167705  0.952301  1
  Al  Al19  1  0.984706  0.831352  0.048833  1
  Al  Al20  1  0.185893  0.500264  0.441033  1
  Al  Al21  1  0.814330  0.499743  0.558531  1
  Al  Al22  1  0.735328  0.163064  0.182703  1
  Al  Al23  1  0.263743  0.837562  0.817268  1
  Al  Al24  1  0.062848  0.631177  0.816054  1
  Al  Al25  1  0.937947  0.369043  0.183889  1
  Al  Al26  1  0.855209  0.040118  0.816839  1
  Al  Al27  1  0.145086  0.958710  0.183089  1
  Pt  Pt28  1  0.120111  0.490981  0.639900  1
  Pt  Pt29  1  0.880812  0.509071  0.359643  1
  Pt  Pt30  1  0.656619  0.172658  0.999939  1
  Pt  Pt31  1  0.343181  0.827434  0.000223  1
  Pt  Pt32  1  0.536907  0.166865  0.360028  1
  Pt  Pt33  1  0.462624  0.833849  0.639508  1
  Pt  Pt34  1  0.777871  0.175214  0.638367  1
  Pt  Pt35  1  0.222415  0.823994  0.361115  1
  Pt  Pt36  1  0.000087  0.500102  0.000116  1
