# generated using pymatgen
data_Er4Tm12MgNi4Ag3
_symmetry_space_group_name_H-M   'P 1'
_cell_length_a   9.33738454
_cell_length_b   9.35718361
_cell_length_c   9.35718300
_cell_angle_alpha   60.00000569
_cell_angle_beta   59.92983834
_cell_angle_gamma   59.92984267
_symmetry_Int_Tables_number   1
_chemical_formula_structural   Er4Tm12MgNi4Ag3
_chemical_formula_sum   'Er4 Tm12 Mg1 Ni4 Ag3'
_cell_volume   577.48295895
_cell_formula_units_Z   1
loop_
 _symmetry_equiv_pos_site_id
 _symmetry_equiv_pos_as_xyz
  1  'x, y, z'
loop_
 _atom_site_type_symbol
 _atom_site_label
 _atom_site_symmetry_multiplicity
 _atom_site_fract_x
 _atom_site_fract_y
 _atom_site_fract_z
 _atom_site_occupancy
  Er  Er0  1  0.348655  0.347925  0.347925  1
  Er  Er1  1  0.348655  0.347925  0.955495  1
  Er  Er2  1  0.348655  0.955495  0.347925  1
  Er  Er3  1  0.943268  0.352244  0.352244  1
  Tm  Tm4  1  0.809779  0.189444  0.189444  1
  Tm  Tm5  1  0.187173  0.813007  0.813007  1
  Tm  Tm6  1  0.187173  0.813007  0.186814  1
  Tm  Tm7  1  0.809779  0.189444  0.811335  1
  Tm  Tm8  1  0.187173  0.186814  0.813007  1
  Tm  Tm9  1  0.809779  0.811335  0.189444  1
  Tm  Tm10  1  0.933830  0.564425  0.564425  1
  Tm  Tm11  1  0.563911  0.935781  0.935781  1
  Tm  Tm12  1  0.563911  0.935781  0.564528  1
  Tm  Tm13  1  0.933830  0.564425  0.937320  1
  Tm  Tm14  1  0.563911  0.564528  0.935781  1
  Tm  Tm15  1  0.933830  0.937320  0.564425  1
  Mg  Mg16  1  0.286609  0.571131  0.571131  1
  Ni  Ni17  1  0.139140  0.144636  0.144636  1
  Ni  Ni18  1  0.139140  0.144636  0.571590  1
  Ni  Ni19  1  0.139140  0.571590  0.144636  1
  Ni  Ni20  1  0.571521  0.142827  0.142827  1
  Ag  Ag21  1  0.583716  0.584213  0.584213  1
  Ag  Ag22  1  0.583716  0.584213  0.247860  1
  Ag  Ag23  1  0.583716  0.247860  0.584213  1
