# generated using pymatgen
data_ThTiP7Ru12
_symmetry_space_group_name_H-M   'P 1'
_cell_length_a   9.43453500
_cell_length_b   9.43453340
_cell_length_c   3.91137700
_cell_angle_alpha   90.00000000
_cell_angle_beta   90.00000000
_cell_angle_gamma   120.00000117
_symmetry_Int_Tables_number   1
_chemical_formula_structural   ThTiP7Ru12
_chemical_formula_sum   'Th1 Ti1 P7 Ru12'
_cell_volume   301.50965964
_cell_formula_units_Z   1
loop_
 _symmetry_equiv_pos_site_id
 _symmetry_equiv_pos_as_xyz
  1  'x, y, z'
loop_
 _atom_site_type_symbol
 _atom_site_label
 _atom_site_symmetry_multiplicity
 _atom_site_fract_x
 _atom_site_fract_y
 _atom_site_fract_z
 _atom_site_occupancy
  Th  Th0  1  0.333333  0.666667  0.000000  1
  Ti  Ti1  1  0.666667  0.333333  0.500000  1
  P  P2  1  0.605006  0.717891  0.500000  1
  P  P3  1  0.000000  0.000000  0.000000  1
  P  P4  1  0.282109  0.887115  0.500000  1
  P  P5  1  0.112885  0.394994  0.500000  1
  P  P6  1  0.884023  0.570879  0.000000  1
  P  P7  1  0.429121  0.313144  0.000000  1
  P  P8  1  0.686856  0.115977  0.000000  1
  Ru  Ru9  1  0.558491  0.955086  0.500000  1
  Ru  Ru10  1  0.396595  0.441509  0.500000  1
  Ru  Ru11  1  0.912330  0.121094  0.500000  1
  Ru  Ru12  1  0.208764  0.087670  0.500000  1
  Ru  Ru13  1  0.878906  0.791236  0.500000  1
  Ru  Ru14  1  0.726006  0.889346  0.000000  1
  Ru  Ru15  1  0.110654  0.836659  0.000000  1
  Ru  Ru16  1  0.163341  0.273994  0.000000  1
  Ru  Ru17  1  0.430222  0.077472  0.000000  1
  Ru  Ru18  1  0.922528  0.352751  0.000000  1
  Ru  Ru19  1  0.647249  0.569778  0.000000  1
  Ru  Ru20  1  0.044914  0.603405  0.500000  1
