# generated using pymatgen
data_Ac5U3O14
_symmetry_space_group_name_H-M   'P 1'
_cell_length_a   7.00296580
_cell_length_b   7.08611613
_cell_length_c   8.25571800
_cell_angle_alpha   106.60014387
_cell_angle_beta   89.71803483
_cell_angle_gamma   96.80847966
_symmetry_Int_Tables_number   1
_chemical_formula_structural   Ac5U3O14
_chemical_formula_sum   'Ac5 U3 O14'
_cell_volume   389.65652783
_cell_formula_units_Z   1
loop_
 _symmetry_equiv_pos_site_id
 _symmetry_equiv_pos_as_xyz
  1  'x, y, z'
loop_
 _atom_site_type_symbol
 _atom_site_label
 _atom_site_symmetry_multiplicity
 _atom_site_fract_x
 _atom_site_fract_y
 _atom_site_fract_z
 _atom_site_occupancy
  Ac  Ac0  1  0.456811  0.014336  0.253921  1
  Ac  Ac1  1  0.532497  0.006344  0.749533  1
  Ac  Ac2  1  0.261618  0.528086  0.881554  1
  Ac  Ac3  1  0.751848  0.470475  0.122481  1
  Ac  Ac4  1  0.763547  0.493558  0.622271  1
  U  U5  1  0.998784  0.003013  0.500475  1
  U  U6  1  0.994023  0.992818  0.992119  1
  U  U7  1  0.282306  0.558412  0.402412  1
  O  O8  1  0.420978  0.646728  0.186712  1
  O  O9  1  0.567617  0.370193  0.843954  1
  O  O10  1  0.285244  0.918784  0.952038  1
  O  O11  1  0.708039  0.082686  0.048942  1
  O  O12  1  0.291394  0.909663  0.502811  1
  O  O13  1  0.716254  0.092986  0.492622  1
  O  O14  1  0.524355  0.383098  0.349150  1
  O  O15  1  0.444021  0.640459  0.647738  1
  O  O16  1  0.923809  0.675275  0.944582  1
  O  O17  1  0.064107  0.301503  0.025315  1
  O  O18  1  0.083697  0.332346  0.606219  1
  O  O19  1  0.967297  0.630620  0.394947  1
  O  O20  1  0.876127  0.911060  0.723007  1
  O  O21  1  0.085625  0.037557  0.257198  1
