# generated using pymatgen
data_YHo7CrOs3C8
_symmetry_space_group_name_H-M   'P 1'
_cell_length_a   5.08709900
_cell_length_b   6.47201355
_cell_length_c   9.72944613
_cell_angle_alpha   90.08366269
_cell_angle_beta   90.00000000
_cell_angle_gamma   90.00000000
_symmetry_Int_Tables_number   1
_chemical_formula_structural   YHo7CrOs3C8
_chemical_formula_sum   'Y1 Ho7 Cr1 Os3 C8'
_cell_volume   320.32974080
_cell_formula_units_Z   1
loop_
 _symmetry_equiv_pos_site_id
 _symmetry_equiv_pos_as_xyz
  1  'x, y, z'
loop_
 _atom_site_type_symbol
 _atom_site_label
 _atom_site_symmetry_multiplicity
 _atom_site_fract_x
 _atom_site_fract_y
 _atom_site_fract_z
 _atom_site_occupancy
  Y  Y0  1  0.750000  0.973686  0.715958  1
  Ho  Ho1  1  0.250000  0.682343  0.557247  1
  Ho  Ho2  1  0.750000  0.321933  0.445836  1
  Ho  Ho3  1  0.750000  0.819402  0.052805  1
  Ho  Ho4  1  0.250000  0.176906  0.945235  1
  Ho  Ho5  1  0.250000  0.529854  0.212428  1
  Ho  Ho6  1  0.750000  0.471380  0.782652  1
  Ho  Ho7  1  0.250000  0.029738  0.287042  1
  Cr  Cr8  1  0.250000  0.725245  0.862955  1
  Os  Os9  1  0.750000  0.277220  0.134871  1
  Os  Os10  1  0.750000  0.778190  0.364605  1
  Os  Os11  1  0.250000  0.226687  0.637495  1
  C  C12  1  0.250000  0.464494  0.764521  1
  C  C13  1  0.750000  0.542752  0.241153  1
  C  C14  1  0.750000  0.042084  0.257933  1
  C  C15  1  0.250000  0.953785  0.743942  1
  C  C16  1  0.250000  0.814608  0.043149  1
  C  C17  1  0.750000  0.174110  0.948547  1
  C  C18  1  0.750000  0.672677  0.551789  1
  C  C19  1  0.250000  0.322904  0.449837  1
