# generated using pymatgen
data_Ca11Tm(AgPb)6
_symmetry_space_group_name_H-M   'P 1'
_cell_length_a   5.40687901
_cell_length_b   7.59188400
_cell_length_c   16.22495700
_cell_angle_alpha   90.00000000
_cell_angle_beta   89.99630171
_cell_angle_gamma   90.00000000
_symmetry_Int_Tables_number   1
_chemical_formula_structural   Ca11Tm(AgPb)6
_chemical_formula_sum   'Ca11 Tm1 Ag6 Pb6'
_cell_volume   666.00849523
_cell_formula_units_Z   1
loop_
 _symmetry_equiv_pos_site_id
 _symmetry_equiv_pos_as_xyz
  1  'x, y, z'
loop_
 _atom_site_type_symbol
 _atom_site_label
 _atom_site_symmetry_multiplicity
 _atom_site_fract_x
 _atom_site_fract_y
 _atom_site_fract_z
 _atom_site_occupancy
  Ca  Ca0  1  0.500000  0.754221  0.000000  1
  Ca  Ca1  1  0.999987  0.248455  0.169193  1
  Ca  Ca2  1  0.999976  0.750890  0.166521  1
  Ca  Ca3  1  0.500004  0.250326  0.333176  1
  Ca  Ca4  1  0.500015  0.746514  0.330801  1
  Ca  Ca5  1  0.000000  0.248763  0.500000  1
  Ca  Ca6  1  0.000000  0.750887  0.500000  1
  Ca  Ca7  1  0.499996  0.250326  0.666824  1
  Ca  Ca8  1  0.499985  0.746514  0.669199  1
  Ca  Ca9  1  0.000013  0.248455  0.830808  1
  Ca  Ca10  1  0.000024  0.750890  0.833480  1
  Tm  Tm11  1  0.500000  0.253138  0.000000  1
  Ag  Ag12  1  0.000000  0.485388  0.000000  1
  Ag  Ag13  1  0.499964  0.009580  0.161222  1
  Ag  Ag14  1  0.000052  0.499732  0.333782  1
  Ag  Ag15  1  0.500001  0.999060  0.500000  1
  Ag  Ag16  1  0.999948  0.499732  0.666219  1
  Ag  Ag17  1  0.500036  0.009580  0.838779  1
  Pb  Pb18  1  0.000000  0.011222  0.000000  1
  Pb  Pb19  1  0.499950  0.494070  0.162857  1
  Pb  Pb20  1  0.000029  0.997886  0.333382  1
  Pb  Pb21  1  0.500001  0.502416  0.500000  1
  Pb  Pb22  1  0.999971  0.997886  0.666618  1
  Pb  Pb23  1  0.500050  0.494070  0.837143  1
