# generated using pymatgen
data_YbHo3B16
_symmetry_space_group_name_H-M   'P 1'
_cell_length_a   7.09415544
_cell_length_b   7.09415685
_cell_length_c   4.01588900
_cell_angle_alpha   90.00000000
_cell_angle_beta   90.00000000
_cell_angle_gamma   90.14213014
_symmetry_Int_Tables_number   1
_chemical_formula_structural   YbHo3B16
_chemical_formula_sum   'Yb1 Ho3 B16'
_cell_volume   202.10723023
_cell_formula_units_Z   1
loop_
 _symmetry_equiv_pos_site_id
 _symmetry_equiv_pos_as_xyz
  1  'x, y, z'
loop_
 _atom_site_type_symbol
 _atom_site_label
 _atom_site_symmetry_multiplicity
 _atom_site_fract_x
 _atom_site_fract_y
 _atom_site_fract_z
 _atom_site_occupancy
  Yb  Yb0  1  0.817390  0.317390  0.000000  1
  Ho  Ho1  1  0.180646  0.680646  0.000000  1
  Ho  Ho2  1  0.318268  0.181976  0.000000  1
  Ho  Ho3  1  0.681976  0.818268  0.000000  1
  B  B4  1  0.501069  0.499964  0.797348  1
  B  B5  1  0.999964  0.001069  0.797348  1
  B  B6  1  0.501069  0.499964  0.202652  1
  B  B7  1  0.999964  0.001069  0.202652  1
  B  B8  1  0.586745  0.086745  0.500000  1
  B  B9  1  0.413153  0.913153  0.500000  1
  B  B10  1  0.086750  0.413718  0.500000  1
  B  B11  1  0.913718  0.586750  0.500000  1
  B  B12  1  0.676174  0.538688  0.500000  1
  B  B13  1  0.322989  0.462334  0.500000  1
  B  B14  1  0.175864  0.961192  0.500000  1
  B  B15  1  0.824363  0.037683  0.500000  1
  B  B16  1  0.461192  0.675864  0.500000  1
  B  B17  1  0.537683  0.324363  0.500000  1
  B  B18  1  0.038688  0.176174  0.500000  1
  B  B19  1  0.962334  0.822989  0.500000  1
