# generated using pymatgen
data_HoTm2In3Hg2Ir
_symmetry_space_group_name_H-M   'P 1'
_cell_length_a   7.93135983
_cell_length_b   7.92449335
_cell_length_c   3.87827700
_cell_angle_alpha   90.00000000
_cell_angle_beta   90.00000000
_cell_angle_gamma   119.90206797
_symmetry_Int_Tables_number   1
_chemical_formula_structural   HoTm2In3Hg2Ir
_chemical_formula_sum   'Ho1 Tm2 In3 Hg2 Ir1'
_cell_volume   211.30819673
_cell_formula_units_Z   1
loop_
 _symmetry_equiv_pos_site_id
 _symmetry_equiv_pos_as_xyz
  1  'x, y, z'
loop_
 _atom_site_type_symbol
 _atom_site_label
 _atom_site_symmetry_multiplicity
 _atom_site_fract_x
 _atom_site_fract_y
 _atom_site_fract_z
 _atom_site_occupancy
  Ho  Ho0  1  0.033533  0.418151  0.000000  1
  Tm  Tm1  1  0.580772  0.616260  0.000000  1
  Tm  Tm2  1  0.384199  0.964678  0.000000  1
  In  In3  1  0.001888  0.726591  0.500000  1
  In  In4  1  0.274148  0.275473  0.500000  1
  In  In5  1  0.724295  0.997939  0.500000  1
  Hg  Hg6  1  0.000085  0.999663  0.000000  1
  Hg  Hg7  1  0.665821  0.333172  0.500000  1
  Ir  Ir8  1  0.335259  0.668073  0.500000  1
