# generated using pymatgen
data_DyHo2Al12Ir3Os
_symmetry_space_group_name_H-M   'P 1'
_cell_length_a   8.83059800
_cell_length_b   8.82919577
_cell_length_c   9.49364200
_cell_angle_alpha   90.00000000
_cell_angle_beta   90.00000000
_cell_angle_gamma   120.00525378
_symmetry_Int_Tables_number   1
_chemical_formula_structural   DyHo2Al12Ir3Os
_chemical_formula_sum   'Dy2 Ho4 Al24 Ir6 Os2'
_cell_volume   640.99073075
_cell_formula_units_Z   2
loop_
 _symmetry_equiv_pos_site_id
 _symmetry_equiv_pos_as_xyz
  1  'x, y, z'
loop_
 _atom_site_type_symbol
 _atom_site_label
 _atom_site_symmetry_multiplicity
 _atom_site_fract_x
 _atom_site_fract_y
 _atom_site_fract_z
 _atom_site_occupancy
  Dy  Dy0  1  0.192071  0.384144  0.250000  1
  Dy  Dy1  1  0.807929  0.615856  0.750000  1
  Ho  Ho2  1  0.615472  0.807747  0.250000  1
  Ho  Ho3  1  0.384528  0.192253  0.750000  1
  Ho  Ho4  1  0.192274  0.807747  0.250000  1
  Ho  Ho5  1  0.807726  0.192253  0.750000  1
  Al  Al6  1  0.333355  0.666712  0.030825  1
  Al  Al7  1  0.666645  0.333288  0.969175  1
  Al  Al8  1  0.666645  0.333288  0.530825  1
  Al  Al9  1  0.333355  0.666712  0.469175  1
  Al  Al10  1  0.163576  0.327150  0.574953  1
  Al  Al11  1  0.836424  0.672850  0.425047  1
  Al  Al12  1  0.672881  0.836427  0.574882  1
  Al  Al13  1  0.836424  0.672850  0.074953  1
  Al  Al14  1  0.327119  0.163573  0.425118  1
  Al  Al15  1  0.163576  0.327150  0.925047  1
  Al  Al16  1  0.163546  0.836427  0.574882  1
  Al  Al17  1  0.327119  0.163573  0.074882  1
  Al  Al18  1  0.836454  0.163573  0.425118  1
  Al  Al19  1  0.672881  0.836427  0.925118  1
  Al  Al20  1  0.836454  0.163573  0.074882  1
  Al  Al21  1  0.163546  0.836427  0.925118  1
  Al  Al22  1  0.562012  0.124025  0.250000  1
  Al  Al23  1  0.437988  0.875975  0.750000  1
  Al  Al24  1  0.875857  0.438057  0.250000  1
  Al  Al25  1  0.124143  0.561943  0.750000  1
  Al  Al26  1  0.562200  0.438057  0.250000  1
  Al  Al27  1  0.437800  0.561943  0.750000  1
  Al  Al28  1  0.999917  0.999833  0.250000  1
  Al  Al29  1  0.000083  0.000167  0.750000  1
  Ir  Ir30  1  0.500000  0.000000  0.000000  1
  Ir  Ir31  1  0.000000  0.500000  0.000000  1
  Ir  Ir32  1  0.500000  0.000000  0.500000  1
  Ir  Ir33  1  0.500000  0.500000  0.000000  1
  Ir  Ir34  1  0.000000  0.500000  0.500000  1
  Ir  Ir35  1  0.500000  0.500000  0.500000  1
  Os  Os36  1  0.000000  0.000000  0.000000  1
  Os  Os37  1  0.000000  0.000000  0.500000  1
