# generated using pymatgen
data_Tb2YIn3Ga2Pd
_symmetry_space_group_name_H-M   'P 1'
_cell_length_a   7.27005100
_cell_length_b   7.26973235
_cell_length_c   4.44019100
_cell_angle_alpha   90.00000000
_cell_angle_beta   90.00000000
_cell_angle_gamma   119.99855615
_symmetry_Int_Tables_number   1
_chemical_formula_structural   Tb2YIn3Ga2Pd
_chemical_formula_sum   'Tb2 Y1 In3 Ga2 Pd1'
_cell_volume   203.23311884
_cell_formula_units_Z   1
loop_
 _symmetry_equiv_pos_site_id
 _symmetry_equiv_pos_as_xyz
  1  'x, y, z'
loop_
 _atom_site_type_symbol
 _atom_site_label
 _atom_site_symmetry_multiplicity
 _atom_site_fract_x
 _atom_site_fract_y
 _atom_site_fract_z
 _atom_site_occupancy
  Tb  Tb0  1  0.413079  0.412772  0.500000  1
  Tb  Tb1  1  0.586921  0.999692  0.500000  1
  Y  Y2  1  0.000000  0.587036  0.500000  1
  In  In3  1  0.751840  0.752156  0.000000  1
  In  In4  1  0.248160  0.000315  0.000000  1
  In  In5  1  0.000000  0.248108  0.000000  1
  Ga  Ga6  1  0.666630  0.333115  0.000000  1
  Ga  Ga7  1  0.333370  0.666485  0.000000  1
  Pd  Pd8  1  0.000000  0.000321  0.500000  1
