# generated using pymatgen
data_Dy8Ti7Ge16Mo5
_symmetry_space_group_name_H-M   'P 1'
_cell_length_a   6.94315492
_cell_length_b   7.10108432
_cell_length_c   13.41073325
_cell_angle_alpha   89.93843729
_cell_angle_beta   89.99685388
_cell_angle_gamma   90.06182797
_symmetry_Int_Tables_number   1
_chemical_formula_structural   Dy8Ti7Ge16Mo5
_chemical_formula_sum   'Dy8 Ti7 Ge16 Mo5'
_cell_volume   661.20106514
_cell_formula_units_Z   1
loop_
 _symmetry_equiv_pos_site_id
 _symmetry_equiv_pos_as_xyz
  1  'x, y, z'
loop_
 _atom_site_type_symbol
 _atom_site_label
 _atom_site_symmetry_multiplicity
 _atom_site_fract_x
 _atom_site_fract_y
 _atom_site_fract_z
 _atom_site_occupancy
  Dy  Dy0  1  0.003359  0.172550  0.404231  1
  Dy  Dy1  1  0.503803  0.325422  0.096014  1
  Dy  Dy2  1  0.496775  0.672388  0.596140  1
  Dy  Dy3  1  0.996065  0.826786  0.904015  1
  Dy  Dy4  1  0.996810  0.826590  0.596509  1
  Dy  Dy5  1  0.496076  0.673754  0.906073  1
  Dy  Dy6  1  0.502700  0.328088  0.402738  1
  Dy  Dy7  1  0.005650  0.170223  0.095608  1
  Ti  Ti8  1  0.837395  0.669988  0.370836  1
  Ti  Ti9  1  0.662423  0.168255  0.627557  1
  Ti  Ti10  1  0.162308  0.331213  0.873676  1
  Ti  Ti11  1  0.162726  0.331720  0.627523  1
  Ti  Ti12  1  0.661945  0.167669  0.872913  1
  Ti  Ti13  1  0.841319  0.669512  0.127422  1
  Ti  Ti14  1  0.335230  0.831018  0.371660  1
  Ge  Ge15  1  0.328447  0.043387  0.543874  1
  Ge  Ge16  1  0.828390  0.457414  0.956305  1
  Ge  Ge17  1  0.668851  0.957090  0.044821  1
  Ge  Ge18  1  0.171183  0.544086  0.455830  1
  Ge  Ge19  1  0.173399  0.542700  0.043974  1
  Ge  Ge20  1  0.669928  0.956823  0.455442  1
  Ge  Ge21  1  0.829815  0.456630  0.544595  1
  Ge  Ge22  1  0.326557  0.044094  0.956849  1
  Ge  Ge23  1  0.807389  0.365868  0.249021  1
  Ge  Ge24  1  0.308422  0.133475  0.250389  1
  Ge  Ge25  1  0.693237  0.864985  0.750143  1
  Ge  Ge26  1  0.194379  0.634454  0.750564  1
  Ge  Ge27  1  0.037056  0.873459  0.250502  1
  Ge  Ge28  1  0.535472  0.629452  0.248760  1
  Ge  Ge29  1  0.463003  0.371603  0.750492  1
  Ge  Ge30  1  0.964046  0.128260  0.750220  1
  Mo  Mo31  1  0.334758  0.832542  0.126988  1
  Mo  Mo32  1  0.334143  0.009656  0.750219  1
  Mo  Mo33  1  0.666300  0.987093  0.249037  1
  Mo  Mo34  1  0.164770  0.513501  0.248800  1
  Mo  Mo35  1  0.835868  0.488249  0.750262  1
