# generated using pymatgen
data_Tb6MgCo16NiP12
_symmetry_space_group_name_H-M   'P 1'
_cell_length_a   3.72813500
_cell_length_b   10.55554000
_cell_length_c   12.28138900
_cell_angle_alpha   90.00000000
_cell_angle_beta   90.00000000
_cell_angle_gamma   90.00000000
_symmetry_Int_Tables_number   1
_chemical_formula_structural   Tb6MgCo16NiP12
_chemical_formula_sum   'Tb6 Mg1 Co16 Ni1 P12'
_cell_volume   483.30309188
_cell_formula_units_Z   1
loop_
 _symmetry_equiv_pos_site_id
 _symmetry_equiv_pos_as_xyz
  1  'x, y, z'
loop_
 _atom_site_type_symbol
 _atom_site_label
 _atom_site_symmetry_multiplicity
 _atom_site_fract_x
 _atom_site_fract_y
 _atom_site_fract_z
 _atom_site_occupancy
  Tb  Tb0  1  0.000000  0.500000  0.523324  1
  Tb  Tb1  1  0.500000  0.000000  0.478410  1
  Tb  Tb2  1  0.500000  0.820697  0.207757  1
  Tb  Tb3  1  0.500000  0.179303  0.207757  1
  Tb  Tb4  1  0.000000  0.684773  0.795642  1
  Tb  Tb5  1  0.000000  0.315227  0.795642  1
  Mg  Mg6  1  0.500000  0.500000  0.152508  1
  Co  Co7  1  0.000000  0.000000  0.837788  1
  Co  Co8  1  0.000000  0.000000  0.296232  1
  Co  Co9  1  0.000000  0.500000  0.986390  1
  Co  Co10  1  0.500000  0.000000  0.014025  1
  Co  Co11  1  0.500000  0.328717  0.992808  1
  Co  Co12  1  0.500000  0.671283  0.992808  1
  Co  Co13  1  0.000000  0.162646  0.001705  1
  Co  Co14  1  0.000000  0.837354  0.001705  1
  Co  Co15  1  0.500000  0.296001  0.432873  1
  Co  Co16  1  0.500000  0.703999  0.432873  1
  Co  Co17  1  0.000000  0.201809  0.570366  1
  Co  Co18  1  0.000000  0.798191  0.570366  1
  Co  Co19  1  0.500000  0.880032  0.708939  1
  Co  Co20  1  0.500000  0.119968  0.708939  1
  Co  Co21  1  0.000000  0.622441  0.293401  1
  Co  Co22  1  0.000000  0.377559  0.293401  1
  Ni  Ni23  1  0.500000  0.500000  0.703872  1
  P  P24  1  0.500000  0.500000  0.884762  1
  P  P25  1  0.000000  0.000000  0.116764  1
  P  P26  1  0.500000  0.500000  0.352312  1
  P  P27  1  0.000000  0.000000  0.655449  1
  P  P28  1  0.500000  0.308189  0.616128  1
  P  P29  1  0.500000  0.691811  0.616128  1
  P  P30  1  0.000000  0.189572  0.385903  1
  P  P31  1  0.000000  0.810428  0.385903  1
  P  P32  1  0.500000  0.851120  0.890912  1
  P  P33  1  0.500000  0.148880  0.890912  1
  P  P34  1  0.000000  0.662674  0.102648  1
  P  P35  1  0.000000  0.337326  0.102648  1
