# generated using pymatgen
data_Pr19NdIr12
_symmetry_space_group_name_H-M   'P 1'
_cell_length_a   11.33853200
_cell_length_b   11.33853200
_cell_length_c   6.64977200
_cell_angle_alpha   90.00000000
_cell_angle_beta   90.00000000
_cell_angle_gamma   90.00000000
_symmetry_Int_Tables_number   1
_chemical_formula_structural   Pr19NdIr12
_chemical_formula_sum   'Pr19 Nd1 Ir12'
_cell_volume   854.91003543
_cell_formula_units_Z   1
loop_
 _symmetry_equiv_pos_site_id
 _symmetry_equiv_pos_as_xyz
  1  'x, y, z'
loop_
 _atom_site_type_symbol
 _atom_site_label
 _atom_site_symmetry_multiplicity
 _atom_site_fract_x
 _atom_site_fract_y
 _atom_site_fract_z
 _atom_site_occupancy
  Pr  Pr0  1  0.090137  0.291938  0.117470  1
  Pr  Pr1  1  0.791968  0.409851  0.117409  1
  Pr  Pr2  1  0.208032  0.590149  0.117409  1
  Pr  Pr3  1  0.909863  0.708062  0.117470  1
  Pr  Pr4  1  0.409820  0.791972  0.382579  1
  Pr  Pr5  1  0.590180  0.208028  0.382579  1
  Pr  Pr6  1  0.291852  0.090139  0.382638  1
  Pr  Pr7  1  0.708148  0.909861  0.382638  1
  Pr  Pr8  1  0.409851  0.208032  0.882591  1
  Pr  Pr9  1  0.708062  0.090137  0.882530  1
  Pr  Pr10  1  0.291938  0.909863  0.882530  1
  Pr  Pr11  1  0.590149  0.791968  0.882591  1
  Pr  Pr12  1  0.090139  0.708148  0.617362  1
  Pr  Pr13  1  0.909861  0.291852  0.617362  1
  Pr  Pr14  1  0.208028  0.409820  0.617421  1
  Pr  Pr15  1  0.791972  0.590180  0.617421  1
  Pr  Pr16  1  0.000000  0.000000  0.000000  1
  Pr  Pr17  1  0.500000  0.500000  0.000000  1
  Pr  Pr18  1  0.500000  0.500000  0.500000  1
  Nd  Nd19  1  0.000000  0.000000  0.500000  1
  Ir  Ir20  1  0.153377  0.846614  0.250348  1
  Ir  Ir21  1  0.346383  0.346397  0.249986  1
  Ir  Ir22  1  0.653617  0.653603  0.249986  1
  Ir  Ir23  1  0.846623  0.153386  0.250348  1
  Ir  Ir24  1  0.346397  0.653617  0.750014  1
  Ir  Ir25  1  0.153386  0.153377  0.749652  1
  Ir  Ir26  1  0.846614  0.846623  0.749652  1
  Ir  Ir27  1  0.653603  0.346383  0.750014  1
  Ir  Ir28  1  0.000000  0.500000  0.379942  1
  Ir  Ir29  1  0.500000  0.000000  0.120024  1
  Ir  Ir30  1  0.500000  0.000000  0.620058  1
  Ir  Ir31  1  0.000000  0.500000  0.879976  1
