# generated using pymatgen
data_Tb20IrRu9Rh2
_symmetry_space_group_name_H-M   'P 1'
_cell_length_a   10.86947398
_cell_length_b   10.86947380
_cell_length_c   6.42308716
_cell_angle_alpha   90.00022102
_cell_angle_beta   90.00022142
_cell_angle_gamma   89.95733309
_symmetry_Int_Tables_number   1
_chemical_formula_structural   Tb20IrRu9Rh2
_chemical_formula_sum   'Tb20 Ir1 Ru9 Rh2'
_cell_volume   758.85839318
_cell_formula_units_Z   1
loop_
 _symmetry_equiv_pos_site_id
 _symmetry_equiv_pos_as_xyz
  1  'x, y, z'
loop_
 _atom_site_type_symbol
 _atom_site_label
 _atom_site_symmetry_multiplicity
 _atom_site_fract_x
 _atom_site_fract_y
 _atom_site_fract_z
 _atom_site_occupancy
  Tb  Tb0  1  0.292506  0.088286  0.377777  1
  Tb  Tb1  1  0.293574  0.914622  0.876034  1
  Tb  Tb2  1  0.706684  0.086536  0.875912  1
  Tb  Tb3  1  0.707723  0.911817  0.377962  1
  Tb  Tb4  1  0.587052  0.792109  0.877647  1
  Tb  Tb5  1  0.585581  0.207561  0.377462  1
  Tb  Tb6  1  0.414993  0.792568  0.377517  1
  Tb  Tb7  1  0.413228  0.208718  0.877693  1
  Tb  Tb8  1  0.207891  0.412948  0.622353  1
  Tb  Tb9  1  0.207432  0.585007  0.122483  1
  Tb  Tb10  1  0.792439  0.414419  0.122538  1
  Tb  Tb11  1  0.791282  0.586772  0.622307  1
  Tb  Tb12  1  0.911714  0.707494  0.122223  1
  Tb  Tb13  1  0.913464  0.293316  0.624088  1
  Tb  Tb14  1  0.085378  0.706426  0.623966  1
  Tb  Tb15  1  0.088183  0.292277  0.122038  1
  Tb  Tb16  1  0.000140  0.999990  0.502152  1
  Tb  Tb17  1  0.000010  0.999860  0.997848  1
  Tb  Tb18  1  0.501277  0.499579  0.000880  1
  Tb  Tb19  1  0.500421  0.498723  0.499120  1
  Ir  Ir20  1  0.345611  0.654389  0.750000  1
  Ru  Ru21  1  0.848663  0.848409  0.749716  1
  Ru  Ru22  1  0.151591  0.151337  0.750284  1
  Ru  Ru23  1  0.653392  0.346608  0.750000  1
  Ru  Ru24  1  0.651981  0.653180  0.250528  1
  Ru  Ru25  1  0.346820  0.348019  0.249472  1
  Ru  Ru26  1  0.500131  0.999657  0.123888  1
  Ru  Ru27  1  0.499925  0.000228  0.623503  1
  Ru  Ru28  1  0.999772  0.500075  0.876497  1
  Ru  Ru29  1  0.000343  0.499869  0.376112  1
  Rh  Rh30  1  0.847198  0.152802  0.250000  1
  Rh  Rh31  1  0.153600  0.846400  0.250000  1
