# generated using pymatgen
data_AcLa(Co3Si2)2
_symmetry_space_group_name_H-M   'P 1'
_cell_length_a   5.43302224
_cell_length_b   6.44684564
_cell_length_c   6.44684512
_cell_angle_alpha   64.07983411
_cell_angle_beta   65.07884706
_cell_angle_gamma   65.07885138
_symmetry_Int_Tables_number   1
_chemical_formula_structural   AcLa(Co3Si2)2
_chemical_formula_sum   'Ac1 La1 Co6 Si4'
_cell_volume   176.22217684
_cell_formula_units_Z   1
loop_
 _symmetry_equiv_pos_site_id
 _symmetry_equiv_pos_as_xyz
  1  'x, y, z'
loop_
 _atom_site_type_symbol
 _atom_site_label
 _atom_site_symmetry_multiplicity
 _atom_site_fract_x
 _atom_site_fract_y
 _atom_site_fract_z
 _atom_site_occupancy
  Ac  Ac0  1  0.539063  0.750000  0.750000  1
  La  La1  1  0.456648  0.250000  0.250000  1
  Co  Co2  1  0.499425  0.219997  0.783128  1
  Co  Co3  1  0.002550  0.716872  0.280003  1
  Co  Co4  1  0.499425  0.783128  0.219997  1
  Co  Co5  1  0.002550  0.280003  0.716872  1
  Co  Co6  1  0.001264  0.500337  0.999663  1
  Co  Co7  1  0.001264  0.999663  0.500337  1
  Si  Si8  1  0.223590  0.575717  0.575717  1
  Si  Si9  1  0.780827  0.418771  0.418771  1
  Si  Si10  1  0.118367  0.081229  0.081229  1
  Si  Si11  1  0.875025  0.924283  0.924283  1
