# generated using pymatgen
data_Ti8Al5Ga10Ir7
_symmetry_space_group_name_H-M   'P 1'
_cell_length_a   8.66860594
_cell_length_b   8.69179742
_cell_length_c   8.69179803
_cell_angle_alpha   120.44860093
_cell_angle_beta   119.71064630
_cell_angle_gamma   89.93894098
_symmetry_Int_Tables_number   1
_chemical_formula_structural   Ti8Al5Ga10Ir7
_chemical_formula_sum   'Ti8 Al5 Ga10 Ir7'
_cell_volume   462.18916715
_cell_formula_units_Z   1
loop_
 _symmetry_equiv_pos_site_id
 _symmetry_equiv_pos_as_xyz
  1  'x, y, z'
loop_
 _atom_site_type_symbol
 _atom_site_label
 _atom_site_symmetry_multiplicity
 _atom_site_fract_x
 _atom_site_fract_y
 _atom_site_fract_z
 _atom_site_occupancy
  Ti  Ti0  1  0.793076  0.290776  0.076110  1
  Ti  Ti1  1  0.215968  0.288830  0.494666  1
  Ti  Ti2  1  0.205941  0.706288  0.499653  1
  Ti  Ti3  1  0.215968  0.721304  0.927138  1
  Ti  Ti4  1  0.793076  0.716967  0.502299  1
  Ti  Ti5  1  0.780577  0.282680  0.497897  1
  Ti  Ti6  1  0.377516  0.124303  0.746695  1
  Ti  Ti7  1  0.377516  0.630821  0.253213  1
  Al  Al8  1  0.865695  0.122279  0.743416  1
  Al  Al9  1  0.622945  0.875475  0.255583  1
  Al  Al10  1  0.622945  0.367363  0.747471  1
  Al  Al11  1  0.621450  0.876761  0.744689  1
  Al  Al12  1  0.132831  0.875820  0.257013  1
  Ga  Ga13  1  0.996705  0.495262  0.501443  1
  Ga  Ga14  1  0.150780  0.348784  0.195508  1
  Ga  Ga15  1  0.150780  0.955272  0.801998  1
  Ga  Ga16  1  0.148513  0.351857  0.796656  1
  Ga  Ga17  1  0.552151  0.351462  0.200690  1
  Ga  Ga18  1  0.849470  0.649025  0.799652  1
  Ga  Ga19  1  0.849470  0.049819  0.200444  1
  Ga  Ga20  1  0.847373  0.651149  0.196223  1
  Ga  Ga21  1  0.455222  0.651140  0.804082  1
  Ga  Ga22  1  0.379773  0.120924  0.258851  1
  Ir  Ir23  1  0.000232  0.001045  0.501472  1
  Ir  Ir24  1  0.498882  0.000711  0.998577  1
  Ir  Ir25  1  0.498266  0.498455  0.999812  1
  Ir  Ir26  1  0.498882  0.500304  0.498171  1
  Ir  Ir27  1  0.000232  0.498759  0.999187  1
  Ir  Ir28  1  0.997895  0.999226  0.998669  1
  Ir  Ir29  1  0.499863  0.997138  0.502725  1
