# generated using pymatgen
data_Tm3Sn2PtRh2Pb
_symmetry_space_group_name_H-M   'P 1'
_cell_length_a   7.66296037
_cell_length_b   7.65746799
_cell_length_c   3.75518200
_cell_angle_alpha   90.00000000
_cell_angle_beta   90.00000000
_cell_angle_gamma   119.67526191
_symmetry_Int_Tables_number   1
_chemical_formula_structural   Tm3Sn2PtRh2Pb
_chemical_formula_sum   'Tm3 Sn2 Pt1 Rh2 Pb1'
_cell_volume   191.44994365
_cell_formula_units_Z   1
loop_
 _symmetry_equiv_pos_site_id
 _symmetry_equiv_pos_as_xyz
  1  'x, y, z'
loop_
 _atom_site_type_symbol
 _atom_site_label
 _atom_site_symmetry_multiplicity
 _atom_site_fract_x
 _atom_site_fract_y
 _atom_site_fract_z
 _atom_site_occupancy
  Tm  Tm0  1  0.999186  0.404725  0.000000  1
  Tm  Tm1  1  0.598078  0.600312  0.000000  1
  Tm  Tm2  1  0.401973  0.994464  0.000000  1
  Sn  Sn3  1  0.003605  0.737532  0.500000  1
  Sn  Sn4  1  0.732757  0.994697  0.500000  1
  Pt  Pt5  1  0.675512  0.335762  0.500000  1
  Rh  Rh6  1  0.335891  0.675117  0.500000  1
  Rh  Rh7  1  0.990158  0.990229  0.000000  1
  Pb  Pb8  1  0.262840  0.267163  0.500000  1
