# generated using pymatgen
data_Tb5(Tl2Pd)2
_symmetry_space_group_name_H-M   'P 1'
_cell_length_a   3.64100700
_cell_length_b   8.23522605
_cell_length_c   18.43033400
_cell_angle_alpha   89.95067897
_cell_angle_beta   90.00000000
_cell_angle_gamma   90.00000000
_symmetry_Int_Tables_number   1
_chemical_formula_structural   Tb5(Tl2Pd)2
_chemical_formula_sum   'Tb10 Tl8 Pd4'
_cell_volume   552.62443441
_cell_formula_units_Z   2
loop_
 _symmetry_equiv_pos_site_id
 _symmetry_equiv_pos_as_xyz
  1  'x, y, z'
loop_
 _atom_site_type_symbol
 _atom_site_label
 _atom_site_symmetry_multiplicity
 _atom_site_fract_x
 _atom_site_fract_y
 _atom_site_fract_z
 _atom_site_occupancy
  Tb  Tb0  1  0.000000  0.499323  0.500021  1
  Tb  Tb1  1  0.000000  0.999972  0.999986  1
  Tb  Tb2  1  0.000000  0.740541  0.281825  1
  Tb  Tb3  1  0.000000  0.259712  0.718383  1
  Tb  Tb4  1  0.000000  0.759693  0.781073  1
  Tb  Tb5  1  0.000000  0.240044  0.218510  1
  Tb  Tb6  1  0.000000  0.617128  0.084815  1
  Tb  Tb7  1  0.000000  0.383045  0.915195  1
  Tb  Tb8  1  0.000000  0.882526  0.584607  1
  Tb  Tb9  1  0.000000  0.117258  0.415723  1
  Tl  Tl10  1  0.500000  0.707347  0.933304  1
  Tl  Tl11  1  0.500000  0.292968  0.066565  1
  Tl  Tl12  1  0.500000  0.792897  0.433608  1
  Tl  Tl13  1  0.500000  0.206929  0.566828  1
  Tl  Tl14  1  0.500000  0.582298  0.649537  1
  Tl  Tl15  1  0.500000  0.416051  0.350135  1
  Tl  Tl16  1  0.500000  0.916346  0.150037  1
  Tl  Tl17  1  0.500000  0.083358  0.849992  1
  Pd  Pd18  1  0.500000  0.526354  0.197004  1
  Pd  Pd19  1  0.500000  0.474244  0.803073  1
  Pd  Pd20  1  0.500000  0.975561  0.696290  1
  Pd  Pd21  1  0.500000  0.026404  0.303489  1
