# generated using pymatgen
data_Tm8Tc3RuC8
_symmetry_space_group_name_H-M   'P 1'
_cell_length_a   5.01728100
_cell_length_b   6.47779225
_cell_length_c   9.72901507
_cell_angle_alpha   90.11846170
_cell_angle_beta   90.00000000
_cell_angle_gamma   90.00000000
_symmetry_Int_Tables_number   1
_chemical_formula_structural   Tm8Tc3RuC8
_chemical_formula_sum   'Tm8 Tc3 Ru1 C8'
_cell_volume   316.20110869
_cell_formula_units_Z   1
loop_
 _symmetry_equiv_pos_site_id
 _symmetry_equiv_pos_as_xyz
  1  'x, y, z'
loop_
 _atom_site_type_symbol
 _atom_site_label
 _atom_site_symmetry_multiplicity
 _atom_site_fract_x
 _atom_site_fract_y
 _atom_site_fract_z
 _atom_site_occupancy
  Tm  Tm0  1  0.250000  0.823751  0.941539  1
  Tm  Tm1  1  0.250000  0.323434  0.558802  1
  Tm  Tm2  1  0.750000  0.176452  0.058223  1
  Tm  Tm3  1  0.750000  0.674564  0.442482  1
  Tm  Tm4  1  0.250000  0.465124  0.217900  1
  Tm  Tm5  1  0.250000  0.966826  0.283713  1
  Tm  Tm6  1  0.750000  0.532815  0.782033  1
  Tm  Tm7  1  0.750000  0.033112  0.717406  1
  Tc  Tc8  1  0.250000  0.283830  0.869118  1
  Tc  Tc9  1  0.250000  0.783527  0.631245  1
  Tc  Tc10  1  0.750000  0.716074  0.132071  1
  Ru  Ru11  1  0.750000  0.216080  0.368256  1
  C  C12  1  0.250000  0.050613  0.740909  1
  C  C13  1  0.250000  0.550926  0.758703  1
  C  C14  1  0.750000  0.949129  0.257324  1
  C  C15  1  0.750000  0.450583  0.241008  1
  C  C16  1  0.250000  0.675314  0.445575  1
  C  C17  1  0.250000  0.175369  0.053986  1
  C  C18  1  0.750000  0.326916  0.552454  1
  C  C19  1  0.750000  0.825559  0.947255  1
