# generated using pymatgen
data_Tm3GaSn3IrRu
_symmetry_space_group_name_H-M   'P 1'
_cell_length_a   7.42676600
_cell_length_b   7.42676548
_cell_length_c   4.02845700
_cell_angle_alpha   90.00000000
_cell_angle_beta   90.00000000
_cell_angle_gamma   119.99999341
_symmetry_Int_Tables_number   1
_chemical_formula_structural   Tm3GaSn3IrRu
_chemical_formula_sum   'Tm3 Ga1 Sn3 Ir1 Ru1'
_cell_volume   192.42825584
_cell_formula_units_Z   1
loop_
 _symmetry_equiv_pos_site_id
 _symmetry_equiv_pos_as_xyz
  1  'x, y, z'
loop_
 _atom_site_type_symbol
 _atom_site_label
 _atom_site_symmetry_multiplicity
 _atom_site_fract_x
 _atom_site_fract_y
 _atom_site_fract_z
 _atom_site_occupancy
  Tm  Tm0  1  0.984007  0.395017  0.500000  1
  Tm  Tm1  1  0.604983  0.588990  0.500000  1
  Tm  Tm2  1  0.411010  0.015993  0.500000  1
  Ga  Ga3  1  0.333333  0.666667  0.000000  1
  Sn  Sn4  1  0.997416  0.744788  0.000000  1
  Sn  Sn5  1  0.255212  0.252628  0.000000  1
  Sn  Sn6  1  0.747372  0.002584  0.000000  1
  Ir  Ir7  1  0.666667  0.333333  0.000000  1
  Ru  Ru8  1  0.000000  0.000000  0.500000  1
