# generated using pymatgen
data_Zr18FeRe5Mo3Pt
_symmetry_space_group_name_H-M   'P 1'
_cell_length_a   8.77096743
_cell_length_b   8.78758151
_cell_length_c   8.56088600
_cell_angle_alpha   90.00000000
_cell_angle_beta   90.00000000
_cell_angle_gamma   120.06267783
_symmetry_Int_Tables_number   1
_chemical_formula_structural   Zr18FeRe5Mo3Pt
_chemical_formula_sum   'Zr18 Fe1 Re5 Mo3 Pt1'
_cell_volume   571.07292534
_cell_formula_units_Z   1
loop_
 _symmetry_equiv_pos_site_id
 _symmetry_equiv_pos_as_xyz
  1  'x, y, z'
loop_
 _atom_site_type_symbol
 _atom_site_label
 _atom_site_symmetry_multiplicity
 _atom_site_fract_x
 _atom_site_fract_y
 _atom_site_fract_z
 _atom_site_occupancy
  Zr  Zr0  1  0.201355  0.798918  0.440523  1
  Zr  Zr1  1  0.201355  0.402437  0.440523  1
  Zr  Zr2  1  0.597479  0.798740  0.439861  1
  Zr  Zr3  1  0.806154  0.195140  0.550898  1
  Zr  Zr4  1  0.806154  0.611014  0.550898  1
  Zr  Zr5  1  0.387985  0.193993  0.552636  1
  Zr  Zr6  1  0.806154  0.195140  0.949102  1
  Zr  Zr7  1  0.806154  0.611014  0.949102  1
  Zr  Zr8  1  0.387985  0.193993  0.947364  1
  Zr  Zr9  1  0.201355  0.798918  0.059477  1
  Zr  Zr10  1  0.201355  0.402437  0.059477  1
  Zr  Zr11  1  0.597479  0.798740  0.060139  1
  Zr  Zr12  1  0.540713  0.458024  0.250000  1
  Zr  Zr13  1  0.540713  0.082689  0.250000  1
  Zr  Zr14  1  0.917682  0.458841  0.250000  1
  Zr  Zr15  1  0.455184  0.540354  0.750000  1
  Zr  Zr16  1  0.455184  0.914831  0.750000  1
  Zr  Zr17  1  0.084411  0.542206  0.750000  1
  Fe  Fe18  1  0.333274  0.666637  0.250000  1
  Re  Re19  1  0.891699  0.108724  0.250000  1
  Re  Re20  1  0.891699  0.782977  0.250000  1
  Re  Re21  1  0.216718  0.108359  0.250000  1
  Re  Re22  1  0.111559  0.890842  0.750000  1
  Re  Re23  1  0.111559  0.220717  0.750000  1
  Mo  Mo24  1  0.780751  0.890376  0.750000  1
  Mo  Mo25  1  0.000620  0.000310  0.500481  1
  Mo  Mo26  1  0.000620  0.000310  0.999519  1
  Pt  Pt27  1  0.666645  0.333322  0.750000  1
