# generated using pymatgen
data_Cs7Rb(LaI5)4
_symmetry_space_group_name_H-M   'P 1'
_cell_length_a   9.81908922
_cell_length_b   10.29412295
_cell_length_c   15.62535546
_cell_angle_alpha   89.93466165
_cell_angle_beta   89.93091319
_cell_angle_gamma   90.23898436
_symmetry_Int_Tables_number   1
_chemical_formula_structural   Cs7Rb(LaI5)4
_chemical_formula_sum   'Cs7 Rb1 La4 I20'
_cell_volume   1579.37800063
_cell_formula_units_Z   1
loop_
 _symmetry_equiv_pos_site_id
 _symmetry_equiv_pos_as_xyz
  1  'x, y, z'
loop_
 _atom_site_type_symbol
 _atom_site_label
 _atom_site_symmetry_multiplicity
 _atom_site_fract_x
 _atom_site_fract_y
 _atom_site_fract_z
 _atom_site_occupancy
  Cs  Cs0  1  0.056523  0.996269  0.172202  1
  Cs  Cs1  1  0.443383  0.996281  0.672610  1
  Cs  Cs2  1  0.056501  0.503758  0.172116  1
  Cs  Cs3  1  0.556608  0.003700  0.327547  1
  Cs  Cs4  1  0.943343  0.496243  0.827597  1
  Cs  Cs5  1  0.556578  0.496325  0.327552  1
  Cs  Cs6  1  0.443441  0.503688  0.672659  1
  Rb  Rb7  1  0.944566  0.003239  0.827636  1
  La  La8  1  0.928868  0.750130  0.503948  1
  La  La9  1  0.070921  0.249831  0.496735  1
  La  La10  1  0.428691  0.249480  0.996067  1
  La  La11  1  0.571419  0.750677  0.003331  1
  I  I12  1  0.115396  0.752569  0.673628  1
  I  I13  1  0.882800  0.249914  0.328082  1
  I  I14  1  0.619598  0.248571  0.828092  1
  I  I15  1  0.382654  0.749909  0.172151  1
  I  I16  1  0.840616  0.043849  0.572141  1
  I  I17  1  0.159480  0.956056  0.428681  1
  I  I18  1  0.339792  0.955446  0.928559  1
  I  I19  1  0.159665  0.544516  0.428871  1
  I  I20  1  0.659244  0.044577  0.071351  1
  I  I21  1  0.840441  0.455649  0.571227  1
  I  I22  1  0.659701  0.456369  0.071221  1
  I  I23  1  0.340680  0.543690  0.928689  1
  I  I24  1  0.596823  0.749709  0.512162  1
  I  I25  1  0.402816  0.250371  0.488057  1
  I  I26  1  0.095148  0.246404  0.985623  1
  I  I27  1  0.904038  0.752922  0.010313  1
  I  I28  1  0.656684  0.753368  0.805049  1
  I  I29  1  0.346231  0.250081  0.194749  1
  I  I30  1  0.150696  0.246493  0.696322  1
  I  I31  1  0.846654  0.749920  0.305031  1
