# generated using pymatgen
data_La(Pr3Ni8)2
_symmetry_space_group_name_H-M   'P 1'
_cell_length_a   8.88043471
_cell_length_b   8.88043479
_cell_length_c   8.88043409
_cell_angle_alpha   131.39996245
_cell_angle_beta   131.39995896
_cell_angle_gamma   71.17839097
_symmetry_Int_Tables_number   1
_chemical_formula_structural   La(Pr3Ni8)2
_chemical_formula_sum   'La1 Pr6 Ni16'
_cell_volume   385.77695125
_cell_formula_units_Z   1
loop_
 _symmetry_equiv_pos_site_id
 _symmetry_equiv_pos_as_xyz
  1  'x, y, z'
loop_
 _atom_site_type_symbol
 _atom_site_label
 _atom_site_symmetry_multiplicity
 _atom_site_fract_x
 _atom_site_fract_y
 _atom_site_fract_z
 _atom_site_occupancy
  La  La0  1  0.250000  0.750000  0.500000  1
  Pr  Pr1  1  0.094283  0.094827  0.395520  1
  Pr  Pr2  1  0.699305  0.698762  0.604480  1
  Pr  Pr3  1  0.905173  0.300695  0.999456  1
  Pr  Pr4  1  0.750000  0.250000  0.500000  1
  Pr  Pr5  1  0.500000  0.500000  0.000000  1
  Pr  Pr6  1  0.301238  0.905717  0.000544  1
  Ni  Ni7  1  0.432831  0.196891  0.001882  1
  Ni  Ni8  1  0.681913  0.932673  0.481967  1
  Ni  Ni9  1  0.932578  0.681530  0.481967  1
  Ni  Ni10  1  0.195008  0.430949  0.998118  1
  Ni  Ni11  1  0.318470  0.800436  0.251047  1
  Ni  Ni12  1  0.941592  0.660832  0.000250  1
  Ni  Ni13  1  0.803109  0.804992  0.235941  1
  Ni  Ni14  1  0.067327  0.549294  0.749241  1
  Ni  Ni15  1  0.058658  0.058408  0.719240  1
  Ni  Ni16  1  0.660582  0.941342  0.999750  1
  Ni  Ni17  1  0.569051  0.567169  0.764059  1
  Ni  Ni18  1  0.800053  0.318087  0.250759  1
  Ni  Ni19  1  0.549389  0.067422  0.748953  1
  Ni  Ni20  1  0.199564  0.450611  0.518033  1
  Ni  Ni21  1  0.339168  0.339418  0.280760  1
  Ni  Ni22  1  0.450706  0.199947  0.518033  1
