# generated using pymatgen
data_Sm8Cu3Si12Ag
_symmetry_space_group_name_H-M   'P 1'
_cell_length_a   10.88519782
_cell_length_b   9.17268519
_cell_length_c   8.27962800
_cell_angle_alpha   76.98956455
_cell_angle_beta   55.16557115
_cell_angle_gamma   47.83766547
_symmetry_Int_Tables_number   1
_chemical_formula_structural   Sm8Cu3Si12Ag
_chemical_formula_sum   'Sm8 Cu3 Si12 Ag1'
_cell_volume   485.65591868
_cell_formula_units_Z   1
loop_
 _symmetry_equiv_pos_site_id
 _symmetry_equiv_pos_as_xyz
  1  'x, y, z'
loop_
 _atom_site_type_symbol
 _atom_site_label
 _atom_site_symmetry_multiplicity
 _atom_site_fract_x
 _atom_site_fract_y
 _atom_site_fract_z
 _atom_site_occupancy
  Sm  Sm0  1  0.380266  0.376623  0.616945  1
  Sm  Sm1  1  0.616314  0.626575  0.381302  1
  Sm  Sm2  1  0.872540  0.874200  0.627557  1
  Sm  Sm3  1  0.628107  0.625363  0.871977  1
  Sm  Sm4  1  0.872423  0.880934  0.125898  1
  Sm  Sm5  1  0.126038  0.120960  0.871500  1
  Sm  Sm6  1  0.376874  0.373719  0.127513  1
  Sm  Sm7  1  0.127105  0.122048  0.377834  1
  Cu  Cu8  1  0.832669  0.167530  0.832675  1
  Cu  Cu9  1  0.166795  0.833028  0.166952  1
  Cu  Cu10  1  0.417518  0.082839  0.416540  1
  Si  Si11  1  0.669426  0.330952  0.669267  1
  Si  Si12  1  0.330279  0.670151  0.330547  1
  Si  Si13  1  0.579656  0.920337  0.579416  1
  Si  Si14  1  0.912792  0.586525  0.912724  1
  Si  Si15  1  0.328266  0.666067  0.841218  1
  Si  Si16  1  0.163021  0.838803  0.668119  1
  Si  Si17  1  0.840775  0.164476  0.329147  1
  Si  Si18  1  0.667887  0.330174  0.163453  1
  Si  Si19  1  0.915658  0.590373  0.421901  1
  Si  Si20  1  0.087885  0.407143  0.582475  1
  Si  Si21  1  0.422053  0.072036  0.915150  1
  Si  Si22  1  0.582871  0.921677  0.087093  1
  Ag  Ag23  1  0.082782  0.417467  0.082798  1
