# generated using pymatgen
data_Li(GaCu)6
_symmetry_space_group_name_H-M   'P 1'
_cell_length_a   6.56297648
_cell_length_b   6.56297680
_cell_length_c   6.56297663
_cell_angle_alpha   133.46019877
_cell_angle_beta   101.24722828
_cell_angle_gamma   96.72514208
_symmetry_Int_Tables_number   1
_chemical_formula_structural   Li(GaCu)6
_chemical_formula_sum   'Li1 Ga6 Cu6'
_cell_volume   188.29526724
_cell_formula_units_Z   1
loop_
 _symmetry_equiv_pos_site_id
 _symmetry_equiv_pos_as_xyz
  1  'x, y, z'
loop_
 _atom_site_type_symbol
 _atom_site_label
 _atom_site_symmetry_multiplicity
 _atom_site_fract_x
 _atom_site_fract_y
 _atom_site_fract_z
 _atom_site_occupancy
  Li  Li0  1  0.000000  0.000000  0.000000  1
  Ga  Ga1  1  0.341971  0.341971  0.000000  1
  Ga  Ga2  1  0.658029  0.658029  0.000000  1
  Ga  Ga3  1  0.653456  0.000000  0.653456  1
  Ga  Ga4  1  0.346544  0.000000  0.346544  1
  Ga  Ga5  1  0.821984  0.321984  0.500000  1
  Ga  Ga6  1  0.178016  0.678016  0.500000  1
  Cu  Cu7  1  0.500000  0.000000  0.000000  1
  Cu  Cu8  1  0.500000  0.500000  0.500000  1
  Cu  Cu9  1  0.000000  0.000000  0.500000  1
  Cu  Cu10  1  0.000000  0.500000  0.000000  1
  Cu  Cu11  1  0.240999  0.500000  0.740999  1
  Cu  Cu12  1  0.759001  0.500000  0.259001  1
