# generated using pymatgen
data_Y12Tm4Cd3AgIr4
_symmetry_space_group_name_H-M   'P 1'
_cell_length_a   9.63722444
_cell_length_b   9.63722424
_cell_length_c   9.63722442
_cell_angle_alpha   59.81732228
_cell_angle_beta   59.81732279
_cell_angle_gamma   59.81733057
_symmetry_Int_Tables_number   1
_chemical_formula_structural   Y12Tm4Cd3AgIr4
_chemical_formula_sum   'Y12 Tm4 Cd3 Ag1 Ir4'
_cell_volume   630.28416709
_cell_formula_units_Z   1
loop_
 _symmetry_equiv_pos_site_id
 _symmetry_equiv_pos_as_xyz
  1  'x, y, z'
loop_
 _atom_site_type_symbol
 _atom_site_label
 _atom_site_symmetry_multiplicity
 _atom_site_fract_x
 _atom_site_fract_y
 _atom_site_fract_z
 _atom_site_occupancy
  Y  Y0  1  0.808865  0.190187  0.190187  1
  Y  Y1  1  0.188199  0.809083  0.809083  1
  Y  Y2  1  0.190187  0.808865  0.190187  1
  Y  Y3  1  0.809083  0.188199  0.809083  1
  Y  Y4  1  0.190187  0.190187  0.808865  1
  Y  Y5  1  0.809083  0.809083  0.188199  1
  Y  Y6  1  0.937779  0.560294  0.560294  1
  Y  Y7  1  0.561313  0.937361  0.937361  1
  Y  Y8  1  0.560294  0.937779  0.560294  1
  Y  Y9  1  0.937361  0.561313  0.937361  1
  Y  Y10  1  0.560294  0.560294  0.937779  1
  Y  Y11  1  0.937361  0.937361  0.561313  1
  Tm  Tm12  1  0.348340  0.348340  0.348340  1
  Tm  Tm13  1  0.348819  0.348819  0.955898  1
  Tm  Tm14  1  0.348819  0.955898  0.348819  1
  Tm  Tm15  1  0.955898  0.348819  0.348819  1
  Cd  Cd16  1  0.581283  0.581283  0.259286  1
  Cd  Cd17  1  0.581283  0.259286  0.581283  1
  Cd  Cd18  1  0.259286  0.581283  0.581283  1
  Ag  Ag19  1  0.582526  0.582526  0.582526  1
  Ir  Ir20  1  0.142918  0.142918  0.142918  1
  Ir  Ir21  1  0.144143  0.144143  0.572540  1
  Ir  Ir22  1  0.144143  0.572540  0.144143  1
  Ir  Ir23  1  0.572540  0.144143  0.144143  1
