# generated using pymatgen
data_Ho7Er5Os3Rh
_symmetry_space_group_name_H-M   'P 1'
_cell_length_a   6.33457661
_cell_length_b   7.32902485
_cell_length_c   9.02592587
_cell_angle_alpha   89.99891937
_cell_angle_beta   89.94974087
_cell_angle_gamma   90.22865564
_symmetry_Int_Tables_number   1
_chemical_formula_structural   Ho7Er5Os3Rh
_chemical_formula_sum   'Ho7 Er5 Os3 Rh1'
_cell_volume   419.03656749
_cell_formula_units_Z   1
loop_
 _symmetry_equiv_pos_site_id
 _symmetry_equiv_pos_as_xyz
  1  'x, y, z'
loop_
 _atom_site_type_symbol
 _atom_site_label
 _atom_site_symmetry_multiplicity
 _atom_site_fract_x
 _atom_site_fract_y
 _atom_site_fract_z
 _atom_site_occupancy
  Ho  Ho0  1  0.827421  0.823761  0.566209  1
  Ho  Ho1  1  0.334070  0.673444  0.438472  1
  Ho  Ho2  1  0.169354  0.177768  0.061664  1
  Ho  Ho3  1  0.869634  0.538217  0.249790  1
  Ho  Ho4  1  0.630189  0.040145  0.249960  1
  Ho  Ho5  1  0.129565  0.461480  0.750059  1
  Ho  Ho6  1  0.369352  0.961708  0.750145  1
  Er  Er7  1  0.334152  0.673319  0.061365  1
  Er  Er8  1  0.169399  0.177658  0.438335  1
  Er  Er9  1  0.669399  0.324253  0.563540  1
  Er  Er10  1  0.827335  0.823758  0.933860  1
  Er  Er11  1  0.669390  0.324365  0.936427  1
  Os  Os12  1  0.460107  0.383611  0.250028  1
  Os  Os13  1  0.961242  0.115593  0.749882  1
  Os  Os14  1  0.538410  0.616336  0.750415  1
  Rh  Rh15  1  0.040983  0.884587  0.249849  1
