# generated using pymatgen
data_PrSm5PtI10
_symmetry_space_group_name_H-M   'P 1'
_cell_length_a   7.89566521
_cell_length_b   9.95253609
_cell_length_c   10.01118149
_cell_angle_alpha   107.39711584
_cell_angle_beta   96.86459864
_cell_angle_gamma   104.93581583
_symmetry_Int_Tables_number   1
_chemical_formula_structural   PrSm5PtI10
_chemical_formula_sum   'Pr1 Sm5 Pt1 I10'
_cell_volume   708.66910159
_cell_formula_units_Z   1
loop_
 _symmetry_equiv_pos_site_id
 _symmetry_equiv_pos_as_xyz
  1  'x, y, z'
loop_
 _atom_site_type_symbol
 _atom_site_label
 _atom_site_symmetry_multiplicity
 _atom_site_fract_x
 _atom_site_fract_y
 _atom_site_fract_z
 _atom_site_occupancy
  Pr  Pr0  1  0.880731  0.957687  0.245943  1
  Sm  Sm1  1  0.117577  0.041467  0.757112  1
  Sm  Sm2  1  0.352021  0.127335  0.167183  1
  Sm  Sm3  1  0.648728  0.873183  0.831655  1
  Sm  Sm4  1  0.970325  0.288819  0.086434  1
  Sm  Sm5  1  0.030174  0.711128  0.911431  1
  Pt  Pt6  1  0.000477  0.999981  0.998940  1
  I  I7  1  0.354546  0.452999  0.271817  1
  I  I8  1  0.645186  0.547090  0.728358  1
  I  I9  1  0.915733  0.625444  0.177252  1
  I  I10  1  0.085153  0.370022  0.820518  1
  I  I11  1  0.449252  0.815903  0.088190  1
  I  I12  1  0.546292  0.182396  0.909387  1
  I  I13  1  0.265791  0.089111  0.463300  1
  I  I14  1  0.739087  0.912588  0.542373  1
  I  I15  1  0.780917  0.263558  0.347512  1
  I  I16  1  0.218010  0.741290  0.652596  1
