# generated using pymatgen
data_AcNd4(TcB3)2
_symmetry_space_group_name_H-M   'P 1'
_cell_length_a   8.98138986
_cell_length_b   8.98139018
_cell_length_c   8.98139042
_cell_angle_alpha   36.48015376
_cell_angle_beta   36.48014776
_cell_angle_gamma   36.48014663
_symmetry_Int_Tables_number   1
_chemical_formula_structural   AcNd4(TcB3)2
_chemical_formula_sum   'Ac1 Nd4 Tc2 B6'
_cell_volume   229.25121417
_cell_formula_units_Z   1
loop_
 _symmetry_equiv_pos_site_id
 _symmetry_equiv_pos_as_xyz
  1  'x, y, z'
loop_
 _atom_site_type_symbol
 _atom_site_label
 _atom_site_symmetry_multiplicity
 _atom_site_fract_x
 _atom_site_fract_y
 _atom_site_fract_z
 _atom_site_occupancy
  Ac  Ac0  1  0.000000  0.000000  0.000000  1
  Nd  Nd1  1  0.579724  0.579724  0.579724  1
  Nd  Nd2  1  0.420276  0.420276  0.420276  1
  Nd  Nd3  1  0.752709  0.752709  0.752709  1
  Nd  Nd4  1  0.247291  0.247291  0.247291  1
  Tc  Tc5  1  0.884191  0.884191  0.884191  1
  Tc  Tc6  1  0.115809  0.115809  0.115809  1
  B  B7  1  0.500000  0.831324  0.168676  1
  B  B8  1  0.168676  0.500000  0.831324  1
  B  B9  1  0.831324  0.168676  0.500000  1
  B  B10  1  0.500000  0.168676  0.831324  1
  B  B11  1  0.831324  0.500000  0.168676  1
  B  B12  1  0.168676  0.831324  0.500000  1
