# generated using pymatgen
data_Ce2UMn3
_symmetry_space_group_name_H-M   'P 1'
_cell_length_a   5.04619184
_cell_length_b   5.04619267
_cell_length_c   5.04619239
_cell_angle_alpha   66.57027796
_cell_angle_beta   66.57027785
_cell_angle_gamma   66.57027397
_symmetry_Int_Tables_number   1
_chemical_formula_structural   Ce2UMn3
_chemical_formula_sum   'Ce2 U1 Mn3'
_cell_volume   103.71015975
_cell_formula_units_Z   1
loop_
 _symmetry_equiv_pos_site_id
 _symmetry_equiv_pos_as_xyz
  1  'x, y, z'
loop_
 _atom_site_type_symbol
 _atom_site_label
 _atom_site_symmetry_multiplicity
 _atom_site_fract_x
 _atom_site_fract_y
 _atom_site_fract_z
 _atom_site_occupancy
  Ce  Ce0  1  0.745995  0.745995  0.745995  1
  Ce  Ce1  1  0.504005  0.504005  0.504005  1
  U  U2  1  0.125000  0.125000  0.125000  1
  Mn  Mn3  1  0.125000  0.125000  0.625000  1
  Mn  Mn4  1  0.125000  0.625000  0.125000  1
  Mn  Mn5  1  0.625000  0.125000  0.125000  1
