# generated using pymatgen
data_CdCl30
_symmetry_space_group_name_H-M   'P 1'
_cell_length_a   13.00955534
_cell_length_b   13.00955465
_cell_length_c   16.43661623
_cell_angle_alpha   84.30857469
_cell_angle_beta   84.30857693
_cell_angle_gamma   124.61560407
_symmetry_Int_Tables_number   1
_chemical_formula_structural   CdCl30
_chemical_formula_sum   'Cd1 Cl30'
_cell_volume   2236.69410916
_cell_formula_units_Z   1
loop_
 _symmetry_equiv_pos_site_id
 _symmetry_equiv_pos_as_xyz
  1  'x, y, z'
loop_
 _atom_site_type_symbol
 _atom_site_label
 _atom_site_symmetry_multiplicity
 _atom_site_fract_x
 _atom_site_fract_y
 _atom_site_fract_z
 _atom_site_occupancy
  Cd  Cd0  1  0.000000  0.000000  0.000000  1
  Cl  Cl1  1  0.933541  0.933541  0.184939  1
  Cl  Cl2  1  0.066459  0.066459  0.815061  1
  Cl  Cl3  1  0.067748  0.216642  0.005821  1
  Cl  Cl4  1  0.932252  0.783358  0.994179  1
  Cl  Cl5  1  0.216642  0.067748  0.005821  1
  Cl  Cl6  1  0.783358  0.932252  0.994179  1
  Cl  Cl7  1  0.203570  0.743751  0.061935  1
  Cl  Cl8  1  0.796430  0.256249  0.938065  1
  Cl  Cl9  1  0.699543  0.080783  0.256506  1
  Cl  Cl10  1  0.256249  0.796430  0.938065  1
  Cl  Cl11  1  0.300457  0.919217  0.743494  1
  Cl  Cl12  1  0.743751  0.203570  0.061935  1
  Cl  Cl13  1  0.989975  0.194633  0.769869  1
  Cl  Cl14  1  0.919217  0.300457  0.743494  1
  Cl  Cl15  1  0.010025  0.805367  0.230131  1
  Cl  Cl16  1  0.080783  0.699543  0.256506  1
  Cl  Cl17  1  0.805367  0.010025  0.230131  1
  Cl  Cl18  1  0.194633  0.989975  0.769869  1
  Cl  Cl19  1  0.464463  0.550847  0.260947  1
  Cl  Cl20  1  0.535537  0.449153  0.739053  1
  Cl  Cl21  1  0.505739  0.203550  0.451552  1
  Cl  Cl22  1  0.449153  0.535537  0.739053  1
  Cl  Cl23  1  0.494261  0.796450  0.548448  1
  Cl  Cl24  1  0.550847  0.464463  0.260947  1
  Cl  Cl25  1  0.238313  0.427830  0.545343  1
  Cl  Cl26  1  0.796450  0.494261  0.548448  1
  Cl  Cl27  1  0.761687  0.572170  0.454657  1
  Cl  Cl28  1  0.203550  0.505739  0.451552  1
  Cl  Cl29  1  0.572170  0.761687  0.454657  1
  Cl  Cl30  1  0.427830  0.238313  0.545343  1
