# generated using pymatgen
data_Dy16Sc4Si15Pt
_symmetry_space_group_name_H-M   'P 1'
_cell_length_a   7.31030043
_cell_length_b   7.61435239
_cell_length_c   14.47344911
_cell_angle_alpha   89.74902551
_cell_angle_beta   89.72923665
_cell_angle_gamma   90.21772389
_symmetry_Int_Tables_number   1
_chemical_formula_structural   Dy16Sc4Si15Pt
_chemical_formula_sum   'Dy16 Sc4 Si15 Pt1'
_cell_volume   805.61593859
_cell_formula_units_Z   1
loop_
 _symmetry_equiv_pos_site_id
 _symmetry_equiv_pos_as_xyz
  1  'x, y, z'
loop_
 _atom_site_type_symbol
 _atom_site_label
 _atom_site_symmetry_multiplicity
 _atom_site_fract_x
 _atom_site_fract_y
 _atom_site_fract_z
 _atom_site_occupancy
  Dy  Dy0  1  0.974921  0.814744  0.099904  1
  Dy  Dy1  1  0.474826  0.683739  0.401414  1
  Dy  Dy2  1  0.527110  0.322508  0.899804  1
  Dy  Dy3  1  0.026495  0.183956  0.598951  1
  Dy  Dy4  1  0.026974  0.185049  0.900322  1
  Dy  Dy5  1  0.527120  0.316585  0.598645  1
  Dy  Dy6  1  0.476072  0.683249  0.101096  1
  Dy  Dy7  1  0.972050  0.816331  0.400474  1
  Dy  Dy8  1  0.682046  0.815030  0.878768  1
  Dy  Dy9  1  0.179466  0.679067  0.623564  1
  Dy  Dy10  1  0.818174  0.333572  0.122109  1
  Dy  Dy11  1  0.315811  0.175495  0.374324  1
  Dy  Dy12  1  0.319918  0.177572  0.125559  1
  Dy  Dy13  1  0.818590  0.322633  0.375070  1
  Dy  Dy14  1  0.178031  0.672669  0.876601  1
  Dy  Dy15  1  0.683071  0.822668  0.624355  1
  Sc  Sc16  1  0.649171  0.990432  0.249229  1
  Sc  Sc17  1  0.150723  0.512576  0.249273  1
  Sc  Sc18  1  0.846632  0.484697  0.754606  1
  Sc  Sc19  1  0.351206  0.011991  0.750914  1
  Si  Si20  1  0.770474  0.636750  0.252017  1
  Si  Si21  1  0.270799  0.864936  0.250720  1
  Si  Si22  1  0.728733  0.129732  0.749182  1
  Si  Si23  1  0.230481  0.366338  0.746867  1
  Si  Si24  1  0.012258  0.098389  0.248961  1
  Si  Si25  1  0.516031  0.402798  0.251716  1
  Si  Si26  1  0.478805  0.599735  0.746767  1
  Si  Si27  1  0.985063  0.904243  0.749188  1
  Si  Si28  1  0.352765  0.972779  0.540530  1
  Si  Si29  1  0.648308  0.028288  0.042824  1
  Si  Si30  1  0.148283  0.470820  0.458971  1
  Si  Si31  1  0.156694  0.473803  0.044165  1
  Si  Si32  1  0.645643  0.028616  0.458461  1
  Si  Si33  1  0.352652  0.970081  0.960738  1
  Si  Si34  1  0.852181  0.528426  0.540250  1
  Pt  Pt35  1  0.852422  0.519707  0.953664  1
