# generated using pymatgen
data_DyCoSnH
_symmetry_space_group_name_H-M   'P 1'
_cell_length_a   4.23795100
_cell_length_b   7.11719500
_cell_length_c   8.19437600
_cell_angle_alpha   90.00000000
_cell_angle_beta   90.00000000
_cell_angle_gamma   90.00000000
_symmetry_Int_Tables_number   1
_chemical_formula_structural   DyCoSnH
_chemical_formula_sum   'Dy4 Co4 Sn4 H4'
_cell_volume   247.16142116
_cell_formula_units_Z   4
loop_
 _symmetry_equiv_pos_site_id
 _symmetry_equiv_pos_as_xyz
  1  'x, y, z'
loop_
 _atom_site_type_symbol
 _atom_site_label
 _atom_site_symmetry_multiplicity
 _atom_site_fract_x
 _atom_site_fract_y
 _atom_site_fract_z
 _atom_site_occupancy
  Dy  Dy0  1  0.750000  0.012603  0.686347  1
  Dy  Dy1  1  0.250000  0.987397  0.313653  1
  Dy  Dy2  1  0.250000  0.487397  0.186347  1
  Dy  Dy3  1  0.750000  0.512603  0.813653  1
  Co  Co4  1  0.750000  0.775650  0.103587  1
  Co  Co5  1  0.250000  0.224350  0.896413  1
  Co  Co6  1  0.250000  0.724350  0.603587  1
  Co  Co7  1  0.750000  0.275650  0.396413  1
  Sn  Sn8  1  0.750000  0.656620  0.425823  1
  Sn  Sn9  1  0.250000  0.343380  0.574177  1
  Sn  Sn10  1  0.250000  0.843380  0.925823  1
  Sn  Sn11  1  0.750000  0.156620  0.074177  1
  H  H12  1  0.250000  0.445567  0.920025  1
  H  H13  1  0.750000  0.554433  0.079975  1
  H  H14  1  0.750000  0.054433  0.420025  1
  H  H15  1  0.250000  0.945567  0.579975  1
