# generated using pymatgen
data_Sc12Cu(Si4Tc)3
_symmetry_space_group_name_H-M   'P 1'
_cell_length_a   3.98750900
_cell_length_b   10.37182555
_cell_length_c   11.77607249
_cell_angle_alpha   90.36588483
_cell_angle_beta   90.00000000
_cell_angle_gamma   90.00000000
_symmetry_Int_Tables_number   1
_chemical_formula_structural   Sc12Cu(Si4Tc)3
_chemical_formula_sum   'Sc12 Cu1 Si12 Tc3'
_cell_volume   487.02190497
_cell_formula_units_Z   1
loop_
 _symmetry_equiv_pos_site_id
 _symmetry_equiv_pos_as_xyz
  1  'x, y, z'
loop_
 _atom_site_type_symbol
 _atom_site_label
 _atom_site_symmetry_multiplicity
 _atom_site_fract_x
 _atom_site_fract_y
 _atom_site_fract_z
 _atom_site_occupancy
  Sc  Sc0  1  0.250000  0.875139  0.022791  1
  Sc  Sc1  1  0.250000  0.625853  0.518631  1
  Sc  Sc2  1  0.750000  0.125166  0.982345  1
  Sc  Sc3  1  0.750000  0.378548  0.480818  1
  Sc  Sc4  1  0.250000  0.924421  0.601290  1
  Sc  Sc5  1  0.250000  0.577578  0.104996  1
  Sc  Sc6  1  0.750000  0.076746  0.394462  1
  Sc  Sc7  1  0.750000  0.422663  0.893371  1
  Sc  Sc8  1  0.250000  0.661893  0.798064  1
  Sc  Sc9  1  0.250000  0.836835  0.297699  1
  Sc  Sc10  1  0.750000  0.336658  0.202329  1
  Sc  Sc11  1  0.750000  0.159299  0.700354  1
  Cu  Cu12  1  0.750000  0.887598  0.823085  1
  Si  Si13  1  0.250000  0.016582  0.826559  1
  Si  Si14  1  0.250000  0.482826  0.322919  1
  Si  Si15  1  0.750000  0.981916  0.175892  1
  Si  Si16  1  0.750000  0.519126  0.677775  1
  Si  Si17  1  0.250000  0.250687  0.842842  1
  Si  Si18  1  0.250000  0.246632  0.345097  1
  Si  Si19  1  0.750000  0.747022  0.155530  1
  Si  Si20  1  0.750000  0.754460  0.655348  1
  Si  Si21  1  0.250000  0.195647  0.544095  1
  Si  Si22  1  0.250000  0.307249  0.043927  1
  Si  Si23  1  0.750000  0.809325  0.455186  1
  Si  Si24  1  0.750000  0.688474  0.956334  1
  Tc  Tc25  1  0.250000  0.391270  0.678739  1
  Tc  Tc26  1  0.250000  0.109770  0.176281  1
  Tc  Tc27  1  0.750000  0.610614  0.323245  1
