# generated using pymatgen
data_TbCu2HgPt2
_symmetry_space_group_name_H-M   'P 1'
_cell_length_a   5.11071482
_cell_length_b   5.24380001
_cell_length_c   5.24379931
_cell_angle_alpha   63.64632069
_cell_angle_beta   60.83605535
_cell_angle_gamma   60.83605857
_symmetry_Int_Tables_number   1
_chemical_formula_structural   TbCu2HgPt2
_chemical_formula_sum   'Tb1 Cu2 Hg1 Pt2'
_cell_volume   103.15750463
_cell_formula_units_Z   1
loop_
 _symmetry_equiv_pos_site_id
 _symmetry_equiv_pos_as_xyz
  1  'x, y, z'
loop_
 _atom_site_type_symbol
 _atom_site_label
 _atom_site_symmetry_multiplicity
 _atom_site_fract_x
 _atom_site_fract_y
 _atom_site_fract_z
 _atom_site_occupancy
  Tb  Tb0  1  0.995684  0.004316  0.004316  1
  Cu  Cu1  1  0.127726  0.621268  0.621268  1
  Cu  Cu2  1  0.629739  0.621268  0.621268  1
  Hg  Hg3  1  0.243486  0.256514  0.256514  1
  Pt  Pt4  1  0.626682  0.623758  0.122877  1
  Pt  Pt5  1  0.626682  0.122877  0.623758  1
