# generated using pymatgen
data_Dy5Ho3Si12(IrRh)2
_symmetry_space_group_name_H-M   'P 1'
_cell_length_a   8.16074100
_cell_length_b   8.16074123
_cell_length_c   7.90689400
_cell_angle_alpha   90.00000000
_cell_angle_beta   90.00000000
_cell_angle_gamma   120.00000311
_symmetry_Int_Tables_number   1
_chemical_formula_structural   Dy5Ho3Si12(IrRh)2
_chemical_formula_sum   'Dy5 Ho3 Si12 Ir2 Rh2'
_cell_volume   456.03243916
_cell_formula_units_Z   1
loop_
 _symmetry_equiv_pos_site_id
 _symmetry_equiv_pos_as_xyz
  1  'x, y, z'
loop_
 _atom_site_type_symbol
 _atom_site_label
 _atom_site_symmetry_multiplicity
 _atom_site_fract_x
 _atom_site_fract_y
 _atom_site_fract_z
 _atom_site_occupancy
  Dy  Dy0  1  0.000000  0.000000  0.248620  1
  Dy  Dy1  1  0.000000  0.000000  0.751340  1
  Dy  Dy2  1  0.509298  0.490702  0.250265  1
  Dy  Dy3  1  0.509298  0.018597  0.250265  1
  Dy  Dy4  1  0.981403  0.490702  0.250265  1
  Ho  Ho5  1  0.490634  0.509366  0.749699  1
  Ho  Ho6  1  0.490634  0.981267  0.749699  1
  Ho  Ho7  1  0.018733  0.509366  0.749699  1
  Si  Si8  1  0.166793  0.833207  0.499288  1
  Si  Si9  1  0.166793  0.333585  0.499288  1
  Si  Si10  1  0.666415  0.833207  0.499288  1
  Si  Si11  1  0.833219  0.166781  0.501232  1
  Si  Si12  1  0.833219  0.666440  0.501232  1
  Si  Si13  1  0.333560  0.166781  0.501232  1
  Si  Si14  1  0.832992  0.167008  0.999781  1
  Si  Si15  1  0.832992  0.665985  0.999781  1
  Si  Si16  1  0.334015  0.167008  0.999781  1
  Si  Si17  1  0.167025  0.832975  0.999633  1
  Si  Si18  1  0.167025  0.334049  0.999633  1
  Si  Si19  1  0.665951  0.832975  0.999633  1
  Ir  Ir20  1  0.333333  0.666667  0.469339  1
  Ir  Ir21  1  0.666667  0.333333  0.532245  1
  Rh  Rh22  1  0.666667  0.333333  0.962554  1
  Rh  Rh23  1  0.333333  0.666667  0.036207  1
