# generated using pymatgen
data_Cr7Re5W
_symmetry_space_group_name_H-M   'P 1'
_cell_length_a   4.75321389
_cell_length_b   4.75321230
_cell_length_c   9.22270186
_cell_angle_alpha   75.06690098
_cell_angle_beta   75.06690527
_cell_angle_gamma   60.00000762
_symmetry_Int_Tables_number   1
_chemical_formula_structural   Cr7Re5W
_chemical_formula_sum   'Cr7 Re5 W1'
_cell_volume   172.27899281
_cell_formula_units_Z   1
loop_
 _symmetry_equiv_pos_site_id
 _symmetry_equiv_pos_as_xyz
  1  'x, y, z'
loop_
 _atom_site_type_symbol
 _atom_site_label
 _atom_site_symmetry_multiplicity
 _atom_site_fract_x
 _atom_site_fract_y
 _atom_site_fract_z
 _atom_site_occupancy
  Cr  Cr0  1  0.000662  0.000662  0.998015  1
  Cr  Cr1  1  0.907893  0.411685  0.772529  1
  Cr  Cr2  1  0.411685  0.907893  0.772529  1
  Cr  Cr3  1  0.907893  0.907893  0.772529  1
  Cr  Cr4  1  0.091933  0.588917  0.227218  1
  Cr  Cr5  1  0.588917  0.091933  0.227218  1
  Cr  Cr6  1  0.091933  0.091933  0.227218  1
  Re  Re7  1  0.166752  0.166752  0.499744  1
  Re  Re8  1  0.651428  0.651428  0.045716  1
  Re  Re9  1  0.348083  0.348083  0.955749  1
  Re  Re10  1  0.548203  0.548203  0.355390  1
  Re  Re11  1  0.451398  0.451398  0.645808  1
  W  W12  1  0.833220  0.833220  0.500339  1
