# generated using pymatgen
data_ZrSi4IrRh5
_symmetry_space_group_name_H-M   'P 1'
_cell_length_a   6.99790976
_cell_length_b   6.99790919
_cell_length_c   3.75193600
_cell_angle_alpha   90.00000000
_cell_angle_beta   90.00000000
_cell_angle_gamma   119.84071558
_symmetry_Int_Tables_number   1
_chemical_formula_structural   ZrSi4IrRh5
_chemical_formula_sum   'Zr1 Si4 Ir1 Rh5'
_cell_volume   159.37401921
_cell_formula_units_Z   1
loop_
 _symmetry_equiv_pos_site_id
 _symmetry_equiv_pos_as_xyz
  1  'x, y, z'
loop_
 _atom_site_type_symbol
 _atom_site_label
 _atom_site_symmetry_multiplicity
 _atom_site_fract_x
 _atom_site_fract_y
 _atom_site_fract_z
 _atom_site_occupancy
  Zr  Zr0  1  0.998115  0.001885  0.000000  1
  Si  Si1  1  0.666325  0.333675  0.000000  1
  Si  Si2  1  0.197861  0.802139  0.500000  1
  Si  Si3  1  0.198609  0.394897  0.500000  1
  Si  Si4  1  0.605103  0.801391  0.500000  1
  Ir  Ir5  1  0.805117  0.194883  0.500000  1
  Rh  Rh6  1  0.467233  0.532767  0.000000  1
  Rh  Rh7  1  0.466371  0.934446  0.000000  1
  Rh  Rh8  1  0.065554  0.533629  0.000000  1
  Rh  Rh9  1  0.805834  0.609452  0.500000  1
  Rh  Rh10  1  0.390548  0.194166  0.500000  1
