# generated using pymatgen
data_LaEu3Zr3MoO14
_symmetry_space_group_name_H-M   'P 1'
_cell_length_a   7.61930381
_cell_length_b   7.59424768
_cell_length_c   7.59424800
_cell_angle_alpha   59.99999859
_cell_angle_beta   60.10872204
_cell_angle_gamma   60.10871676
_symmetry_Int_Tables_number   1
_chemical_formula_structural   LaEu3Zr3MoO14
_chemical_formula_sum   'La1 Eu3 Zr3 Mo1 O14'
_cell_volume   311.23006447
_cell_formula_units_Z   1
loop_
 _symmetry_equiv_pos_site_id
 _symmetry_equiv_pos_as_xyz
  1  'x, y, z'
loop_
 _atom_site_type_symbol
 _atom_site_label
 _atom_site_symmetry_multiplicity
 _atom_site_fract_x
 _atom_site_fract_y
 _atom_site_fract_z
 _atom_site_occupancy
  La  La0  1  0.625000  0.125000  0.125000  1
  Eu  Eu1  1  0.125000  0.625000  0.125000  1
  Eu  Eu2  1  0.125000  0.125000  0.625000  1
  Eu  Eu3  1  0.125000  0.125000  0.125000  1
  Zr  Zr4  1  0.625000  0.125000  0.625000  1
  Zr  Zr5  1  0.625000  0.625000  0.125000  1
  Zr  Zr6  1  0.625000  0.625000  0.625000  1
  Mo  Mo7  1  0.125000  0.625000  0.625000  1
  O  O8  1  0.242356  0.252548  0.252548  1
  O  O9  1  0.007644  0.997452  0.997452  1
  O  O10  1  0.716351  0.705333  0.289159  1
  O  O11  1  0.291202  0.308745  0.700026  1
  O  O12  1  0.716351  0.289159  0.705333  1
  O  O13  1  0.291202  0.700026  0.308745  1
  O  O14  1  0.291202  0.700026  0.700026  1
  O  O15  1  0.716351  0.289159  0.289159  1
  O  O16  1  0.533649  0.544667  0.960841  1
  O  O17  1  0.958798  0.941255  0.549974  1
  O  O18  1  0.533649  0.960841  0.544667  1
  O  O19  1  0.958798  0.549974  0.941255  1
  O  O20  1  0.958798  0.549974  0.549974  1
  O  O21  1  0.533649  0.960841  0.960841  1
