# generated using pymatgen
data_Er8SiPd5Pt19
_symmetry_space_group_name_H-M   'P 1'
_cell_length_a   8.30552320
_cell_length_b   8.28459605
_cell_length_c   8.33311215
_cell_angle_alpha   89.99750951
_cell_angle_beta   89.97851902
_cell_angle_gamma   89.98756679
_symmetry_Int_Tables_number   1
_chemical_formula_structural   Er8SiPd5Pt19
_chemical_formula_sum   'Er8 Si1 Pd5 Pt19'
_cell_volume   573.38393188
_cell_formula_units_Z   1
loop_
 _symmetry_equiv_pos_site_id
 _symmetry_equiv_pos_as_xyz
  1  'x, y, z'
loop_
 _atom_site_type_symbol
 _atom_site_label
 _atom_site_symmetry_multiplicity
 _atom_site_fract_x
 _atom_site_fract_y
 _atom_site_fract_z
 _atom_site_occupancy
  Er  Er0  1  0.252474  0.252127  0.252535  1
  Er  Er1  1  0.746778  0.746001  0.746452  1
  Er  Er2  1  0.747371  0.747309  0.252647  1
  Er  Er3  1  0.746800  0.254006  0.746428  1
  Er  Er4  1  0.253154  0.253145  0.746196  1
  Er  Er5  1  0.252434  0.747854  0.252567  1
  Er  Er6  1  0.253136  0.746925  0.746220  1
  Er  Er7  1  0.747363  0.252640  0.252602  1
  Si  Si8  1  0.001036  0.999998  0.007696  1
  Pd  Pd9  1  0.500424  0.000040  0.740675  1
  Pd  Pd10  1  0.741904  0.999995  0.500794  1
  Pd  Pd11  1  0.999993  0.499963  0.257073  1
  Pd  Pd12  1  0.000109  0.500020  0.740977  1
  Pd  Pd13  1  0.999032  0.000034  0.723616  1
  Pt  Pt14  1  0.257369  0.500012  0.999849  1
  Pt  Pt15  1  0.742795  0.499994  0.999967  1
  Pt  Pt16  1  0.000293  0.258047  0.500349  1
  Pt  Pt17  1  0.500103  0.257612  0.000097  1
  Pt  Pt18  1  0.000251  0.741952  0.500375  1
  Pt  Pt19  1  0.500088  0.742390  0.000133  1
  Pt  Pt20  1  0.500161  0.999954  0.257024  1
  Pt  Pt21  1  0.257496  0.000029  0.500445  1
  Pt  Pt22  1  0.251422  0.500010  0.499420  1
  Pt  Pt23  1  0.748429  0.499983  0.499451  1
  Pt  Pt24  1  0.499697  0.252050  0.499058  1
  Pt  Pt25  1  0.499657  0.747948  0.499103  1
  Pt  Pt26  1  0.499918  0.499985  0.251921  1
  Pt  Pt27  1  0.499924  0.500019  0.747589  1
  Pt  Pt28  1  0.281701  0.000017  0.997395  1
  Pt  Pt29  1  0.719556  0.999976  0.997840  1
  Pt  Pt30  1  0.000087  0.281685  0.998148  1
  Pt  Pt31  1  0.000052  0.718299  0.998237  1
  Pt  Pt32  1  0.998995  0.999978  0.287121  1
