# generated using pymatgen
data_Yb5Pr15Si15Ir
_symmetry_space_group_name_H-M   'P 1'
_cell_length_a   7.95725988
_cell_length_b   7.89769636
_cell_length_c   15.10232653
_cell_angle_alpha   89.89796388
_cell_angle_beta   89.86192032
_cell_angle_gamma   90.25398328
_symmetry_Int_Tables_number   1
_chemical_formula_structural   Yb5Pr15Si15Ir
_chemical_formula_sum   'Yb5 Pr15 Si15 Ir1'
_cell_volume   949.07734325
_cell_formula_units_Z   1
loop_
 _symmetry_equiv_pos_site_id
 _symmetry_equiv_pos_as_xyz
  1  'x, y, z'
loop_
 _atom_site_type_symbol
 _atom_site_label
 _atom_site_symmetry_multiplicity
 _atom_site_fract_x
 _atom_site_fract_y
 _atom_site_fract_z
 _atom_site_occupancy
  Yb  Yb0  1  0.309439  0.308502  0.999099  1
  Yb  Yb1  1  0.192348  0.811530  0.252460  1
  Yb  Yb2  1  0.817932  0.192890  0.747160  1
  Yb  Yb3  1  0.688871  0.693211  0.500998  1
  Yb  Yb4  1  0.375868  0.011282  0.451279  1
  Pr  Pr5  1  0.492652  0.881856  0.695868  1
  Pr  Pr6  1  0.508964  0.122866  0.199837  1
  Pr  Pr7  1  0.878039  0.490788  0.301849  1
  Pr  Pr8  1  0.125800  0.503284  0.797677  1
  Pr  Pr9  1  0.623352  0.991203  0.947879  1
  Pr  Pr10  1  0.002114  0.375376  0.551194  1
  Pr  Pr11  1  0.991880  0.623037  0.050915  1
  Pr  Pr12  1  0.128475  0.992264  0.871537  1
  Pr  Pr13  1  0.512259  0.626510  0.125235  1
  Pr  Pr14  1  0.476485  0.361836  0.628465  1
  Pr  Pr15  1  0.626549  0.510773  0.874347  1
  Pr  Pr16  1  0.372882  0.484516  0.376188  1
  Pr  Pr17  1  0.875739  0.013668  0.376609  1
  Pr  Pr18  1  0.988809  0.123214  0.124120  1
  Pr  Pr19  1  0.024664  0.885706  0.625879  1
  Si  Si20  1  0.332178  0.698335  0.948008  1
  Si  Si21  1  0.663893  0.298209  0.449083  1
  Si  Si22  1  0.703869  0.334399  0.053509  1
  Si  Si23  1  0.296963  0.663878  0.551868  1
  Si  Si24  1  0.799907  0.832778  0.199744  1
  Si  Si25  1  0.165188  0.202137  0.299593  1
  Si  Si26  1  0.832181  0.799785  0.799861  1
  Si  Si27  1  0.286416  0.917956  0.057669  1
  Si  Si28  1  0.583155  0.783660  0.308067  1
  Si  Si29  1  0.427659  0.205822  0.812780  1
  Si  Si30  1  0.782915  0.584201  0.689731  1
  Si  Si31  1  0.210399  0.422582  0.190521  1
  Si  Si32  1  0.710309  0.077836  0.558184  1
  Si  Si33  1  0.919753  0.287725  0.942097  1
  Si  Si34  1  0.078118  0.710929  0.441447  1
  Ir  Ir35  1  0.193973  0.175458  0.699245  1
