# generated using pymatgen
data_Ho5Cd2(NiHg)2
_symmetry_space_group_name_H-M   'P 1'
_cell_length_a   7.77631900
_cell_length_b   18.09524200
_cell_length_c   3.55930300
_cell_angle_alpha   90.00000000
_cell_angle_beta   90.00000000
_cell_angle_gamma   90.00000000
_symmetry_Int_Tables_number   1
_chemical_formula_structural   Ho5Cd2(NiHg)2
_chemical_formula_sum   'Ho10 Cd4 Ni4 Hg4'
_cell_volume   500.84509414
_cell_formula_units_Z   2
loop_
 _symmetry_equiv_pos_site_id
 _symmetry_equiv_pos_as_xyz
  1  'x, y, z'
loop_
 _atom_site_type_symbol
 _atom_site_label
 _atom_site_symmetry_multiplicity
 _atom_site_fract_x
 _atom_site_fract_y
 _atom_site_fract_z
 _atom_site_occupancy
  Ho  Ho0  1  0.500000  0.500000  0.000000  1
  Ho  Ho1  1  0.000000  0.000000  0.000000  1
  Ho  Ho2  1  0.754149  0.281586  0.000000  1
  Ho  Ho3  1  0.245851  0.718414  0.000000  1
  Ho  Ho4  1  0.745851  0.781586  0.000000  1
  Ho  Ho5  1  0.254149  0.218414  0.000000  1
  Ho  Ho6  1  0.614098  0.088114  0.000000  1
  Ho  Ho7  1  0.385902  0.911886  0.000000  1
  Ho  Ho8  1  0.885902  0.588114  0.000000  1
  Ho  Ho9  1  0.114098  0.411886  0.000000  1
  Cd  Cd10  1  0.571534  0.653058  0.500000  1
  Cd  Cd11  1  0.428466  0.346942  0.500000  1
  Cd  Cd12  1  0.928466  0.153058  0.500000  1
  Cd  Cd13  1  0.071534  0.846942  0.500000  1
  Ni  Ni14  1  0.540538  0.197163  0.500000  1
  Ni  Ni15  1  0.459462  0.802837  0.500000  1
  Ni  Ni16  1  0.959462  0.697163  0.500000  1
  Ni  Ni17  1  0.040538  0.302837  0.500000  1
  Hg  Hg18  1  0.711638  0.932638  0.500000  1
  Hg  Hg19  1  0.288362  0.067362  0.500000  1
  Hg  Hg20  1  0.788362  0.432638  0.500000  1
  Hg  Hg21  1  0.211638  0.567362  0.500000  1
