# generated using pymatgen
data_Ac5La7(NdIr3)2
_symmetry_space_group_name_H-M   'P 1'
_cell_length_a   6.60587081
_cell_length_b   10.41063568
_cell_length_c   10.45597051
_cell_angle_alpha   119.85643861
_cell_angle_beta   89.94987217
_cell_angle_gamma   90.00117157
_symmetry_Int_Tables_number   1
_chemical_formula_structural   Ac5La7(NdIr3)2
_chemical_formula_sum   'Ac5 La7 Nd2 Ir6'
_cell_volume   623.63220292
_cell_formula_units_Z   1
loop_
 _symmetry_equiv_pos_site_id
 _symmetry_equiv_pos_as_xyz
  1  'x, y, z'
loop_
 _atom_site_type_symbol
 _atom_site_label
 _atom_site_symmetry_multiplicity
 _atom_site_fract_x
 _atom_site_fract_y
 _atom_site_fract_z
 _atom_site_occupancy
  Ac  Ac0  1  0.248714  0.128701  0.869849  1
  Ac  Ac1  1  0.248690  0.741133  0.869858  1
  Ac  Ac2  1  0.248305  0.130171  0.260338  1
  Ac  Ac3  1  0.747355  0.870142  0.129097  1
  Ac  Ac4  1  0.747385  0.258944  0.129086  1
  La  La5  1  0.754963  0.871493  0.742976  1
  La  La6  1  0.428163  0.543242  0.460913  1
  La  La7  1  0.428047  0.917702  0.460923  1
  La  La8  1  0.423527  0.541332  0.082714  1
  La  La9  1  0.927055  0.461466  0.540862  1
  La  La10  1  0.927006  0.079425  0.540864  1
  La  La11  1  0.924302  0.458168  0.916337  1
  Nd  Nd12  1  0.477781  0.333485  0.666954  1
  Nd  Nd13  1  0.974955  0.666147  0.332308  1
  Ir  Ir14  1  0.201675  0.810645  0.191615  1
  Ir  Ir15  1  0.201712  0.380959  0.191615  1
  Ir  Ir16  1  0.188512  0.809068  0.618172  1
  Ir  Ir17  1  0.701892  0.184307  0.806796  1
  Ir  Ir18  1  0.701921  0.622495  0.806792  1
  Ir  Ir19  1  0.700038  0.190975  0.381928  1
