# generated using pymatgen
data_Sc6TiAl23Fe8
_symmetry_space_group_name_H-M   'P 1'
_cell_length_a   8.55126700
_cell_length_b   8.55126685
_cell_length_c   9.17188800
_cell_angle_alpha   90.00000000
_cell_angle_beta   90.00000000
_cell_angle_gamma   120.00000443
_symmetry_Int_Tables_number   1
_chemical_formula_structural   Sc6TiAl23Fe8
_chemical_formula_sum   'Sc6 Ti1 Al23 Fe8'
_cell_volume   580.83166066
_cell_formula_units_Z   1
loop_
 _symmetry_equiv_pos_site_id
 _symmetry_equiv_pos_as_xyz
  1  'x, y, z'
loop_
 _atom_site_type_symbol
 _atom_site_label
 _atom_site_symmetry_multiplicity
 _atom_site_fract_x
 _atom_site_fract_y
 _atom_site_fract_z
 _atom_site_occupancy
  Sc  Sc0  1  0.806677  0.193323  0.749165  1
  Sc  Sc1  1  0.193305  0.806695  0.252014  1
  Sc  Sc2  1  0.386646  0.193323  0.749165  1
  Sc  Sc3  1  0.613390  0.806695  0.252014  1
  Sc  Sc4  1  0.806677  0.613354  0.749165  1
  Sc  Sc5  1  0.193305  0.386610  0.252014  1
  Ti  Ti6  1  0.666667  0.333333  0.997634  1
  Al  Al7  1  0.333333  0.666667  0.022118  1
  Al  Al8  1  0.333333  0.666667  0.477246  1
  Al  Al9  1  0.666667  0.333333  0.523259  1
  Al  Al10  1  0.838862  0.161138  0.426081  1
  Al  Al11  1  0.161428  0.838572  0.574365  1
  Al  Al12  1  0.322278  0.161138  0.426081  1
  Al  Al13  1  0.161203  0.838797  0.923884  1
  Al  Al14  1  0.677142  0.838572  0.574365  1
  Al  Al15  1  0.841928  0.158072  0.073965  1
  Al  Al16  1  0.838862  0.677722  0.426081  1
  Al  Al17  1  0.677592  0.838797  0.923884  1
  Al  Al18  1  0.161428  0.322858  0.574365  1
  Al  Al19  1  0.316145  0.158072  0.073965  1
  Al  Al20  1  0.161203  0.322408  0.923884  1
  Al  Al21  1  0.841928  0.683855  0.073965  1
  Al  Al22  1  0.444660  0.555340  0.748024  1
  Al  Al23  1  0.555177  0.444823  0.249523  1
  Al  Al24  1  0.110679  0.555340  0.748024  1
  Al  Al25  1  0.889645  0.444823  0.249523  1
  Al  Al26  1  0.444660  0.889321  0.748024  1
  Al  Al27  1  0.555177  0.110355  0.249523  1
  Al  Al28  1  0.000000  0.000000  0.750388  1
  Al  Al29  1  0.000000  0.000000  0.250924  1
  Fe  Fe30  1  0.502613  0.497387  0.997465  1
  Fe  Fe31  1  0.994775  0.497387  0.997465  1
  Fe  Fe32  1  0.500143  0.499857  0.497927  1
  Fe  Fe33  1  0.502613  0.005225  0.997465  1
  Fe  Fe34  1  0.999714  0.499857  0.497927  1
  Fe  Fe35  1  0.500143  0.000286  0.497927  1
  Fe  Fe36  1  0.000000  0.000000  0.999938  1
  Fe  Fe37  1  0.000000  0.000000  0.501252  1
