# generated using pymatgen
data_CaHo2Er5(B6Ru)4
_symmetry_space_group_name_H-M   'P 1'
_cell_length_a   3.64025000
_cell_length_b   9.11258843
_cell_length_c   11.50021300
_cell_angle_alpha   89.90086150
_cell_angle_beta   90.00000000
_cell_angle_gamma   90.00000000
_symmetry_Int_Tables_number   1
_chemical_formula_structural   CaHo2Er5(B6Ru)4
_chemical_formula_sum   'Ca1 Ho2 Er5 B24 Ru4'
_cell_volume   381.48564514
_cell_formula_units_Z   1
loop_
 _symmetry_equiv_pos_site_id
 _symmetry_equiv_pos_as_xyz
  1  'x, y, z'
loop_
 _atom_site_type_symbol
 _atom_site_label
 _atom_site_symmetry_multiplicity
 _atom_site_fract_x
 _atom_site_fract_y
 _atom_site_fract_z
 _atom_site_occupancy
  Ca  Ca0  1  0.000000  0.322598  0.413931  1
  Ho  Ho1  1  0.000000  0.675995  0.585049  1
  Ho  Ho2  1  0.000000  0.822632  0.086204  1
  Er  Er3  1  0.000000  0.178027  0.914681  1
  Er  Er4  1  0.000000  0.944020  0.371167  1
  Er  Er5  1  0.000000  0.057643  0.628264  1
  Er  Er6  1  0.000000  0.443087  0.129260  1
  Er  Er7  1  0.000000  0.556051  0.872300  1
  B  B8  1  0.500000  0.554806  0.432672  1
  B  B9  1  0.500000  0.446126  0.567944  1
  B  B10  1  0.500000  0.053419  0.066161  1
  B  B11  1  0.500000  0.945962  0.932619  1
  B  B12  1  0.500000  0.748957  0.419242  1
  B  B13  1  0.500000  0.251600  0.581659  1
  B  B14  1  0.500000  0.247931  0.079992  1
  B  B15  1  0.500000  0.751483  0.919580  1
  B  B16  1  0.500000  0.791964  0.265755  1
  B  B17  1  0.500000  0.209040  0.734814  1
  B  B18  1  0.500000  0.290129  0.233044  1
  B  B19  1  0.500000  0.708923  0.766230  1
  B  B20  1  0.500000  0.632128  0.185371  1
  B  B21  1  0.500000  0.368371  0.815729  1
  B  B22  1  0.500000  0.130720  0.313741  1
  B  B23  1  0.500000  0.868574  0.685039  1
  B  B24  1  0.500000  0.983097  0.211671  1
  B  B25  1  0.500000  0.016873  0.787426  1
  B  B26  1  0.500000  0.484223  0.287218  1
  B  B27  1  0.500000  0.516640  0.713134  1
  B  B28  1  0.500000  0.607415  0.029745  1
  B  B29  1  0.500000  0.392545  0.970720  1
  B  B30  1  0.500000  0.103109  0.471523  1
  B  B31  1  0.500000  0.895225  0.528921  1
  Ru  Ru32  1  0.000000  0.640312  0.319932  1
  Ru  Ru33  1  0.000000  0.361697  0.681251  1
  Ru  Ru34  1  0.000000  0.136558  0.176947  1
  Ru  Ru35  1  0.000000  0.862121  0.821063  1
