# generated using pymatgen
data_Li3Y3HgGeAs
_symmetry_space_group_name_H-M   'P 1'
_cell_length_a   7.22863000
_cell_length_b   7.22862981
_cell_length_c   4.20133700
_cell_angle_alpha   90.00000000
_cell_angle_beta   90.00000000
_cell_angle_gamma   120.00000085
_symmetry_Int_Tables_number   1
_chemical_formula_structural   Li3Y3HgGeAs
_chemical_formula_sum   'Li3 Y3 Hg1 Ge1 As1'
_cell_volume   190.12101632
_cell_formula_units_Z   1
loop_
 _symmetry_equiv_pos_site_id
 _symmetry_equiv_pos_as_xyz
  1  'x, y, z'
loop_
 _atom_site_type_symbol
 _atom_site_label
 _atom_site_symmetry_multiplicity
 _atom_site_fract_x
 _atom_site_fract_y
 _atom_site_fract_z
 _atom_site_occupancy
  Li  Li0  1  0.248450  0.000146  0.500000  1
  Li  Li1  1  0.751696  0.751550  0.500000  1
  Li  Li2  1  0.999854  0.248304  0.500000  1
  Y  Y3  1  0.996542  0.567338  0.000000  1
  Y  Y4  1  0.570796  0.003458  0.000000  1
  Y  Y5  1  0.432662  0.429204  0.000000  1
  Hg  Hg6  1  0.000000  0.000000  0.000000  1
  Ge  Ge7  1  0.666667  0.333333  0.500000  1
  As  As8  1  0.333333  0.666667  0.500000  1
