# generated using pymatgen
data_Yb2SmGa9Pd2
_symmetry_space_group_name_H-M   'P 1'
_cell_length_a   8.16975897
_cell_length_b   8.16975963
_cell_length_c   8.16975937
_cell_angle_alpha   149.26177602
_cell_angle_beta   108.16255347
_cell_angle_gamma   80.14091864
_symmetry_Int_Tables_number   1
_chemical_formula_structural   Yb2SmGa9Pd2
_chemical_formula_sum   'Yb2 Sm1 Ga9 Pd2'
_cell_volume   259.51827342
_cell_formula_units_Z   1
loop_
 _symmetry_equiv_pos_site_id
 _symmetry_equiv_pos_as_xyz
  1  'x, y, z'
loop_
 _atom_site_type_symbol
 _atom_site_label
 _atom_site_symmetry_multiplicity
 _atom_site_fract_x
 _atom_site_fract_y
 _atom_site_fract_z
 _atom_site_occupancy
  Yb  Yb0  1  0.198839  0.198839  0.000000  1
  Yb  Yb1  1  0.801161  0.801161  0.000000  1
  Sm  Sm2  1  0.500000  0.500000  0.000000  1
  Ga  Ga3  1  0.079287  0.362362  0.716925  1
  Ga  Ga4  1  0.920713  0.637638  0.283075  1
  Ga  Ga5  1  0.645438  0.362362  0.283075  1
  Ga  Ga6  1  0.354562  0.637638  0.716925  1
  Ga  Ga7  1  0.791935  0.157432  0.634503  1
  Ga  Ga8  1  0.208065  0.842568  0.365497  1
  Ga  Ga9  1  0.522928  0.157432  0.365497  1
  Ga  Ga10  1  0.477072  0.842568  0.634503  1
  Ga  Ga11  1  0.000000  0.500000  0.500000  1
  Pd  Pd12  1  0.817330  0.000000  0.817330  1
  Pd  Pd13  1  0.182670  0.000000  0.182670  1
