# generated using pymatgen
data_BaCaNiH4
_symmetry_space_group_name_H-M   'P 1'
_cell_length_a   7.49926700
_cell_length_b   7.49926700
_cell_length_c   7.49926700
_cell_angle_alpha   90.00000000
_cell_angle_beta   90.00000000
_cell_angle_gamma   90.00000000
_symmetry_Int_Tables_number   1
_chemical_formula_structural   BaCaNiH4
_chemical_formula_sum   'Ba4 Ca4 Ni4 H16'
_cell_volume   421.75131834
_cell_formula_units_Z   4
loop_
 _symmetry_equiv_pos_site_id
 _symmetry_equiv_pos_as_xyz
  1  'x, y, z'
loop_
 _atom_site_type_symbol
 _atom_site_label
 _atom_site_symmetry_multiplicity
 _atom_site_fract_x
 _atom_site_fract_y
 _atom_site_fract_z
 _atom_site_occupancy
  Ba  Ba0  1  0.163059  0.663059  0.836941  1
  Ba  Ba1  1  0.663059  0.836941  0.163059  1
  Ba  Ba2  1  0.836941  0.163059  0.663059  1
  Ba  Ba3  1  0.336941  0.336941  0.336941  1
  Ca  Ca4  1  0.843358  0.343358  0.156642  1
  Ca  Ca5  1  0.343358  0.156642  0.843358  1
  Ca  Ca6  1  0.156642  0.843358  0.343358  1
  Ca  Ca7  1  0.656642  0.656642  0.656642  1
  Ni  Ni8  1  0.448362  0.948362  0.551638  1
  Ni  Ni9  1  0.948362  0.551638  0.448362  1
  Ni  Ni10  1  0.551638  0.448362  0.948362  1
  Ni  Ni11  1  0.051638  0.051638  0.051638  1
  H  H12  1  0.571076  0.071076  0.428924  1
  H  H13  1  0.071076  0.428924  0.571076  1
  H  H14  1  0.428924  0.571076  0.071076  1
  H  H15  1  0.928924  0.928924  0.928924  1
  H  H16  1  0.252344  0.964668  0.072574  1
  H  H17  1  0.927426  0.752344  0.535332  1
  H  H18  1  0.464668  0.427426  0.747656  1
  H  H19  1  0.752344  0.535332  0.927426  1
  H  H20  1  0.427426  0.747656  0.464668  1
  H  H21  1  0.964668  0.072574  0.252344  1
  H  H22  1  0.747656  0.464668  0.427426  1
  H  H23  1  0.072574  0.252344  0.964668  1
  H  H24  1  0.535332  0.927426  0.752344  1
  H  H25  1  0.247656  0.035332  0.572574  1
  H  H26  1  0.572574  0.247656  0.035332  1
  H  H27  1  0.035332  0.572574  0.247656  1
