# generated using pymatgen
data_Sm5CoRhO12
_symmetry_space_group_name_H-M   'P 1'
_cell_length_a   6.92516224
_cell_length_b   6.92516212
_cell_length_c   7.46040900
_cell_angle_alpha   74.43941878
_cell_angle_beta   74.43942765
_cell_angle_gamma   50.46278637
_symmetry_Int_Tables_number   1
_chemical_formula_structural   Sm5CoRhO12
_chemical_formula_sum   'Sm5 Co1 Rh1 O12'
_cell_volume   263.51612501
_cell_formula_units_Z   1
loop_
 _symmetry_equiv_pos_site_id
 _symmetry_equiv_pos_as_xyz
  1  'x, y, z'
loop_
 _atom_site_type_symbol
 _atom_site_label
 _atom_site_symmetry_multiplicity
 _atom_site_fract_x
 _atom_site_fract_y
 _atom_site_fract_z
 _atom_site_occupancy
  Sm  Sm0  1  0.313704  0.298412  0.356635  1
  Sm  Sm1  1  0.701588  0.686296  0.643365  1
  Sm  Sm2  1  0.693825  0.690399  0.165411  1
  Sm  Sm3  1  0.309601  0.306175  0.834589  1
  Sm  Sm4  1  0.997572  0.002428  0.500000  1
  Co  Co5  1  0.747826  0.252174  0.000000  1
  Rh  Rh6  1  0.237626  0.762374  0.000000  1
  O  O7  1  0.100028  0.596137  0.576071  1
  O  O8  1  0.983825  0.014739  0.172149  1
  O  O9  1  0.403863  0.899972  0.423929  1
  O  O10  1  0.507382  0.492778  0.174528  1
  O  O11  1  0.098427  0.577641  0.080228  1
  O  O12  1  0.907837  0.401363  0.422372  1
  O  O13  1  0.985261  0.016175  0.827851  1
  O  O14  1  0.598637  0.092162  0.577628  1
  O  O15  1  0.507222  0.492618  0.825472  1
  O  O16  1  0.584197  0.100779  0.078234  1
  O  O17  1  0.422359  0.901573  0.919772  1
  O  O18  1  0.899221  0.415803  0.921766  1
