# generated using pymatgen
data_Tb6Lu10Cd4TcPt3
_symmetry_space_group_name_H-M   'P 1'
_cell_length_a   9.59954828
_cell_length_b   9.59954778
_cell_length_c   9.59954830
_cell_angle_alpha   59.47673743
_cell_angle_beta   59.47674001
_cell_angle_gamma   59.47673365
_symmetry_Int_Tables_number   1
_chemical_formula_structural   Tb6Lu10Cd4TcPt3
_chemical_formula_sum   'Tb6 Lu10 Cd4 Tc1 Pt3'
_cell_volume   618.06956152
_cell_formula_units_Z   1
loop_
 _symmetry_equiv_pos_site_id
 _symmetry_equiv_pos_as_xyz
  1  'x, y, z'
loop_
 _atom_site_type_symbol
 _atom_site_label
 _atom_site_symmetry_multiplicity
 _atom_site_fract_x
 _atom_site_fract_y
 _atom_site_fract_z
 _atom_site_occupancy
  Tb  Tb0  1  0.936657  0.563425  0.563425  1
  Tb  Tb1  1  0.554486  0.940481  0.940481  1
  Tb  Tb2  1  0.563425  0.936657  0.563425  1
  Tb  Tb3  1  0.940481  0.554486  0.940481  1
  Tb  Tb4  1  0.563425  0.563425  0.936657  1
  Tb  Tb5  1  0.940481  0.940481  0.554486  1
  Lu  Lu6  1  0.350838  0.350838  0.350838  1
  Lu  Lu7  1  0.351356  0.351356  0.949024  1
  Lu  Lu8  1  0.351356  0.949024  0.351356  1
  Lu  Lu9  1  0.949024  0.351356  0.351356  1
  Lu  Lu10  1  0.817067  0.185803  0.185803  1
  Lu  Lu11  1  0.185634  0.811788  0.811788  1
  Lu  Lu12  1  0.185803  0.817067  0.185803  1
  Lu  Lu13  1  0.811788  0.185634  0.811788  1
  Lu  Lu14  1  0.185803  0.185803  0.817067  1
  Lu  Lu15  1  0.811788  0.811788  0.185634  1
  Cd  Cd16  1  0.579307  0.579307  0.579307  1
  Cd  Cd17  1  0.580386  0.580386  0.256235  1
  Cd  Cd18  1  0.580386  0.256235  0.580386  1
  Cd  Cd19  1  0.256235  0.580386  0.580386  1
  Tc  Tc20  1  0.144592  0.144592  0.144592  1
  Pt  Pt21  1  0.143281  0.143281  0.573121  1
  Pt  Pt22  1  0.143281  0.573121  0.143281  1
  Pt  Pt23  1  0.573121  0.143281  0.143281  1
