# generated using pymatgen
data_CePr2Dy3(Al3Ru)8
_symmetry_space_group_name_H-M   'P 1'
_cell_length_a   8.84544700
_cell_length_b   8.86591030
_cell_length_c   9.63310000
_cell_angle_alpha   90.00000000
_cell_angle_beta   90.00000000
_cell_angle_gamma   119.92367466
_symmetry_Int_Tables_number   1
_chemical_formula_structural   CePr2Dy3(Al3Ru)8
_chemical_formula_sum   'Ce1 Pr2 Dy3 Al24 Ru8'
_cell_volume   654.74670653
_cell_formula_units_Z   1
loop_
 _symmetry_equiv_pos_site_id
 _symmetry_equiv_pos_as_xyz
  1  'x, y, z'
loop_
 _atom_site_type_symbol
 _atom_site_label
 _atom_site_symmetry_multiplicity
 _atom_site_fract_x
 _atom_site_fract_y
 _atom_site_fract_z
 _atom_site_occupancy
  Ce  Ce0  1  0.195017  0.390035  0.250000  1
  Pr  Pr1  1  0.384627  0.191751  0.750000  1
  Pr  Pr2  1  0.807122  0.191751  0.750000  1
  Dy  Dy3  1  0.807149  0.614298  0.750000  1
  Dy  Dy4  1  0.191937  0.806505  0.250000  1
  Dy  Dy5  1  0.614568  0.806505  0.250000  1
  Al  Al6  1  0.334416  0.668835  0.485555  1
  Al  Al7  1  0.667336  0.334670  0.989959  1
  Al  Al8  1  0.667336  0.334670  0.510041  1
  Al  Al9  1  0.334416  0.668835  0.014445  1
  Al  Al10  1  0.163282  0.326564  0.574872  1
  Al  Al11  1  0.674263  0.835129  0.573931  1
  Al  Al12  1  0.160866  0.835129  0.573931  1
  Al  Al13  1  0.836654  0.161333  0.080027  1
  Al  Al14  1  0.836654  0.161333  0.419973  1
  Al  Al15  1  0.837775  0.675550  0.077319  1
  Al  Al16  1  0.324679  0.161333  0.080027  1
  Al  Al17  1  0.674263  0.835129  0.926069  1
  Al  Al18  1  0.163282  0.326564  0.925128  1
  Al  Al19  1  0.837775  0.675550  0.422681  1
  Al  Al20  1  0.000835  0.001668  0.250000  1
  Al  Al21  1  0.997823  0.995647  0.750000  1
  Al  Al22  1  0.560462  0.120926  0.250000  1
  Al  Al23  1  0.440682  0.563746  0.750000  1
  Al  Al24  1  0.123064  0.563746  0.750000  1
  Al  Al25  1  0.876381  0.440281  0.250000  1
  Al  Al26  1  0.563900  0.440281  0.250000  1
  Al  Al27  1  0.435721  0.871444  0.750000  1
  Al  Al28  1  0.160866  0.835129  0.926069  1
  Al  Al29  1  0.324679  0.161333  0.419973  1
  Ru  Ru30  1  0.999736  0.999470  0.499471  1
  Ru  Ru31  1  0.999736  0.999470  0.000529  1
  Ru  Ru32  1  0.499573  0.999147  0.497726  1
  Ru  Ru33  1  0.499747  0.501775  0.003292  1
  Ru  Ru34  1  0.002028  0.501775  0.003292  1
  Ru  Ru35  1  0.002028  0.501775  0.496708  1
  Ru  Ru36  1  0.499747  0.501775  0.496708  1
  Ru  Ru37  1  0.499573  0.999147  0.002274  1
