# generated using pymatgen
data_Pr2Nd4SbMoO14
_symmetry_space_group_name_H-M   'P 1'
_cell_length_a   6.68116346
_cell_length_b   6.68116462
_cell_length_c   7.77199500
_cell_angle_alpha   89.81074215
_cell_angle_beta   90.18927504
_cell_angle_gamma   109.54772481
_symmetry_Int_Tables_number   1
_chemical_formula_structural   Pr2Nd4SbMoO14
_chemical_formula_sum   'Pr2 Nd4 Sb1 Mo1 O14'
_cell_volume   326.92754387
_cell_formula_units_Z   1
loop_
 _symmetry_equiv_pos_site_id
 _symmetry_equiv_pos_as_xyz
  1  'x, y, z'
loop_
 _atom_site_type_symbol
 _atom_site_label
 _atom_site_symmetry_multiplicity
 _atom_site_fract_x
 _atom_site_fract_y
 _atom_site_fract_z
 _atom_site_occupancy
  Pr  Pr0  1  0.500000  0.500000  0.500000  1
  Pr  Pr1  1  0.500000  0.500000  0.000000  1
  Nd  Nd2  1  0.999456  0.534215  0.250236  1
  Nd  Nd3  1  0.000544  0.465785  0.749764  1
  Nd  Nd4  1  0.534215  0.999456  0.749764  1
  Nd  Nd5  1  0.465785  0.000544  0.250236  1
  Sb  Sb6  1  0.000000  0.000000  0.000000  1
  Mo  Mo7  1  0.000000  0.000000  0.500000  1
  O  O8  1  0.936866  0.063134  0.750436  1
  O  O9  1  0.063134  0.936866  0.249564  1
  O  O10  1  0.364303  0.635697  0.250440  1
  O  O11  1  0.635697  0.364303  0.749560  1
  O  O12  1  0.369009  0.630991  0.749384  1
  O  O13  1  0.630991  0.369009  0.250616  1
  O  O14  1  0.314477  0.068911  0.971314  1
  O  O15  1  0.687011  0.929353  0.472858  1
  O  O16  1  0.312989  0.070647  0.527142  1
  O  O17  1  0.685523  0.931089  0.028686  1
  O  O18  1  0.070647  0.312989  0.472858  1
  O  O19  1  0.931089  0.685523  0.971314  1
  O  O20  1  0.929353  0.687011  0.527142  1
  O  O21  1  0.068911  0.314477  0.028686  1
