# generated using pymatgen
data_Dy6Lu2Sc12Si15As
_symmetry_space_group_name_H-M   'P 1'
_cell_length_a   7.12301916
_cell_length_b   7.36366615
_cell_length_c   13.96204961
_cell_angle_alpha   89.96925423
_cell_angle_beta   88.89304670
_cell_angle_gamma   90.07026957
_symmetry_Int_Tables_number   1
_chemical_formula_structural   Dy6Lu2Sc12Si15As
_chemical_formula_sum   'Dy6 Lu2 Sc12 Si15 As1'
_cell_volume   732.19359829
_cell_formula_units_Z   1
loop_
 _symmetry_equiv_pos_site_id
 _symmetry_equiv_pos_as_xyz
  1  'x, y, z'
loop_
 _atom_site_type_symbol
 _atom_site_label
 _atom_site_symmetry_multiplicity
 _atom_site_fract_x
 _atom_site_fract_y
 _atom_site_fract_z
 _atom_site_occupancy
  Dy  Dy0  1  0.487652  0.676455  0.902951  1
  Dy  Dy1  1  0.991862  0.822155  0.595434  1
  Dy  Dy2  1  0.512800  0.324122  0.097068  1
  Dy  Dy3  1  0.006652  0.177868  0.404234  1
  Dy  Dy4  1  0.505334  0.321878  0.401631  1
  Dy  Dy5  1  0.499181  0.677027  0.598024  1
  Lu  Lu6  1  0.013051  0.176969  0.097524  1
  Lu  Lu7  1  0.987574  0.823463  0.902140  1
  Sc  Sc8  1  0.163921  0.501719  0.750398  1
  Sc  Sc9  1  0.835914  0.498132  0.252277  1
  Sc  Sc10  1  0.335785  0.001525  0.250917  1
  Sc  Sc11  1  0.664302  0.998492  0.749550  1
  Sc  Sc12  1  0.338679  0.171334  0.626997  1
  Sc  Sc13  1  0.662258  0.827260  0.373428  1
  Sc  Sc14  1  0.159382  0.672947  0.376733  1
  Sc  Sc15  1  0.669941  0.824623  0.125061  1
  Sc  Sc16  1  0.837804  0.327922  0.623103  1
  Sc  Sc17  1  0.329605  0.174867  0.874501  1
  Sc  Sc18  1  0.832612  0.321709  0.874796  1
  Sc  Sc19  1  0.167560  0.678240  0.124708  1
  Si  Si20  1  0.034822  0.115048  0.749780  1
  Si  Si21  1  0.964841  0.885345  0.249162  1
  Si  Si22  1  0.460794  0.617269  0.248758  1
  Si  Si23  1  0.538063  0.383003  0.751043  1
  Si  Si24  1  0.286453  0.870533  0.750908  1
  Si  Si25  1  0.714512  0.127947  0.248481  1
  Si  Si26  1  0.210414  0.373173  0.249060  1
  Si  Si27  1  0.791147  0.627640  0.751024  1
  Si  Si28  1  0.814035  0.539834  0.457441  1
  Si  Si29  1  0.334764  0.962533  0.460840  1
  Si  Si30  1  0.844548  0.535302  0.039201  1
  Si  Si31  1  0.665136  0.037418  0.539911  1
  Si  Si32  1  0.155173  0.465194  0.960487  1
  Si  Si33  1  0.658007  0.033659  0.959652  1
  Si  Si34  1  0.342097  0.966933  0.040217  1
  As  As35  1  0.183322  0.460463  0.542560  1
