# generated using pymatgen
data_Er4Mn5Cr4Co11P12
_symmetry_space_group_name_H-M   'P 1'
_cell_length_a   3.61625500
_cell_length_b   10.37065908
_cell_length_c   12.00664024
_cell_angle_alpha   89.94784771
_cell_angle_beta   90.00000000
_cell_angle_gamma   90.00000000
_symmetry_Int_Tables_number   1
_chemical_formula_structural   Er4Mn5Cr4Co11P12
_chemical_formula_sum   'Er4 Mn5 Cr4 Co11 P12'
_cell_volume   450.28421493
_cell_formula_units_Z   1
loop_
 _symmetry_equiv_pos_site_id
 _symmetry_equiv_pos_as_xyz
  1  'x, y, z'
loop_
 _atom_site_type_symbol
 _atom_site_label
 _atom_site_symmetry_multiplicity
 _atom_site_fract_x
 _atom_site_fract_y
 _atom_site_fract_z
 _atom_site_occupancy
  Er  Er0  1  0.250000  0.583806  0.708498  1
  Er  Er1  1  0.250000  0.913546  0.209536  1
  Er  Er2  1  0.750000  0.418421  0.291827  1
  Er  Er3  1  0.750000  0.083959  0.790807  1
  Mn  Mn4  1  0.250000  0.407813  0.491899  1
  Mn  Mn5  1  0.250000  0.092617  0.991448  1
  Mn  Mn6  1  0.750000  0.593329  0.509404  1
  Mn  Mn7  1  0.750000  0.907069  0.008557  1
  Mn  Mn8  1  0.250000  0.217031  0.175731  1
  Cr  Cr9  1  0.250000  0.709187  0.988862  1
  Cr  Cr10  1  0.250000  0.791259  0.489131  1
  Cr  Cr11  1  0.750000  0.291441  0.011972  1
  Cr  Cr12  1  0.750000  0.209468  0.511794  1
  Co  Co13  1  0.250000  0.277305  0.677565  1
  Co  Co14  1  0.750000  0.777956  0.822096  1
  Co  Co15  1  0.750000  0.723021  0.322827  1
  Co  Co16  1  0.250000  0.884008  0.696621  1
  Co  Co17  1  0.250000  0.616672  0.196597  1
  Co  Co18  1  0.750000  0.116255  0.303349  1
  Co  Co19  1  0.750000  0.384412  0.803232  1
  Co  Co20  1  0.250000  0.465850  0.933771  1
  Co  Co21  1  0.250000  0.035490  0.434807  1
  Co  Co22  1  0.750000  0.536063  0.064527  1
  Co  Co23  1  0.750000  0.964866  0.565426  1
  P  P24  1  0.250000  0.419790  0.112677  1
  P  P25  1  0.250000  0.080789  0.612751  1
  P  P26  1  0.750000  0.581215  0.886632  1
  P  P27  1  0.750000  0.919580  0.387567  1
  P  P28  1  0.250000  0.269234  0.867129  1
  P  P29  1  0.250000  0.233276  0.369474  1
  P  P30  1  0.750000  0.731117  0.131934  1
  P  P31  1  0.750000  0.768395  0.632169  1
  P  P32  1  0.250000  0.599839  0.384648  1
  P  P33  1  0.250000  0.900677  0.883941  1
  P  P34  1  0.750000  0.400653  0.615572  1
  P  P35  1  0.750000  0.094592  0.115219  1
