# generated using pymatgen
data_SmTeClO3
_symmetry_space_group_name_H-M   'P 1'
_cell_length_a   7.47389400
_cell_length_b   7.21134100
_cell_length_c   9.31793600
_cell_angle_alpha   90.00000000
_cell_angle_beta   90.00000000
_cell_angle_gamma   90.00000000
_symmetry_Int_Tables_number   1
_chemical_formula_structural   SmTeClO3
_chemical_formula_sum   'Sm4 Te4 Cl4 O12'
_cell_volume   502.20691653
_cell_formula_units_Z   4
loop_
 _symmetry_equiv_pos_site_id
 _symmetry_equiv_pos_as_xyz
  1  'x, y, z'
loop_
 _atom_site_type_symbol
 _atom_site_label
 _atom_site_symmetry_multiplicity
 _atom_site_fract_x
 _atom_site_fract_y
 _atom_site_fract_z
 _atom_site_occupancy
  Sm  Sm0  1  0.596336  0.250000  0.038104  1
  Sm  Sm1  1  0.096337  0.250000  0.461896  1
  Sm  Sm2  1  0.903663  0.750000  0.538105  1
  Sm  Sm3  1  0.403664  0.750000  0.961895  1
  Te  Te4  1  0.815867  0.750000  0.130155  1
  Te  Te5  1  0.315867  0.750000  0.369845  1
  Te  Te6  1  0.684133  0.250000  0.630154  1
  Te  Te7  1  0.184134  0.250000  0.869846  1
  Cl  Cl8  1  0.936424  0.250000  0.183182  1
  Cl  Cl9  1  0.436423  0.250000  0.316818  1
  Cl  Cl10  1  0.563576  0.750000  0.683182  1
  Cl  Cl11  1  0.063577  0.750000  0.816818  1
  O  O12  1  0.648528  0.568533  0.064726  1
  O  O13  1  0.648528  0.931468  0.064726  1
  O  O14  1  0.257846  0.750000  0.174369  1
  O  O15  1  0.757845  0.750000  0.325632  1
  O  O16  1  0.148527  0.568533  0.435273  1
  O  O17  1  0.148527  0.931468  0.435273  1
  O  O18  1  0.851472  0.068532  0.564727  1
  O  O19  1  0.851472  0.431467  0.564727  1
  O  O20  1  0.242154  0.250000  0.674369  1
  O  O21  1  0.742155  0.250000  0.825631  1
  O  O22  1  0.351472  0.068532  0.935273  1
  O  O23  1  0.351472  0.431467  0.935273  1
