# generated using pymatgen
data_Tb3Co9(SiB2)2
_symmetry_space_group_name_H-M   'P 1'
_cell_length_a   5.11254606
_cell_length_b   5.11016386
_cell_length_c   9.32202700
_cell_angle_alpha   89.99999094
_cell_angle_beta   90.00007304
_cell_angle_gamma   119.99803506
_symmetry_Int_Tables_number   1
_chemical_formula_structural   Tb3Co9(SiB2)2
_chemical_formula_sum   'Tb3 Co9 Si2 B4'
_cell_volume   210.92188652
_cell_formula_units_Z   1
loop_
 _symmetry_equiv_pos_site_id
 _symmetry_equiv_pos_as_xyz
  1  'x, y, z'
loop_
 _atom_site_type_symbol
 _atom_site_label
 _atom_site_symmetry_multiplicity
 _atom_site_fract_x
 _atom_site_fract_y
 _atom_site_fract_z
 _atom_site_occupancy
  Tb  Tb0  1  0.999988  0.000001  0.999994  1
  Tb  Tb1  1  0.999995  0.000000  0.338774  1
  Tb  Tb2  1  0.999999  0.000000  0.661176  1
  Co  Co3  1  0.499997  0.000000  0.499946  1
  Co  Co4  1  0.499997  0.500000  0.499952  1
  Co  Co5  1  0.999996  0.499999  0.499944  1
  Co  Co6  1  0.499992  0.000000  0.196164  1
  Co  Co7  1  0.499992  0.500000  0.196160  1
  Co  Co8  1  0.999992  0.500000  0.196177  1
  Co  Co9  1  0.499998  0.000000  0.803910  1
  Co  Co10  1  0.499997  0.500000  0.803905  1
  Co  Co11  1  0.999997  0.500000  0.803894  1
  Si  Si12  1  0.333354  0.666711  0.999989  1
  Si  Si13  1  0.666626  0.333287  0.999989  1
  B  B14  1  0.333376  0.666689  0.345690  1
  B  B15  1  0.666611  0.333311  0.345690  1
  B  B16  1  0.666638  0.333302  0.654324  1
  B  B17  1  0.333356  0.666698  0.654325  1
