# generated using pymatgen
data_Ho10Si16Au
_symmetry_space_group_name_H-M   'P 1'
_cell_length_a   11.07927052
_cell_length_b   11.07955315
_cell_length_c   11.07927066
_cell_angle_alpha   144.74395790
_cell_angle_beta   136.37326491
_cell_angle_gamma   57.28655703
_symmetry_Int_Tables_number   1
_chemical_formula_structural   Ho10Si16Au
_chemical_formula_sum   'Ho10 Si16 Au1'
_cell_volume   537.25035946
_cell_formula_units_Z   1
loop_
 _symmetry_equiv_pos_site_id
 _symmetry_equiv_pos_as_xyz
  1  'x, y, z'
loop_
 _atom_site_type_symbol
 _atom_site_label
 _atom_site_symmetry_multiplicity
 _atom_site_fract_x
 _atom_site_fract_y
 _atom_site_fract_z
 _atom_site_occupancy
  Ho  Ho0  1  0.053581  0.565992  0.021369  1
  Ho  Ho1  1  0.352621  0.370355  0.521665  1
  Ho  Ho2  1  0.154512  0.165130  0.521579  1
  Ho  Ho3  1  0.451258  0.963890  0.015073  1
  Ho  Ho4  1  0.643552  0.165130  0.010619  1
  Ho  Ho5  1  0.948817  0.963890  0.512632  1
  Ho  Ho6  1  0.848690  0.370355  0.017734  1
  Ho  Ho7  1  0.544624  0.565992  0.512412  1
  Ho  Ho8  1  0.251502  0.764864  0.012916  1
  Ho  Ho9  1  0.751948  0.764864  0.513362  1
  Si  Si10  1  0.117597  0.077779  0.960180  1
  Si  Si11  1  0.797389  0.171175  0.373786  1
  Si  Si12  1  0.300095  0.899335  0.599240  1
  Si  Si13  1  0.399844  0.501119  0.101275  1
  Si  Si14  1  0.881332  0.853106  0.971774  1
  Si  Si15  1  0.104665  0.710658  0.605993  1
  Si  Si16  1  0.199722  0.582230  0.382507  1
  Si  Si17  1  0.699246  0.295821  0.596576  1
  Si  Si18  1  0.002232  0.432339  0.430107  1
  Si  Si19  1  0.714354  0.668158  0.953804  1
  Si  Si20  1  0.601040  0.703197  0.102156  1
  Si  Si21  1  0.999566  0.082877  0.083311  1
  Si  Si22  1  0.501072  0.392947  0.891875  1
  Si  Si23  1  0.285217  0.241577  0.956360  1
  Si  Si24  1  0.584229  0.041442  0.457213  1
  Si  Si25  1  0.415141  0.870625  0.455484  1
  Au  Au26  1  0.896156  0.504071  0.607916  1
