# generated using pymatgen
data_Gd6Tc16O
_symmetry_space_group_name_H-M   'P 1'
_cell_length_a   8.04076317
_cell_length_b   8.04076280
_cell_length_c   8.04076300
_cell_angle_alpha   109.47122617
_cell_angle_beta   109.47122525
_cell_angle_gamma   109.47121694
_symmetry_Int_Tables_number   1
_chemical_formula_structural   Gd6Tc16O
_chemical_formula_sum   'Gd6 Tc16 O1'
_cell_volume   400.19334078
_cell_formula_units_Z   1
loop_
 _symmetry_equiv_pos_site_id
 _symmetry_equiv_pos_as_xyz
  1  'x, y, z'
loop_
 _atom_site_type_symbol
 _atom_site_label
 _atom_site_symmetry_multiplicity
 _atom_site_fract_x
 _atom_site_fract_y
 _atom_site_fract_z
 _atom_site_occupancy
  Gd  Gd0  1  0.735675  0.735675  0.000000  1
  Gd  Gd1  1  0.264324  0.000000  0.264325  1
  Gd  Gd2  1  0.735675  0.000000  0.735675  1
  Gd  Gd3  1  0.000000  0.735675  0.735676  1
  Gd  Gd4  1  0.000000  0.264324  0.264325  1
  Gd  Gd5  1  0.264324  0.264324  0.000000  1
  Tc  Tc6  1  0.000000  0.500000  0.000000  1
  Tc  Tc7  1  0.500000  0.000000  0.000000  1
  Tc  Tc8  1  0.000000  0.000000  0.500000  1
  Tc  Tc9  1  0.500000  0.500000  0.500000  1
  Tc  Tc10  1  0.340407  0.340407  0.680813  1
  Tc  Tc11  1  0.659593  0.659593  0.319187  1
  Tc  Tc12  1  0.000000  0.340407  0.659593  1
  Tc  Tc13  1  0.319187  0.659593  0.659593  1
  Tc  Tc14  1  0.659593  0.319187  0.659593  1
  Tc  Tc15  1  0.340407  0.000000  0.659593  1
  Tc  Tc16  1  0.659593  0.340407  0.000000  1
  Tc  Tc17  1  0.340407  0.659593  0.000000  1
  Tc  Tc18  1  0.340407  0.680813  0.340407  1
  Tc  Tc19  1  0.000000  0.659593  0.340407  1
  Tc  Tc20  1  0.659593  0.000000  0.340407  1
  Tc  Tc21  1  0.680813  0.340407  0.340407  1
  O  O22  1  0.000000  0.000000  0.000000  1
