# generated using pymatgen
data_Ac5P12Ir8Ru11
_symmetry_space_group_name_H-M   'P 1'
_cell_length_a   12.93603319
_cell_length_b   12.85179090
_cell_length_c   4.06865200
_cell_angle_alpha   90.00000000
_cell_angle_beta   90.00000000
_cell_angle_gamma   119.79834645
_symmetry_Int_Tables_number   1
_chemical_formula_structural   Ac5P12Ir8Ru11
_chemical_formula_sum   'Ac5 P12 Ir8 Ru11'
_cell_volume   586.98209221
_cell_formula_units_Z   1
loop_
 _symmetry_equiv_pos_site_id
 _symmetry_equiv_pos_as_xyz
  1  'x, y, z'
loop_
 _atom_site_type_symbol
 _atom_site_label
 _atom_site_symmetry_multiplicity
 _atom_site_fract_x
 _atom_site_fract_y
 _atom_site_fract_z
 _atom_site_occupancy
  Ac  Ac0  1  0.666900  0.330263  0.000000  1
  Ac  Ac1  1  0.333716  0.667189  0.000000  1
  Ac  Ac2  1  0.812991  0.001087  0.500000  1
  Ac  Ac3  1  0.184976  0.187263  0.500000  1
  Ac  Ac4  1  0.000002  0.814351  0.500000  1
  P  P5  1  0.623999  0.001773  0.000000  1
  P  P6  1  0.371036  0.377763  0.000000  1
  P  P7  1  0.007698  0.629595  0.000000  1
  P  P8  1  0.691253  0.521522  0.500000  1
  P  P9  1  0.829461  0.302358  0.500000  1
  P  P10  1  0.312060  0.834590  0.500000  1
  P  P11  1  0.522238  0.688501  0.500000  1
  P  P12  1  0.188087  0.002335  0.000000  1
  P  P13  1  0.810718  0.811023  0.000000  1
  P  P14  1  0.997483  0.190056  0.000000  1
  P  P15  1  0.478139  0.162755  0.500000  1
  P  P16  1  0.167022  0.479574  0.500000  1
  Ir  Ir17  1  0.620727  0.800260  0.000000  1
  Ir  Ir18  1  0.181085  0.380884  0.000000  1
  Ir  Ir19  1  0.378019  0.184581  0.000000  1
  Ir  Ir20  1  0.199238  0.822020  0.000000  1
  Ir  Ir21  1  0.803839  0.620040  0.000000  1
  Ir  Ir22  1  0.872906  0.506905  0.500000  1
  Ir  Ir23  1  0.492847  0.362766  0.500000  1
  Ir  Ir24  1  0.998532  0.000052  0.000000  1
  Ru  Ru25  1  0.634900  0.121052  0.500000  1
  Ru  Ru26  1  0.123652  0.638241  0.500000  1
  Ru  Ru27  1  0.364546  0.486280  0.500000  1
  Ru  Ru28  1  0.511263  0.873911  0.500000  1
  Ru  Ru29  1  0.710633  0.708779  0.500000  1
  Ru  Ru30  1  0.001713  0.291522  0.500000  1
  Ru  Ru31  1  0.447479  0.001134  0.000000  1
  Ru  Ru32  1  0.551640  0.548094  0.000000  1
  Ru  Ru33  1  0.000240  0.450205  0.000000  1
  Ru  Ru34  1  0.819864  0.199242  0.000000  1
  Ru  Ru35  1  0.289096  0.002032  0.500000  1
