# generated using pymatgen
data_ErSc3Al18RePd5
_symmetry_space_group_name_H-M   'P 1'
_cell_length_a   7.56731490
_cell_length_b   7.56289887
_cell_length_c   9.37775931
_cell_angle_alpha   89.73910341
_cell_angle_beta   89.73925215
_cell_angle_gamma   119.33739701
_symmetry_Int_Tables_number   1
_chemical_formula_structural   ErSc3Al18RePd5
_chemical_formula_sum   'Er1 Sc3 Al18 Re1 Pd5'
_cell_volume   467.84643626
_cell_formula_units_Z   1
loop_
 _symmetry_equiv_pos_site_id
 _symmetry_equiv_pos_as_xyz
  1  'x, y, z'
loop_
 _atom_site_type_symbol
 _atom_site_label
 _atom_site_symmetry_multiplicity
 _atom_site_fract_x
 _atom_site_fract_y
 _atom_site_fract_z
 _atom_site_occupancy
  Er  Er0  1  0.324543  0.004321  0.752720  1
  Sc  Sc1  1  0.994760  0.675853  0.247104  1
  Sc  Sc2  1  0.003834  0.323259  0.753158  1
  Sc  Sc3  1  0.677335  0.996140  0.246584  1
  Al  Al4  1  0.127961  0.129260  0.248726  1
  Al  Al5  1  0.868278  0.869457  0.752396  1
  Al  Al6  1  0.995957  0.331050  0.077627  1
  Al  Al7  1  0.999784  0.665318  0.926405  1
  Al  Al8  1  0.998960  0.658878  0.577819  1
  Al  Al9  1  0.338249  0.997639  0.415025  1
  Al  Al10  1  0.997117  0.337710  0.418177  1
  Al  Al11  1  0.666017  0.002057  0.577576  1
  Al  Al12  1  0.671725  0.003355  0.925691  1
  Al  Al13  1  0.331409  0.996164  0.081665  1
  Al  Al14  1  0.330678  0.333755  0.557571  1
  Al  Al15  1  0.670384  0.670541  0.436571  1
  Al  Al16  1  0.672187  0.672336  0.060620  1
  Al  Al17  1  0.327409  0.330193  0.945117  1
  Al  Al18  1  0.342446  0.554915  0.249218  1
  Al  Al19  1  0.659466  0.449918  0.750500  1
  Al  Al20  1  0.555317  0.343324  0.249053  1
  Al  Al21  1  0.446429  0.655890  0.750579  1
  Re  Re22  1  0.000347  0.999355  0.000692  1
  Pd  Pd23  1  0.670882  0.327010  0.999715  1
  Pd  Pd24  1  0.328121  0.672530  0.000031  1
  Pd  Pd25  1  0.328211  0.672959  0.499801  1
  Pd  Pd26  1  0.671051  0.327100  0.499912  1
  Pd  Pd27  1  0.001139  0.999712  0.499944  1
