# generated using pymatgen
data_Nd17Er3Sn16
_symmetry_space_group_name_H-M   'P 1'
_cell_length_a   8.24733230
_cell_length_b   8.39313030
_cell_length_c   15.92781900
_cell_angle_alpha   90.00000000
_cell_angle_beta   90.00000000
_cell_angle_gamma   89.96923928
_symmetry_Int_Tables_number   1
_chemical_formula_structural   Nd17Er3Sn16
_chemical_formula_sum   'Nd17 Er3 Sn16'
_cell_volume   1102.53835870
_cell_formula_units_Z   1
loop_
 _symmetry_equiv_pos_site_id
 _symmetry_equiv_pos_as_xyz
  1  'x, y, z'
loop_
 _atom_site_type_symbol
 _atom_site_label
 _atom_site_symmetry_multiplicity
 _atom_site_fract_x
 _atom_site_fract_y
 _atom_site_fract_z
 _atom_site_occupancy
  Nd  Nd0  1  0.017491  0.181123  0.401070  1
  Nd  Nd1  1  0.368336  0.836985  0.120703  1
  Nd  Nd2  1  0.132469  0.336291  0.620615  1
  Nd  Nd3  1  0.481657  0.681599  0.901377  1
  Nd  Nd4  1  0.868173  0.663030  0.121321  1
  Nd  Nd5  1  0.132469  0.336291  0.879385  1
  Nd  Nd6  1  0.481657  0.681599  0.598623  1
  Nd  Nd7  1  0.631041  0.162766  0.620338  1
  Nd  Nd8  1  0.802521  0.498032  0.750000  1
  Nd  Nd9  1  0.868173  0.663030  0.378679  1
  Nd  Nd10  1  0.017491  0.181123  0.098930  1
  Nd  Nd11  1  0.982729  0.819559  0.901199  1
  Nd  Nd12  1  0.631041  0.162766  0.879662  1
  Nd  Nd13  1  0.517677  0.318981  0.099109  1
  Nd  Nd14  1  0.368336  0.836985  0.379297  1
  Nd  Nd15  1  0.982729  0.819559  0.598801  1
  Nd  Nd16  1  0.517677  0.318981  0.400891  1
  Er  Er17  1  0.199618  0.502109  0.250000  1
  Er  Er18  1  0.699803  0.998110  0.250000  1
  Er  Er19  1  0.300241  0.002327  0.750000  1
  Sn  Sn20  1  0.791574  0.463497  0.541723  1
  Sn  Sn21  1  0.708454  0.964774  0.456078  1
  Sn  Sn22  1  0.674709  0.858236  0.750000  1
  Sn  Sn23  1  0.208413  0.534903  0.456132  1
  Sn  Sn24  1  0.291717  0.035247  0.956326  1
  Sn  Sn25  1  0.824552  0.353685  0.250000  1
  Sn  Sn26  1  0.791574  0.463497  0.958277  1
  Sn  Sn27  1  0.564677  0.616927  0.250000  1
  Sn  Sn28  1  0.208413  0.534903  0.043868  1
  Sn  Sn29  1  0.431532  0.382215  0.750000  1
  Sn  Sn30  1  0.177522  0.647312  0.750000  1
  Sn  Sn31  1  0.936534  0.114604  0.750000  1
  Sn  Sn32  1  0.291717  0.035247  0.543674  1
  Sn  Sn33  1  0.708454  0.964774  0.043922  1
  Sn  Sn34  1  0.324031  0.145822  0.250000  1
  Sn  Sn35  1  0.064800  0.883113  0.250000  1
