# generated using pymatgen
data_Sr4Cd4Fe3H22
_symmetry_space_group_name_H-M   'P 1'
_cell_length_a   7.02528700
_cell_length_b   7.02528700
_cell_length_c   7.02528700
_cell_angle_alpha   90.00000000
_cell_angle_beta   90.00000000
_cell_angle_gamma   90.00000000
_symmetry_Int_Tables_number   1
_chemical_formula_structural   Sr4Cd4Fe3H22
_chemical_formula_sum   'Sr4 Cd4 Fe3 H22'
_cell_volume   346.73063325
_cell_formula_units_Z   1
loop_
 _symmetry_equiv_pos_site_id
 _symmetry_equiv_pos_as_xyz
  1  'x, y, z'
loop_
 _atom_site_type_symbol
 _atom_site_label
 _atom_site_symmetry_multiplicity
 _atom_site_fract_x
 _atom_site_fract_y
 _atom_site_fract_z
 _atom_site_occupancy
  Sr  Sr0  1  0.285445  0.285445  0.714555  1
  Sr  Sr1  1  0.285445  0.714555  0.285445  1
  Sr  Sr2  1  0.714555  0.285445  0.285445  1
  Sr  Sr3  1  0.714555  0.714555  0.714555  1
  Cd  Cd4  1  0.784960  0.784960  0.215040  1
  Cd  Cd5  1  0.784960  0.215040  0.784960  1
  Cd  Cd6  1  0.215040  0.784960  0.784960  1
  Cd  Cd7  1  0.215040  0.215040  0.215040  1
  Fe  Fe8  1  0.000000  0.000000  0.500000  1
  Fe  Fe9  1  0.000000  0.500000  0.000000  1
  Fe  Fe10  1  0.500000  0.000000  0.000000  1
  H  H11  1  0.000000  0.500000  0.225871  1
  H  H12  1  0.500000  0.774129  0.000000  1
  H  H13  1  0.774129  0.000000  0.500000  1
  H  H14  1  0.000000  0.774129  0.500000  1
  H  H15  1  0.500000  0.000000  0.225871  1
  H  H16  1  0.774129  0.500000  0.000000  1
  H  H17  1  0.000000  0.500000  0.774129  1
  H  H18  1  0.500000  0.225871  0.000000  1
  H  H19  1  0.000000  0.225871  0.500000  1
  H  H20  1  0.500000  0.000000  0.774129  1
  H  H21  1  0.225871  0.000000  0.500000  1
  H  H22  1  0.225871  0.500000  0.000000  1
  H  H23  1  0.000000  0.000000  0.271052  1
  H  H24  1  0.000000  0.728948  0.000000  1
  H  H25  1  0.728948  0.000000  0.000000  1
  H  H26  1  0.000000  0.000000  0.728948  1
  H  H27  1  0.000000  0.271052  0.000000  1
  H  H28  1  0.271052  0.000000  0.000000  1
  H  H29  1  0.629449  0.629449  0.370551  1
  H  H30  1  0.629449  0.370551  0.629449  1
  H  H31  1  0.370551  0.629449  0.629449  1
  H  H32  1  0.370551  0.370551  0.370551  1
