# generated using pymatgen
data_NdCd3P7N12
_symmetry_space_group_name_H-M   'P 1'
_cell_length_a   7.47948154
_cell_length_b   7.49295103
_cell_length_c   7.49295151
_cell_angle_alpha   109.50760007
_cell_angle_beta   109.43481090
_cell_angle_gamma   109.43481936
_symmetry_Int_Tables_number   1
_chemical_formula_structural   NdCd3P7N12
_chemical_formula_sum   'Nd1 Cd3 P7 N12'
_cell_volume   323.40770071
_cell_formula_units_Z   1
loop_
 _symmetry_equiv_pos_site_id
 _symmetry_equiv_pos_as_xyz
  1  'x, y, z'
loop_
 _atom_site_type_symbol
 _atom_site_label
 _atom_site_symmetry_multiplicity
 _atom_site_fract_x
 _atom_site_fract_y
 _atom_site_fract_z
 _atom_site_occupancy
  Nd  Nd0  1  0.652748  0.000000  0.000000  1
  Cd  Cd1  1  0.999129  0.000000  0.665845  1
  Cd  Cd2  1  0.999129  0.665845  0.000000  1
  Cd  Cd3  1  0.333283  0.334155  0.334155  1
  P  P4  1  0.246147  0.749023  0.495698  1
  P  P5  1  0.750449  0.253325  0.504302  1
  P  P6  1  0.750449  0.504302  0.253325  1
  P  P7  1  0.246147  0.495698  0.749023  1
  P  P8  1  0.497124  0.746675  0.250977  1
  P  P9  1  0.497124  0.250977  0.746675  1
  P  P10  1  0.022231  0.000000  0.000000  1
  N  N11  1  0.716462  0.300661  0.300661  1
  N  N12  1  0.286221  0.704307  0.287183  1
  N  N13  1  0.305395  0.596277  0.596277  1
  N  N14  1  0.581915  0.582877  0.295693  1
  N  N15  1  0.415800  0.699339  0.000000  1
  N  N16  1  0.999038  0.712817  0.417123  1
  N  N17  1  0.581915  0.295693  0.582877  1
  N  N18  1  0.709117  0.000000  0.403723  1
  N  N19  1  0.415800  0.000000  0.699339  1
  N  N20  1  0.709117  0.403723  0.000000  1
  N  N21  1  0.286221  0.287183  0.704307  1
  N  N22  1  0.999038  0.417123  0.712817  1
