# generated using pymatgen
data_Er4Ga4PdRh3
_symmetry_space_group_name_H-M   'P 1'
_cell_length_a   4.32407100
_cell_length_b   6.81559579
_cell_length_c   7.73285580
_cell_angle_alpha   89.83777559
_cell_angle_beta   90.00000000
_cell_angle_gamma   90.00000000
_symmetry_Int_Tables_number   1
_chemical_formula_structural   Er4Ga4PdRh3
_chemical_formula_sum   'Er4 Ga4 Pd1 Rh3'
_cell_volume   227.89500838
_cell_formula_units_Z   1
loop_
 _symmetry_equiv_pos_site_id
 _symmetry_equiv_pos_as_xyz
  1  'x, y, z'
loop_
 _atom_site_type_symbol
 _atom_site_label
 _atom_site_symmetry_multiplicity
 _atom_site_fract_x
 _atom_site_fract_y
 _atom_site_fract_z
 _atom_site_occupancy
  Er  Er0  1  0.250000  0.977375  0.309319  1
  Er  Er1  1  0.250000  0.479893  0.194977  1
  Er  Er2  1  0.750000  0.021940  0.686447  1
  Er  Er3  1  0.750000  0.529200  0.809405  1
  Ga  Ga4  1  0.250000  0.342839  0.569965  1
  Ga  Ga5  1  0.250000  0.836251  0.927972  1
  Ga  Ga6  1  0.750000  0.658829  0.428004  1
  Ga  Ga7  1  0.750000  0.157695  0.073226  1
  Pd  Pd8  1  0.250000  0.228673  0.894344  1
  Rh  Rh9  1  0.250000  0.732123  0.606829  1
  Rh  Rh10  1  0.750000  0.767702  0.105949  1
  Rh  Rh11  1  0.750000  0.267481  0.393563  1
