# generated using pymatgen
data_Hf8Si16MoRu11
_symmetry_space_group_name_H-M   'P 1'
_cell_length_a   5.34807280
_cell_length_b   9.87371972
_cell_length_c   11.00314331
_cell_angle_alpha   79.04379791
_cell_angle_beta   103.99459913
_cell_angle_gamma   105.30742141
_symmetry_Int_Tables_number   1
_chemical_formula_structural   Hf8Si16MoRu11
_chemical_formula_sum   'Hf8 Si16 Mo1 Ru11'
_cell_volume   538.81064128
_cell_formula_units_Z   1
loop_
 _symmetry_equiv_pos_site_id
 _symmetry_equiv_pos_as_xyz
  1  'x, y, z'
loop_
 _atom_site_type_symbol
 _atom_site_label
 _atom_site_symmetry_multiplicity
 _atom_site_fract_x
 _atom_site_fract_y
 _atom_site_fract_z
 _atom_site_occupancy
  Hf  Hf0  1  0.961582  0.531172  0.137479  1
  Hf  Hf1  1  0.701200  0.997655  0.145178  1
  Hf  Hf2  1  0.558842  0.501232  0.348364  1
  Hf  Hf3  1  0.295507  0.970246  0.362310  1
  Hf  Hf4  1  0.706702  0.030511  0.637602  1
  Hf  Hf5  1  0.443120  0.500222  0.649132  1
  Hf  Hf6  1  0.298092  0.999071  0.853465  1
  Hf  Hf7  1  0.039894  0.469078  0.865357  1
  Si  Si8  1  0.916663  0.277742  0.066714  1
  Si  Si9  1  0.387331  0.426873  0.102507  1
  Si  Si10  1  0.255321  0.120556  0.107083  1
  Si  Si11  1  0.387213  0.752409  0.252400  1
  Si  Si12  1  0.875269  0.750187  0.251656  1
  Si  Si13  1  0.029413  0.379610  0.393008  1
  Si  Si14  1  0.856789  0.072702  0.395539  1
  Si  Si15  1  0.572686  0.222378  0.434807  1
  Si  Si16  1  0.426949  0.778305  0.564159  1
  Si  Si17  1  0.144696  0.927896  0.604973  1
  Si  Si18  1  0.973744  0.620640  0.607723  1
  Si  Si19  1  0.125407  0.250183  0.748892  1
  Si  Si20  1  0.617741  0.248782  0.750073  1
  Si  Si21  1  0.744249  0.881850  0.893456  1
  Si  Si22  1  0.608137  0.568710  0.898110  1
  Si  Si23  1  0.071129  0.722036  0.932186  1
  Mo  Mo24  1  0.509632  0.693471  0.065588  1
  Ru  Ru25  1  0.098062  0.874187  0.084536  1
  Ru  Ru26  1  0.648252  0.257207  0.219017  1
  Ru  Ru27  1  0.171940  0.241041  0.281964  1
  Ru  Ru28  1  0.142027  0.624765  0.416896  1
  Ru  Ru29  1  0.770161  0.813233  0.434667  1
  Ru  Ru30  1  0.237569  0.189082  0.567671  1
  Ru  Ru31  1  0.857967  0.374045  0.583488  1
  Ru  Ru32  1  0.826188  0.757276  0.718817  1
  Ru  Ru33  1  0.349779  0.743408  0.779164  1
  Ru  Ru34  1  0.909376  0.127638  0.916447  1
  Ru  Ru35  1  0.481372  0.304599  0.929572  1
