# generated using pymatgen
data_Pr5NbRhO12
_symmetry_space_group_name_H-M   'P 1'
_cell_length_a   7.12686086
_cell_length_b   7.12686060
_cell_length_c   7.79711471
_cell_angle_alpha   74.11218496
_cell_angle_beta   74.11218768
_cell_angle_gamma   50.32758451
_symmetry_Int_Tables_number   1
_chemical_formula_structural   Pr5NbRhO12
_chemical_formula_sum   'Pr5 Nb1 Rh1 O12'
_cell_volume   290.55125971
_cell_formula_units_Z   1
loop_
 _symmetry_equiv_pos_site_id
 _symmetry_equiv_pos_as_xyz
  1  'x, y, z'
loop_
 _atom_site_type_symbol
 _atom_site_label
 _atom_site_symmetry_multiplicity
 _atom_site_fract_x
 _atom_site_fract_y
 _atom_site_fract_z
 _atom_site_occupancy
  Pr  Pr0  1  0.298920  0.313487  0.357755  1
  Pr  Pr1  1  0.686513  0.701080  0.642245  1
  Pr  Pr2  1  0.684790  0.696790  0.168044  1
  Pr  Pr3  1  0.303210  0.315210  0.831956  1
  Pr  Pr4  1  0.999454  0.000546  0.500000  1
  Nb  Nb5  1  0.791376  0.208624  0.000000  1
  Rh  Rh6  1  0.252057  0.747943  0.000000  1
  O  O7  1  0.090463  0.597784  0.577531  1
  O  O8  1  0.002071  0.996439  0.189104  1
  O  O9  1  0.402216  0.909537  0.422469  1
  O  O10  1  0.504630  0.495816  0.171908  1
  O  O11  1  0.093788  0.582640  0.080023  1
  O  O12  1  0.898407  0.408599  0.423216  1
  O  O13  1  0.003561  0.997929  0.810896  1
  O  O14  1  0.591401  0.101592  0.576784  1
  O  O15  1  0.504184  0.495370  0.828092  1
  O  O16  1  0.578556  0.102957  0.079185  1
  O  O17  1  0.417360  0.906212  0.919977  1
  O  O18  1  0.897043  0.421444  0.920815  1
