# generated using pymatgen
data_Ho10In5SbS2
_symmetry_space_group_name_H-M   'P 1'
_cell_length_a   8.90642700
_cell_length_b   8.93333575
_cell_length_c   6.57097000
_cell_angle_alpha   90.00000000
_cell_angle_beta   90.00000000
_cell_angle_gamma   120.10000149
_symmetry_Int_Tables_number   1
_chemical_formula_structural   Ho10In5SbS2
_chemical_formula_sum   'Ho10 In5 Sb1 S2'
_cell_volume   452.31269023
_cell_formula_units_Z   1
loop_
 _symmetry_equiv_pos_site_id
 _symmetry_equiv_pos_as_xyz
  1  'x, y, z'
loop_
 _atom_site_type_symbol
 _atom_site_label
 _atom_site_symmetry_multiplicity
 _atom_site_fract_x
 _atom_site_fract_y
 _atom_site_fract_z
 _atom_site_occupancy
  Ho  Ho0  1  0.668682  0.335336  0.997990  1
  Ho  Ho1  1  0.331318  0.666654  0.997990  1
  Ho  Ho2  1  0.331318  0.666654  0.502010  1
  Ho  Ho3  1  0.668682  0.335336  0.502010  1
  Ho  Ho4  1  0.756894  0.755277  0.750000  1
  Ho  Ho5  1  0.243106  0.998382  0.750000  1
  Ho  Ho6  1  0.000000  0.245685  0.750000  1
  Ho  Ho7  1  0.244236  0.242782  0.250000  1
  Ho  Ho8  1  0.755764  0.998546  0.250000  1
  Ho  Ho9  1  0.000000  0.754012  0.250000  1
  In  In10  1  0.400962  0.400724  0.750000  1
  In  In11  1  0.599038  0.999762  0.750000  1
  In  In12  1  0.000000  0.603022  0.750000  1
  In  In13  1  0.597324  0.598913  0.250000  1
  In  In14  1  0.402676  0.001590  0.250000  1
  Sb  Sb15  1  0.000000  0.395871  0.250000  1
  S  S16  1  0.000000  0.000727  0.001172  1
  S  S17  1  0.000000  0.000727  0.498828  1
