# generated using pymatgen
data_Y2Zn14CoPt2
_symmetry_space_group_name_H-M   'P 1'
_cell_length_a   6.76900920
_cell_length_b   6.79108845
_cell_length_c   6.79108700
_cell_angle_alpha   82.25720548
_cell_angle_beta   83.13733123
_cell_angle_gamma   83.13732973
_symmetry_Int_Tables_number   1
_chemical_formula_structural   Y2Zn14CoPt2
_chemical_formula_sum   'Y2 Zn14 Co1 Pt2'
_cell_volume   305.41586215
_cell_formula_units_Z   1
loop_
 _symmetry_equiv_pos_site_id
 _symmetry_equiv_pos_as_xyz
  1  'x, y, z'
loop_
 _atom_site_type_symbol
 _atom_site_label
 _atom_site_symmetry_multiplicity
 _atom_site_fract_x
 _atom_site_fract_y
 _atom_site_fract_z
 _atom_site_occupancy
  Y  Y0  1  0.664776  0.666856  0.666856  1
  Y  Y1  1  0.335224  0.333144  0.333144  1
  Zn  Zn2  1  0.354859  0.344012  0.850303  1
  Zn  Zn3  1  0.832514  0.354688  0.354688  1
  Zn  Zn4  1  0.115673  0.098068  0.098068  1
  Zn  Zn5  1  0.884327  0.901932  0.901932  1
  Zn  Zn6  1  0.299922  0.711186  0.999949  1
  Zn  Zn7  1  0.700078  0.000051  0.288814  1
  Zn  Zn8  1  0.000000  0.299945  0.700055  1
  Zn  Zn9  1  0.700078  0.288814  0.000051  1
  Zn  Zn10  1  0.299922  0.999949  0.711186  1
  Zn  Zn11  1  0.000000  0.700055  0.299945  1
  Zn  Zn12  1  0.167486  0.645312  0.645312  1
  Zn  Zn13  1  0.645141  0.655988  0.149697  1
  Zn  Zn14  1  0.645141  0.149697  0.655988  1
  Zn  Zn15  1  0.354859  0.850303  0.344012  1
  Co  Co16  1  0.500000  0.000000  0.000000  1
  Pt  Pt17  1  0.000000  0.000000  0.500000  1
  Pt  Pt18  1  0.000000  0.500000  0.000000  1
