# generated using pymatgen
data_TbEr2Fe5Co4
_symmetry_space_group_name_H-M   'P 1'
_cell_length_a   8.55090122
_cell_length_b   8.55090072
_cell_length_c   8.54542934
_cell_angle_alpha   34.55867641
_cell_angle_beta   34.55867800
_cell_angle_gamma   34.36135273
_symmetry_Int_Tables_number   1
_chemical_formula_structural   TbEr2Fe5Co4
_chemical_formula_sum   'Tb1 Er2 Fe5 Co4'
_cell_volume   178.75861614
_cell_formula_units_Z   1
loop_
 _symmetry_equiv_pos_site_id
 _symmetry_equiv_pos_as_xyz
  1  'x, y, z'
loop_
 _atom_site_type_symbol
 _atom_site_label
 _atom_site_symmetry_multiplicity
 _atom_site_fract_x
 _atom_site_fract_y
 _atom_site_fract_z
 _atom_site_occupancy
  Tb  Tb0  1  0.999981  0.000019  0.000000  1
  Er  Er1  1  0.141784  0.141922  0.140765  1
  Er  Er2  1  0.858078  0.858216  0.859235  1
  Fe  Fe3  1  0.416284  0.920101  0.416717  1
  Fe  Fe4  1  0.079899  0.583716  0.583283  1
  Fe  Fe5  1  0.334385  0.333389  0.331803  1
  Fe  Fe6  1  0.666611  0.665615  0.668197  1
  Fe  Fe7  1  0.503427  0.496573  0.500000  1
  Co  Co8  1  0.417232  0.417540  0.917914  1
  Co  Co9  1  0.917947  0.418088  0.417696  1
  Co  Co10  1  0.581912  0.082053  0.582304  1
  Co  Co11  1  0.582460  0.582768  0.082086  1
