# generated using pymatgen
data_LaNp3Te7Pd
_symmetry_space_group_name_H-M   'P 1'
_cell_length_a   4.30550683
_cell_length_b   8.85324500
_cell_length_c   9.09354995
_cell_angle_alpha   90.00000000
_cell_angle_beta   90.23367193
_cell_angle_gamma   90.00000000
_symmetry_Int_Tables_number   1
_chemical_formula_structural   LaNp3Te7Pd
_chemical_formula_sum   'La1 Np3 Te7 Pd1'
_cell_volume   346.62238828
_cell_formula_units_Z   1
loop_
 _symmetry_equiv_pos_site_id
 _symmetry_equiv_pos_as_xyz
  1  'x, y, z'
loop_
 _atom_site_type_symbol
 _atom_site_label
 _atom_site_symmetry_multiplicity
 _atom_site_fract_x
 _atom_site_fract_y
 _atom_site_fract_z
 _atom_site_occupancy
  La  La0  1  0.001207  0.250000  0.742716  1
  Np  Np1  1  0.996727  0.750000  0.718096  1
  Np  Np2  1  0.499138  0.002731  0.268321  1
  Np  Np3  1  0.499138  0.497269  0.268321  1
  Te  Te4  1  0.000310  0.950466  0.002352  1
  Te  Te5  1  0.000310  0.549534  0.002352  1
  Te  Te6  1  0.502192  0.250000  0.007454  1
  Te  Te7  1  0.001113  0.750000  0.361703  1
  Te  Te8  1  0.999514  0.250000  0.364828  1
  Te  Te9  1  0.500749  0.994928  0.629168  1
  Te  Te10  1  0.500749  0.505072  0.629168  1
  Pd  Pd11  1  0.498851  0.750000  0.006447  1
