# generated using pymatgen
data_Tb10Y2IrPt3
_symmetry_space_group_name_H-M   'P 1'
_cell_length_a   6.47943803
_cell_length_b   7.12123608
_cell_length_c   9.63336500
_cell_angle_alpha   90.00000000
_cell_angle_beta   90.00000000
_cell_angle_gamma   89.98556433
_symmetry_Int_Tables_number   1
_chemical_formula_structural   Tb10Y2IrPt3
_chemical_formula_sum   'Tb10 Y2 Ir1 Pt3'
_cell_volume   444.49893660
_cell_formula_units_Z   1
loop_
 _symmetry_equiv_pos_site_id
 _symmetry_equiv_pos_as_xyz
  1  'x, y, z'
loop_
 _atom_site_type_symbol
 _atom_site_label
 _atom_site_symmetry_multiplicity
 _atom_site_fract_x
 _atom_site_fract_y
 _atom_site_fract_z
 _atom_site_occupancy
  Tb  Tb0  1  0.325648  0.680441  0.059378  1
  Tb  Tb1  1  0.173910  0.179257  0.439146  1
  Tb  Tb2  1  0.674091  0.323242  0.563449  1
  Tb  Tb3  1  0.822243  0.817876  0.937240  1
  Tb  Tb4  1  0.674091  0.323242  0.936551  1
  Tb  Tb5  1  0.822243  0.817876  0.562760  1
  Tb  Tb6  1  0.325648  0.680441  0.440622  1
  Tb  Tb7  1  0.173910  0.179257  0.060854  1
  Tb  Tb8  1  0.137919  0.472024  0.750000  1
  Tb  Tb9  1  0.369591  0.965561  0.750000  1
  Y  Y10  1  0.866020  0.527888  0.250000  1
  Y  Y11  1  0.634433  0.029173  0.250000  1
  Ir  Ir12  1  0.553333  0.615213  0.750000  1
  Pt  Pt13  1  0.056861  0.886748  0.250000  1
  Pt  Pt14  1  0.442300  0.387909  0.250000  1
  Pt  Pt15  1  0.947759  0.113849  0.750000  1
