# generated using pymatgen
data_LuPa(Al5Fe)4
_symmetry_space_group_name_H-M   'P 1'
_cell_length_a   6.75024200
_cell_length_b   6.75024132
_cell_length_c   8.95935500
_cell_angle_alpha   90.00000000
_cell_angle_beta   90.00000000
_cell_angle_gamma   97.62959923
_symmetry_Int_Tables_number   1
_chemical_formula_structural   LuPa(Al5Fe)4
_chemical_formula_sum   'Lu1 Pa1 Al20 Fe4'
_cell_volume   404.62572874
_cell_formula_units_Z   1
loop_
 _symmetry_equiv_pos_site_id
 _symmetry_equiv_pos_as_xyz
  1  'x, y, z'
loop_
 _atom_site_type_symbol
 _atom_site_label
 _atom_site_symmetry_multiplicity
 _atom_site_fract_x
 _atom_site_fract_y
 _atom_site_fract_z
 _atom_site_occupancy
  Lu  Lu0  1  0.128261  0.871739  0.250000  1
  Pa  Pa1  1  0.874900  0.125100  0.750000  1
  Al  Al2  1  0.624324  0.375676  0.549651  1
  Al  Al3  1  0.373717  0.626283  0.450824  1
  Al  Al4  1  0.373717  0.626283  0.049176  1
  Al  Al5  1  0.624324  0.375676  0.950349  1
  Al  Al6  1  0.226900  0.225435  0.499023  1
  Al  Al7  1  0.774565  0.773100  0.499023  1
  Al  Al8  1  0.774565  0.773100  0.000977  1
  Al  Al9  1  0.226900  0.225435  0.000977  1
  Al  Al10  1  0.842369  0.157631  0.098881  1
  Al  Al11  1  0.156863  0.843137  0.902834  1
  Al  Al12  1  0.156863  0.843137  0.597166  1
  Al  Al13  1  0.842369  0.157631  0.401119  1
  Al  Al14  1  0.864782  0.588904  0.750000  1
  Al  Al15  1  0.135728  0.416683  0.250000  1
  Al  Al16  1  0.411096  0.135218  0.750000  1
  Al  Al17  1  0.583317  0.864272  0.250000  1
  Al  Al18  1  0.221085  0.479282  0.750000  1
  Al  Al19  1  0.779607  0.522463  0.250000  1
  Al  Al20  1  0.520718  0.778915  0.750000  1
  Al  Al21  1  0.477537  0.220393  0.250000  1
  Fe  Fe22  1  0.998493  0.495745  0.502089  1
  Fe  Fe23  1  0.998493  0.495745  0.997911  1
  Fe  Fe24  1  0.504255  0.001507  0.997911  1
  Fe  Fe25  1  0.504255  0.001507  0.502089  1
