# generated using pymatgen
data_Be2V2FeCo3
_symmetry_space_group_name_H-M   'P 1'
_cell_length_a   3.85725800
_cell_length_b   5.53721203
_cell_length_c   11.55060506
_cell_angle_alpha   89.98865293
_cell_angle_beta   89.99923184
_cell_angle_gamma   89.99993921
_symmetry_Int_Tables_number   1
_chemical_formula_structural   Be2V2FeCo3
_chemical_formula_sum   'Be6 V6 Fe3 Co9'
_cell_volume   246.70307797
_cell_formula_units_Z   3
loop_
 _symmetry_equiv_pos_site_id
 _symmetry_equiv_pos_as_xyz
  1  'x, y, z'
loop_
 _atom_site_type_symbol
 _atom_site_label
 _atom_site_symmetry_multiplicity
 _atom_site_fract_x
 _atom_site_fract_y
 _atom_site_fract_z
 _atom_site_occupancy
  Be  Be0  1  0.999998  0.500012  0.999513  1
  Be  Be1  1  0.499862  0.000378  0.166636  1
  Be  Be2  1  0.999861  0.499787  0.333215  1
  Be  Be3  1  0.499996  0.999950  0.500015  1
  Be  Be4  1  0.000116  0.500025  0.667296  1
  Be  Be5  1  0.500137  0.999752  0.833389  1
  V  V6  1  0.000005  0.000787  0.996909  1
  V  V7  1  0.499862  0.499833  0.166121  1
  V  V8  1  0.999868  0.000688  0.333419  1
  V  V9  1  0.500000  0.501459  0.501498  1
  V  V10  1  0.000140  0.995968  0.669304  1
  V  V11  1  0.500134  0.501752  0.832710  1
  Fe  Fe12  1  0.500134  0.749616  0.664957  1
  Fe  Fe13  1  0.000135  0.249001  0.834264  1
  Fe  Fe14  1  0.000140  0.750736  0.833942  1
  Co  Co15  1  0.500007  0.249753  0.001702  1
  Co  Co16  1  0.500002  0.750556  0.001666  1
  Co  Co17  1  0.999869  0.250460  0.167205  1
  Co  Co18  1  0.999870  0.749780  0.167206  1
  Co  Co19  1  0.499864  0.249688  0.332979  1
  Co  Co20  1  0.499866  0.749816  0.333016  1
  Co  Co21  1  0.999994  0.250477  0.498757  1
  Co  Co22  1  0.000005  0.749693  0.498605  1
  Co  Co23  1  0.500130  0.250035  0.665674  1
