# generated using pymatgen
data_Hf8V12Si15Ge
_symmetry_space_group_name_H-M   'P 1'
_cell_length_a   6.47410272
_cell_length_b   6.61658885
_cell_length_c   12.53287717
_cell_angle_alpha   90.03941778
_cell_angle_beta   90.03122153
_cell_angle_gamma   89.98087299
_symmetry_Int_Tables_number   1
_chemical_formula_structural   Hf8V12Si15Ge
_chemical_formula_sum   'Hf8 V12 Si15 Ge1'
_cell_volume   536.86405359
_cell_formula_units_Z   1
loop_
 _symmetry_equiv_pos_site_id
 _symmetry_equiv_pos_as_xyz
  1  'x, y, z'
loop_
 _atom_site_type_symbol
 _atom_site_label
 _atom_site_symmetry_multiplicity
 _atom_site_fract_x
 _atom_site_fract_y
 _atom_site_fract_z
 _atom_site_occupancy
  Hf  Hf0  1  0.005750  0.170835  0.094017  1
  Hf  Hf1  1  0.503951  0.327565  0.403772  1
  Hf  Hf2  1  0.494246  0.670278  0.906216  1
  Hf  Hf3  1  0.994367  0.831162  0.594215  1
  Hf  Hf4  1  0.994332  0.829345  0.906444  1
  Hf  Hf5  1  0.489750  0.673486  0.595108  1
  Hf  Hf6  1  0.506095  0.329715  0.094232  1
  Hf  Hf7  1  0.007308  0.169589  0.404560  1
  V  V8  1  0.665674  0.994744  0.249868  1
  V  V9  1  0.164837  0.505499  0.249948  1
  V  V10  1  0.834810  0.494173  0.752144  1
  V  V11  1  0.335273  0.005588  0.750010  1
  V  V12  1  0.836993  0.668663  0.123915  1
  V  V13  1  0.336871  0.832732  0.375313  1
  V  V14  1  0.663176  0.167972  0.876274  1
  V  V15  1  0.166429  0.331708  0.624541  1
  V  V16  1  0.163527  0.331560  0.876146  1
  V  V17  1  0.659751  0.162522  0.626009  1
  V  V18  1  0.337681  0.831218  0.124029  1
  V  V19  1  0.839399  0.671426  0.373834  1
  Si  Si20  1  0.803068  0.367658  0.249761  1
  Si  Si21  1  0.302808  0.132489  0.248866  1
  Si  Si22  1  0.697885  0.865633  0.750846  1
  Si  Si23  1  0.196113  0.633008  0.750507  1
  Si  Si24  1  0.038076  0.874146  0.248878  1
  Si  Si25  1  0.537933  0.626594  0.249908  1
  Si  Si26  1  0.462990  0.374088  0.750542  1
  Si  Si27  1  0.962726  0.126578  0.750098  1
  Si  Si28  1  0.831252  0.457668  0.959425  1
  Si  Si29  1  0.330441  0.043057  0.540227  1
  Si  Si30  1  0.669002  0.957825  0.041087  1
  Si  Si31  1  0.172344  0.543060  0.458234  1
  Si  Si32  1  0.168704  0.541988  0.041251  1
  Si  Si33  1  0.669105  0.957408  0.458972  1
  Si  Si34  1  0.331507  0.042130  0.959270  1
  Ge  Ge35  1  0.825819  0.456885  0.541535  1
