# generated using pymatgen
data_LuZr7H30
_symmetry_space_group_name_H-M   'P 1'
_cell_length_a   7.06178494
_cell_length_b   7.06178427
_cell_length_c   7.06178332
_cell_angle_alpha   109.46322654
_cell_angle_beta   109.46323276
_cell_angle_gamma   109.46323125
_symmetry_Int_Tables_number   1
_chemical_formula_structural   LuZr7H30
_chemical_formula_sum   'Lu1 Zr7 H30'
_cell_volume   271.17512266
_cell_formula_units_Z   1
loop_
 _symmetry_equiv_pos_site_id
 _symmetry_equiv_pos_as_xyz
  1  'x, y, z'
loop_
 _atom_site_type_symbol
 _atom_site_label
 _atom_site_symmetry_multiplicity
 _atom_site_fract_x
 _atom_site_fract_y
 _atom_site_fract_z
 _atom_site_occupancy
  Lu  Lu0  1  0.907156  0.907156  0.907156  1
  Zr  Zr1  1  0.500851  0.000869  0.096665  1
  Zr  Zr2  1  0.000869  0.096665  0.500851  1
  Zr  Zr3  1  0.096665  0.500851  0.000869  1
  Zr  Zr4  1  0.999931  0.596851  0.498674  1
  Zr  Zr5  1  0.596851  0.498674  0.999931  1
  Zr  Zr6  1  0.498674  0.999931  0.596851  1
  Zr  Zr7  1  0.407741  0.407741  0.407741  1
  H  H8  1  0.655165  0.971635  0.384918  1
  H  H9  1  0.226109  0.311378  0.845544  1
  H  H10  1  0.188459  0.418957  0.532053  1
  H  H11  1  0.094444  0.282829  0.121594  1
  H  H12  1  0.282829  0.121594  0.094444  1
  H  H13  1  0.121594  0.094444  0.282829  1
  H  H14  1  0.463721  0.153588  0.884052  1
  H  H15  1  0.726859  0.343503  0.813831  1
  H  H16  1  0.628674  0.372351  0.249383  1
  H  H17  1  0.249383  0.628674  0.372351  1
  H  H18  1  0.746934  0.870973  0.128966  1
  H  H19  1  0.128966  0.746934  0.870973  1
  H  H20  1  0.372351  0.249383  0.628674  1
  H  H21  1  0.870973  0.128966  0.746934  1
  H  H22  1  0.768858  0.579149  0.606537  1
  H  H23  1  0.311378  0.845544  0.226109  1
  H  H24  1  0.384918  0.655165  0.971635  1
  H  H25  1  0.971635  0.384918  0.655165  1
  H  H26  1  0.532053  0.188459  0.418957  1
  H  H27  1  0.418957  0.532053  0.188459  1
  H  H28  1  0.845544  0.226109  0.311378  1
  H  H29  1  0.912111  0.677595  0.031085  1
  H  H30  1  0.813831  0.726859  0.343503  1
  H  H31  1  0.153588  0.884052  0.463721  1
  H  H32  1  0.677595  0.031085  0.912111  1
  H  H33  1  0.343503  0.813831  0.726859  1
  H  H34  1  0.884052  0.463721  0.153588  1
  H  H35  1  0.606537  0.768858  0.579149  1
  H  H36  1  0.579149  0.606537  0.768858  1
  H  H37  1  0.031085  0.912111  0.677595  1
