# generated using pymatgen
data_La2Al5SnAu6
_symmetry_space_group_name_H-M   'P 1'
_cell_length_a   4.46407000
_cell_length_b   7.36409100
_cell_length_c   8.76950100
_cell_angle_alpha   90.00000000
_cell_angle_beta   90.00000000
_cell_angle_gamma   90.00000000
_symmetry_Int_Tables_number   1
_chemical_formula_structural   La2Al5SnAu6
_chemical_formula_sum   'La2 Al5 Sn1 Au6'
_cell_volume   288.28697728
_cell_formula_units_Z   1
loop_
 _symmetry_equiv_pos_site_id
 _symmetry_equiv_pos_as_xyz
  1  'x, y, z'
loop_
 _atom_site_type_symbol
 _atom_site_label
 _atom_site_symmetry_multiplicity
 _atom_site_fract_x
 _atom_site_fract_y
 _atom_site_fract_z
 _atom_site_occupancy
  La  La0  1  0.500000  0.000000  0.741924  1
  La  La1  1  0.000000  0.500000  0.254859  1
  Al  Al2  1  0.000000  0.308088  0.895142  1
  Al  Al3  1  0.500000  0.195841  0.104032  1
  Al  Al4  1  0.000000  0.691912  0.895142  1
  Al  Al5  1  0.500000  0.804159  0.104032  1
  Al  Al6  1  0.500000  0.500000  0.633622  1
  Sn  Sn7  1  0.000000  0.000000  0.370388  1
  Au  Au8  1  0.000000  0.715047  0.608908  1
  Au  Au9  1  0.500000  0.753862  0.397476  1
  Au  Au10  1  0.500000  0.500000  0.943767  1
  Au  Au11  1  0.000000  0.000000  0.044324  1
  Au  Au12  1  0.500000  0.246138  0.397476  1
  Au  Au13  1  0.000000  0.284953  0.608908  1
