# generated using pymatgen
data_Y9Ho2ScPb10
_symmetry_space_group_name_H-M   'P 1'
_cell_length_a   11.74548084
_cell_length_b   11.74338044
_cell_length_c   11.75488939
_cell_angle_alpha   147.42225347
_cell_angle_beta   132.61809569
_cell_angle_gamma   58.58365415
_symmetry_Int_Tables_number   1
_chemical_formula_structural   Y9Ho2ScPb10
_chemical_formula_sum   'Y9 Ho2 Sc1 Pb10'
_cell_volume   637.44228203
_cell_formula_units_Z   1
loop_
 _symmetry_equiv_pos_site_id
 _symmetry_equiv_pos_as_xyz
  1  'x, y, z'
loop_
 _atom_site_type_symbol
 _atom_site_label
 _atom_site_symmetry_multiplicity
 _atom_site_fract_x
 _atom_site_fract_y
 _atom_site_fract_z
 _atom_site_occupancy
  Y  Y0  1  0.696326  0.946479  0.250029  1
  Y  Y1  1  0.251903  0.639548  0.610838  1
  Y  Y2  1  0.674716  0.940824  0.732907  1
  Y  Y3  1  0.028667  0.141056  0.889092  1
  Y  Y4  1  0.970532  0.858065  0.110896  1
  Y  Y5  1  0.792076  0.559776  0.233121  1
  Y  Y6  1  0.208163  0.441834  0.767339  1
  Y  Y7  1  0.303522  0.053573  0.750064  1
  Y  Y8  1  0.326424  0.058910  0.266705  1
  Ho  Ho9  1  0.304075  0.553962  0.249964  1
  Ho  Ho10  1  0.747150  0.359738  0.389069  1
  Sc  Sc11  1  0.694818  0.444813  0.749941  1
  Pb  Pb12  1  0.480338  0.569030  0.894955  1
  Pb  Pb13  1  0.598672  0.785399  0.798030  1
  Pb  Pb14  1  0.674067  0.085412  0.605017  1
  Pb  Pb15  1  0.000109  0.749508  0.749240  1
  Pb  Pb16  1  0.986932  0.300665  0.701389  1
  Pb  Pb17  1  0.523483  0.424547  0.099347  1
  Pb  Pb18  1  0.006600  0.701399  0.295884  1
  Pb  Pb19  1  0.405673  0.210751  0.204215  1
  Pb  Pb20  1  0.326027  0.924216  0.401382  1
  Pb  Pb21  1  0.999726  0.250493  0.250576  1
