# generated using pymatgen
data_Sc2Fe10P7Ru2
_symmetry_space_group_name_H-M   'P 1'
_cell_length_a   8.90831273
_cell_length_b   8.89374310
_cell_length_c   3.64172800
_cell_angle_alpha   90.00000000
_cell_angle_beta   90.00000000
_cell_angle_gamma   120.15145595
_symmetry_Int_Tables_number   1
_chemical_formula_structural   Sc2Fe10P7Ru2
_chemical_formula_sum   'Sc2 Fe10 P7 Ru2'
_cell_volume   249.49011308
_cell_formula_units_Z   1
loop_
 _symmetry_equiv_pos_site_id
 _symmetry_equiv_pos_as_xyz
  1  'x, y, z'
loop_
 _atom_site_type_symbol
 _atom_site_label
 _atom_site_symmetry_multiplicity
 _atom_site_fract_x
 _atom_site_fract_y
 _atom_site_fract_z
 _atom_site_occupancy
  Sc  Sc0  1  0.000710  0.001595  0.000000  1
  Sc  Sc1  1  0.668697  0.332699  0.500000  1
  Fe  Fe2  1  0.390768  0.297838  0.000000  1
  Fe  Fe3  1  0.904378  0.608438  0.000000  1
  Fe  Fe4  1  0.703427  0.094837  0.000000  1
  Fe  Fe5  1  0.611233  0.782706  0.000000  1
  Fe  Fe6  1  0.176329  0.388325  0.000000  1
  Fe  Fe7  1  0.213227  0.827261  0.000000  1
  Fe  Fe8  1  0.767387  0.714850  0.500000  1
  Fe  Fe9  1  0.947177  0.228064  0.500000  1
  Fe  Fe10  1  0.282929  0.055505  0.500000  1
  Fe  Fe11  1  0.428936  0.544707  0.500000  1
  P  P12  1  0.633007  0.547540  0.000000  1
  P  P13  1  0.915166  0.364371  0.000000  1
  P  P14  1  0.450979  0.086932  0.000000  1
  P  P15  1  0.744638  0.955754  0.500000  1
  P  P16  1  0.214372  0.259632  0.500000  1
  P  P17  1  0.042167  0.789006  0.500000  1
  P  P18  1  0.334693  0.665634  0.000000  1
  Ru  Ru19  1  0.116499  0.571538  0.500000  1
  Ru  Ru20  1  0.453282  0.882766  0.500000  1
