# generated using pymatgen
data_Co9Se7S
_symmetry_space_group_name_H-M   'P 1'
_cell_length_a   7.25027446
_cell_length_b   7.25027411
_cell_length_c   7.25027500
_cell_angle_alpha   60.00000049
_cell_angle_beta   60.00000210
_cell_angle_gamma   59.99999979
_symmetry_Int_Tables_number   1
_chemical_formula_structural   Co9Se7S
_chemical_formula_sum   'Co9 Se7 S1'
_cell_volume   269.49354212
_cell_formula_units_Z   1
loop_
 _symmetry_equiv_pos_site_id
 _symmetry_equiv_pos_as_xyz
  1  'x, y, z'
loop_
 _atom_site_type_symbol
 _atom_site_label
 _atom_site_symmetry_multiplicity
 _atom_site_fract_x
 _atom_site_fract_y
 _atom_site_fract_z
 _atom_site_occupancy
  Co  Co0  1  0.500000  0.500000  0.500000  1
  Co  Co1  1  0.870094  0.389716  0.870094  1
  Co  Co2  1  0.121987  0.121987  0.634041  1
  Co  Co3  1  0.634041  0.121987  0.121987  1
  Co  Co4  1  0.121987  0.121987  0.121987  1
  Co  Co5  1  0.389716  0.870094  0.870094  1
  Co  Co6  1  0.870094  0.870094  0.870094  1
  Co  Co7  1  0.870094  0.870094  0.389716  1
  Co  Co8  1  0.121987  0.634041  0.121987  1
  Se  Se9  1  0.250000  0.250000  0.250000  1
  Se  Se10  1  0.264222  0.264222  0.735778  1
  Se  Se11  1  0.264222  0.735778  0.735778  1
  Se  Se12  1  0.735778  0.264222  0.264222  1
  Se  Se13  1  0.264222  0.735778  0.264222  1
  Se  Se14  1  0.735778  0.264222  0.735778  1
  Se  Se15  1  0.735778  0.735778  0.264222  1
  S  S16  1  0.750000  0.750000  0.750000  1
