# generated using pymatgen
data_Zr2Co11Si7Ir
_symmetry_space_group_name_H-M   'P 1'
_cell_length_a   9.07576034
_cell_length_b   9.10712084
_cell_length_c   3.62279900
_cell_angle_alpha   90.00000000
_cell_angle_beta   90.00000000
_cell_angle_gamma   120.28935141
_symmetry_Int_Tables_number   1
_chemical_formula_structural   Zr2Co11Si7Ir
_chemical_formula_sum   'Zr2 Co11 Si7 Ir1'
_cell_volume   258.56236969
_cell_formula_units_Z   1
loop_
 _symmetry_equiv_pos_site_id
 _symmetry_equiv_pos_as_xyz
  1  'x, y, z'
loop_
 _atom_site_type_symbol
 _atom_site_label
 _atom_site_symmetry_multiplicity
 _atom_site_fract_x
 _atom_site_fract_y
 _atom_site_fract_z
 _atom_site_occupancy
  Zr  Zr0  1  0.000277  0.002552  0.000000  1
  Zr  Zr1  1  0.335075  0.669002  0.500000  1
  Co  Co2  1  0.289273  0.391724  0.000000  1
  Co  Co3  1  0.105272  0.712409  0.000000  1
  Co  Co4  1  0.539358  0.441922  0.500000  1
  Co  Co5  1  0.386810  0.180739  0.000000  1
  Co  Co6  1  0.793357  0.615724  0.000000  1
  Co  Co7  1  0.817508  0.203299  0.000000  1
  Co  Co8  1  0.233378  0.953628  0.500000  1
  Co  Co9  1  0.047659  0.275344  0.500000  1
  Co  Co10  1  0.719490  0.767821  0.500000  1
  Co  Co11  1  0.558988  0.096204  0.500000  1
  Co  Co12  1  0.606580  0.894340  0.000000  1
  Si  Si13  1  0.663921  0.332429  0.000000  1
  Si  Si14  1  0.075503  0.446821  0.000000  1
  Si  Si15  1  0.262256  0.220495  0.500000  1
  Si  Si16  1  0.778097  0.038011  0.500000  1
  Si  Si17  1  0.960943  0.746752  0.500000  1
  Si  Si18  1  0.550743  0.621638  0.000000  1
  Si  Si19  1  0.379069  0.930905  0.000000  1
  Ir  Ir20  1  0.896441  0.458242  0.500000  1
