# generated using pymatgen
data_NdNpReB6
_symmetry_space_group_name_H-M   'P 1'
_cell_length_a   3.68941300
_cell_length_b   9.36108400
_cell_length_c   11.46472500
_cell_angle_alpha   90.00000000
_cell_angle_beta   90.00000000
_cell_angle_gamma   90.00000000
_symmetry_Int_Tables_number   1
_chemical_formula_structural   NdNpReB6
_chemical_formula_sum   'Nd4 Np4 Re4 B24'
_cell_volume   395.95611822
_cell_formula_units_Z   4
loop_
 _symmetry_equiv_pos_site_id
 _symmetry_equiv_pos_as_xyz
  1  'x, y, z'
loop_
 _atom_site_type_symbol
 _atom_site_label
 _atom_site_symmetry_multiplicity
 _atom_site_fract_x
 _atom_site_fract_y
 _atom_site_fract_z
 _atom_site_occupancy
  Nd  Nd0  1  0.000000  0.337920  0.407810  1
  Nd  Nd1  1  0.000000  0.662080  0.592190  1
  Nd  Nd2  1  0.000000  0.837920  0.092190  1
  Nd  Nd3  1  0.000000  0.162080  0.907810  1
  Np  Np4  1  0.000000  0.960235  0.401034  1
  Np  Np5  1  0.000000  0.039765  0.598966  1
  Np  Np6  1  0.000000  0.460235  0.098966  1
  Np  Np7  1  0.000000  0.539765  0.901034  1
  Re  Re8  1  0.000000  0.649015  0.316470  1
  Re  Re9  1  0.000000  0.350985  0.683530  1
  Re  Re10  1  0.000000  0.149015  0.183530  1
  Re  Re11  1  0.000000  0.850985  0.816470  1
  B  B12  1  0.500000  0.556315  0.427996  1
  B  B13  1  0.500000  0.443685  0.572004  1
  B  B14  1  0.500000  0.056315  0.072004  1
  B  B15  1  0.500000  0.943685  0.927996  1
  B  B16  1  0.500000  0.747324  0.420422  1
  B  B17  1  0.500000  0.252676  0.579578  1
  B  B18  1  0.500000  0.247324  0.079578  1
  B  B19  1  0.500000  0.752676  0.920422  1
  B  B20  1  0.500000  0.805321  0.274725  1
  B  B21  1  0.500000  0.194679  0.725275  1
  B  B22  1  0.500000  0.305321  0.225275  1
  B  B23  1  0.500000  0.694679  0.774725  1
  B  B24  1  0.500000  0.644383  0.187203  1
  B  B25  1  0.500000  0.355617  0.812797  1
  B  B26  1  0.500000  0.144383  0.312797  1
  B  B27  1  0.500000  0.855617  0.687203  1
  B  B28  1  0.500000  0.992311  0.221901  1
  B  B29  1  0.500000  0.007689  0.778099  1
  B  B30  1  0.500000  0.492311  0.278099  1
  B  B31  1  0.500000  0.507689  0.721901  1
  B  B32  1  0.500000  0.635215  0.036548  1
  B  B33  1  0.500000  0.364785  0.963452  1
  B  B34  1  0.500000  0.135215  0.463452  1
  B  B35  1  0.500000  0.864785  0.536548  1
