# generated using pymatgen
data_Nb12Al9Fe3C3N
_symmetry_space_group_name_H-M   'P 1'
_cell_length_a   8.27352679
_cell_length_b   8.27352751
_cell_length_c   8.25532358
_cell_angle_alpha   60.07486720
_cell_angle_beta   60.07486328
_cell_angle_gamma   60.17304980
_symmetry_Int_Tables_number   1
_chemical_formula_structural   Nb12Al9Fe3C3N
_chemical_formula_sum   'Nb12 Al9 Fe3 C3 N1'
_cell_volume   400.55030032
_cell_formula_units_Z   1
loop_
 _symmetry_equiv_pos_site_id
 _symmetry_equiv_pos_as_xyz
  1  'x, y, z'
loop_
 _atom_site_type_symbol
 _atom_site_label
 _atom_site_symmetry_multiplicity
 _atom_site_fract_x
 _atom_site_fract_y
 _atom_site_fract_z
 _atom_site_occupancy
  Nb  Nb0  1  0.807394  0.807394  0.190192  1
  Nb  Nb1  1  0.189345  0.189345  0.811811  1
  Nb  Nb2  1  0.809345  0.189221  0.810779  1
  Nb  Nb3  1  0.193890  0.808375  0.190475  1
  Nb  Nb4  1  0.189221  0.809345  0.810779  1
  Nb  Nb5  1  0.808375  0.193890  0.190475  1
  Nb  Nb6  1  0.442606  0.442606  0.059808  1
  Nb  Nb7  1  0.060655  0.060655  0.438189  1
  Nb  Nb8  1  0.440655  0.060779  0.439221  1
  Nb  Nb9  1  0.056110  0.441625  0.059525  1
  Nb  Nb10  1  0.060779  0.440655  0.439221  1
  Nb  Nb11  1  0.441625  0.056110  0.059525  1
  Al  Al12  1  0.625000  0.625000  0.125000  1
  Al  Al13  1  0.749224  0.409997  0.431192  1
  Al  Al14  1  0.409997  0.749224  0.431192  1
  Al  Al15  1  0.416597  0.416597  0.751034  1
  Al  Al16  1  0.409745  0.409745  0.430895  1
  Al  Al17  1  0.500776  0.840003  0.818808  1
  Al  Al18  1  0.840003  0.500776  0.818808  1
  Al  Al19  1  0.833403  0.833403  0.498966  1
  Al  Al20  1  0.840255  0.840255  0.819105  1
  Fe  Fe21  1  0.125000  0.625000  0.625000  1
  Fe  Fe22  1  0.625000  0.125000  0.625000  1
  Fe  Fe23  1  0.625000  0.625000  0.625000  1
  C  C24  1  0.625000  0.125000  0.125000  1
  C  C25  1  0.125000  0.625000  0.125000  1
  C  C26  1  0.125000  0.125000  0.625000  1
  N  N27  1  0.125000  0.125000  0.125000  1
