# generated using pymatgen
data_Yb6Zr2ReH27
_symmetry_space_group_name_H-M   'P 1'
_cell_length_a   8.82101900
_cell_length_b   8.82101878
_cell_length_c   5.12445400
_cell_angle_alpha   90.00000000
_cell_angle_beta   90.00000000
_cell_angle_gamma   120.00000457
_symmetry_Int_Tables_number   1
_chemical_formula_structural   Yb6Zr2ReH27
_chemical_formula_sum   'Yb6 Zr2 Re1 H27'
_cell_volume   345.31521554
_cell_formula_units_Z   1
loop_
 _symmetry_equiv_pos_site_id
 _symmetry_equiv_pos_as_xyz
  1  'x, y, z'
loop_
 _atom_site_type_symbol
 _atom_site_label
 _atom_site_symmetry_multiplicity
 _atom_site_fract_x
 _atom_site_fract_y
 _atom_site_fract_z
 _atom_site_occupancy
  Yb  Yb0  1  0.999656  0.257919  0.500000  1
  Yb  Yb1  1  0.742081  0.741737  0.500000  1
  Yb  Yb2  1  0.258263  0.000344  0.500000  1
  Yb  Yb3  1  0.932408  0.589737  0.000000  1
  Yb  Yb4  1  0.410263  0.342671  0.000000  1
  Yb  Yb5  1  0.657329  0.067592  0.000000  1
  Zr  Zr6  1  0.666667  0.333333  0.500000  1
  Zr  Zr7  1  0.000000  0.000000  0.000000  1
  Re  Re8  1  0.333333  0.666667  0.500000  1
  H  H9  1  0.827591  0.332110  0.771542  1
  H  H10  1  0.667890  0.495478  0.771542  1
  H  H11  1  0.504522  0.172409  0.771542  1
  H  H12  1  0.195849  0.533036  0.260211  1
  H  H13  1  0.504522  0.172409  0.228458  1
  H  H14  1  0.827591  0.332110  0.228458  1
  H  H15  1  0.667890  0.495478  0.228458  1
  H  H16  1  0.337185  0.804151  0.739789  1
  H  H17  1  0.466964  0.662815  0.739789  1
  H  H18  1  0.229857  0.007635  0.000000  1
  H  H19  1  0.777778  0.770143  0.000000  1
  H  H20  1  0.992365  0.222222  0.000000  1
  H  H21  1  0.837095  0.001200  0.266644  1
  H  H22  1  0.164105  0.162905  0.733356  1
  H  H23  1  0.998800  0.835895  0.733356  1
  H  H24  1  0.998800  0.835895  0.266644  1
  H  H25  1  0.164105  0.162905  0.266644  1
  H  H26  1  0.837095  0.001200  0.733356  1
  H  H27  1  0.143415  0.668165  0.500000  1
  H  H28  1  0.524751  0.856585  0.500000  1
  H  H29  1  0.331835  0.475249  0.500000  1
  H  H30  1  0.435413  0.314744  0.500000  1
  H  H31  1  0.879330  0.564587  0.500000  1
  H  H32  1  0.685256  0.120670  0.500000  1
  H  H33  1  0.195849  0.533036  0.739789  1
  H  H34  1  0.337185  0.804151  0.260211  1
  H  H35  1  0.466964  0.662815  0.260211  1
