# generated using pymatgen
data_Y3ErAlCo
_symmetry_space_group_name_H-M   'P 1'
_cell_length_a   9.44322770
_cell_length_b   9.44322766
_cell_length_c   9.44322700
_cell_angle_alpha   59.99999881
_cell_angle_beta   59.99999896
_cell_angle_gamma   59.99999916
_symmetry_Int_Tables_number   1
_chemical_formula_structural   Y3ErAlCo
_chemical_formula_sum   'Y12 Er4 Al4 Co4'
_cell_volume   595.45143133
_cell_formula_units_Z   4
loop_
 _symmetry_equiv_pos_site_id
 _symmetry_equiv_pos_as_xyz
  1  'x, y, z'
loop_
 _atom_site_type_symbol
 _atom_site_label
 _atom_site_symmetry_multiplicity
 _atom_site_fract_x
 _atom_site_fract_y
 _atom_site_fract_z
 _atom_site_occupancy
  Y  Y0  1  0.807215  0.192785  0.192785  1
  Y  Y1  1  0.192785  0.807215  0.807215  1
  Y  Y2  1  0.192785  0.807215  0.192785  1
  Y  Y3  1  0.807215  0.192785  0.807215  1
  Y  Y4  1  0.192785  0.192785  0.807215  1
  Y  Y5  1  0.807215  0.807215  0.192785  1
  Y  Y6  1  0.939264  0.560736  0.560736  1
  Y  Y7  1  0.560736  0.939264  0.939264  1
  Y  Y8  1  0.560736  0.939264  0.560736  1
  Y  Y9  1  0.939264  0.560736  0.939264  1
  Y  Y10  1  0.560736  0.560736  0.939264  1
  Y  Y11  1  0.939264  0.939264  0.560736  1
  Er  Er12  1  0.348256  0.348256  0.348256  1
  Er  Er13  1  0.348256  0.348256  0.955234  1
  Er  Er14  1  0.348256  0.955234  0.348256  1
  Er  Er15  1  0.955234  0.348256  0.348256  1
  Al  Al16  1  0.576926  0.576926  0.576926  1
  Al  Al17  1  0.576926  0.576926  0.269221  1
  Al  Al18  1  0.576926  0.269221  0.576926  1
  Al  Al19  1  0.269221  0.576926  0.576926  1
  Co  Co20  1  0.142220  0.142220  0.142220  1
  Co  Co21  1  0.142220  0.142220  0.573340  1
  Co  Co22  1  0.142220  0.573340  0.142220  1
  Co  Co23  1  0.573340  0.142220  0.142220  1
