# generated using pymatgen
data_Er3TmLu12(CdNi)4
_symmetry_space_group_name_H-M   'P 1'
_cell_length_a   9.37241610
_cell_length_b   9.37491165
_cell_length_c   9.37143300
_cell_angle_alpha   60.01308441
_cell_angle_beta   60.00503234
_cell_angle_gamma   60.01063705
_symmetry_Int_Tables_number   1
_chemical_formula_structural   Er3TmLu12(CdNi)4
_chemical_formula_sum   'Er3 Tm1 Lu12 Cd4 Ni4'
_cell_volume   582.37685478
_cell_formula_units_Z   1
loop_
 _symmetry_equiv_pos_site_id
 _symmetry_equiv_pos_as_xyz
  1  'x, y, z'
loop_
 _atom_site_type_symbol
 _atom_site_label
 _atom_site_symmetry_multiplicity
 _atom_site_fract_x
 _atom_site_fract_y
 _atom_site_fract_z
 _atom_site_occupancy
  Er  Er0  1  0.347709  0.348798  0.348237  1
  Er  Er1  1  0.347732  0.348821  0.955214  1
  Er  Er2  1  0.348777  0.954477  0.348400  1
  Tm  Tm3  1  0.936148  0.935658  0.564100  1
  Lu  Lu4  1  0.954824  0.348631  0.348307  1
  Lu  Lu5  1  0.812119  0.188513  0.187710  1
  Lu  Lu6  1  0.188338  0.812175  0.812412  1
  Lu  Lu7  1  0.188329  0.812153  0.187086  1
  Lu  Lu8  1  0.812116  0.188535  0.811649  1
  Lu  Lu9  1  0.188137  0.187291  0.812255  1
  Lu  Lu10  1  0.812053  0.812244  0.187867  1
  Lu  Lu11  1  0.936001  0.563556  0.563946  1
  Lu  Lu12  1  0.564039  0.935752  0.936088  1
  Lu  Lu13  1  0.564042  0.935748  0.564119  1
  Lu  Lu14  1  0.935991  0.563565  0.936517  1
  Lu  Lu15  1  0.564730  0.564190  0.935538  1
  Cd  Cd16  1  0.582306  0.581503  0.581550  1
  Cd  Cd17  1  0.582289  0.581523  0.254626  1
  Cd  Cd18  1  0.581890  0.254967  0.581566  1
  Cd  Cd19  1  0.254941  0.581130  0.581958  1
  Ni  Ni20  1  0.140869  0.141633  0.142753  1
  Ni  Ni21  1  0.140878  0.141637  0.574734  1
  Ni  Ni22  1  0.139902  0.575297  0.142407  1
  Ni  Ni23  1  0.575845  0.142206  0.140963  1
