# generated using pymatgen
data_ErTm4Lu5Pb6
_symmetry_space_group_name_H-M   'P 1'
_cell_length_a   6.48550800
_cell_length_b   8.92242862
_cell_length_c   8.92578541
_cell_angle_alpha   120.02484832
_cell_angle_beta   90.00231026
_cell_angle_gamma   89.99638079
_symmetry_Int_Tables_number   1
_chemical_formula_structural   ErTm4Lu5Pb6
_chemical_formula_sum   'Er1 Tm4 Lu5 Pb6'
_cell_volume   447.19337142
_cell_formula_units_Z   1
loop_
 _symmetry_equiv_pos_site_id
 _symmetry_equiv_pos_as_xyz
  1  'x, y, z'
loop_
 _atom_site_type_symbol
 _atom_site_label
 _atom_site_symmetry_multiplicity
 _atom_site_fract_x
 _atom_site_fract_y
 _atom_site_fract_z
 _atom_site_occupancy
  Er  Er0  1  0.250020  0.236727  0.236623  1
  Tm  Tm1  1  0.750017  0.236711  0.999885  1
  Tm  Tm2  1  0.750004  0.763267  0.763114  1
  Tm  Tm3  1  0.750002  0.000027  0.237032  1
  Tm  Tm4  1  0.249998  0.763215  0.999873  1
  Lu  Lu5  1  0.249997  0.999967  0.763246  1
  Lu  Lu6  1  0.499953  0.333316  0.666723  1
  Lu  Lu7  1  0.499950  0.666678  0.333351  1
  Lu  Lu8  1  0.000036  0.666722  0.333353  1
  Lu  Lu9  1  0.000031  0.333335  0.666724  1
  Pb  Pb10  1  0.749977  0.605024  0.000003  1
  Pb  Pb11  1  0.750001  0.395019  0.395030  1
  Pb  Pb12  1  0.750006  0.999976  0.604940  1
  Pb  Pb13  1  0.249984  0.394511  0.999705  1
  Pb  Pb14  1  0.250018  0.605483  0.605162  1
  Pb  Pb15  1  0.250005  0.000021  0.395236  1
