# generated using pymatgen
data_BaInSn2Au
_symmetry_space_group_name_H-M   'P 1'
_cell_length_a   6.95568293
_cell_length_b   6.95568271
_cell_length_c   6.95568206
_cell_angle_alpha   138.61756559
_cell_angle_beta   138.61756988
_cell_angle_gamma   59.95847490
_symmetry_Int_Tables_number   1
_chemical_formula_structural   BaInSn2Au
_chemical_formula_sum   'Ba1 In1 Sn2 Au1'
_cell_volume   145.56777667
_cell_formula_units_Z   1
loop_
 _symmetry_equiv_pos_site_id
 _symmetry_equiv_pos_as_xyz
  1  'x, y, z'
loop_
 _atom_site_type_symbol
 _atom_site_label
 _atom_site_symmetry_multiplicity
 _atom_site_fract_x
 _atom_site_fract_y
 _atom_site_fract_z
 _atom_site_occupancy
  Ba  Ba0  1  0.992479  0.992479  0.000000  1
  In  In1  1  0.599145  0.599145  0.000000  1
  Sn  Sn2  1  0.748150  0.248150  0.500000  1
  Sn  Sn3  1  0.248150  0.748150  0.500000  1
  Au  Au4  1  0.369965  0.369965  0.000000  1
