# generated using pymatgen
data_UPa(TcB4)2
_symmetry_space_group_name_H-M   'P 1'
_cell_length_a   5.95262376
_cell_length_b   5.95262366
_cell_length_c   3.62637100
_cell_angle_alpha   90.00000000
_cell_angle_beta   90.00000000
_cell_angle_gamma   104.01217778
_symmetry_Int_Tables_number   1
_chemical_formula_structural   UPa(TcB4)2
_chemical_formula_sum   'U1 Pa1 Tc2 B8'
_cell_volume   124.67236156
_cell_formula_units_Z   1
loop_
 _symmetry_equiv_pos_site_id
 _symmetry_equiv_pos_as_xyz
  1  'x, y, z'
loop_
 _atom_site_type_symbol
 _atom_site_label
 _atom_site_symmetry_multiplicity
 _atom_site_fract_x
 _atom_site_fract_y
 _atom_site_fract_z
 _atom_site_occupancy
  U  U0  1  0.699251  0.300749  0.000000  1
  Pa  Pa1  1  0.300335  0.699665  0.000000  1
  Tc  Tc2  1  0.187183  0.186442  0.000000  1
  Tc  Tc3  1  0.813558  0.812817  0.000000  1
  B  B4  1  0.382649  0.065031  0.500000  1
  B  B5  1  0.619201  0.937104  0.500000  1
  B  B6  1  0.062896  0.380799  0.500000  1
  B  B7  1  0.934969  0.617351  0.500000  1
  B  B8  1  0.379793  0.377895  0.500000  1
  B  B9  1  0.622105  0.620207  0.500000  1
  B  B10  1  0.090906  0.909094  0.500000  1
  B  B11  1  0.907156  0.092844  0.500000  1
