# generated using pymatgen
data_Ho12Fe2Ni3Sn
_symmetry_space_group_name_H-M   'P 1'
_cell_length_a   8.25803377
_cell_length_b   8.25803311
_cell_length_c   8.25803394
_cell_angle_alpha   108.20589344
_cell_angle_beta   109.88564837
_cell_angle_gamma   110.32979851
_symmetry_Int_Tables_number   1
_chemical_formula_structural   Ho12Fe2Ni3Sn
_chemical_formula_sum   'Ho12 Fe2 Ni3 Sn1'
_cell_volume   433.35408906
_cell_formula_units_Z   1
loop_
 _symmetry_equiv_pos_site_id
 _symmetry_equiv_pos_as_xyz
  1  'x, y, z'
loop_
 _atom_site_type_symbol
 _atom_site_label
 _atom_site_symmetry_multiplicity
 _atom_site_fract_x
 _atom_site_fract_y
 _atom_site_fract_z
 _atom_site_occupancy
  Ho  Ho0  1  0.474147  0.290949  0.183198  1
  Ho  Ho1  1  0.107753  0.290949  0.816802  1
  Ho  Ho2  1  0.892247  0.709051  0.183198  1
  Ho  Ho3  1  0.525853  0.709051  0.816802  1
  Ho  Ho4  1  0.304594  0.621187  0.316595  1
  Ho  Ho5  1  0.304594  0.988000  0.683405  1
  Ho  Ho6  1  0.695406  0.378813  0.683405  1
  Ho  Ho7  1  0.695406  0.012000  0.316595  1
  Ho  Ho8  1  0.194448  0.214527  0.408975  1
  Ho  Ho9  1  0.805552  0.785473  0.591025  1
  Ho  Ho10  1  0.194448  0.785473  0.979920  1
  Ho  Ho11  1  0.805552  0.214527  0.020080  1
  Fe  Fe12  1  0.500000  0.610467  0.110467  1
  Fe  Fe13  1  0.500000  0.389533  0.889533  1
  Ni  Ni14  1  0.367769  0.000000  0.367769  1
  Ni  Ni15  1  0.632231  0.000000  0.632231  1
  Ni  Ni16  1  0.000000  0.000000  0.000000  1
  Sn  Sn17  1  0.000000  0.500000  0.500000  1
