# generated using pymatgen
data_Li6SiAs5Rh12
_symmetry_space_group_name_H-M   'P 1'
_cell_length_a   4.17891800
_cell_length_b   5.91310700
_cell_length_c   12.53794000
_cell_angle_alpha   90.00000000
_cell_angle_beta   89.99974865
_cell_angle_gamma   89.99996691
_symmetry_Int_Tables_number   1
_chemical_formula_structural   Li6SiAs5Rh12
_chemical_formula_sum   'Li6 Si1 As5 Rh12'
_cell_volume   309.81737815
_cell_formula_units_Z   1
loop_
 _symmetry_equiv_pos_site_id
 _symmetry_equiv_pos_as_xyz
  1  'x, y, z'
loop_
 _atom_site_type_symbol
 _atom_site_label
 _atom_site_symmetry_multiplicity
 _atom_site_fract_x
 _atom_site_fract_y
 _atom_site_fract_z
 _atom_site_occupancy
  Li  Li0  1  0.999995  0.500001  0.998929  1
  Li  Li1  1  0.499840  0.000000  0.165523  1
  Li  Li2  1  0.999856  0.500001  0.333340  1
  Li  Li3  1  0.499995  0.000000  0.501149  1
  Li  Li4  1  0.000145  0.500001  0.667736  1
  Li  Li5  1  0.500139  0.000000  0.833335  1
  Si  Si6  1  0.500092  0.500001  0.833334  1
  As  As7  1  0.999998  0.000000  0.996910  1
  As  As8  1  0.499873  0.500001  0.164563  1
  As  As9  1  0.999918  0.000000  0.333329  1
  As  As10  1  0.499998  0.500001  0.502103  1
  As  As11  1  0.000139  0.000000  0.669766  1
  Rh  Rh12  1  0.500000  0.252223  0.998090  1
  Rh  Rh13  1  0.500001  0.747778  0.998090  1
  Rh  Rh14  1  0.999893  0.249691  0.166420  1
  Rh  Rh15  1  0.999893  0.750309  0.166419  1
  Rh  Rh16  1  0.499906  0.250409  0.333326  1
  Rh  Rh17  1  0.499907  0.749591  0.333327  1
  Rh  Rh18  1  0.999998  0.249691  0.500240  1
  Rh  Rh19  1  0.999999  0.750308  0.500240  1
  Rh  Rh20  1  0.500113  0.252226  0.668577  1
  Rh  Rh21  1  0.500115  0.747773  0.668578  1
  Rh  Rh22  1  0.000093  0.254963  0.833339  1
  Rh  Rh23  1  0.000093  0.745038  0.833340  1
