# generated using pymatgen
data_Li2NdHoSi2Ge
_symmetry_space_group_name_H-M   'P 1'
_cell_length_a   9.39838880
_cell_length_b   9.39838946
_cell_length_c   6.84963700
_cell_angle_alpha   90.00000000
_cell_angle_beta   90.00000000
_cell_angle_gamma   153.49111729
_symmetry_Int_Tables_number   1
_chemical_formula_structural   Li2NdHoSi2Ge
_chemical_formula_sum   'Li4 Nd2 Ho2 Si4 Ge2'
_cell_volume   270.04544445
_cell_formula_units_Z   2
loop_
 _symmetry_equiv_pos_site_id
 _symmetry_equiv_pos_as_xyz
  1  'x, y, z'
loop_
 _atom_site_type_symbol
 _atom_site_label
 _atom_site_symmetry_multiplicity
 _atom_site_fract_x
 _atom_site_fract_y
 _atom_site_fract_z
 _atom_site_occupancy
  Li  Li0  1  0.189618  0.810382  0.058297  1
  Li  Li1  1  0.189618  0.810382  0.441703  1
  Li  Li2  1  0.810382  0.189618  0.941703  1
  Li  Li3  1  0.810382  0.189618  0.558297  1
  Nd  Nd4  1  0.553564  0.446436  0.250000  1
  Nd  Nd5  1  0.446436  0.553564  0.750000  1
  Ho  Ho6  1  0.346393  0.653607  0.250000  1
  Ho  Ho7  1  0.653607  0.346393  0.750000  1
  Si  Si8  1  0.059041  0.940959  0.924180  1
  Si  Si9  1  0.940959  0.059041  0.075820  1
  Si  Si10  1  0.940959  0.059041  0.424180  1
  Si  Si11  1  0.059041  0.940959  0.575820  1
  Ge  Ge12  1  0.722682  0.277318  0.250000  1
  Ge  Ge13  1  0.277318  0.722682  0.750000  1
