# generated using pymatgen
data_Y3Tm9Co5Bi
_symmetry_space_group_name_H-M   'P 1'
_cell_length_a   8.22129487
_cell_length_b   8.22129510
_cell_length_c   8.19840769
_cell_angle_alpha   110.94794002
_cell_angle_beta   110.62006676
_cell_angle_gamma   106.99489777
_symmetry_Int_Tables_number   1
_chemical_formula_structural   Y3Tm9Co5Bi
_chemical_formula_sum   'Y3 Tm9 Co5 Bi1'
_cell_volume   425.31718494
_cell_formula_units_Z   1
loop_
 _symmetry_equiv_pos_site_id
 _symmetry_equiv_pos_as_xyz
  1  'x, y, z'
loop_
 _atom_site_type_symbol
 _atom_site_label
 _atom_site_symmetry_multiplicity
 _atom_site_fract_x
 _atom_site_fract_y
 _atom_site_fract_z
 _atom_site_occupancy
  Y  Y0  1  0.286404  0.185552  0.471956  1
  Y  Y1  1  0.714363  0.815413  0.529776  1
  Y  Y2  1  0.286624  0.814376  0.100999  1
  Tm  Tm3  1  0.713665  0.183616  0.897282  1
  Tm  Tm4  1  0.622015  0.311389  0.308975  1
  Tm  Tm5  1  0.378916  0.689415  0.690241  1
  Tm  Tm6  1  0.000828  0.311325  0.690241  1
  Tm  Tm7  1  0.997586  0.686960  0.308975  1
  Tm  Tm8  1  0.207563  0.403121  0.193463  1
  Tm  Tm9  1  0.790537  0.594735  0.805248  1
  Tm  Tm10  1  0.210514  0.014711  0.805248  1
  Tm  Tm11  1  0.790341  0.985900  0.193463  1
  Co  Co12  1  0.999207  0.374572  0.373779  1
  Co  Co13  1  0.999894  0.625014  0.624907  1
  Co  Co14  1  0.389110  0.889441  0.503271  1
  Co  Co15  1  0.613830  0.114161  0.503271  1
  Co  Co16  1  0.998757  0.000115  0.998872  1
  Bi  Bi17  1  0.499845  0.500183  0.000029  1
