# generated using pymatgen
data_NdHoMn(Si3Pd10)2
_symmetry_space_group_name_H-M   'P 1'
_cell_length_a   8.68461370
_cell_length_b   8.68461345
_cell_length_c   8.68461300
_cell_angle_alpha   59.99999789
_cell_angle_beta   59.99999886
_cell_angle_gamma   59.99999827
_symmetry_Int_Tables_number   1
_chemical_formula_structural   NdHoMn(Si3Pd10)2
_chemical_formula_sum   'Nd1 Ho1 Mn1 Si6 Pd20'
_cell_volume   463.16576854
_cell_formula_units_Z   1
loop_
 _symmetry_equiv_pos_site_id
 _symmetry_equiv_pos_as_xyz
  1  'x, y, z'
loop_
 _atom_site_type_symbol
 _atom_site_label
 _atom_site_symmetry_multiplicity
 _atom_site_fract_x
 _atom_site_fract_y
 _atom_site_fract_z
 _atom_site_occupancy
  Nd  Nd0  1  0.250000  0.250000  0.250000  1
  Ho  Ho1  1  0.750000  0.750000  0.750000  1
  Mn  Mn2  1  0.000000  0.000000  0.000000  1
  Si  Si3  1  0.733925  0.266075  0.266075  1
  Si  Si4  1  0.266075  0.733925  0.733925  1
  Si  Si5  1  0.266075  0.733925  0.266075  1
  Si  Si6  1  0.733925  0.266075  0.733925  1
  Si  Si7  1  0.266075  0.266075  0.733925  1
  Si  Si8  1  0.733925  0.733925  0.266075  1
  Pd  Pd9  1  0.386303  0.386303  0.386303  1
  Pd  Pd10  1  0.617210  0.617210  0.617210  1
  Pd  Pd11  1  0.386303  0.386303  0.841093  1
  Pd  Pd12  1  0.386303  0.841093  0.386303  1
  Pd  Pd13  1  0.617210  0.617210  0.148368  1
  Pd  Pd14  1  0.617210  0.148368  0.617210  1
  Pd  Pd15  1  0.841093  0.386303  0.386303  1
  Pd  Pd16  1  0.148368  0.617210  0.617210  1
  Pd  Pd17  1  0.343979  0.998917  0.998917  1
  Pd  Pd18  1  0.658186  0.998917  0.998917  1
  Pd  Pd19  1  0.998917  0.343979  0.658186  1
  Pd  Pd20  1  0.998917  0.658186  0.343979  1
  Pd  Pd21  1  0.998917  0.343979  0.998917  1
  Pd  Pd22  1  0.658186  0.998917  0.343979  1
  Pd  Pd23  1  0.998917  0.658186  0.998917  1
  Pd  Pd24  1  0.343979  0.998917  0.658186  1
  Pd  Pd25  1  0.998917  0.998917  0.343979  1
  Pd  Pd26  1  0.998917  0.998917  0.658186  1
  Pd  Pd27  1  0.658186  0.343979  0.998917  1
  Pd  Pd28  1  0.343979  0.658186  0.998917  1
