# generated using pymatgen
data_La2Ho4RuBr10
_symmetry_space_group_name_H-M   'P 1'
_cell_length_a   7.50588542
_cell_length_b   9.41910826
_cell_length_c   9.35542596
_cell_angle_alpha   107.35373061
_cell_angle_beta   94.83048204
_cell_angle_gamma   107.02066930
_symmetry_Int_Tables_number   1
_chemical_formula_structural   La2Ho4RuBr10
_chemical_formula_sum   'La2 Ho4 Ru1 Br10'
_cell_volume   592.90288308
_cell_formula_units_Z   1
loop_
 _symmetry_equiv_pos_site_id
 _symmetry_equiv_pos_as_xyz
  1  'x, y, z'
loop_
 _atom_site_type_symbol
 _atom_site_label
 _atom_site_symmetry_multiplicity
 _atom_site_fract_x
 _atom_site_fract_y
 _atom_site_fract_z
 _atom_site_occupancy
  La  La0  1  0.125912  0.048526  0.762776  1
  La  La1  1  0.874088  0.951474  0.237224  1
  Ho  Ho2  1  0.977962  0.303192  0.097209  1
  Ho  Ho3  1  0.022038  0.696808  0.902791  1
  Ho  Ho4  1  0.364660  0.139722  0.176605  1
  Ho  Ho5  1  0.635340  0.860278  0.823395  1
  Ru  Ru6  1  0.000000  0.000000  0.000000  1
  Br  Br7  1  0.556116  0.175626  0.921372  1
  Br  Br8  1  0.443884  0.824374  0.078628  1
  Br  Br9  1  0.351864  0.450176  0.269116  1
  Br  Br10  1  0.648136  0.549824  0.730884  1
  Br  Br11  1  0.267486  0.087762  0.447989  1
  Br  Br12  1  0.732514  0.912238  0.552011  1
  Br  Br13  1  0.781549  0.264909  0.339691  1
  Br  Br14  1  0.218451  0.735091  0.660309  1
  Br  Br15  1  0.085150  0.380843  0.836297  1
  Br  Br16  1  0.914850  0.619157  0.163703  1
