# generated using pymatgen
data_Dy3Ho3(Tm2Sb3)2
_symmetry_space_group_name_H-M   'P 1'
_cell_length_a   6.24499500
_cell_length_b   8.93804283
_cell_length_c   8.93812800
_cell_angle_alpha   119.99968781
_cell_angle_beta   90.00000000
_cell_angle_gamma   90.00000000
_symmetry_Int_Tables_number   1
_chemical_formula_structural   Dy3Ho3(Tm2Sb3)2
_chemical_formula_sum   'Dy3 Ho3 Tm4 Sb6'
_cell_volume   432.06898635
_cell_formula_units_Z   1
loop_
 _symmetry_equiv_pos_site_id
 _symmetry_equiv_pos_as_xyz
  1  'x, y, z'
loop_
 _atom_site_type_symbol
 _atom_site_label
 _atom_site_symmetry_multiplicity
 _atom_site_fract_x
 _atom_site_fract_y
 _atom_site_fract_z
 _atom_site_occupancy
  Dy  Dy0  1  0.249999  0.753271  0.000000  1
  Dy  Dy1  1  0.250001  0.246764  0.246767  1
  Dy  Dy2  1  0.250001  0.999997  0.753233  1
  Ho  Ho3  1  0.749999  0.246676  0.000000  1
  Ho  Ho4  1  0.750001  0.753291  0.753291  1
  Ho  Ho5  1  0.750001  0.000000  0.246709  1
  Tm  Tm6  1  0.499953  0.333337  0.666679  1
  Tm  Tm7  1  0.499953  0.666658  0.333321  1
  Tm  Tm8  1  0.000045  0.666662  0.333321  1
  Tm  Tm9  1  0.000045  0.333341  0.666679  1
  Sb  Sb10  1  0.749999  0.610488  0.000000  1
  Sb  Sb11  1  0.750001  0.389514  0.389521  1
  Sb  Sb12  1  0.750001  0.999993  0.610479  1
  Sb  Sb13  1  0.249999  0.389571  0.000000  1
  Sb  Sb14  1  0.250001  0.610430  0.610424  1
  Sb  Sb15  1  0.250001  0.000006  0.389576  1
