# generated using pymatgen
data_Nd16Cd4Ni3Ru
_symmetry_space_group_name_H-M   'P 1'
_cell_length_a   9.90571353
_cell_length_b   9.90571268
_cell_length_c   9.90571248
_cell_angle_alpha   59.61569510
_cell_angle_beta   59.61569920
_cell_angle_gamma   59.61569615
_symmetry_Int_Tables_number   1
_chemical_formula_structural   Nd16Cd4Ni3Ru
_chemical_formula_sum   'Nd16 Cd4 Ni3 Ru1'
_cell_volume   681.29068994
_cell_formula_units_Z   1
loop_
 _symmetry_equiv_pos_site_id
 _symmetry_equiv_pos_as_xyz
  1  'x, y, z'
loop_
 _atom_site_type_symbol
 _atom_site_label
 _atom_site_symmetry_multiplicity
 _atom_site_fract_x
 _atom_site_fract_y
 _atom_site_fract_z
 _atom_site_occupancy
  Nd  Nd0  1  0.597283  0.597283  0.597283  1
  Nd  Nd1  1  0.598929  0.598929  0.206424  1
  Nd  Nd2  1  0.598929  0.206424  0.598929  1
  Nd  Nd3  1  0.206424  0.598929  0.598929  1
  Nd  Nd4  1  0.061713  0.438475  0.438475  1
  Nd  Nd5  1  0.437676  0.059585  0.059585  1
  Nd  Nd6  1  0.438475  0.061713  0.438475  1
  Nd  Nd7  1  0.059585  0.437676  0.059585  1
  Nd  Nd8  1  0.438475  0.438475  0.061713  1
  Nd  Nd9  1  0.059585  0.059585  0.437676  1
  Nd  Nd10  1  0.187820  0.814834  0.814834  1
  Nd  Nd11  1  0.805521  0.189465  0.189465  1
  Nd  Nd12  1  0.814834  0.187820  0.814834  1
  Nd  Nd13  1  0.189465  0.805521  0.189465  1
  Nd  Nd14  1  0.814834  0.814834  0.187820  1
  Nd  Nd15  1  0.189465  0.189465  0.805521  1
  Cd  Cd16  1  0.829986  0.829986  0.829986  1
  Cd  Cd17  1  0.829621  0.829621  0.508509  1
  Cd  Cd18  1  0.829621  0.508509  0.829621  1
  Cd  Cd19  1  0.508509  0.829621  0.829621  1
  Ni  Ni20  1  0.393331  0.393331  0.824497  1
  Ni  Ni21  1  0.393331  0.824497  0.393331  1
  Ni  Ni22  1  0.824497  0.393331  0.393331  1
  Ru  Ru23  1  0.392091  0.392091  0.392091  1
