# generated using pymatgen
data_Al2Ag
_symmetry_space_group_name_H-M   'P 1'
_cell_length_a   2.99863700
_cell_length_b   2.99863554
_cell_length_c   6.51425500
_cell_angle_alpha   90.00000000
_cell_angle_beta   90.00000000
_cell_angle_gamma   119.99998300
_symmetry_Int_Tables_number   1
_chemical_formula_structural   Al2Ag
_chemical_formula_sum   'Al2 Ag1'
_cell_volume   50.72745107
_cell_formula_units_Z   1
loop_
 _symmetry_equiv_pos_site_id
 _symmetry_equiv_pos_as_xyz
  1  'x, y, z'
loop_
 _atom_site_type_symbol
 _atom_site_label
 _atom_site_symmetry_multiplicity
 _atom_site_fract_x
 _atom_site_fract_y
 _atom_site_fract_z
 _atom_site_occupancy
  Al  Al0  1  0.333333  0.666667  0.333237  1
  Al  Al1  1  0.666667  0.333333  0.666763  1
  Ag  Ag2  1  0.000000  0.000000  0.000000  1
