# generated using pymatgen
data_Tm13LuRh6
_symmetry_space_group_name_H-M   'P 1'
_cell_length_a   9.65832000
_cell_length_b   9.65831959
_cell_length_c   6.09369200
_cell_angle_alpha   90.00000000
_cell_angle_beta   90.00000000
_cell_angle_gamma   120.00000142
_symmetry_Int_Tables_number   1
_chemical_formula_structural   Tm13LuRh6
_chemical_formula_sum   'Tm13 Lu1 Rh6'
_cell_volume   492.28237487
_cell_formula_units_Z   1
loop_
 _symmetry_equiv_pos_site_id
 _symmetry_equiv_pos_as_xyz
  1  'x, y, z'
loop_
 _atom_site_type_symbol
 _atom_site_label
 _atom_site_symmetry_multiplicity
 _atom_site_fract_x
 _atom_site_fract_y
 _atom_site_fract_z
 _atom_site_occupancy
  Tm  Tm0  1  0.752321  0.876161  0.994012  1
  Tm  Tm1  1  0.876254  0.123746  0.494022  1
  Tm  Tm2  1  0.541226  0.458774  0.796056  1
  Tm  Tm3  1  0.082697  0.541348  0.296002  1
  Tm  Tm4  1  0.458652  0.917303  0.296002  1
  Tm  Tm5  1  0.541226  0.082453  0.796056  1
  Tm  Tm6  1  0.917547  0.458774  0.796056  1
  Tm  Tm7  1  0.458652  0.541348  0.296002  1
  Tm  Tm8  1  0.123839  0.247679  0.994012  1
  Tm  Tm9  1  0.876254  0.752509  0.494022  1
  Tm  Tm10  1  0.247491  0.123746  0.494022  1
  Tm  Tm11  1  0.123839  0.876161  0.994012  1
  Tm  Tm12  1  0.666667  0.333333  0.288101  1
  Lu  Lu13  1  0.333333  0.666667  0.787400  1
  Rh  Rh14  1  0.189820  0.810180  0.561508  1
  Rh  Rh15  1  0.379305  0.189653  0.061233  1
  Rh  Rh16  1  0.810347  0.620695  0.061233  1
  Rh  Rh17  1  0.189820  0.379641  0.561508  1
  Rh  Rh18  1  0.620359  0.810180  0.561508  1
  Rh  Rh19  1  0.810347  0.189653  0.061233  1
