# generated using pymatgen
data_MgTi8In14Co6Ir
_symmetry_space_group_name_H-M   'P 1'
_cell_length_a   9.21384539
_cell_length_b   9.21384613
_cell_length_c   9.21384500
_cell_angle_alpha   60.00000047
_cell_angle_beta   59.99999782
_cell_angle_gamma   60.00000120
_symmetry_Int_Tables_number   1
_chemical_formula_structural   MgTi8In14Co6Ir
_chemical_formula_sum   'Mg1 Ti8 In14 Co6 Ir1'
_cell_volume   553.10524705
_cell_formula_units_Z   1
loop_
 _symmetry_equiv_pos_site_id
 _symmetry_equiv_pos_as_xyz
  1  'x, y, z'
loop_
 _atom_site_type_symbol
 _atom_site_label
 _atom_site_symmetry_multiplicity
 _atom_site_fract_x
 _atom_site_fract_y
 _atom_site_fract_z
 _atom_site_occupancy
  Mg  Mg0  1  0.500000  0.500000  0.500000  1
  Ti  Ti1  1  0.119002  0.642995  0.119002  1
  Ti  Ti2  1  0.357005  0.880998  0.880998  1
  Ti  Ti3  1  0.880998  0.880998  0.880998  1
  Ti  Ti4  1  0.642995  0.119002  0.119002  1
  Ti  Ti5  1  0.880998  0.880998  0.357005  1
  Ti  Ti6  1  0.119002  0.119002  0.119002  1
  Ti  Ti7  1  0.880998  0.357005  0.880998  1
  Ti  Ti8  1  0.119002  0.119002  0.642995  1
  In  In9  1  0.500000  0.844414  0.155586  1
  In  In10  1  0.500000  0.844414  0.500000  1
  In  In11  1  0.500000  0.155586  0.500000  1
  In  In12  1  0.500000  0.500000  0.844414  1
  In  In13  1  0.155586  0.500000  0.500000  1
  In  In14  1  0.844414  0.155586  0.500000  1
  In  In15  1  0.155586  0.844414  0.500000  1
  In  In16  1  0.500000  0.155586  0.844414  1
  In  In17  1  0.155586  0.500000  0.844414  1
  In  In18  1  0.500000  0.500000  0.155586  1
  In  In19  1  0.844414  0.500000  0.500000  1
  In  In20  1  0.844414  0.500000  0.155586  1
  In  In21  1  0.250000  0.250000  0.250000  1
  In  In22  1  0.750000  0.750000  0.750000  1
  Co  Co23  1  0.789976  0.789976  0.210024  1
  Co  Co24  1  0.210024  0.789976  0.210024  1
  Co  Co25  1  0.210024  0.789976  0.789976  1
  Co  Co26  1  0.210024  0.210024  0.789976  1
  Co  Co27  1  0.789976  0.210024  0.789976  1
  Co  Co28  1  0.789976  0.210024  0.210024  1
  Ir  Ir29  1  0.000000  0.000000  0.000000  1
