# generated using pymatgen
data_Er4Tm4Tc3OsC8
_symmetry_space_group_name_H-M   'P 1'
_cell_length_a   5.03098600
_cell_length_b   6.49750369
_cell_length_c   9.73709404
_cell_angle_alpha   89.81826038
_cell_angle_beta   90.00000000
_cell_angle_gamma   90.00000000
_symmetry_Int_Tables_number   1
_chemical_formula_structural   Er4Tm4Tc3OsC8
_chemical_formula_sum   'Er4 Tm4 Tc3 Os1 C8'
_cell_volume   318.29280625
_cell_formula_units_Z   1
loop_
 _symmetry_equiv_pos_site_id
 _symmetry_equiv_pos_as_xyz
  1  'x, y, z'
loop_
 _atom_site_type_symbol
 _atom_site_label
 _atom_site_symmetry_multiplicity
 _atom_site_fract_x
 _atom_site_fract_y
 _atom_site_fract_z
 _atom_site_occupancy
  Er  Er0  1  0.250000  0.532603  0.216088  1
  Er  Er1  1  0.750000  0.465684  0.784235  1
  Er  Er2  1  0.750000  0.967784  0.713698  1
  Er  Er3  1  0.250000  0.032338  0.284247  1
  Tm  Tm4  1  0.250000  0.674600  0.557800  1
  Tm  Tm5  1  0.750000  0.323957  0.442193  1
  Tm  Tm6  1  0.750000  0.824961  0.058085  1
  Tm  Tm7  1  0.250000  0.174567  0.942108  1
  Tc  Tc8  1  0.250000  0.717539  0.867582  1
  Tc  Tc9  1  0.750000  0.282978  0.131711  1
  Tc  Tc10  1  0.750000  0.781835  0.368214  1
  Os  Os11  1  0.250000  0.217803  0.632701  1
  C  C12  1  0.250000  0.450412  0.758538  1
  C  C13  1  0.750000  0.550076  0.241146  1
  C  C14  1  0.750000  0.050126  0.259425  1
  C  C15  1  0.250000  0.951435  0.741315  1
  C  C16  1  0.250000  0.825611  0.052438  1
  C  C17  1  0.750000  0.174877  0.946760  1
  C  C18  1  0.750000  0.674547  0.553892  1
  C  C19  1  0.250000  0.326264  0.447822  1
