# generated using pymatgen
data_Nb6IrS12
_symmetry_space_group_name_H-M   'P 1'
_cell_length_a   5.81402822
_cell_length_b   5.81402829
_cell_length_c   12.71415882
_cell_angle_alpha   85.64912930
_cell_angle_beta   85.64913162
_cell_angle_gamma   119.99733859
_symmetry_Int_Tables_number   1
_chemical_formula_structural   Nb6IrS12
_chemical_formula_sum   'Nb6 Ir1 S12'
_cell_volume   367.89774102
_cell_formula_units_Z   1
loop_
 _symmetry_equiv_pos_site_id
 _symmetry_equiv_pos_as_xyz
  1  'x, y, z'
loop_
 _atom_site_type_symbol
 _atom_site_label
 _atom_site_symmetry_multiplicity
 _atom_site_fract_x
 _atom_site_fract_y
 _atom_site_fract_z
 _atom_site_occupancy
  Nb  Nb0  1  0.079658  0.079658  0.760049  1
  Nb  Nb1  1  0.411991  0.745255  0.763227  1
  Nb  Nb2  1  0.745255  0.411991  0.763227  1
  Nb  Nb3  1  0.254745  0.588009  0.236773  1
  Nb  Nb4  1  0.588009  0.254745  0.236773  1
  Nb  Nb5  1  0.920342  0.920342  0.239951  1
  Ir  Ir6  1  0.000000  0.000000  0.000000  1
  S  S7  1  0.296447  0.296447  0.113086  1
  S  S8  1  0.628516  0.962458  0.113129  1
  S  S9  1  0.962458  0.628516  0.113129  1
  S  S10  1  0.037542  0.371484  0.886871  1
  S  S11  1  0.371484  0.037542  0.886871  1
  S  S12  1  0.703553  0.703553  0.886914  1
  S  S13  1  0.214863  0.214863  0.362376  1
  S  S14  1  0.544628  0.879753  0.362346  1
  S  S15  1  0.879753  0.544628  0.362346  1
  S  S16  1  0.120247  0.455372  0.637654  1
  S  S17  1  0.455372  0.120247  0.637654  1
  S  S18  1  0.785137  0.785137  0.637624  1
