# generated using pymatgen
data_Lu5BRh7Au8
_symmetry_space_group_name_H-M   'P 1'
_cell_length_a   4.12382300
_cell_length_b   4.12382300
_cell_length_c   21.18637100
_cell_angle_alpha   90.00000000
_cell_angle_beta   90.00000000
_cell_angle_gamma   90.00000000
_symmetry_Int_Tables_number   1
_chemical_formula_structural   Lu5BRh7Au8
_chemical_formula_sum   'Lu5 B1 Rh7 Au8'
_cell_volume   360.29364844
_cell_formula_units_Z   1
loop_
 _symmetry_equiv_pos_site_id
 _symmetry_equiv_pos_as_xyz
  1  'x, y, z'
loop_
 _atom_site_type_symbol
 _atom_site_label
 _atom_site_symmetry_multiplicity
 _atom_site_fract_x
 _atom_site_fract_y
 _atom_site_fract_z
 _atom_site_occupancy
  Lu  Lu0  1  0.000000  0.000000  0.907045  1
  Lu  Lu1  1  0.000000  0.000000  0.092955  1
  Lu  Lu2  1  0.000000  0.000000  0.297638  1
  Lu  Lu3  1  0.000000  0.000000  0.500000  1
  Lu  Lu4  1  0.000000  0.000000  0.702362  1
  B  B5  1  0.500000  0.500000  0.000000  1
  Rh  Rh6  1  0.500000  0.500000  0.899296  1
  Rh  Rh7  1  0.500000  0.500000  0.100704  1
  Rh  Rh8  1  0.500000  0.500000  0.299256  1
  Rh  Rh9  1  0.500000  0.500000  0.500000  1
  Rh  Rh10  1  0.500000  0.500000  0.700744  1
  Rh  Rh11  1  0.500000  0.000000  0.000000  1
  Rh  Rh12  1  0.000000  0.500000  0.000000  1
  Au  Au13  1  0.500000  0.000000  0.198300  1
  Au  Au14  1  0.500000  0.000000  0.399412  1
  Au  Au15  1  0.500000  0.000000  0.600588  1
  Au  Au16  1  0.500000  0.000000  0.801700  1
  Au  Au17  1  0.000000  0.500000  0.198300  1
  Au  Au18  1  0.000000  0.500000  0.399412  1
  Au  Au19  1  0.000000  0.500000  0.600588  1
  Au  Au20  1  0.000000  0.500000  0.801700  1
