# generated using pymatgen
data_Li4Ac6Pd13
_symmetry_space_group_name_H-M   'P 1'
_cell_length_a   8.63561215
_cell_length_b   8.63561142
_cell_length_c   8.63561200
_cell_angle_alpha   109.47122669
_cell_angle_beta   109.47122497
_cell_angle_gamma   109.47121470
_symmetry_Int_Tables_number   1
_chemical_formula_structural   Li4Ac6Pd13
_chemical_formula_sum   'Li4 Ac6 Pd13'
_cell_volume   495.74395521
_cell_formula_units_Z   1
loop_
 _symmetry_equiv_pos_site_id
 _symmetry_equiv_pos_as_xyz
  1  'x, y, z'
loop_
 _atom_site_type_symbol
 _atom_site_label
 _atom_site_symmetry_multiplicity
 _atom_site_fract_x
 _atom_site_fract_y
 _atom_site_fract_z
 _atom_site_occupancy
  Li  Li0  1  0.000000  0.000000  0.500000  1
  Li  Li1  1  0.000000  0.500000  0.000000  1
  Li  Li2  1  0.500000  0.000000  0.000000  1
  Li  Li3  1  0.500000  0.500000  0.500000  1
  Ac  Ac4  1  0.692773  0.692773  0.000000  1
  Ac  Ac5  1  0.307227  0.000000  0.307227  1
  Ac  Ac6  1  0.000000  0.307227  0.307227  1
  Ac  Ac7  1  0.307227  0.307227  0.000000  1
  Ac  Ac8  1  0.692773  0.000000  0.692773  1
  Ac  Ac9  1  0.000000  0.692773  0.692773  1
  Pd  Pd10  1  0.331661  0.331661  0.663322  1
  Pd  Pd11  1  0.668339  0.000000  0.331661  1
  Pd  Pd12  1  0.000000  0.668339  0.331661  1
  Pd  Pd13  1  0.668339  0.331661  0.000000  1
  Pd  Pd14  1  0.331661  0.663322  0.331661  1
  Pd  Pd15  1  0.000000  0.331661  0.668339  1
  Pd  Pd16  1  0.331661  0.668339  0.000000  1
  Pd  Pd17  1  0.331661  0.000000  0.668339  1
  Pd  Pd18  1  0.663322  0.331661  0.331661  1
  Pd  Pd19  1  0.668339  0.668339  0.336678  1
  Pd  Pd20  1  0.668339  0.336678  0.668339  1
  Pd  Pd21  1  0.336678  0.668339  0.668339  1
  Pd  Pd22  1  0.000000  0.000000  0.000000  1
