# generated using pymatgen
data_U5O13
_symmetry_space_group_name_H-M   'P 1'
_cell_length_a   4.16183100
_cell_length_b   6.81032600
_cell_length_c   19.80732300
_cell_angle_alpha   90.00000000
_cell_angle_beta   90.00000000
_cell_angle_gamma   90.00000000
_symmetry_Int_Tables_number   1
_chemical_formula_structural   U5O13
_chemical_formula_sum   'U10 O26'
_cell_volume   561.40739107
_cell_formula_units_Z   2
loop_
 _symmetry_equiv_pos_site_id
 _symmetry_equiv_pos_as_xyz
  1  'x, y, z'
loop_
 _atom_site_type_symbol
 _atom_site_label
 _atom_site_symmetry_multiplicity
 _atom_site_fract_x
 _atom_site_fract_y
 _atom_site_fract_z
 _atom_site_occupancy
  U  U0  1  0.000000  0.245488  0.647307  1
  U  U1  1  0.000000  0.245488  0.852693  1
  U  U2  1  0.000000  0.221590  0.250000  1
  U  U3  1  0.000000  0.270727  0.054378  1
  U  U4  1  0.000000  0.270727  0.445622  1
  U  U5  1  0.000000  0.729273  0.554378  1
  U  U6  1  0.000000  0.729273  0.945622  1
  U  U7  1  0.000000  0.778410  0.750000  1
  U  U8  1  0.000000  0.754512  0.352693  1
  U  U9  1  0.000000  0.754512  0.147307  1
  O  O10  1  0.000000  0.075529  0.143058  1
  O  O11  1  0.000000  0.075529  0.356942  1
  O  O12  1  0.000000  0.148492  0.750000  1
  O  O13  1  0.500000  0.240674  0.645763  1
  O  O14  1  0.500000  0.240674  0.854237  1
  O  O15  1  0.500000  0.217591  0.250000  1
  O  O16  1  0.500000  0.276916  0.056094  1
  O  O17  1  0.500000  0.276916  0.443906  1
  O  O18  1  0.000000  0.385518  0.549946  1
  O  O19  1  0.000000  0.385518  0.950054  1
  O  O20  1  0.000000  0.449905  0.172911  1
  O  O21  1  0.000000  0.449905  0.327089  1
  O  O22  1  0.000000  0.550095  0.672911  1
  O  O23  1  0.000000  0.550095  0.827089  1
  O  O24  1  0.000000  0.614482  0.049946  1
  O  O25  1  0.000000  0.614482  0.450054  1
  O  O26  1  0.500000  0.723084  0.556094  1
  O  O27  1  0.500000  0.723084  0.943906  1
  O  O28  1  0.500000  0.782409  0.750000  1
  O  O29  1  0.500000  0.759326  0.354237  1
  O  O30  1  0.500000  0.759326  0.145763  1
  O  O31  1  0.000000  0.851508  0.250000  1
  O  O32  1  0.000000  0.924471  0.643058  1
  O  O33  1  0.000000  0.924471  0.856942  1
  O  O34  1  0.000000  0.000000  0.000000  1
  O  O35  1  0.000000  0.000000  0.500000  1
