# generated using pymatgen
data_Hf3Nb3Fe16Si7
_symmetry_space_group_name_H-M   'P 1'
_cell_length_a   7.99492736
_cell_length_b   8.00671208
_cell_length_c   7.99533704
_cell_angle_alpha   59.94548125
_cell_angle_beta   60.08401660
_cell_angle_gamma   59.98341122
_symmetry_Int_Tables_number   1
_chemical_formula_structural   Hf3Nb3Fe16Si7
_chemical_formula_sum   'Hf3 Nb3 Fe16 Si7'
_cell_volume   361.93578257
_cell_formula_units_Z   1
loop_
 _symmetry_equiv_pos_site_id
 _symmetry_equiv_pos_as_xyz
  1  'x, y, z'
loop_
 _atom_site_type_symbol
 _atom_site_label
 _atom_site_symmetry_multiplicity
 _atom_site_fract_x
 _atom_site_fract_y
 _atom_site_fract_z
 _atom_site_occupancy
  Hf  Hf0  1  0.796874  0.203945  0.796095  1
  Hf  Hf1  1  0.793312  0.793278  0.206752  1
  Hf  Hf2  1  0.203748  0.797016  0.203112  1
  Nb  Nb3  1  0.204888  0.204966  0.795109  1
  Nb  Nb4  1  0.208126  0.792591  0.791878  1
  Nb  Nb5  1  0.792687  0.208091  0.207308  1
  Fe  Fe6  1  0.863764  0.376055  0.377770  1
  Fe  Fe7  1  0.622168  0.617545  0.136244  1
  Fe  Fe8  1  0.376089  0.381086  0.860217  1
  Fe  Fe9  1  0.826863  0.523216  0.825302  1
  Fe  Fe10  1  0.826160  0.825081  0.823922  1
  Fe  Fe11  1  0.825267  0.825851  0.524940  1
  Fe  Fe12  1  0.380974  0.376237  0.382575  1
  Fe  Fe13  1  0.139861  0.617303  0.623904  1
  Fe  Fe14  1  0.617432  0.622189  0.624013  1
  Fe  Fe15  1  0.174797  0.175480  0.173203  1
  Fe  Fe16  1  0.176035  0.475445  0.173778  1
  Fe  Fe17  1  0.523203  0.826729  0.824650  1
  Fe  Fe18  1  0.617321  0.139702  0.619049  1
  Fe  Fe19  1  0.175564  0.174841  0.476269  1
  Fe  Fe20  1  0.376001  0.863643  0.382550  1
  Fe  Fe21  1  0.475535  0.176001  0.174676  1
  Si  Si22  1  0.499753  0.000522  0.999756  1
  Si  Si23  1  0.000049  0.499848  0.000235  1
  Si  Si24  1  0.500242  0.500306  0.999619  1
  Si  Si25  1  0.502674  0.502756  0.497456  1
  Si  Si26  1  0.000247  0.499946  0.500078  1
  Si  Si27  1  0.000328  0.000452  0.499561  1
  Si  Si28  1  0.500036  0.999876  0.499981  1
