# generated using pymatgen
data_CeErAl4FeNi
_symmetry_space_group_name_H-M   'P 1'
_cell_length_a   5.17848952
_cell_length_b   5.17848925
_cell_length_c   7.09737400
_cell_angle_alpha   90.00000000
_cell_angle_beta   90.00000000
_cell_angle_gamma   132.15618634
_symmetry_Int_Tables_number   1
_chemical_formula_structural   CeErAl4FeNi
_chemical_formula_sum   'Ce1 Er1 Al4 Fe1 Ni1'
_cell_volume   141.09396581
_cell_formula_units_Z   1
loop_
 _symmetry_equiv_pos_site_id
 _symmetry_equiv_pos_as_xyz
  1  'x, y, z'
loop_
 _atom_site_type_symbol
 _atom_site_label
 _atom_site_symmetry_multiplicity
 _atom_site_fract_x
 _atom_site_fract_y
 _atom_site_fract_z
 _atom_site_occupancy
  Ce  Ce0  1  0.545394  0.454606  0.250000  1
  Er  Er1  1  0.433838  0.566162  0.750000  1
  Al  Al2  1  0.841930  0.158070  0.048604  1
  Al  Al3  1  0.152241  0.847759  0.945636  1
  Al  Al4  1  0.152241  0.847759  0.554364  1
  Al  Al5  1  0.841930  0.158070  0.451396  1
  Fe  Fe6  1  0.317574  0.682426  0.250000  1
  Ni  Ni7  1  0.714853  0.285147  0.750000  1
