# generated using pymatgen
data_Ti4HgC2O
_symmetry_space_group_name_H-M   'P 1'
_cell_length_a   3.08710300
_cell_length_b   3.08710308
_cell_length_c   24.26708800
_cell_angle_alpha   90.00000000
_cell_angle_beta   90.00000000
_cell_angle_gamma   119.99998846
_symmetry_Int_Tables_number   1
_chemical_formula_structural   Ti4HgC2O
_chemical_formula_sum   'Ti8 Hg2 C4 O2'
_cell_volume   200.28600209
_cell_formula_units_Z   2
loop_
 _symmetry_equiv_pos_site_id
 _symmetry_equiv_pos_as_xyz
  1  'x, y, z'
loop_
 _atom_site_type_symbol
 _atom_site_label
 _atom_site_symmetry_multiplicity
 _atom_site_fract_x
 _atom_site_fract_y
 _atom_site_fract_z
 _atom_site_occupancy
  Ti  Ti0  1  0.000000  0.000000  0.349765  1
  Ti  Ti1  1  0.000000  0.000000  0.650235  1
  Ti  Ti2  1  0.000000  0.000000  0.849765  1
  Ti  Ti3  1  0.000000  0.000000  0.150235  1
  Ti  Ti4  1  0.333333  0.666667  0.443928  1
  Ti  Ti5  1  0.666667  0.333333  0.556072  1
  Ti  Ti6  1  0.666667  0.333333  0.943928  1
  Ti  Ti7  1  0.333333  0.666667  0.056072  1
  Hg  Hg8  1  0.333333  0.666667  0.250000  1
  Hg  Hg9  1  0.666667  0.333333  0.750000  1
  C  C10  1  0.666667  0.333333  0.396054  1
  C  C11  1  0.333333  0.666667  0.603946  1
  C  C12  1  0.333333  0.666667  0.896054  1
  C  C13  1  0.666667  0.333333  0.103946  1
  O  O14  1  0.000000  0.000000  0.500000  1
  O  O15  1  0.000000  0.000000  0.000000  1
