# generated using pymatgen
data_Ce4Cd2Ir3Au
_symmetry_space_group_name_H-M   'P 1'
_cell_length_a   7.82224223
_cell_length_b   7.82224125
_cell_length_c   3.72681100
_cell_angle_alpha   90.00000000
_cell_angle_beta   90.00000000
_cell_angle_gamma   90.87060521
_symmetry_Int_Tables_number   1
_chemical_formula_structural   Ce4Cd2Ir3Au
_chemical_formula_sum   'Ce4 Cd2 Ir3 Au1'
_cell_volume   228.00779637
_cell_formula_units_Z   1
loop_
 _symmetry_equiv_pos_site_id
 _symmetry_equiv_pos_as_xyz
  1  'x, y, z'
loop_
 _atom_site_type_symbol
 _atom_site_label
 _atom_site_symmetry_multiplicity
 _atom_site_fract_x
 _atom_site_fract_y
 _atom_site_fract_z
 _atom_site_occupancy
  Ce  Ce0  1  0.173237  0.326763  0.500000  1
  Ce  Ce1  1  0.312886  0.837724  0.500000  1
  Ce  Ce2  1  0.850650  0.649350  0.500000  1
  Ce  Ce3  1  0.662276  0.187114  0.500000  1
  Cd  Cd4  1  0.497546  0.503839  0.000000  1
  Cd  Cd5  1  0.996161  0.002454  0.000000  1
  Ir  Ir6  1  0.137872  0.633272  0.000000  1
  Ir  Ir7  1  0.866728  0.362128  0.000000  1
  Ir  Ir8  1  0.368546  0.131454  0.000000  1
  Au  Au9  1  0.634098  0.865902  0.000000  1
