# generated using pymatgen
data_Hf2Mn3Be
_symmetry_space_group_name_H-M   'P 1'
_cell_length_a   4.82506000
_cell_length_b   4.82505954
_cell_length_c   8.10857600
_cell_angle_alpha   90.00000000
_cell_angle_beta   90.00000000
_cell_angle_gamma   120.00000318
_symmetry_Int_Tables_number   1
_chemical_formula_structural   Hf2Mn3Be
_chemical_formula_sum   'Hf4 Mn6 Be2'
_cell_volume   163.48601356
_cell_formula_units_Z   2
loop_
 _symmetry_equiv_pos_site_id
 _symmetry_equiv_pos_as_xyz
  1  'x, y, z'
loop_
 _atom_site_type_symbol
 _atom_site_label
 _atom_site_symmetry_multiplicity
 _atom_site_fract_x
 _atom_site_fract_y
 _atom_site_fract_z
 _atom_site_occupancy
  Hf  Hf0  1  0.333333  0.666667  0.434355  1
  Hf  Hf1  1  0.666667  0.333333  0.934355  1
  Hf  Hf2  1  0.666667  0.333333  0.565645  1
  Hf  Hf3  1  0.333333  0.666667  0.065645  1
  Mn  Mn4  1  0.167419  0.334838  0.750000  1
  Mn  Mn5  1  0.832581  0.167419  0.250000  1
  Mn  Mn6  1  0.334838  0.167419  0.250000  1
  Mn  Mn7  1  0.665162  0.832581  0.750000  1
  Mn  Mn8  1  0.832581  0.665162  0.250000  1
  Mn  Mn9  1  0.167419  0.832581  0.750000  1
  Be  Be10  1  0.000000  0.000000  0.000000  1
  Be  Be11  1  0.000000  0.000000  0.500000  1
