# generated using pymatgen
data_La5NdPu2O14
_symmetry_space_group_name_H-M   'P 1'
_cell_length_a   6.83345942
_cell_length_b   6.85754304
_cell_length_c   8.05320000
_cell_angle_alpha   106.91545845
_cell_angle_beta   89.88643061
_cell_angle_gamma   98.32008903
_symmetry_Int_Tables_number   1
_chemical_formula_structural   La5NdPu2O14
_chemical_formula_sum   'La5 Nd1 Pu2 O14'
_cell_volume   356.93066150
_cell_formula_units_Z   1
loop_
 _symmetry_equiv_pos_site_id
 _symmetry_equiv_pos_as_xyz
  1  'x, y, z'
loop_
 _atom_site_type_symbol
 _atom_site_label
 _atom_site_symmetry_multiplicity
 _atom_site_fract_x
 _atom_site_fract_y
 _atom_site_fract_z
 _atom_site_occupancy
  La  La0  1  0.537982  0.996273  0.745777  1
  La  La1  1  0.267384  0.533448  0.880167  1
  La  La2  1  0.731755  0.467623  0.121528  1
  La  La3  1  0.744212  0.482616  0.612958  1
  La  La4  1  0.255764  0.516192  0.384491  1
  Nd  Nd5  1  0.458098  0.004017  0.254142  1
  Pu  Pu6  1  0.999997  0.999975  0.498921  1
  Pu  Pu7  1  0.000013  0.999984  0.001049  1
  O  O8  1  0.440297  0.645229  0.166196  1
  O  O9  1  0.560833  0.357151  0.834021  1
  O  O10  1  0.291156  0.926895  0.956321  1
  O  O11  1  0.710000  0.071747  0.050313  1
  O  O12  1  0.288180  0.924920  0.508499  1
  O  O13  1  0.712425  0.073378  0.484441  1
  O  O14  1  0.545571  0.362018  0.344165  1
  O  O15  1  0.452446  0.636998  0.655213  1
  O  O16  1  0.927568  0.685891  0.958350  1
  O  O17  1  0.072979  0.314283  0.042762  1
  O  O18  1  0.068252  0.342347  0.614696  1
  O  O19  1  0.930374  0.656635  0.385650  1
  O  O20  1  0.888670  0.922898  0.726520  1
  O  O21  1  0.116041  0.079482  0.273822  1
