# generated using pymatgen
data_Dy2AlZn16
_symmetry_space_group_name_H-M   'P 1'
_cell_length_a   6.79587778
_cell_length_b   6.79587744
_cell_length_c   6.79587692
_cell_angle_alpha   82.80026641
_cell_angle_beta   82.80027129
_cell_angle_gamma   82.80025623
_symmetry_Int_Tables_number   1
_chemical_formula_structural   Dy2AlZn16
_chemical_formula_sum   'Dy2 Al1 Zn16'
_cell_volume   307.00868709
_cell_formula_units_Z   1
loop_
 _symmetry_equiv_pos_site_id
 _symmetry_equiv_pos_as_xyz
  1  'x, y, z'
loop_
 _atom_site_type_symbol
 _atom_site_label
 _atom_site_symmetry_multiplicity
 _atom_site_fract_x
 _atom_site_fract_y
 _atom_site_fract_z
 _atom_site_occupancy
  Dy  Dy0  1  0.664803  0.664803  0.664803  1
  Dy  Dy1  1  0.335583  0.335583  0.335583  1
  Al  Al2  1  0.099016  0.099016  0.099016  1
  Zn  Zn3  1  0.351146  0.839295  0.351146  1
  Zn  Zn4  1  0.351146  0.351146  0.839295  1
  Zn  Zn5  1  0.839295  0.351146  0.351146  1
  Zn  Zn6  1  0.649668  0.160660  0.649668  1
  Zn  Zn7  1  0.649668  0.649668  0.160660  1
  Zn  Zn8  1  0.160660  0.649668  0.649668  1
  Zn  Zn9  1  0.299403  0.700764  0.999865  1
  Zn  Zn10  1  0.999865  0.299403  0.700764  1
  Zn  Zn11  1  0.700764  0.999865  0.299403  1
  Zn  Zn12  1  0.999865  0.700764  0.299403  1
  Zn  Zn13  1  0.299403  0.999865  0.700764  1
  Zn  Zn14  1  0.700764  0.299403  0.999865  1
  Zn  Zn15  1  0.999363  0.999363  0.502051  1
  Zn  Zn16  1  0.502051  0.999363  0.999363  1
  Zn  Zn17  1  0.999363  0.502051  0.999363  1
  Zn  Zn18  1  0.898176  0.898176  0.898176  1
