# generated using pymatgen
data_TbHo3(GaRu)4
_symmetry_space_group_name_H-M   'P 1'
_cell_length_a   4.50571700
_cell_length_b   7.08557234
_cell_length_c   7.16860900
_cell_angle_alpha   89.96475199
_cell_angle_beta   90.00000000
_cell_angle_gamma   90.00000000
_symmetry_Int_Tables_number   1
_chemical_formula_structural   TbHo3(GaRu)4
_chemical_formula_sum   'Tb1 Ho3 Ga4 Ru4'
_cell_volume   228.86198370
_cell_formula_units_Z   1
loop_
 _symmetry_equiv_pos_site_id
 _symmetry_equiv_pos_as_xyz
  1  'x, y, z'
loop_
 _atom_site_type_symbol
 _atom_site_label
 _atom_site_symmetry_multiplicity
 _atom_site_fract_x
 _atom_site_fract_y
 _atom_site_fract_z
 _atom_site_occupancy
  Tb  Tb0  1  0.250000  0.303920  0.519259  1
  Ho  Ho1  1  0.250000  0.196736  0.019496  1
  Ho  Ho2  1  0.750000  0.696722  0.480513  1
  Ho  Ho3  1  0.750000  0.803433  0.980783  1
  Ga  Ga4  1  0.250000  0.893411  0.698210  1
  Ga  Ga5  1  0.250000  0.606759  0.197327  1
  Ga  Ga6  1  0.750000  0.105806  0.301374  1
  Ga  Ga7  1  0.750000  0.393800  0.802822  1
  Ru  Ru8  1  0.250000  0.936835  0.340927  1
  Ru  Ru9  1  0.250000  0.562964  0.841361  1
  Ru  Ru10  1  0.750000  0.061851  0.659241  1
  Ru  Ru11  1  0.750000  0.437763  0.158690  1
