# generated using pymatgen
data_Sc12Re3Si16Os5
_symmetry_space_group_name_H-M   'P 1'
_cell_length_a   5.39367754
_cell_length_b   10.13957836
_cell_length_c   11.50820354
_cell_angle_alpha   94.52290843
_cell_angle_beta   103.55770959
_cell_angle_gamma   105.50905242
_symmetry_Int_Tables_number   1
_chemical_formula_structural   Sc12Re3Si16Os5
_chemical_formula_sum   'Sc12 Re3 Si16 Os5'
_cell_volume   582.79386896
_cell_formula_units_Z   1
loop_
 _symmetry_equiv_pos_site_id
 _symmetry_equiv_pos_as_xyz
  1  'x, y, z'
loop_
 _atom_site_type_symbol
 _atom_site_label
 _atom_site_symmetry_multiplicity
 _atom_site_fract_x
 _atom_site_fract_y
 _atom_site_fract_z
 _atom_site_occupancy
  Sc  Sc0  1  0.531329  0.283170  0.047394  1
  Sc  Sc1  1  0.173101  0.467284  0.137455  1
  Sc  Sc2  1  0.456409  0.994687  0.156514  1
  Sc  Sc3  1  0.802648  0.504067  0.344245  1
  Sc  Sc4  1  0.068128  0.032619  0.362441  1
  Sc  Sc5  1  0.699898  0.215567  0.452176  1
  Sc  Sc6  1  0.297166  0.782612  0.548407  1
  Sc  Sc7  1  0.929686  0.966892  0.636397  1
  Sc  Sc8  1  0.196214  0.496009  0.654554  1
  Sc  Sc9  1  0.541832  0.004091  0.844134  1
  Sc  Sc10  1  0.827266  0.533189  0.864030  1
  Sc  Sc11  1  0.466151  0.718648  0.951573  1
  Re  Re12  1  0.890045  0.247457  0.717022  1
  Re  Re13  1  0.426824  0.254993  0.782631  1
  Re  Re14  1  0.011571  0.869270  0.922362  1
  Si  Si15  1  0.127111  0.722025  0.075880  1
  Si  Si16  1  0.716307  0.565950  0.112043  1
  Si  Si17  1  0.893124  0.892828  0.124509  1
  Si  Si18  1  0.364583  0.249616  0.249877  1
  Si  Si19  1  0.888951  0.250028  0.250112  1
  Si  Si20  1  0.374551  0.605730  0.375903  1
  Si  Si21  1  0.538068  0.933648  0.388389  1
  Si  Si22  1  0.829417  0.778518  0.425909  1
  Si  Si23  1  0.172443  0.223524  0.570901  1
  Si  Si24  1  0.458006  0.065013  0.610664  1
  Si  Si25  1  0.626413  0.396583  0.621157  1
  Si  Si26  1  0.108184  0.749386  0.748939  1
  Si  Si27  1  0.636778  0.750009  0.749267  1
  Si  Si28  1  0.106195  0.104773  0.876921  1
  Si  Si29  1  0.282695  0.436198  0.890002  1
  Si  Si30  1  0.878695  0.276363  0.928990  1
  Os  Os31  1  0.989338  0.128864  0.080578  1
  Os  Os32  1  0.575243  0.744377  0.215207  1
  Os  Os33  1  0.115544  0.754084  0.287012  1
  Os  Os34  1  0.281324  0.370985  0.419172  1
  Os  Os35  1  0.718765  0.630946  0.577234  1
