# generated using pymatgen
data_Eu4HoW3O14
_symmetry_space_group_name_H-M   'P 1'
_cell_length_a   7.62486407
_cell_length_b   7.56198682
_cell_length_c   7.62486500
_cell_angle_alpha   59.72456194
_cell_angle_beta   60.00000028
_cell_angle_gamma   59.72455931
_symmetry_Int_Tables_number   1
_chemical_formula_structural   Eu4HoW3O14
_chemical_formula_sum   'Eu4 Ho1 W3 O14'
_cell_volume   309.57401409
_cell_formula_units_Z   1
loop_
 _symmetry_equiv_pos_site_id
 _symmetry_equiv_pos_as_xyz
  1  'x, y, z'
loop_
 _atom_site_type_symbol
 _atom_site_label
 _atom_site_symmetry_multiplicity
 _atom_site_fract_x
 _atom_site_fract_y
 _atom_site_fract_z
 _atom_site_occupancy
  Eu  Eu0  1  0.125000  0.625000  0.125000  1
  Eu  Eu1  1  0.125000  0.125000  0.625000  1
  Eu  Eu2  1  0.625000  0.125000  0.125000  1
  Eu  Eu3  1  0.125000  0.125000  0.125000  1
  Ho  Ho4  1  0.625000  0.125000  0.625000  1
  W  W5  1  0.625000  0.625000  0.625000  1
  W  W6  1  0.125000  0.625000  0.625000  1
  W  W7  1  0.625000  0.625000  0.125000  1
  O  O8  1  0.305315  0.680700  0.708669  1
  O  O9  1  0.540892  0.940216  0.978000  1
  O  O10  1  0.708669  0.680700  0.305315  1
  O  O11  1  0.272000  0.309784  0.709108  1
  O  O12  1  0.999955  0.000136  0.999955  1
  O  O13  1  0.305315  0.680700  0.305315  1
  O  O14  1  0.709108  0.309784  0.709108  1
  O  O15  1  0.944685  0.569300  0.944685  1
  O  O16  1  0.541331  0.569300  0.944685  1
  O  O17  1  0.978000  0.940216  0.540892  1
  O  O18  1  0.250045  0.249864  0.250045  1
  O  O19  1  0.540892  0.940216  0.540892  1
  O  O20  1  0.709108  0.309784  0.272000  1
  O  O21  1  0.944685  0.569300  0.541331  1
