# generated using pymatgen
data_Zr6Ti2Al14GeRh7
_symmetry_space_group_name_H-M   'P 1'
_cell_length_a   8.83238297
_cell_length_b   8.83238314
_cell_length_c   8.83238267
_cell_angle_alpha   120.18636511
_cell_angle_beta   119.76439633
_cell_angle_gamma   90.04303516
_symmetry_Int_Tables_number   1
_chemical_formula_structural   Zr6Ti2Al14GeRh7
_chemical_formula_sum   'Zr6 Ti2 Al14 Ge1 Rh7'
_cell_volume   487.38567862
_cell_formula_units_Z   1
loop_
 _symmetry_equiv_pos_site_id
 _symmetry_equiv_pos_as_xyz
  1  'x, y, z'
loop_
 _atom_site_type_symbol
 _atom_site_label
 _atom_site_symmetry_multiplicity
 _atom_site_fract_x
 _atom_site_fract_y
 _atom_site_fract_z
 _atom_site_occupancy
  Zr  Zr0  1  0.796196  0.293069  0.081288  1
  Zr  Zr1  1  0.211781  0.293069  0.496873  1
  Zr  Zr2  1  0.204933  0.704933  0.500000  1
  Zr  Zr3  1  0.211781  0.714908  0.918712  1
  Zr  Zr4  1  0.796196  0.714908  0.503127  1
  Zr  Zr5  1  0.787087  0.287087  0.500000  1
  Ti  Ti6  1  0.380163  0.123102  0.742939  1
  Ti  Ti7  1  0.380163  0.637224  0.257061  1
  Al  Al8  1  0.163724  0.336425  0.172701  1
  Al  Al9  1  0.163724  0.991023  0.827299  1
  Al  Al10  1  0.160191  0.337799  0.822392  1
  Al  Al11  1  0.515406  0.337799  0.177608  1
  Al  Al12  1  0.836097  0.662794  0.826698  1
  Al  Al13  1  0.836097  0.009398  0.173302  1
  Al  Al14  1  0.835221  0.663522  0.171699  1
  Al  Al15  1  0.491822  0.663522  0.828301  1
  Al  Al16  1  0.380253  0.120806  0.259447  1
  Al  Al17  1  0.861360  0.120806  0.740553  1
  Al  Al18  1  0.619606  0.877361  0.257755  1
  Al  Al19  1  0.619606  0.361849  0.742245  1
  Al  Al20  1  0.617798  0.877973  0.739826  1
  Al  Al21  1  0.138146  0.877973  0.260174  1
  Ge  Ge22  1  0.995519  0.495519  0.500000  1
  Rh  Rh23  1  0.001698  0.000790  0.501914  1
  Rh  Rh24  1  0.498875  0.000790  0.999092  1
  Rh  Rh25  1  0.497780  0.497780  0.000000  1
  Rh  Rh26  1  0.498875  0.499783  0.498086  1
  Rh  Rh27  1  0.001698  0.499783  0.000908  1
  Rh  Rh28  1  0.000597  0.000597  0.000000  1
  Rh  Rh29  1  0.497606  0.997606  0.500000  1
