# generated using pymatgen
data_Tb4Y2Mn(CrC4)3
_symmetry_space_group_name_H-M   'P 1'
_cell_length_a   8.13594805
_cell_length_b   8.13584648
_cell_length_c   5.02525400
_cell_angle_alpha   90.00000000
_cell_angle_beta   90.00000000
_cell_angle_gamma   120.01279151
_symmetry_Int_Tables_number   1
_chemical_formula_structural   Tb4Y2Mn(CrC4)3
_chemical_formula_sum   'Tb4 Y2 Mn1 Cr3 C12'
_cell_volume   288.03387570
_cell_formula_units_Z   1
loop_
 _symmetry_equiv_pos_site_id
 _symmetry_equiv_pos_as_xyz
  1  'x, y, z'
loop_
 _atom_site_type_symbol
 _atom_site_label
 _atom_site_symmetry_multiplicity
 _atom_site_fract_x
 _atom_site_fract_y
 _atom_site_fract_z
 _atom_site_occupancy
  Tb  Tb0  1  0.621800  0.685845  0.750000  1
  Tb  Tb1  1  0.314243  0.935942  0.750000  1
  Tb  Tb2  1  0.064014  0.378258  0.750000  1
  Tb  Tb3  1  0.380554  0.315260  0.250000  1
  Y  Y4  1  0.934836  0.619597  0.250000  1
  Y  Y5  1  0.684997  0.065273  0.250000  1
  Mn  Mn6  1  0.333284  0.666718  0.250000  1
  Cr  Cr7  1  0.000024  0.000025  0.501663  1
  Cr  Cr8  1  0.000024  0.000025  0.998337  1
  Cr  Cr9  1  0.666685  0.333272  0.750000  1
  C  C10  1  0.963191  0.775527  0.750000  1
  C  C11  1  0.191657  0.962217  0.250000  1
  C  C12  1  0.770420  0.807874  0.250000  1
  C  C13  1  0.224535  0.187789  0.750000  1
  C  C14  1  0.812296  0.036767  0.750000  1
  C  C15  1  0.037524  0.229457  0.250000  1
  C  C16  1  0.865191  0.579726  0.750000  1
  C  C17  1  0.286783  0.863161  0.250000  1
  C  C18  1  0.576208  0.713530  0.250000  1
  C  C19  1  0.420406  0.285280  0.750000  1
  C  C20  1  0.136874  0.423759  0.250000  1
  C  C21  1  0.714455  0.134699  0.750000  1
