# generated using pymatgen
data_U2AlNiRu2
_symmetry_space_group_name_H-M   'P 1'
_cell_length_a   5.65571500
_cell_length_b   5.32921683
_cell_length_c   7.71010300
_cell_angle_alpha   90.00000000
_cell_angle_beta   90.00000000
_cell_angle_gamma   122.04821738
_symmetry_Int_Tables_number   1
_chemical_formula_structural   U2AlNiRu2
_chemical_formula_sum   'U4 Al2 Ni2 Ru4'
_cell_volume   196.97131255
_cell_formula_units_Z   2
loop_
 _symmetry_equiv_pos_site_id
 _symmetry_equiv_pos_as_xyz
  1  'x, y, z'
loop_
 _atom_site_type_symbol
 _atom_site_label
 _atom_site_symmetry_multiplicity
 _atom_site_fract_x
 _atom_site_fract_y
 _atom_site_fract_z
 _atom_site_occupancy
  U  U0  1  0.345678  0.691357  0.425178  1
  U  U1  1  0.654322  0.308643  0.925178  1
  U  U2  1  0.654322  0.308643  0.574822  1
  U  U3  1  0.345678  0.691357  0.074822  1
  Al  Al4  1  0.000000  0.000000  0.500000  1
  Al  Al5  1  0.000000  0.000000  0.000000  1
  Ni  Ni6  1  0.160427  0.320854  0.750000  1
  Ni  Ni7  1  0.839573  0.679146  0.250000  1
  Ru  Ru8  1  0.153079  0.801720  0.750000  1
  Ru  Ru9  1  0.351358  0.198280  0.250000  1
  Ru  Ru10  1  0.846921  0.198280  0.250000  1
  Ru  Ru11  1  0.648642  0.801720  0.750000  1
