# generated using pymatgen
data_Ho4ErCoRu
_symmetry_space_group_name_H-M   'P 1'
_cell_length_a   6.26235179
_cell_length_b   7.10445049
_cell_length_c   8.45168158
_cell_angle_alpha   96.52280881
_cell_angle_beta   111.74520258
_cell_angle_gamma   90.00000054
_symmetry_Int_Tables_number   1
_chemical_formula_structural   Ho4ErCoRu
_chemical_formula_sum   'Ho8 Er2 Co2 Ru2'
_cell_volume   346.64081756
_cell_formula_units_Z   2
loop_
 _symmetry_equiv_pos_site_id
 _symmetry_equiv_pos_as_xyz
  1  'x, y, z'
loop_
 _atom_site_type_symbol
 _atom_site_label
 _atom_site_symmetry_multiplicity
 _atom_site_fract_x
 _atom_site_fract_y
 _atom_site_fract_z
 _atom_site_occupancy
  Ho  Ho0  1  0.787765  0.588248  0.811015  1
  Ho  Ho1  1  0.976750  0.911752  0.188985  1
  Ho  Ho2  1  0.199078  0.417637  0.185250  1
  Ho  Ho3  1  0.013830  0.082363  0.814750  1
  Ho  Ho4  1  0.214164  0.688480  0.566620  1
  Ho  Ho5  1  0.647544  0.811520  0.433380  1
  Ho  Ho6  1  0.792428  0.318179  0.434417  1
  Ho  Ho7  1  0.358010  0.181821  0.565583  1
  Er  Er8  1  0.427332  0.750000  0.000000  1
  Er  Er9  1  0.579229  0.250000  0.000000  1
  Co  Co10  1  0.603197  0.923321  0.777641  1
  Co  Co11  1  0.825555  0.576679  0.222359  1
  Ru  Ru12  1  0.397752  0.072800  0.220387  1
  Ru  Ru13  1  0.177366  0.427200  0.779613  1
