# generated using pymatgen
data_Dy2Ta(NbSi2)2
_symmetry_space_group_name_H-M   'P 1'
_cell_length_a   7.05799800
_cell_length_b   7.05799800
_cell_length_c   13.05824500
_cell_angle_alpha   90.00000000
_cell_angle_beta   90.00000000
_cell_angle_gamma   90.00000000
_symmetry_Int_Tables_number   1
_chemical_formula_structural   Dy2Ta(NbSi2)2
_chemical_formula_sum   'Dy8 Ta4 Nb8 Si16'
_cell_volume   650.50085922
_cell_formula_units_Z   4
loop_
 _symmetry_equiv_pos_site_id
 _symmetry_equiv_pos_as_xyz
  1  'x, y, z'
loop_
 _atom_site_type_symbol
 _atom_site_label
 _atom_site_symmetry_multiplicity
 _atom_site_fract_x
 _atom_site_fract_y
 _atom_site_fract_z
 _atom_site_occupancy
  Dy  Dy0  1  0.996669  0.657545  0.032812  1
  Dy  Dy1  1  0.003331  0.342455  0.532812  1
  Dy  Dy2  1  0.657545  0.996669  0.967188  1
  Dy  Dy3  1  0.157545  0.503331  0.782812  1
  Dy  Dy4  1  0.842455  0.496669  0.282812  1
  Dy  Dy5  1  0.503331  0.157545  0.217188  1
  Dy  Dy6  1  0.496669  0.842455  0.717188  1
  Dy  Dy7  1  0.342455  0.003331  0.467188  1
  Ta  Ta8  1  0.672533  0.672533  0.500000  1
  Ta  Ta9  1  0.827467  0.172533  0.750000  1
  Ta  Ta10  1  0.172533  0.827467  0.250000  1
  Ta  Ta11  1  0.327467  0.327467  0.000000  1
  Nb  Nb12  1  0.346841  0.507213  0.375792  1
  Nb  Nb13  1  0.846841  0.992787  0.374208  1
  Nb  Nb14  1  0.007213  0.153159  0.125792  1
  Nb  Nb15  1  0.992787  0.846841  0.625792  1
  Nb  Nb16  1  0.507213  0.346841  0.624208  1
  Nb  Nb17  1  0.153159  0.007213  0.874208  1
  Nb  Nb18  1  0.492787  0.653159  0.124208  1
  Nb  Nb19  1  0.653159  0.492787  0.875792  1
  Si  Si20  1  0.046263  0.706826  0.436250  1
  Si  Si21  1  0.953737  0.293174  0.936250  1
  Si  Si22  1  0.706826  0.046263  0.563750  1
  Si  Si23  1  0.206826  0.453737  0.186250  1
  Si  Si24  1  0.793174  0.546263  0.686250  1
  Si  Si25  1  0.453737  0.206826  0.813750  1
  Si  Si26  1  0.546263  0.793174  0.313750  1
  Si  Si27  1  0.293174  0.953737  0.063750  1
  Si  Si28  1  0.797676  0.865583  0.183437  1
  Si  Si29  1  0.297676  0.634417  0.566563  1
  Si  Si30  1  0.702324  0.365583  0.066563  1
  Si  Si31  1  0.634417  0.297676  0.433437  1
  Si  Si32  1  0.365583  0.702324  0.933437  1
  Si  Si33  1  0.134417  0.202324  0.316563  1
  Si  Si34  1  0.202324  0.134417  0.683437  1
  Si  Si35  1  0.865583  0.797676  0.816563  1
