# generated using pymatgen
data_Li2HoErSi4
_symmetry_space_group_name_H-M   'P 1'
_cell_length_a   3.76797900
_cell_length_b   7.58074451
_cell_length_c   10.13978442
_cell_angle_alpha   89.95631488
_cell_angle_beta   90.00000000
_cell_angle_gamma   90.00000000
_symmetry_Int_Tables_number   1
_chemical_formula_structural   Li2HoErSi4
_chemical_formula_sum   'Li4 Ho2 Er2 Si8'
_cell_volume   289.63359111
_cell_formula_units_Z   2
loop_
 _symmetry_equiv_pos_site_id
 _symmetry_equiv_pos_as_xyz
  1  'x, y, z'
loop_
 _atom_site_type_symbol
 _atom_site_label
 _atom_site_symmetry_multiplicity
 _atom_site_fract_x
 _atom_site_fract_y
 _atom_site_fract_z
 _atom_site_occupancy
  Li  Li0  1  0.250000  0.989336  0.391307  1
  Li  Li1  1  0.750000  0.010664  0.608693  1
  Li  Li2  1  0.250000  0.490109  0.107696  1
  Li  Li3  1  0.750000  0.509891  0.892304  1
  Ho  Ho4  1  0.250000  0.639295  0.636204  1
  Ho  Ho5  1  0.750000  0.360705  0.363796  1
  Er  Er6  1  0.250000  0.138507  0.863404  1
  Er  Er7  1  0.750000  0.861493  0.136596  1
  Si  Si8  1  0.750000  0.265852  0.066376  1
  Si  Si9  1  0.250000  0.734148  0.933624  1
  Si  Si10  1  0.750000  0.767670  0.432527  1
  Si  Si11  1  0.250000  0.232330  0.567473  1
  Si  Si12  1  0.750000  0.845121  0.820717  1
  Si  Si13  1  0.250000  0.154879  0.179283  1
  Si  Si14  1  0.750000  0.343719  0.680523  1
  Si  Si15  1  0.250000  0.656281  0.319477  1
