# generated using pymatgen
data_Na2Ta3Ni9As7
_symmetry_space_group_name_H-M   'P 1'
_cell_length_a   9.63338500
_cell_length_b   9.63338427
_cell_length_c   3.80222200
_cell_angle_alpha   90.00000000
_cell_angle_beta   90.00000000
_cell_angle_gamma   120.00000595
_symmetry_Int_Tables_number   1
_chemical_formula_structural   Na2Ta3Ni9As7
_chemical_formula_sum   'Na2 Ta3 Ni9 As7'
_cell_volume   305.58066918
_cell_formula_units_Z   1
loop_
 _symmetry_equiv_pos_site_id
 _symmetry_equiv_pos_as_xyz
  1  'x, y, z'
loop_
 _atom_site_type_symbol
 _atom_site_label
 _atom_site_symmetry_multiplicity
 _atom_site_fract_x
 _atom_site_fract_y
 _atom_site_fract_z
 _atom_site_occupancy
  Na  Na0  1  0.333333  0.666667  0.000000  1
  Na  Na1  1  0.666667  0.333333  0.500000  1
  Ta  Ta2  1  0.223101  0.122398  0.500000  1
  Ta  Ta3  1  0.877602  0.100703  0.500000  1
  Ta  Ta4  1  0.899297  0.776899  0.500000  1
  Ni  Ni5  1  0.123314  0.281776  0.000000  1
  Ni  Ni6  1  0.718224  0.841538  0.000000  1
  Ni  Ni7  1  0.158462  0.876686  0.000000  1
  Ni  Ni8  1  0.424949  0.366239  0.000000  1
  Ni  Ni9  1  0.633761  0.058711  0.000000  1
  Ni  Ni10  1  0.941289  0.575051  0.000000  1
  Ni  Ni11  1  0.050718  0.433282  0.500000  1
  Ni  Ni12  1  0.566718  0.617436  0.500000  1
  Ni  Ni13  1  0.382564  0.949282  0.500000  1
  As  As14  1  0.293563  0.419560  0.500000  1
  As  As15  1  0.580440  0.874003  0.500000  1
  As  As16  1  0.125997  0.706437  0.500000  1
  As  As17  1  0.420993  0.116418  0.000000  1
  As  As18  1  0.883582  0.304575  0.000000  1
  As  As19  1  0.695425  0.579007  0.000000  1
  As  As20  1  0.000000  0.000000  0.000000  1
