# generated using pymatgen
data_Sr4ScMn(TcO6)2
_symmetry_space_group_name_H-M   'P 1'
_cell_length_a   5.70073319
_cell_length_b   5.71618087
_cell_length_c   9.90501971
_cell_angle_alpha   54.62468768
_cell_angle_beta   90.09876350
_cell_angle_gamma   90.07193082
_symmetry_Int_Tables_number   1
_chemical_formula_structural   Sr4ScMn(TcO6)2
_chemical_formula_sum   'Sr4 Sc1 Mn1 Tc2 O12'
_cell_volume   263.17824270
_cell_formula_units_Z   1
loop_
 _symmetry_equiv_pos_site_id
 _symmetry_equiv_pos_as_xyz
  1  'x, y, z'
loop_
 _atom_site_type_symbol
 _atom_site_label
 _atom_site_symmetry_multiplicity
 _atom_site_fract_x
 _atom_site_fract_y
 _atom_site_fract_z
 _atom_site_occupancy
  Sr  Sr0  1  0.479306  0.755777  0.248089  1
  Sr  Sr1  1  0.520694  0.244223  0.751911  1
  Sr  Sr2  1  0.980071  0.247779  0.248205  1
  Sr  Sr3  1  0.019929  0.752221  0.751795  1
  Sc  Sc4  1  0.500000  0.000000  0.500000  1
  Mn  Mn5  1  0.000000  0.000000  0.000000  1
  Tc  Tc6  1  0.000000  0.500000  0.500000  1
  Tc  Tc7  1  0.500000  0.500000  0.000000  1
  O  O8  1  0.712577  0.206074  0.030757  1
  O  O9  1  0.287423  0.793926  0.969243  1
  O  O10  1  0.218684  0.795519  0.470015  1
  O  O11  1  0.781316  0.204481  0.529985  1
  O  O12  1  0.008405  0.677661  0.263790  1
  O  O13  1  0.991595  0.322339  0.736210  1
  O  O14  1  0.507947  0.314328  0.243802  1
  O  O15  1  0.492053  0.685672  0.756198  1
  O  O16  1  0.235666  0.257760  0.031804  1
  O  O17  1  0.764334  0.742240  0.968196  1
  O  O18  1  0.733504  0.748742  0.469162  1
  O  O19  1  0.266496  0.251258  0.530838  1
