# generated using pymatgen
data_La4As3O4
_symmetry_space_group_name_H-M   'P 1'
_cell_length_a   7.24256558
_cell_length_b   7.24256577
_cell_length_c   8.25856500
_cell_angle_alpha   90.00000000
_cell_angle_beta   90.00000000
_cell_angle_gamma   146.70259064
_symmetry_Int_Tables_number   1
_chemical_formula_structural   La4As3O4
_chemical_formula_sum   'La4 As3 O4'
_cell_volume   237.82087618
_cell_formula_units_Z   1
loop_
 _symmetry_equiv_pos_site_id
 _symmetry_equiv_pos_as_xyz
  1  'x, y, z'
loop_
 _atom_site_type_symbol
 _atom_site_label
 _atom_site_symmetry_multiplicity
 _atom_site_fract_x
 _atom_site_fract_y
 _atom_site_fract_z
 _atom_site_occupancy
  La  La0  1  0.321461  0.678539  0.758209  1
  La  La1  1  0.321461  0.678539  0.241791  1
  La  La2  1  0.988201  0.011799  0.500000  1
  La  La3  1  0.998413  0.001587  0.000000  1
  As  As4  1  0.626096  0.373904  0.264491  1
  As  As5  1  0.626096  0.373904  0.735509  1
  As  As6  1  0.700348  0.299652  0.000000  1
  O  O7  1  0.397748  0.602252  0.500000  1
  O  O8  1  0.412299  0.587701  0.000000  1
  O  O9  1  0.904544  0.095456  0.749497  1
  O  O10  1  0.904544  0.095456  0.250503  1
