# generated using pymatgen
data_ThScTcB6
_symmetry_space_group_name_H-M   'P 1'
_cell_length_a   3.69016900
_cell_length_b   9.08546900
_cell_length_c   11.52577000
_cell_angle_alpha   90.00000000
_cell_angle_beta   90.00000000
_cell_angle_gamma   90.00000000
_symmetry_Int_Tables_number   1
_chemical_formula_structural   ThScTcB6
_chemical_formula_sum   'Th4 Sc4 Tc4 B24'
_cell_volume   386.42352325
_cell_formula_units_Z   4
loop_
 _symmetry_equiv_pos_site_id
 _symmetry_equiv_pos_as_xyz
  1  'x, y, z'
loop_
 _atom_site_type_symbol
 _atom_site_label
 _atom_site_symmetry_multiplicity
 _atom_site_fract_x
 _atom_site_fract_y
 _atom_site_fract_z
 _atom_site_occupancy
  Th  Th0  1  0.000000  0.821035  0.085089  1
  Th  Th1  1  0.000000  0.178965  0.914911  1
  Th  Th2  1  0.000000  0.321035  0.414911  1
  Th  Th3  1  0.000000  0.678965  0.585089  1
  Sc  Sc4  1  0.000000  0.445683  0.126874  1
  Sc  Sc5  1  0.000000  0.554317  0.873126  1
  Sc  Sc6  1  0.000000  0.945683  0.373126  1
  Sc  Sc7  1  0.000000  0.054317  0.626874  1
  Tc  Tc8  1  0.000000  0.141406  0.182753  1
  Tc  Tc9  1  0.000000  0.858594  0.817247  1
  Tc  Tc10  1  0.000000  0.641406  0.317247  1
  Tc  Tc11  1  0.000000  0.358594  0.682753  1
  B  B12  1  0.500000  0.057535  0.071141  1
  B  B13  1  0.500000  0.942465  0.928859  1
  B  B14  1  0.500000  0.557535  0.428859  1
  B  B15  1  0.500000  0.442465  0.571141  1
  B  B16  1  0.500000  0.254470  0.084025  1
  B  B17  1  0.500000  0.745530  0.915975  1
  B  B18  1  0.500000  0.754470  0.415975  1
  B  B19  1  0.500000  0.245530  0.584025  1
  B  B20  1  0.500000  0.293800  0.234408  1
  B  B21  1  0.500000  0.706200  0.765592  1
  B  B22  1  0.500000  0.793800  0.265592  1
  B  B23  1  0.500000  0.206200  0.734408  1
  B  B24  1  0.500000  0.128273  0.316471  1
  B  B25  1  0.500000  0.871727  0.683529  1
  B  B26  1  0.500000  0.628273  0.183529  1
  B  B27  1  0.500000  0.371727  0.816471  1
  B  B28  1  0.500000  0.483679  0.284225  1
  B  B29  1  0.500000  0.516321  0.715775  1
  B  B30  1  0.500000  0.983679  0.215775  1
  B  B31  1  0.500000  0.016321  0.784225  1
  B  B32  1  0.500000  0.097000  0.474000  1
  B  B33  1  0.500000  0.903000  0.526000  1
  B  B34  1  0.500000  0.597000  0.026000  1
  B  B35  1  0.500000  0.403000  0.974000  1
