# generated using pymatgen
data_Sc3Ga2SnPt3
_symmetry_space_group_name_H-M   'P 1'
_cell_length_a   7.31387476
_cell_length_b   7.31387434
_cell_length_c   3.54395800
_cell_angle_alpha   90.00000000
_cell_angle_beta   90.00000000
_cell_angle_gamma   119.19881279
_symmetry_Int_Tables_number   1
_chemical_formula_structural   Sc3Ga2SnPt3
_chemical_formula_sum   'Sc3 Ga2 Sn1 Pt3'
_cell_volume   165.48707775
_cell_formula_units_Z   1
loop_
 _symmetry_equiv_pos_site_id
 _symmetry_equiv_pos_as_xyz
  1  'x, y, z'
loop_
 _atom_site_type_symbol
 _atom_site_label
 _atom_site_symmetry_multiplicity
 _atom_site_fract_x
 _atom_site_fract_y
 _atom_site_fract_z
 _atom_site_occupancy
  Sc  Sc0  1  0.403563  0.992478  0.500000  1
  Sc  Sc1  1  0.992478  0.403563  0.500000  1
  Sc  Sc2  1  0.611911  0.611911  0.500000  1
  Ga  Ga3  1  0.727902  0.999763  0.000000  1
  Ga  Ga4  1  0.999763  0.727902  0.000000  1
  Sn  Sn5  1  0.267942  0.267942  0.000000  1
  Pt  Pt6  1  0.335747  0.674841  0.000000  1
  Pt  Pt7  1  0.674841  0.335747  0.000000  1
  Pt  Pt8  1  0.985854  0.985854  0.500000  1
