# generated using pymatgen
data_Y2Tm2Ru7W
_symmetry_space_group_name_H-M   'P 1'
_cell_length_a   5.48456008
_cell_length_b   5.18487312
_cell_length_c   9.01470304
_cell_angle_alpha   89.99013577
_cell_angle_beta   90.00210932
_cell_angle_gamma   121.99456479
_symmetry_Int_Tables_number   1
_chemical_formula_structural   Y2Tm2Ru7W
_chemical_formula_sum   'Y2 Tm2 Ru7 W1'
_cell_volume   217.40902735
_cell_formula_units_Z   1
loop_
 _symmetry_equiv_pos_site_id
 _symmetry_equiv_pos_as_xyz
  1  'x, y, z'
loop_
 _atom_site_type_symbol
 _atom_site_label
 _atom_site_symmetry_multiplicity
 _atom_site_fract_x
 _atom_site_fract_y
 _atom_site_fract_z
 _atom_site_occupancy
  Y  Y0  1  0.671949  0.344423  0.563325  1
  Y  Y1  1  0.334111  0.668831  0.431251  1
  Tm  Tm2  1  0.333436  0.667391  0.067909  1
  Tm  Tm3  1  0.672717  0.345980  0.937263  1
  Ru  Ru4  1  0.008296  0.017170  0.498629  1
  Ru  Ru5  1  0.008777  0.017998  0.001569  1
  Ru  Ru6  1  0.170992  0.819314  0.752558  1
  Ru  Ru7  1  0.649486  0.819442  0.752485  1
  Ru  Ru8  1  0.824485  0.649076  0.247679  1
  Ru  Ru9  1  0.831081  0.164741  0.247626  1
  Ru  Ru10  1  0.335113  0.165879  0.247665  1
  W  W11  1  0.159558  0.319757  0.752041  1
