# generated using pymatgen
data_MnFe6Si16Ni
_symmetry_space_group_name_H-M   'P 1'
_cell_length_a   6.31462579
_cell_length_b   6.31462518
_cell_length_c   7.83390322
_cell_angle_alpha   90.06690570
_cell_angle_beta   90.06690392
_cell_angle_gamma   103.83426541
_symmetry_Int_Tables_number   1
_chemical_formula_structural   MnFe6Si16Ni
_chemical_formula_sum   'Mn1 Fe6 Si16 Ni1'
_cell_volume   303.31090602
_cell_formula_units_Z   1
loop_
 _symmetry_equiv_pos_site_id
 _symmetry_equiv_pos_as_xyz
  1  'x, y, z'
loop_
 _atom_site_type_symbol
 _atom_site_label
 _atom_site_symmetry_multiplicity
 _atom_site_fract_x
 _atom_site_fract_y
 _atom_site_fract_z
 _atom_site_occupancy
  Mn  Mn0  1  0.305475  0.305475  0.310759  1
  Fe  Fe1  1  0.696611  0.696611  0.689577  1
  Fe  Fe2  1  0.807331  0.807331  0.188920  1
  Fe  Fe3  1  0.282986  0.715650  0.501086  1
  Fe  Fe4  1  0.217386  0.775994  0.999912  1
  Fe  Fe5  1  0.715650  0.282986  0.501086  1
  Fe  Fe6  1  0.775994  0.217386  0.999912  1
  Si  Si7  1  0.418697  0.669609  0.227464  1
  Si  Si8  1  0.083740  0.827567  0.727872  1
  Si  Si9  1  0.170556  0.916803  0.271152  1
  Si  Si10  1  0.334041  0.589530  0.773318  1
  Si  Si11  1  0.589530  0.334041  0.773318  1
  Si  Si12  1  0.916803  0.170556  0.271152  1
  Si  Si13  1  0.827567  0.083740  0.727872  1
  Si  Si14  1  0.669609  0.418697  0.227464  1
  Si  Si15  1  0.140809  0.399899  0.052276  1
  Si  Si16  1  0.355866  0.094738  0.543002  1
  Si  Si17  1  0.901070  0.645976  0.449917  1
  Si  Si18  1  0.599220  0.855818  0.953608  1
  Si  Si19  1  0.855818  0.599220  0.953608  1
  Si  Si20  1  0.645976  0.901070  0.449917  1
  Si  Si21  1  0.094738  0.355866  0.543002  1
  Si  Si22  1  0.399899  0.140809  0.052276  1
  Ni  Ni23  1  0.194623  0.194623  0.811534  1
