# generated using pymatgen
data_Nd8HoTmSn8
_symmetry_space_group_name_H-M   'P 1'
_cell_length_a   8.21850700
_cell_length_b   8.37753100
_cell_length_c   15.90171000
_cell_angle_alpha   90.00000000
_cell_angle_beta   90.00000000
_cell_angle_gamma   90.00000000
_symmetry_Int_Tables_number   1
_chemical_formula_structural   Nd8HoTmSn8
_chemical_formula_sum   'Nd16 Ho2 Tm2 Sn16'
_cell_volume   1094.84540981
_cell_formula_units_Z   2
loop_
 _symmetry_equiv_pos_site_id
 _symmetry_equiv_pos_as_xyz
  1  'x, y, z'
loop_
 _atom_site_type_symbol
 _atom_site_label
 _atom_site_symmetry_multiplicity
 _atom_site_fract_x
 _atom_site_fract_y
 _atom_site_fract_z
 _atom_site_occupancy
  Nd  Nd0  1  0.017942  0.180937  0.401439  1
  Nd  Nd1  1  0.367850  0.837462  0.120881  1
  Nd  Nd2  1  0.132085  0.337473  0.620943  1
  Nd  Nd3  1  0.482094  0.680944  0.901408  1
  Nd  Nd4  1  0.867850  0.662538  0.120881  1
  Nd  Nd5  1  0.132085  0.337473  0.879057  1
  Nd  Nd6  1  0.482094  0.680944  0.598592  1
  Nd  Nd7  1  0.632085  0.162527  0.620943  1
  Nd  Nd8  1  0.867850  0.662538  0.379119  1
  Nd  Nd9  1  0.017942  0.180937  0.098561  1
  Nd  Nd10  1  0.982094  0.819056  0.901408  1
  Nd  Nd11  1  0.632085  0.162527  0.879057  1
  Nd  Nd12  1  0.517942  0.319063  0.098561  1
  Nd  Nd13  1  0.367850  0.837462  0.379119  1
  Nd  Nd14  1  0.982094  0.819056  0.598592  1
  Nd  Nd15  1  0.517942  0.319063  0.401439  1
  Ho  Ho16  1  0.199231  0.502036  0.250000  1
  Ho  Ho17  1  0.699231  0.997964  0.250000  1
  Tm  Tm18  1  0.300564  0.002013  0.750000  1
  Tm  Tm19  1  0.800564  0.497987  0.750000  1
  Sn  Sn20  1  0.791971  0.464934  0.543943  1
  Sn  Sn21  1  0.708038  0.964874  0.456230  1
  Sn  Sn22  1  0.675340  0.853209  0.750000  1
  Sn  Sn23  1  0.208038  0.535126  0.456230  1
  Sn  Sn24  1  0.291971  0.035066  0.956057  1
  Sn  Sn25  1  0.824618  0.353502  0.250000  1
  Sn  Sn26  1  0.791971  0.464934  0.956057  1
  Sn  Sn27  1  0.564427  0.616375  0.250000  1
  Sn  Sn28  1  0.208038  0.535126  0.043770  1
  Sn  Sn29  1  0.435860  0.383579  0.750000  1
  Sn  Sn30  1  0.175340  0.646791  0.750000  1
  Sn  Sn31  1  0.935860  0.116421  0.750000  1
  Sn  Sn32  1  0.291971  0.035066  0.543943  1
  Sn  Sn33  1  0.708038  0.964874  0.043770  1
  Sn  Sn34  1  0.324618  0.146498  0.250000  1
  Sn  Sn35  1  0.064427  0.883625  0.250000  1
