# generated using pymatgen
data_Ca4Ce(NiAs)10
_symmetry_space_group_name_H-M   'P 1'
_cell_length_a   9.17959800
_cell_length_b   8.16117846
_cell_length_c   9.17959800
_cell_angle_alpha   55.77846881
_cell_angle_beta   90.00000000
_cell_angle_gamma   55.77846881
_symmetry_Int_Tables_number   1
_chemical_formula_structural   Ca4Ce(NiAs)10
_chemical_formula_sum   'Ca4 Ce1 Ni10 As10'
_cell_volume   416.85492219
_cell_formula_units_Z   1
loop_
 _symmetry_equiv_pos_site_id
 _symmetry_equiv_pos_as_xyz
  1  'x, y, z'
loop_
 _atom_site_type_symbol
 _atom_site_label
 _atom_site_symmetry_multiplicity
 _atom_site_fract_x
 _atom_site_fract_y
 _atom_site_fract_z
 _atom_site_occupancy
  Ca  Ca0  1  0.199443  0.000000  0.601069  1
  Ca  Ca1  1  0.398931  0.000000  0.199443  1
  Ca  Ca2  1  0.601069  0.000000  0.800557  1
  Ca  Ca3  1  0.800557  0.000000  0.398931  1
  Ce  Ce4  1  0.000000  0.000000  0.000000  1
  Ni  Ni5  1  0.948723  0.502452  0.848199  1
  Ni  Ni6  1  0.151801  0.497548  0.451175  1
  Ni  Ni7  1  0.350651  0.497548  0.051277  1
  Ni  Ni8  1  0.548825  0.502452  0.649349  1
  Ni  Ni9  1  0.750000  0.500000  0.250000  1
  Ni  Ni10  1  0.848199  0.502452  0.548825  1
  Ni  Ni11  1  0.051277  0.497548  0.151801  1
  Ni  Ni12  1  0.250000  0.500000  0.750000  1
  Ni  Ni13  1  0.451175  0.497548  0.350651  1
  Ni  Ni14  1  0.649349  0.502452  0.948723  1
  As  As15  1  0.167263  0.263227  0.768942  1
  As  As16  1  0.368160  0.263679  0.368160  1
  As  As17  1  0.569510  0.263227  0.967830  1
  As  As18  1  0.768942  0.263227  0.569510  1
  As  As19  1  0.967830  0.263227  0.167263  1
  As  As20  1  0.631840  0.736321  0.631840  1
  As  As21  1  0.832737  0.736773  0.231058  1
  As  As22  1  0.032169  0.736773  0.832737  1
  As  As23  1  0.231058  0.736773  0.430490  1
  As  As24  1  0.430490  0.736773  0.032169  1
