# generated using pymatgen
data_Lu10In7Rh4Pb
_symmetry_space_group_name_H-M   'P 1'
_cell_length_a   3.51738000
_cell_length_b   8.06886431
_cell_length_c   18.07749000
_cell_angle_alpha   90.08221365
_cell_angle_beta   90.00000000
_cell_angle_gamma   90.00000000
_symmetry_Int_Tables_number   1
_chemical_formula_structural   Lu10In7Rh4Pb
_chemical_formula_sum   'Lu10 In7 Rh4 Pb1'
_cell_volume   513.06145063
_cell_formula_units_Z   1
loop_
 _symmetry_equiv_pos_site_id
 _symmetry_equiv_pos_as_xyz
  1  'x, y, z'
loop_
 _atom_site_type_symbol
 _atom_site_label
 _atom_site_symmetry_multiplicity
 _atom_site_fract_x
 _atom_site_fract_y
 _atom_site_fract_z
 _atom_site_occupancy
  Lu  Lu0  1  0.000000  0.880125  0.088110  1
  Lu  Lu1  1  0.000000  0.757983  0.280629  1
  Lu  Lu2  1  0.000000  0.741939  0.776126  1
  Lu  Lu3  1  0.000000  0.383234  0.413336  1
  Lu  Lu4  1  0.000000  0.116504  0.909124  1
  Lu  Lu5  1  0.000000  0.242838  0.721450  1
  Lu  Lu6  1  0.000000  0.505968  0.999144  1
  Lu  Lu7  1  0.000000  0.257714  0.224398  1
  Lu  Lu8  1  0.000000  0.615232  0.587596  1
  Lu  Lu9  1  0.000000  0.999211  0.499374  1
  In  In10  1  0.500000  0.429561  0.850571  1
  In  In11  1  0.500000  0.582035  0.152089  1
  In  In12  1  0.500000  0.074242  0.351578  1
  In  In13  1  0.500000  0.927413  0.647609  1
  In  In14  1  0.500000  0.793656  0.931370  1
  In  In15  1  0.500000  0.704401  0.434321  1
  In  In16  1  0.500000  0.292514  0.566734  1
  Rh  Rh17  1  0.500000  0.973742  0.197319  1
  Rh  Rh18  1  0.500000  0.018115  0.803046  1
  Rh  Rh19  1  0.500000  0.517614  0.695964  1
  Rh  Rh20  1  0.500000  0.478624  0.304664  1
  Pb  Pb21  1  0.500000  0.207335  0.065447  1
