# generated using pymatgen
data_Ho4FeSi4Ir
_symmetry_space_group_name_H-M   'P 1'
_cell_length_a   5.65610078
_cell_length_b   5.65610131
_cell_length_c   10.00241910
_cell_angle_alpha   63.10036698
_cell_angle_beta   63.10036465
_cell_angle_gamma   43.29512513
_symmetry_Int_Tables_number   1
_chemical_formula_structural   Ho4FeSi4Ir
_chemical_formula_sum   'Ho4 Fe1 Si4 Ir1'
_cell_volume   191.68580855
_cell_formula_units_Z   1
loop_
 _symmetry_equiv_pos_site_id
 _symmetry_equiv_pos_as_xyz
  1  'x, y, z'
loop_
 _atom_site_type_symbol
 _atom_site_label
 _atom_site_symmetry_multiplicity
 _atom_site_fract_x
 _atom_site_fract_y
 _atom_site_fract_z
 _atom_site_occupancy
  Ho  Ho0  1  0.004538  0.004538  0.323523  1
  Ho  Ho1  1  0.997505  0.997505  0.673626  1
  Ho  Ho2  1  0.814023  0.814023  0.107836  1
  Ho  Ho3  1  0.185963  0.185963  0.889673  1
  Fe  Fe4  1  0.272791  0.272791  0.378162  1
  Si  Si5  1  0.651580  0.651580  0.430992  1
  Si  Si6  1  0.358639  0.358639  0.558522  1
  Si  Si7  1  0.500049  0.500049  0.128636  1
  Si  Si8  1  0.488154  0.488154  0.879628  1
  Ir  Ir9  1  0.726758  0.726758  0.629402  1
