# generated using pymatgen
data_SrYb3(IrO3)8
_symmetry_space_group_name_H-M   'P 1'
_cell_length_a   5.31086828
_cell_length_b   7.36930000
_cell_length_c   11.08561851
_cell_angle_alpha   90.00000000
_cell_angle_beta   89.90911441
_cell_angle_gamma   90.00000000
_symmetry_Int_Tables_number   1
_chemical_formula_structural   SrYb3(IrO3)8
_chemical_formula_sum   'Sr1 Yb3 Ir8 O24'
_cell_volume   433.86153600
_cell_formula_units_Z   1
loop_
 _symmetry_equiv_pos_site_id
 _symmetry_equiv_pos_as_xyz
  1  'x, y, z'
loop_
 _atom_site_type_symbol
 _atom_site_label
 _atom_site_symmetry_multiplicity
 _atom_site_fract_x
 _atom_site_fract_y
 _atom_site_fract_z
 _atom_site_occupancy
  Sr  Sr0  1  0.537596  0.750000  0.955430  1
  Yb  Yb1  1  0.958457  0.750000  0.451982  1
  Yb  Yb2  1  0.455584  0.250000  0.050164  1
  Yb  Yb3  1  0.038412  0.250000  0.546953  1
  Ir  Ir4  1  0.440074  0.498913  0.361655  1
  Ir  Ir5  1  0.941555  0.498405  0.140680  1
  Ir  Ir6  1  0.557958  0.999467  0.636766  1
  Ir  Ir7  1  0.056565  0.004300  0.860344  1
  Ir  Ir8  1  0.557958  0.500533  0.636766  1
  Ir  Ir9  1  0.056565  0.495700  0.860344  1
  Ir  Ir10  1  0.440074  0.001087  0.361655  1
  Ir  Ir11  1  0.941555  0.001595  0.140680  1
  O  O12  1  0.192045  0.250000  0.876186  1
  O  O13  1  0.686463  0.750000  0.621155  1
  O  O14  1  0.827790  0.750000  0.126261  1
  O  O15  1  0.317044  0.250000  0.381078  1
  O  O16  1  0.943708  0.750000  0.850457  1
  O  O17  1  0.430416  0.250000  0.642182  1
  O  O18  1  0.070734  0.250000  0.153299  1
  O  O19  1  0.567193  0.750000  0.353396  1
  O  O20  1  0.270142  0.956395  0.522662  1
  O  O21  1  0.779748  0.053964  0.978236  1
  O  O22  1  0.730256  0.458688  0.475676  1
  O  O23  1  0.225029  0.531135  0.024088  1
  O  O24  1  0.617092  0.432970  0.213234  1
  O  O25  1  0.119039  0.566599  0.288207  1
  O  O26  1  0.372230  0.938388  0.781853  1
  O  O27  1  0.877591  0.069492  0.712325  1
  O  O28  1  0.372230  0.561612  0.781853  1
  O  O29  1  0.877591  0.430508  0.712325  1
  O  O30  1  0.617092  0.067030  0.213234  1
  O  O31  1  0.119039  0.933401  0.288207  1
  O  O32  1  0.779748  0.446036  0.978236  1
  O  O33  1  0.270142  0.543605  0.522662  1
  O  O34  1  0.225029  0.968865  0.024088  1
  O  O35  1  0.730256  0.041312  0.475676  1
