# generated using pymatgen
data_Ho12Tc2Ni2RuPb
_symmetry_space_group_name_H-M   'P 1'
_cell_length_a   8.37565284
_cell_length_b   8.37565337
_cell_length_c   8.37565437
_cell_angle_alpha   113.43439158
_cell_angle_beta   110.01070139
_cell_angle_gamma   105.07633873
_symmetry_Int_Tables_number   1
_chemical_formula_structural   Ho12Tc2Ni2RuPb
_chemical_formula_sum   'Ho12 Tc2 Ni2 Ru1 Pb1'
_cell_volume   449.89503349
_cell_formula_units_Z   1
loop_
 _symmetry_equiv_pos_site_id
 _symmetry_equiv_pos_as_xyz
  1  'x, y, z'
loop_
 _atom_site_type_symbol
 _atom_site_label
 _atom_site_symmetry_multiplicity
 _atom_site_fract_x
 _atom_site_fract_y
 _atom_site_fract_z
 _atom_site_occupancy
  Ho  Ho0  1  0.420139  0.231001  0.189136  1
  Ho  Ho1  1  0.579861  0.768999  0.810864  1
  Ho  Ho2  1  0.041864  0.231001  0.810864  1
  Ho  Ho3  1  0.958136  0.768999  0.189136  1
  Ho  Ho4  1  0.176744  0.270139  0.446883  1
  Ho  Ho5  1  0.823256  0.729861  0.553117  1
  Ho  Ho6  1  0.176744  0.729861  0.906606  1
  Ho  Ho7  1  0.823256  0.270139  0.093394  1
  Ho  Ho8  1  0.329336  0.645268  0.315932  1
  Ho  Ho9  1  0.670664  0.354732  0.684068  1
  Ho  Ho10  1  0.329336  0.013404  0.684068  1
  Ho  Ho11  1  0.670664  0.986596  0.315932  1
  Tc  Tc12  1  0.332152  0.000000  0.332152  1
  Tc  Tc13  1  0.667848  0.000000  0.667848  1
  Ni  Ni14  1  0.114246  0.614246  0.500000  1
  Ni  Ni15  1  0.885754  0.385754  0.500000  1
  Ru  Ru16  1  0.000000  0.000000  0.000000  1
  Pb  Pb17  1  0.500000  0.500000  0.000000  1
