# generated using pymatgen
data_EuCu2(SO4)4
_symmetry_space_group_name_H-M   'P 1'
_cell_length_a   6.20836812
_cell_length_b   6.21764708
_cell_length_c   8.43396580
_cell_angle_alpha   74.44394805
_cell_angle_beta   74.37912633
_cell_angle_gamma   87.96429678
_symmetry_Int_Tables_number   1
_chemical_formula_structural   EuCu2(SO4)4
_chemical_formula_sum   'Eu1 Cu2 S4 O16'
_cell_volume   301.81675435
_cell_formula_units_Z   1
loop_
 _symmetry_equiv_pos_site_id
 _symmetry_equiv_pos_as_xyz
  1  'x, y, z'
loop_
 _atom_site_type_symbol
 _atom_site_label
 _atom_site_symmetry_multiplicity
 _atom_site_fract_x
 _atom_site_fract_y
 _atom_site_fract_z
 _atom_site_occupancy
  Eu  Eu0  1  0.000000  0.000000  0.000000  1
  Cu  Cu1  1  0.000000  0.000000  0.500000  1
  Cu  Cu2  1  0.500000  0.500000  0.500000  1
  S  S3  1  0.085897  0.587123  0.735272  1
  S  S4  1  0.587042  0.085876  0.735270  1
  S  S5  1  0.914103  0.412877  0.264728  1
  S  S6  1  0.412958  0.914124  0.264730  1
  O  O7  1  0.332984  0.620619  0.667238  1
  O  O8  1  0.620620  0.332993  0.667235  1
  O  O9  1  0.667016  0.379381  0.332762  1
  O  O10  1  0.379380  0.667007  0.332765  1
  O  O11  1  0.027274  0.704469  0.862862  1
  O  O12  1  0.704465  0.027279  0.862857  1
  O  O13  1  0.972726  0.295531  0.137138  1
  O  O14  1  0.295535  0.972721  0.137143  1
  O  O15  1  0.982273  0.683972  0.596361  1
  O  O16  1  0.684006  0.982267  0.596343  1
  O  O17  1  0.017727  0.316028  0.403639  1
  O  O18  1  0.315994  0.017733  0.403657  1
  O  O19  1  0.026419  0.354964  0.796386  1
  O  O20  1  0.355094  0.026466  0.796358  1
  O  O21  1  0.973581  0.645036  0.203614  1
  O  O22  1  0.644906  0.973534  0.203642  1
