# generated using pymatgen
data_Tm8Si16OsW11
_symmetry_space_group_name_H-M   'P 1'
_cell_length_a   6.71390045
_cell_length_b   6.88086070
_cell_length_c   12.81023700
_cell_angle_alpha   89.98910850
_cell_angle_beta   89.97901513
_cell_angle_gamma   90.09044210
_symmetry_Int_Tables_number   1
_chemical_formula_structural   Tm8Si16OsW11
_chemical_formula_sum   'Tm8 Si16 Os1 W11'
_cell_volume   591.79903100
_cell_formula_units_Z   1
loop_
 _symmetry_equiv_pos_site_id
 _symmetry_equiv_pos_as_xyz
  1  'x, y, z'
loop_
 _atom_site_type_symbol
 _atom_site_label
 _atom_site_symmetry_multiplicity
 _atom_site_fract_x
 _atom_site_fract_y
 _atom_site_fract_z
 _atom_site_occupancy
  Tm  Tm0  1  0.996197  0.166663  0.092549  1
  Tm  Tm1  1  0.003010  0.830403  0.906863  1
  Tm  Tm2  1  0.505571  0.668176  0.907087  1
  Tm  Tm3  1  0.004450  0.832397  0.593015  1
  Tm  Tm4  1  0.498855  0.330089  0.094156  1
  Tm  Tm5  1  0.994644  0.167431  0.407188  1
  Tm  Tm6  1  0.494063  0.333961  0.405584  1
  Tm  Tm7  1  0.503861  0.668621  0.593417  1
  Si  Si8  1  0.033311  0.128391  0.750516  1
  Si  Si9  1  0.968786  0.870368  0.245339  1
  Si  Si10  1  0.464399  0.632375  0.247491  1
  Si  Si11  1  0.534348  0.370366  0.751500  1
  Si  Si12  1  0.302321  0.863830  0.750224  1
  Si  Si13  1  0.697221  0.137106  0.251498  1
  Si  Si14  1  0.195978  0.364925  0.249696  1
  Si  Si15  1  0.801137  0.636557  0.749888  1
  Si  Si16  1  0.161975  0.459781  0.544937  1
  Si  Si17  1  0.835636  0.542207  0.454007  1
  Si  Si18  1  0.339417  0.958526  0.454024  1
  Si  Si19  1  0.837875  0.542927  0.047631  1
  Si  Si20  1  0.662214  0.042473  0.545616  1
  Si  Si21  1  0.163798  0.457746  0.955210  1
  Si  Si22  1  0.661708  0.042682  0.954917  1
  Si  Si23  1  0.339386  0.950406  0.049524  1
  Os  Os24  1  0.170434  0.650232  0.121007  1
  W  W25  1  0.164639  0.499746  0.750902  1
  W  W26  1  0.832060  0.498807  0.249825  1
  W  W27  1  0.333242  0.004279  0.249747  1
  W  W28  1  0.664990  0.998620  0.751179  1
  W  W29  1  0.330701  0.163529  0.625035  1
  W  W30  1  0.671805  0.838345  0.375094  1
  W  W31  1  0.165396  0.665495  0.370419  1
  W  W32  1  0.673505  0.843577  0.126194  1
  W  W33  1  0.831296  0.338692  0.624606  1
  W  W34  1  0.327579  0.158801  0.877826  1
  W  W35  1  0.834189  0.341470  0.876291  1
