# generated using pymatgen
data_Ti3Ga3Pt2Rh
_symmetry_space_group_name_H-M   'P 1'
_cell_length_a   7.46217600
_cell_length_b   7.46217551
_cell_length_c   2.85571600
_cell_angle_alpha   90.00000000
_cell_angle_beta   90.00000000
_cell_angle_gamma   119.99999329
_symmetry_Int_Tables_number   1
_chemical_formula_structural   Ti3Ga3Pt2Rh
_chemical_formula_sum   'Ti3 Ga3 Pt2 Rh1'
_cell_volume   137.71353406
_cell_formula_units_Z   1
loop_
 _symmetry_equiv_pos_site_id
 _symmetry_equiv_pos_as_xyz
  1  'x, y, z'
loop_
 _atom_site_type_symbol
 _atom_site_label
 _atom_site_symmetry_multiplicity
 _atom_site_fract_x
 _atom_site_fract_y
 _atom_site_fract_z
 _atom_site_occupancy
  Ti  Ti0  1  0.364636  0.000000  0.500001  1
  Ti  Ti1  1  0.000000  0.364635  0.500001  1
  Ti  Ti2  1  0.635364  0.635365  0.500001  1
  Ga  Ga3  1  0.705553  0.000000  0.000000  1
  Ga  Ga4  1  0.294446  0.294446  0.000000  1
  Ga  Ga5  1  0.000000  0.705554  0.000000  1
  Pt  Pt6  1  0.666666  0.333333  0.000000  1
  Pt  Pt7  1  0.333334  0.666667  0.000000  1
  Rh  Rh8  1  0.000000  0.000000  0.500001  1
