# generated using pymatgen
data_Y5Er11Cd4Ir3Pd
_symmetry_space_group_name_H-M   'P 1'
_cell_length_a   9.59020003
_cell_length_b   9.59545974
_cell_length_c   9.59545820
_cell_angle_alpha   60.21860336
_cell_angle_beta   60.19464283
_cell_angle_gamma   60.19463736
_symmetry_Int_Tables_number   1
_chemical_formula_structural   Y5Er11Cd4Ir3Pd
_chemical_formula_sum   'Y5 Er11 Cd4 Ir3 Pd1'
_cell_volume   627.23774527
_cell_formula_units_Z   1
loop_
 _symmetry_equiv_pos_site_id
 _symmetry_equiv_pos_as_xyz
  1  'x, y, z'
loop_
 _atom_site_type_symbol
 _atom_site_label
 _atom_site_symmetry_multiplicity
 _atom_site_fract_x
 _atom_site_fract_y
 _atom_site_fract_z
 _atom_site_occupancy
  Y  Y0  1  0.562646  0.939185  0.939185  1
  Y  Y1  1  0.563622  0.938363  0.562542  1
  Y  Y2  1  0.938267  0.563525  0.937484  1
  Y  Y3  1  0.563622  0.562542  0.938363  1
  Y  Y4  1  0.938267  0.937484  0.563525  1
  Er  Er5  1  0.347307  0.346719  0.346719  1
  Er  Er6  1  0.353508  0.354723  0.947735  1
  Er  Er7  1  0.353508  0.947735  0.354723  1
  Er  Er8  1  0.947434  0.353875  0.353875  1
  Er  Er9  1  0.805190  0.189907  0.189907  1
  Er  Er10  1  0.187611  0.811248  0.811248  1
  Er  Er11  1  0.189869  0.804823  0.190709  1
  Er  Er12  1  0.810826  0.188534  0.810740  1
  Er  Er13  1  0.189869  0.190709  0.804823  1
  Er  Er14  1  0.810826  0.810740  0.188534  1
  Er  Er15  1  0.941260  0.560833  0.560833  1
  Cd  Cd16  1  0.580821  0.580084  0.580084  1
  Cd  Cd17  1  0.580334  0.579868  0.257286  1
  Cd  Cd18  1  0.580334  0.257286  0.579868  1
  Cd  Cd19  1  0.256330  0.580409  0.580409  1
  Ir  Ir20  1  0.140411  0.142702  0.574248  1
  Ir  Ir21  1  0.140411  0.574248  0.142702  1
  Ir  Ir22  1  0.574000  0.141153  0.141153  1
  Pd  Pd23  1  0.143730  0.143306  0.143306  1
