# generated using pymatgen
data_Sm8Tm12Sn7Pb9
_symmetry_space_group_name_H-M   'P 1'
_cell_length_a   8.14461500
_cell_length_b   8.28468490
_cell_length_c   15.63453000
_cell_angle_alpha   90.00000000
_cell_angle_beta   90.00000000
_cell_angle_gamma   90.09292855
_symmetry_Int_Tables_number   1
_chemical_formula_structural   Sm8Tm12Sn7Pb9
_chemical_formula_sum   'Sm8 Tm12 Sn7 Pb9'
_cell_volume   1054.94741836
_cell_formula_units_Z   1
loop_
 _symmetry_equiv_pos_site_id
 _symmetry_equiv_pos_as_xyz
  1  'x, y, z'
loop_
 _atom_site_type_symbol
 _atom_site_label
 _atom_site_symmetry_multiplicity
 _atom_site_fract_x
 _atom_site_fract_y
 _atom_site_fract_z
 _atom_site_occupancy
  Sm  Sm0  1  0.520579  0.319503  0.900604  1
  Sm  Sm1  1  0.020606  0.178265  0.599871  1
  Sm  Sm2  1  0.479591  0.678577  0.399786  1
  Sm  Sm3  1  0.979465  0.821374  0.100174  1
  Sm  Sm4  1  0.479591  0.678577  0.100214  1
  Sm  Sm5  1  0.979465  0.821374  0.399826  1
  Sm  Sm6  1  0.520579  0.319503  0.599396  1
  Sm  Sm7  1  0.020606  0.178265  0.900129  1
  Tm  Tm8  1  0.363265  0.838928  0.876591  1
  Tm  Tm9  1  0.867219  0.663427  0.624181  1
  Tm  Tm10  1  0.634699  0.163192  0.375170  1
  Tm  Tm11  1  0.134501  0.336819  0.124880  1
  Tm  Tm12  1  0.634699  0.163192  0.124830  1
  Tm  Tm13  1  0.134501  0.336819  0.375120  1
  Tm  Tm14  1  0.363265  0.838928  0.623409  1
  Tm  Tm15  1  0.867219  0.663427  0.875819  1
  Tm  Tm16  1  0.194337  0.502815  0.750000  1
  Tm  Tm17  1  0.697805  0.998578  0.750000  1
  Tm  Tm18  1  0.803020  0.496313  0.250000  1
  Tm  Tm19  1  0.303014  0.003744  0.250000  1
  Sn  Sn20  1  0.061909  0.876388  0.750000  1
  Sn  Sn21  1  0.438067  0.376049  0.250000  1
  Sn  Sn22  1  0.937936  0.123827  0.250000  1
  Sn  Sn23  1  0.328990  0.145432  0.750000  1
  Sn  Sn24  1  0.830539  0.352601  0.750000  1
  Sn  Sn25  1  0.671753  0.854584  0.250000  1
  Sn  Sn26  1  0.171477  0.645613  0.250000  1
  Pb  Pb27  1  0.295869  0.039336  0.041997  1
  Pb  Pb28  1  0.795978  0.461161  0.458350  1
  Pb  Pb29  1  0.704193  0.960808  0.541553  1
  Pb  Pb30  1  0.204375  0.538548  0.958507  1
  Pb  Pb31  1  0.704193  0.960808  0.958447  1
  Pb  Pb32  1  0.204375  0.538548  0.541493  1
  Pb  Pb33  1  0.295869  0.039336  0.458003  1
  Pb  Pb34  1  0.795978  0.461161  0.041650  1
  Pb  Pb35  1  0.560479  0.624179  0.750000  1
