# generated using pymatgen
data_Pr20CoIr3Pb8
_symmetry_space_group_name_H-M   'P 1'
_cell_length_a   8.25066171
_cell_length_b   9.27721900
_cell_length_c   12.83924000
_cell_angle_alpha   90.00000000
_cell_angle_beta   90.18434599
_cell_angle_gamma   90.00000000
_symmetry_Int_Tables_number   1
_chemical_formula_structural   Pr20CoIr3Pb8
_chemical_formula_sum   'Pr20 Co1 Ir3 Pb8'
_cell_volume   982.75137111
_cell_formula_units_Z   1
loop_
 _symmetry_equiv_pos_site_id
 _symmetry_equiv_pos_as_xyz
  1  'x, y, z'
loop_
 _atom_site_type_symbol
 _atom_site_label
 _atom_site_symmetry_multiplicity
 _atom_site_fract_x
 _atom_site_fract_y
 _atom_site_fract_z
 _atom_site_occupancy
  Pr  Pr0  1  0.841016  0.750000  0.792285  1
  Pr  Pr1  1  0.158698  0.250000  0.212311  1
  Pr  Pr2  1  0.338637  0.250000  0.714236  1
  Pr  Pr3  1  0.658920  0.750000  0.287646  1
  Pr  Pr4  1  0.372794  0.750000  0.694094  1
  Pr  Pr5  1  0.631460  0.250000  0.304973  1
  Pr  Pr6  1  0.873897  0.250000  0.805856  1
  Pr  Pr7  1  0.127724  0.750000  0.192835  1
  Pr  Pr8  1  0.942393  0.750000  0.502648  1
  Pr  Pr9  1  0.049389  0.250000  0.499535  1
  Pr  Pr10  1  0.444039  0.250000  0.998521  1
  Pr  Pr11  1  0.552549  0.750000  0.001601  1
  Pr  Pr12  1  0.675350  0.038761  0.573252  1
  Pr  Pr13  1  0.323761  0.965205  0.425801  1
  Pr  Pr14  1  0.176186  0.959601  0.928498  1
  Pr  Pr15  1  0.323761  0.534795  0.425801  1
  Pr  Pr16  1  0.825213  0.028485  0.069100  1
  Pr  Pr17  1  0.675350  0.461239  0.573252  1
  Pr  Pr18  1  0.825213  0.471515  0.069100  1
  Pr  Pr19  1  0.176186  0.540399  0.928498  1
  Co  Co20  1  0.922328  0.750000  0.008450  1
  Ir  Ir21  1  0.574993  0.750000  0.507341  1
  Ir  Ir22  1  0.421827  0.250000  0.492157  1
  Ir  Ir23  1  0.077508  0.250000  0.991894  1
  Pb  Pb24  1  0.568884  0.494227  0.829024  1
  Pb  Pb25  1  0.433999  0.505417  0.171091  1
  Pb  Pb26  1  0.068665  0.506594  0.671712  1
  Pb  Pb27  1  0.433999  0.994583  0.171091  1
  Pb  Pb28  1  0.933855  0.494832  0.328328  1
  Pb  Pb29  1  0.568884  0.005773  0.829024  1
  Pb  Pb30  1  0.933855  0.005168  0.328328  1
  Pb  Pb31  1  0.068665  0.993406  0.671712  1
