# generated using pymatgen
data_YHo11GaCo4Pd
_symmetry_space_group_name_H-M   'P 1'
_cell_length_a   8.23762306
_cell_length_b   8.22587960
_cell_length_c   8.22587854
_cell_angle_alpha   106.97317942
_cell_angle_beta   110.50451486
_cell_angle_gamma   110.90291269
_symmetry_Int_Tables_number   1
_chemical_formula_structural   YHo11GaCo4Pd
_chemical_formula_sum   'Y1 Ho11 Ga1 Co4 Pd1'
_cell_volume   428.80688438
_cell_formula_units_Z   1
loop_
 _symmetry_equiv_pos_site_id
 _symmetry_equiv_pos_as_xyz
  1  'x, y, z'
loop_
 _atom_site_type_symbol
 _atom_site_label
 _atom_site_symmetry_multiplicity
 _atom_site_fract_x
 _atom_site_fract_y
 _atom_site_fract_z
 _atom_site_occupancy
  Y  Y0  1  0.397409  0.208758  0.188650  1
  Ho  Ho1  1  0.698644  0.280376  0.978221  1
  Ho  Ho2  1  0.301749  0.719043  0.021403  1
  Ho  Ho3  1  0.698644  0.720422  0.418268  1
  Ho  Ho4  1  0.301749  0.280347  0.582706  1
  Ho  Ho5  1  0.802796  0.118243  0.316242  1
  Ho  Ho6  1  0.802796  0.486554  0.684552  1
  Ho  Ho7  1  0.197540  0.881383  0.683448  1
  Ho  Ho8  1  0.197540  0.514092  0.316158  1
  Ho  Ho9  1  0.604266  0.791758  0.812507  1
  Ho  Ho10  1  0.978973  0.791601  0.187371  1
  Ho  Ho11  1  0.020364  0.208026  0.812339  1
  Ga  Ga12  1  0.499954  0.000043  0.499912  1
  Co  Co13  1  0.877852  0.500198  0.377653  1
  Co  Co14  1  0.122615  0.500073  0.622541  1
  Co  Co15  1  0.998331  0.112619  0.112404  1
  Co  Co16  1  0.998331  0.885927  0.885712  1
  Pd  Pd17  1  0.500448  0.500536  0.999912  1
