# generated using pymatgen
data_Zr10Sn4HgBi3
_symmetry_space_group_name_H-M   'P 1'
_cell_length_a   8.92887500
_cell_length_b   8.92288895
_cell_length_c   5.98592400
_cell_angle_alpha   89.99888582
_cell_angle_beta   90.00222687
_cell_angle_gamma   120.02219079
_symmetry_Int_Tables_number   1
_chemical_formula_structural   Zr10Sn4HgBi3
_chemical_formula_sum   'Zr10 Sn4 Hg1 Bi3'
_cell_volume   412.92093837
_cell_formula_units_Z   1
loop_
 _symmetry_equiv_pos_site_id
 _symmetry_equiv_pos_as_xyz
  1  'x, y, z'
loop_
 _atom_site_type_symbol
 _atom_site_label
 _atom_site_symmetry_multiplicity
 _atom_site_fract_x
 _atom_site_fract_y
 _atom_site_fract_z
 _atom_site_occupancy
  Zr  Zr0  1  0.331420  0.666687  0.001320  1
  Zr  Zr1  1  0.664289  0.333298  0.498402  1
  Zr  Zr2  1  0.664734  0.333313  0.001320  1
  Zr  Zr3  1  0.330990  0.666702  0.498402  1
  Zr  Zr4  1  0.279957  0.000000  0.251072  1
  Zr  Zr5  1  0.282722  0.277747  0.748487  1
  Zr  Zr6  1  0.004975  0.722253  0.748487  1
  Zr  Zr7  1  0.005054  0.284658  0.252285  1
  Zr  Zr8  1  0.720396  0.715342  0.252285  1
  Zr  Zr9  1  0.717543  0.000000  0.747255  1
  Sn  Sn10  1  0.999921  0.000000  0.499784  1
  Sn  Sn11  1  0.999917  0.617183  0.248149  1
  Sn  Sn12  1  0.382734  0.382817  0.248149  1
  Sn  Sn13  1  0.383088  0.000000  0.751764  1
  Hg  Hg14  1  0.000478  0.000000  0.000390  1
  Bi  Bi15  1  0.616208  0.000000  0.246962  1
  Bi  Bi16  1  0.615715  0.615856  0.752744  1
  Bi  Bi17  1  0.999859  0.384144  0.752744  1
