# generated using pymatgen
data_Pr3SnHg2Rh3
_symmetry_space_group_name_H-M   'P 1'
_cell_length_a   7.70671857
_cell_length_b   7.64447427
_cell_length_c   4.06794000
_cell_angle_alpha   90.00000000
_cell_angle_beta   90.00000000
_cell_angle_gamma   119.73318024
_symmetry_Int_Tables_number   1
_chemical_formula_structural   Pr3SnHg2Rh3
_chemical_formula_sum   'Pr3 Sn1 Hg2 Rh3'
_cell_volume   208.10556454
_cell_formula_units_Z   1
loop_
 _symmetry_equiv_pos_site_id
 _symmetry_equiv_pos_as_xyz
  1  'x, y, z'
loop_
 _atom_site_type_symbol
 _atom_site_label
 _atom_site_symmetry_multiplicity
 _atom_site_fract_x
 _atom_site_fract_y
 _atom_site_fract_z
 _atom_site_occupancy
  Pr  Pr0  1  0.596223  0.000865  0.500000  1
  Pr  Pr1  1  0.403777  0.404641  0.500000  1
  Pr  Pr2  1  0.000000  0.597256  0.500000  1
  Sn  Sn3  1  0.000000  0.256375  0.000000  1
  Hg  Hg4  1  0.255963  0.996814  0.000000  1
  Hg  Hg5  1  0.744037  0.740851  0.000000  1
  Rh  Rh6  1  0.000000  0.028087  0.500000  1
  Rh  Rh7  1  0.321706  0.648409  0.000000  1
  Rh  Rh8  1  0.678294  0.326702  0.000000  1
