# generated using pymatgen
data_Er2LuMg3SiHg2
_symmetry_space_group_name_H-M   'P 1'
_cell_length_a   7.42899794
_cell_length_b   7.41086954
_cell_length_c   4.29614400
_cell_angle_alpha   90.00000000
_cell_angle_beta   90.00000000
_cell_angle_gamma   119.96272200
_symmetry_Int_Tables_number   1
_chemical_formula_structural   Er2LuMg3SiHg2
_chemical_formula_sum   'Er2 Lu1 Mg3 Si1 Hg2'
_cell_volume   204.91411853
_cell_formula_units_Z   1
loop_
 _symmetry_equiv_pos_site_id
 _symmetry_equiv_pos_as_xyz
  1  'x, y, z'
loop_
 _atom_site_type_symbol
 _atom_site_label
 _atom_site_symmetry_multiplicity
 _atom_site_fract_x
 _atom_site_fract_y
 _atom_site_fract_z
 _atom_site_occupancy
  Er  Er0  1  0.579057  0.008776  0.000000  1
  Er  Er1  1  0.990937  0.570177  0.000000  1
  Lu  Lu2  1  0.429812  0.420942  0.000000  1
  Mg  Mg3  1  0.251120  0.002045  0.500000  1
  Mg  Mg4  1  0.997824  0.249236  0.500000  1
  Mg  Mg5  1  0.750432  0.748685  0.500000  1
  Si  Si6  1  0.666223  0.333596  0.500000  1
  Hg  Hg7  1  0.333758  0.665567  0.500000  1
  Hg  Hg8  1  0.000838  0.000975  0.000000  1
