# generated using pymatgen
data_Sr4BeCuSi6
_symmetry_space_group_name_H-M   'P 1'
_cell_length_a   8.47526462
_cell_length_b   8.14183607
_cell_length_c   6.21621555
_cell_angle_alpha   70.91269641
_cell_angle_beta   65.20892520
_cell_angle_gamma   43.87836430
_symmetry_Int_Tables_number   1
_chemical_formula_structural   Sr4BeCuSi6
_chemical_formula_sum   'Sr4 Be1 Cu1 Si6'
_cell_volume   269.70579031
_cell_formula_units_Z   1
loop_
 _symmetry_equiv_pos_site_id
 _symmetry_equiv_pos_as_xyz
  1  'x, y, z'
loop_
 _atom_site_type_symbol
 _atom_site_label
 _atom_site_symmetry_multiplicity
 _atom_site_fract_x
 _atom_site_fract_y
 _atom_site_fract_z
 _atom_site_occupancy
  Sr  Sr0  1  0.249516  0.249517  0.250484  1
  Sr  Sr1  1  0.256985  0.743779  0.256220  1
  Sr  Sr2  1  0.743780  0.256984  0.743015  1
  Sr  Sr3  1  0.749517  0.749517  0.750483  1
  Be  Be4  1  0.833525  0.833524  0.166475  1
  Cu  Cu5  1  0.166716  0.166715  0.833284  1
  Si  Si6  1  0.840411  0.328761  0.159589  1
  Si  Si7  1  0.671696  0.158669  0.328304  1
  Si  Si8  1  0.669314  0.669313  0.330686  1
  Si  Si9  1  0.331113  0.331112  0.668886  1
  Si  Si10  1  0.328761  0.840411  0.671239  1
  Si  Si11  1  0.158669  0.671696  0.841331  1
