# generated using pymatgen
data_Dy2TmBe2Ir5
_symmetry_space_group_name_H-M   'P 1'
_cell_length_a   9.87121600
_cell_length_b   9.87121600
_cell_length_c   3.30133900
_cell_angle_alpha   90.00000000
_cell_angle_beta   90.00000000
_cell_angle_gamma   90.00000000
_symmetry_Int_Tables_number   1
_chemical_formula_structural   Dy2TmBe2Ir5
_chemical_formula_sum   'Dy4 Tm2 Be4 Ir10'
_cell_volume   321.68546092
_cell_formula_units_Z   2
loop_
 _symmetry_equiv_pos_site_id
 _symmetry_equiv_pos_as_xyz
  1  'x, y, z'
loop_
 _atom_site_type_symbol
 _atom_site_label
 _atom_site_symmetry_multiplicity
 _atom_site_fract_x
 _atom_site_fract_y
 _atom_site_fract_z
 _atom_site_occupancy
  Dy  Dy0  1  0.675993  0.175993  0.000000  1
  Dy  Dy1  1  0.324007  0.824007  0.000000  1
  Dy  Dy2  1  0.175993  0.324007  0.000000  1
  Dy  Dy3  1  0.824007  0.675993  0.000000  1
  Tm  Tm4  1  0.000000  0.000000  0.000000  1
  Tm  Tm5  1  0.500000  0.500000  0.000000  1
  Be  Be6  1  0.120428  0.620428  0.000000  1
  Be  Be7  1  0.879572  0.379572  0.000000  1
  Be  Be8  1  0.620428  0.879572  0.000000  1
  Be  Be9  1  0.379572  0.120428  0.000000  1
  Ir  Ir10  1  0.222518  0.069541  0.500000  1
  Ir  Ir11  1  0.777482  0.930459  0.500000  1
  Ir  Ir12  1  0.069541  0.777482  0.500000  1
  Ir  Ir13  1  0.722518  0.430459  0.500000  1
  Ir  Ir14  1  0.930459  0.222518  0.500000  1
  Ir  Ir15  1  0.277482  0.569541  0.500000  1
  Ir  Ir16  1  0.569541  0.722518  0.500000  1
  Ir  Ir17  1  0.430459  0.277482  0.500000  1
  Ir  Ir18  1  0.500000  0.000000  0.500000  1
  Ir  Ir19  1  0.000000  0.500000  0.500000  1
