# generated using pymatgen
data_Zn22FeRh2
_symmetry_space_group_name_H-M   'P 1'
_cell_length_a   7.77167297
_cell_length_b   7.77167433
_cell_length_c   7.79999421
_cell_angle_alpha   72.20268479
_cell_angle_beta   72.20267992
_cell_angle_gamma   57.98696538
_symmetry_Int_Tables_number   1
_chemical_formula_structural   Zn22FeRh2
_chemical_formula_sum   'Zn22 Fe1 Rh2'
_cell_volume   374.28440322
_cell_formula_units_Z   1
loop_
 _symmetry_equiv_pos_site_id
 _symmetry_equiv_pos_as_xyz
  1  'x, y, z'
loop_
 _atom_site_type_symbol
 _atom_site_label
 _atom_site_symmetry_multiplicity
 _atom_site_fract_x
 _atom_site_fract_y
 _atom_site_fract_z
 _atom_site_occupancy
  Zn  Zn0  1  0.337447  0.745615  0.315827  1
  Zn  Zn1  1  0.662553  0.254385  0.684173  1
  Zn  Zn2  1  0.254385  0.662553  0.684173  1
  Zn  Zn3  1  0.745615  0.337447  0.315827  1
  Zn  Zn4  1  0.678508  0.321492  0.000000  1
  Zn  Zn5  1  0.321492  0.678508  0.000000  1
  Zn  Zn6  1  0.832765  0.832765  0.778979  1
  Zn  Zn7  1  0.167235  0.167235  0.221021  1
  Zn  Zn8  1  0.976684  0.976684  0.176065  1
  Zn  Zn9  1  0.023316  0.023316  0.823935  1
  Zn  Zn10  1  0.351568  0.351568  0.277584  1
  Zn  Zn11  1  0.648432  0.648432  0.722416  1
  Zn  Zn12  1  0.686625  0.686625  0.378101  1
  Zn  Zn13  1  0.313375  0.313375  0.621899  1
  Zn  Zn14  1  0.662494  0.023687  0.463426  1
  Zn  Zn15  1  0.337506  0.976313  0.536574  1
  Zn  Zn16  1  0.976313  0.337506  0.536574  1
  Zn  Zn17  1  0.023687  0.662494  0.463426  1
  Zn  Zn18  1  0.621395  0.997013  0.101172  1
  Zn  Zn19  1  0.378605  0.002987  0.898828  1
  Zn  Zn20  1  0.002987  0.378605  0.898828  1
  Zn  Zn21  1  0.997013  0.621395  0.101172  1
  Fe  Fe22  1  0.000000  0.000000  0.500000  1
  Rh  Rh23  1  0.657027  0.657027  0.055484  1
  Rh  Rh24  1  0.342973  0.342973  0.944516  1
