# generated using pymatgen
data_U3Bi8WO24
_symmetry_space_group_name_H-M   'P 1'
_cell_length_a   5.65760700
_cell_length_b   5.68224646
_cell_length_c   17.37887640
_cell_angle_alpha   90.88385262
_cell_angle_beta   90.26061067
_cell_angle_gamma   90.00155806
_symmetry_Int_Tables_number   1
_chemical_formula_structural   U3Bi8WO24
_chemical_formula_sum   'U3 Bi8 W1 O24'
_cell_volume   558.62242692
_cell_formula_units_Z   1
loop_
 _symmetry_equiv_pos_site_id
 _symmetry_equiv_pos_as_xyz
  1  'x, y, z'
loop_
 _atom_site_type_symbol
 _atom_site_label
 _atom_site_symmetry_multiplicity
 _atom_site_fract_x
 _atom_site_fract_y
 _atom_site_fract_z
 _atom_site_occupancy
  U  U0  1  0.499985  0.939300  0.750481  1
  U  U1  1  0.500245  0.445653  0.249940  1
  U  U2  1  0.000506  0.438926  0.750414  1
  Bi  Bi3  1  0.034706  0.026630  0.929613  1
  Bi  Bi4  1  0.977363  0.545121  0.076792  1
  Bi  Bi5  1  0.474002  0.512792  0.930809  1
  Bi  Bi6  1  0.540760  0.023275  0.073287  1
  Bi  Bi7  1  0.966599  0.062634  0.570198  1
  Bi  Bi8  1  0.021978  0.564788  0.423286  1
  Bi  Bi9  1  0.526114  0.548534  0.568561  1
  Bi  Bi10  1  0.462144  0.043345  0.427414  1
  W  W11  1  0.998945  0.941816  0.250434  1
  O  O12  1  0.884874  0.442126  0.639785  1
  O  O13  1  0.099733  0.927557  0.356727  1
  O  O14  1  0.610242  0.949437  0.641849  1
  O  O15  1  0.406453  0.451398  0.358260  1
  O  O16  1  0.317689  0.635069  0.717279  1
  O  O17  1  0.736044  0.149181  0.273544  1
  O  O18  1  0.178459  0.136608  0.716695  1
  O  O19  1  0.795138  0.668709  0.277336  1
  O  O20  1  0.815559  0.736337  0.783012  1
  O  O21  1  0.208956  0.196011  0.227310  1
  O  O22  1  0.689310  0.238368  0.784143  1
  O  O23  1  0.255041  0.716782  0.221444  1
  O  O24  1  0.895470  0.904295  0.143767  1
  O  O25  1  0.118363  0.396131  0.859811  1
  O  O26  1  0.595690  0.426852  0.141546  1
  O  O27  1  0.387230  0.901908  0.858244  1
  O  O28  1  0.740894  0.750816  0.000982  1
  O  O29  1  0.273257  0.245723  0.002159  1
  O  O30  1  0.767598  0.251673  0.001759  1
  O  O31  1  0.241537  0.748290  0.003398  1
  O  O32  1  0.756286  0.776059  0.495163  1
  O  O33  1  0.234991  0.279062  0.498951  1
  O  O34  1  0.729552  0.273981  0.496203  1
  O  O35  1  0.258288  0.778810  0.499406  1
