# generated using pymatgen
data_Y3Er(Si2Os)2
_symmetry_space_group_name_H-M   'P 1'
_cell_length_a   5.73073335
_cell_length_b   5.73073347
_cell_length_c   10.03545929
_cell_angle_alpha   116.74358090
_cell_angle_beta   116.74358000
_cell_angle_gamma   43.32350890
_symmetry_Int_Tables_number   1
_chemical_formula_structural   Y3Er(Si2Os)2
_chemical_formula_sum   'Y3 Er1 Si4 Os2'
_cell_volume   197.85395686
_cell_formula_units_Z   1
loop_
 _symmetry_equiv_pos_site_id
 _symmetry_equiv_pos_as_xyz
  1  'x, y, z'
loop_
 _atom_site_type_symbol
 _atom_site_label
 _atom_site_symmetry_multiplicity
 _atom_site_fract_x
 _atom_site_fract_y
 _atom_site_fract_z
 _atom_site_occupancy
  Y  Y0  1  0.007822  0.007822  0.178831  1
  Y  Y1  1  0.814282  0.814282  0.389254  1
  Y  Y2  1  0.186146  0.186146  0.611515  1
  Er  Er3  1  0.993436  0.993436  0.822342  1
  Si  Si4  1  0.644137  0.644137  0.059847  1
  Si  Si5  1  0.503223  0.503223  0.375656  1
  Si  Si6  1  0.496103  0.496103  0.625301  1
  Si  Si7  1  0.355730  0.355730  0.939019  1
  Os  Os8  1  0.270075  0.270075  0.125735  1
  Os  Os9  1  0.729046  0.729046  0.872500  1
