# generated using pymatgen
data_Li2La3GaPt3
_symmetry_space_group_name_H-M   'P 1'
_cell_length_a   7.60561500
_cell_length_b   7.45368112
_cell_length_c   4.10909200
_cell_angle_alpha   90.00000000
_cell_angle_beta   90.00000000
_cell_angle_gamma   119.34135095
_symmetry_Int_Tables_number   1
_chemical_formula_structural   Li2La3GaPt3
_chemical_formula_sum   'Li2 La3 Ga1 Pt3'
_cell_volume   203.06073594
_cell_formula_units_Z   1
loop_
 _symmetry_equiv_pos_site_id
 _symmetry_equiv_pos_as_xyz
  1  'x, y, z'
loop_
 _atom_site_type_symbol
 _atom_site_label
 _atom_site_symmetry_multiplicity
 _atom_site_fract_x
 _atom_site_fract_y
 _atom_site_fract_z
 _atom_site_occupancy
  Li  Li0  1  0.772854  0.770742  0.500000  1
  Li  Li1  1  0.227146  0.997888  0.500000  1
  La  La2  1  0.406366  0.408409  0.000000  1
  La  La3  1  0.593634  0.002042  0.000000  1
  La  La4  1  0.000000  0.583245  0.000000  1
  Ga  Ga5  1  0.000000  0.232400  0.500000  1
  Pt  Pt6  1  0.327719  0.658215  0.500000  1
  Pt  Pt7  1  0.000000  0.016566  0.000000  1
  Pt  Pt8  1  0.672281  0.330493  0.500000  1
