# generated using pymatgen
data_MoI3Br8
_symmetry_space_group_name_H-M   'P 1'
_cell_length_a   7.87825000
_cell_length_b   8.02809671
_cell_length_c   8.42685386
_cell_angle_alpha   96.47624529
_cell_angle_beta   92.24418775
_cell_angle_gamma   101.96689776
_symmetry_Int_Tables_number   1
_chemical_formula_structural   MoI3Br8
_chemical_formula_sum   'Mo1 I3 Br8'
_cell_volume   516.99256468
_cell_formula_units_Z   1
loop_
 _symmetry_equiv_pos_site_id
 _symmetry_equiv_pos_as_xyz
  1  'x, y, z'
loop_
 _atom_site_type_symbol
 _atom_site_label
 _atom_site_symmetry_multiplicity
 _atom_site_fract_x
 _atom_site_fract_y
 _atom_site_fract_z
 _atom_site_occupancy
  Mo  Mo0  1  0.000000  0.500000  0.500000  1
  I  I1  1  0.000000  0.000000  0.000000  1
  I  I2  1  0.684792  0.764426  0.845146  1
  I  I3  1  0.315208  0.235574  0.154854  1
  Br  Br4  1  0.721997  0.308884  0.557165  1
  Br  Br5  1  0.278003  0.691116  0.442835  1
  Br  Br6  1  0.512753  0.759000  0.100651  1
  Br  Br7  1  0.487247  0.241000  0.899349  1
  Br  Br8  1  0.862259  0.766093  0.545721  1
  Br  Br9  1  0.137741  0.233907  0.454279  1
  Br  Br10  1  0.899713  0.463189  0.214637  1
  Br  Br11  1  0.100287  0.536811  0.785363  1
