# generated using pymatgen
data_Nd2Si2PtRh3
_symmetry_space_group_name_H-M   'P 1'
_cell_length_a   9.15577135
_cell_length_b   9.15577178
_cell_length_c   4.14740900
_cell_angle_alpha   90.00000000
_cell_angle_beta   90.00000000
_cell_angle_gamma   154.11229312
_symmetry_Int_Tables_number   1
_chemical_formula_structural   Nd2Si2PtRh3
_chemical_formula_sum   'Nd2 Si2 Pt1 Rh3'
_cell_volume   151.79561331
_cell_formula_units_Z   1
loop_
 _symmetry_equiv_pos_site_id
 _symmetry_equiv_pos_as_xyz
  1  'x, y, z'
loop_
 _atom_site_type_symbol
 _atom_site_label
 _atom_site_symmetry_multiplicity
 _atom_site_fract_x
 _atom_site_fract_y
 _atom_site_fract_z
 _atom_site_occupancy
  Nd  Nd0  1  0.101806  0.898194  0.750000  1
  Nd  Nd1  1  0.900508  0.099492  0.250000  1
  Si  Si2  1  0.320246  0.679754  0.750000  1
  Si  Si3  1  0.680457  0.319543  0.250000  1
  Pt  Pt4  1  0.546712  0.453288  0.250000  1
  Rh  Rh5  1  0.451173  0.548827  0.750000  1
  Rh  Rh6  1  0.249263  0.750737  0.250000  1
  Rh  Rh7  1  0.749836  0.250164  0.750000  1
