# generated using pymatgen
data_Er4Al4OsPt3
_symmetry_space_group_name_H-M   'P 1'
_cell_length_a   4.34237000
_cell_length_b   6.80682621
_cell_length_c   7.83063861
_cell_angle_alpha   89.88936224
_cell_angle_beta   90.00000000
_cell_angle_gamma   90.00000000
_symmetry_Int_Tables_number   1
_chemical_formula_structural   Er4Al4OsPt3
_chemical_formula_sum   'Er4 Al4 Os1 Pt3'
_cell_volume   231.45568886
_cell_formula_units_Z   1
loop_
 _symmetry_equiv_pos_site_id
 _symmetry_equiv_pos_as_xyz
  1  'x, y, z'
loop_
 _atom_site_type_symbol
 _atom_site_label
 _atom_site_symmetry_multiplicity
 _atom_site_fract_x
 _atom_site_fract_y
 _atom_site_fract_z
 _atom_site_occupancy
  Er  Er0  1  0.250000  0.471668  0.181232  1
  Er  Er1  1  0.750000  0.532338  0.814655  1
  Er  Er2  1  0.750000  0.021165  0.679060  1
  Er  Er3  1  0.250000  0.967890  0.321789  1
  Al  Al4  1  0.250000  0.855674  0.936320  1
  Al  Al5  1  0.750000  0.143025  0.061727  1
  Al  Al6  1  0.750000  0.645898  0.439738  1
  Al  Al7  1  0.250000  0.359344  0.562974  1
  Os  Os8  1  0.250000  0.733781  0.620428  1
  Pt  Pt9  1  0.750000  0.269202  0.379786  1
  Pt  Pt10  1  0.750000  0.769093  0.118801  1
  Pt  Pt11  1  0.250000  0.230923  0.883490  1
