# generated using pymatgen
data_Tm20Si15As
_symmetry_space_group_name_H-M   'P 1'
_cell_length_a   7.39280800
_cell_length_b   7.55550579
_cell_length_c   14.40637002
_cell_angle_alpha   90.19066246
_cell_angle_beta   94.23292413
_cell_angle_gamma   89.88148914
_symmetry_Int_Tables_number   1
_chemical_formula_structural   Tm20Si15As
_chemical_formula_sum   'Tm20 Si15 As1'
_cell_volume   802.48723008
_cell_formula_units_Z   1
loop_
 _symmetry_equiv_pos_site_id
 _symmetry_equiv_pos_as_xyz
  1  'x, y, z'
loop_
 _atom_site_type_symbol
 _atom_site_label
 _atom_site_symmetry_multiplicity
 _atom_site_fract_x
 _atom_site_fract_y
 _atom_site_fract_z
 _atom_site_occupancy
  Tm  Tm0  1  0.986802  0.816877  0.603040  1
  Tm  Tm1  1  0.481453  0.672975  0.603978  1
  Tm  Tm2  1  0.331067  0.823868  0.123304  1
  Tm  Tm3  1  0.831680  0.678013  0.123256  1
  Tm  Tm4  1  0.820206  0.503059  0.746166  1
  Tm  Tm5  1  0.482253  0.318742  0.100687  1
  Tm  Tm6  1  0.017456  0.817476  0.899595  1
  Tm  Tm7  1  0.514641  0.326080  0.397309  1
  Tm  Tm8  1  0.678816  0.005793  0.251012  1
  Tm  Tm9  1  0.517945  0.682522  0.899621  1
  Tm  Tm10  1  0.668590  0.176634  0.877303  1
  Tm  Tm11  1  0.134892  0.334830  0.619630  1
  Tm  Tm12  1  0.167074  0.321015  0.877195  1
  Tm  Tm13  1  0.865887  0.662710  0.380105  1
  Tm  Tm14  1  0.364539  0.836560  0.381614  1
  Tm  Tm15  1  0.321204  0.994407  0.746042  1
  Tm  Tm16  1  0.633236  0.163198  0.618434  1
  Tm  Tm17  1  0.179751  0.497119  0.253358  1
  Tm  Tm18  1  0.983043  0.183113  0.100326  1
  Tm  Tm19  1  0.019825  0.181778  0.396985  1
  Si  Si20  1  0.203026  0.629652  0.753211  1
  Si  Si21  1  0.283524  0.028618  0.544036  1
  Si  Si22  1  0.050581  0.890683  0.250015  1
  Si  Si23  1  0.702991  0.867976  0.752263  1
  Si  Si24  1  0.298632  0.132635  0.248102  1
  Si  Si25  1  0.786806  0.468888  0.542900  1
  Si  Si26  1  0.448753  0.387863  0.751592  1
  Si  Si27  1  0.211186  0.532128  0.456900  1
  Si  Si28  1  0.150192  0.530711  0.040885  1
  Si  Si29  1  0.948488  0.108671  0.750251  1
  Si  Si30  1  0.797594  0.368978  0.247392  1
  Si  Si31  1  0.349638  0.030003  0.959335  1
  Si  Si32  1  0.849242  0.470447  0.958823  1
  Si  Si33  1  0.650136  0.970993  0.041179  1
  Si  Si34  1  0.550931  0.612038  0.249630  1
  As  As35  1  0.717920  0.972946  0.454530  1
