# generated using pymatgen
data_Tm12InCo5
_symmetry_space_group_name_H-M   'P 1'
_cell_length_a   8.18803579
_cell_length_b   8.18803635
_cell_length_c   8.18803572
_cell_angle_alpha   111.02399524
_cell_angle_beta   110.85416843
_cell_angle_gamma   106.57382536
_symmetry_Int_Tables_number   1
_chemical_formula_structural   Tm12InCo5
_chemical_formula_sum   'Tm12 In1 Co5'
_cell_volume   421.78187756
_cell_formula_units_Z   1
loop_
 _symmetry_equiv_pos_site_id
 _symmetry_equiv_pos_as_xyz
  1  'x, y, z'
loop_
 _atom_site_type_symbol
 _atom_site_label
 _atom_site_symmetry_multiplicity
 _atom_site_fract_x
 _atom_site_fract_y
 _atom_site_fract_z
 _atom_site_occupancy
  Tm  Tm0  1  0.287840  0.185169  0.473008  1
  Tm  Tm1  1  0.712160  0.814831  0.526992  1
  Tm  Tm2  1  0.287840  0.814831  0.102670  1
  Tm  Tm3  1  0.712160  0.185169  0.897330  1
  Tm  Tm4  1  0.619375  0.314246  0.305129  1
  Tm  Tm5  1  0.380625  0.685754  0.694871  1
  Tm  Tm6  1  0.009116  0.314246  0.694871  1
  Tm  Tm7  1  0.990884  0.685754  0.305129  1
  Tm  Tm8  1  0.213285  0.405820  0.192536  1
  Tm  Tm9  1  0.786715  0.594180  0.807464  1
  Tm  Tm10  1  0.213285  0.020750  0.807464  1
  Tm  Tm11  1  0.786715  0.979250  0.192536  1
  In  In12  1  0.500000  0.500000  0.000000  1
  Co  Co13  1  0.000000  0.376817  0.376817  1
  Co  Co14  1  0.000000  0.623183  0.623183  1
  Co  Co15  1  0.387423  0.887423  0.500000  1
  Co  Co16  1  0.612577  0.112577  0.500000  1
  Co  Co17  1  0.000000  0.000000  0.000000  1
