# generated using pymatgen
data_SrSmPa8O20
_symmetry_space_group_name_H-M   'P 1'
_cell_length_a   6.70592661
_cell_length_b   7.75273886
_cell_length_c   8.66705530
_cell_angle_alpha   103.00484289
_cell_angle_beta   97.36926200
_cell_angle_gamma   106.63997360
_symmetry_Int_Tables_number   1
_chemical_formula_structural   SrSmPa8O20
_chemical_formula_sum   'Sr1 Sm1 Pa8 O20'
_cell_volume   411.59191144
_cell_formula_units_Z   1
loop_
 _symmetry_equiv_pos_site_id
 _symmetry_equiv_pos_as_xyz
  1  'x, y, z'
loop_
 _atom_site_type_symbol
 _atom_site_label
 _atom_site_symmetry_multiplicity
 _atom_site_fract_x
 _atom_site_fract_y
 _atom_site_fract_z
 _atom_site_occupancy
  Sr  Sr0  1  0.200668  0.900058  0.398511  1
  Sm  Sm1  1  0.999306  0.999485  0.001511  1
  Pa  Pa2  1  0.804298  0.602986  0.601019  1
  Pa  Pa3  1  0.596378  0.198619  0.199967  1
  Pa  Pa4  1  0.999214  0.500954  0.001178  1
  Pa  Pa5  1  0.799543  0.098697  0.600251  1
  Pa  Pa6  1  0.400835  0.801246  0.799665  1
  Pa  Pa7  1  0.200560  0.399208  0.398830  1
  Pa  Pa8  1  0.603256  0.701651  0.200747  1
  Pa  Pa9  1  0.396555  0.297146  0.798633  1
  O  O10  1  0.846531  0.326288  0.450408  1
  O  O11  1  0.636470  0.922479  0.048418  1
  O  O12  1  0.929390  0.756796  0.137943  1
  O  O13  1  0.456215  0.525272  0.650535  1
  O  O14  1  0.832559  0.819809  0.455209  1
  O  O15  1  0.641907  0.419838  0.047831  1
  O  O16  1  0.749863  0.377939  0.750841  1
  O  O17  1  0.261689  0.147029  0.248498  1
  O  O18  1  0.939935  0.280806  0.154038  1
  O  O19  1  0.465626  0.033562  0.663396  1
  O  O20  1  0.572924  0.981378  0.346675  1
  O  O21  1  0.053950  0.718418  0.847317  1
  O  O22  1  0.745578  0.870672  0.746739  1
  O  O23  1  0.352038  0.574287  0.946946  1
  O  O24  1  0.257024  0.606945  0.239544  1
  O  O25  1  0.557379  0.477393  0.352631  1
  O  O26  1  0.146026  0.192475  0.558740  1
  O  O27  1  0.048901  0.231809  0.849650  1
  O  O28  1  0.354930  0.076025  0.946864  1
  O  O29  1  0.150451  0.660733  0.557469  1
