# generated using pymatgen
data_YbPr3(ZnRh)4
_symmetry_space_group_name_H-M   'P 1'
_cell_length_a   4.19675800
_cell_length_b   7.08553005
_cell_length_c   8.14230860
_cell_angle_alpha   89.36116258
_cell_angle_beta   90.00000000
_cell_angle_gamma   90.00000000
_symmetry_Int_Tables_number   1
_chemical_formula_structural   YbPr3(ZnRh)4
_chemical_formula_sum   'Yb1 Pr3 Zn4 Rh4'
_cell_volume   242.10671411
_cell_formula_units_Z   1
loop_
 _symmetry_equiv_pos_site_id
 _symmetry_equiv_pos_as_xyz
  1  'x, y, z'
loop_
 _atom_site_type_symbol
 _atom_site_label
 _atom_site_symmetry_multiplicity
 _atom_site_fract_x
 _atom_site_fract_y
 _atom_site_fract_z
 _atom_site_occupancy
  Yb  Yb0  1  0.250000  0.029451  0.311965  1
  Pr  Pr1  1  0.250000  0.529380  0.191018  1
  Pr  Pr2  1  0.750000  0.468305  0.812114  1
  Pr  Pr3  1  0.750000  0.971459  0.681435  1
  Zn  Zn4  1  0.250000  0.646783  0.561734  1
  Zn  Zn5  1  0.750000  0.351189  0.432538  1
  Zn  Zn6  1  0.750000  0.863711  0.069116  1
  Zn  Zn7  1  0.250000  0.140445  0.939234  1
  Rh  Rh8  1  0.250000  0.766290  0.881556  1
  Rh  Rh9  1  0.750000  0.230267  0.121599  1
  Rh  Rh10  1  0.750000  0.734713  0.379824  1
  Rh  Rh11  1  0.250000  0.268007  0.617868  1
