# generated using pymatgen
data_Hf3Sc(SiMo)4
_symmetry_space_group_name_H-M   'P 1'
_cell_length_a   3.50406600
_cell_length_b   6.97397632
_cell_length_c   8.22344411
_cell_angle_alpha   90.12766769
_cell_angle_beta   90.00000000
_cell_angle_gamma   90.00000000
_symmetry_Int_Tables_number   1
_chemical_formula_structural   Hf3Sc(SiMo)4
_chemical_formula_sum   'Hf3 Sc1 Si4 Mo4'
_cell_volume   200.95805245
_cell_formula_units_Z   1
loop_
 _symmetry_equiv_pos_site_id
 _symmetry_equiv_pos_as_xyz
  1  'x, y, z'
loop_
 _atom_site_type_symbol
 _atom_site_label
 _atom_site_symmetry_multiplicity
 _atom_site_fract_x
 _atom_site_fract_y
 _atom_site_fract_z
 _atom_site_occupancy
  Hf  Hf0  1  0.750000  0.956353  0.667554  1
  Hf  Hf1  1  0.250000  0.543646  0.166349  1
  Hf  Hf2  1  0.750000  0.456337  0.833202  1
  Sc  Sc3  1  0.250000  0.043210  0.333318  1
  Si  Si4  1  0.250000  0.258027  0.636314  1
  Si  Si5  1  0.750000  0.742091  0.362581  1
  Si  Si6  1  0.250000  0.757146  0.863554  1
  Si  Si7  1  0.750000  0.241571  0.137793  1
  Mo  Mo8  1  0.750000  0.368413  0.438226  1
  Mo  Mo9  1  0.250000  0.633129  0.562759  1
  Mo  Mo10  1  0.750000  0.866145  0.062268  1
  Mo  Mo11  1  0.250000  0.133932  0.936082  1
