# generated using pymatgen
data_Y2HoSc3FeSb2
_symmetry_space_group_name_H-M   'P 1'
_cell_length_a   7.83667200
_cell_length_b   7.84927081
_cell_length_c   4.13035700
_cell_angle_alpha   90.00000000
_cell_angle_beta   90.00000000
_cell_angle_gamma   119.94691812
_symmetry_Int_Tables_number   1
_chemical_formula_structural   Y2HoSc3FeSb2
_chemical_formula_sum   'Y2 Ho1 Sc3 Fe1 Sb2'
_cell_volume   220.14623185
_cell_formula_units_Z   1
loop_
 _symmetry_equiv_pos_site_id
 _symmetry_equiv_pos_as_xyz
  1  'x, y, z'
loop_
 _atom_site_type_symbol
 _atom_site_label
 _atom_site_symmetry_multiplicity
 _atom_site_fract_x
 _atom_site_fract_y
 _atom_site_fract_z
 _atom_site_occupancy
  Y  Y0  1  0.393352  0.393333  0.500000  1
  Y  Y1  1  0.000019  0.606667  0.500000  1
  Ho  Ho2  1  0.607662  0.000000  0.500000  1
  Sc  Sc3  1  0.225453  0.000000  0.000000  1
  Sc  Sc4  1  0.774569  0.775157  0.000000  1
  Sc  Sc5  1  0.999412  0.224843  0.000000  1
  Fe  Fe6  1  0.998980  0.000000  0.500000  1
  Sb  Sb7  1  0.333885  0.667215  0.000000  1
  Sb  Sb8  1  0.666670  0.332785  0.000000  1
