# generated using pymatgen
data_SmDy5(HoC5)2
_symmetry_space_group_name_H-M   'P 1'
_cell_length_a   3.67584200
_cell_length_b   6.60396199
_cell_length_c   11.99173464
_cell_angle_alpha   89.94993513
_cell_angle_beta   90.00000000
_cell_angle_gamma   90.00000000
_symmetry_Int_Tables_number   1
_chemical_formula_structural   SmDy5(HoC5)2
_chemical_formula_sum   'Sm1 Dy5 Ho2 C10'
_cell_volume   291.10069644
_cell_formula_units_Z   1
loop_
 _symmetry_equiv_pos_site_id
 _symmetry_equiv_pos_as_xyz
  1  'x, y, z'
loop_
 _atom_site_type_symbol
 _atom_site_label
 _atom_site_symmetry_multiplicity
 _atom_site_fract_x
 _atom_site_fract_y
 _atom_site_fract_z
 _atom_site_occupancy
  Sm  Sm0  1  0.000000  0.245892  0.543570  1
  Dy  Dy1  1  0.000000  0.738755  0.457097  1
  Dy  Dy2  1  0.500000  0.104284  0.804567  1
  Dy  Dy3  1  0.500000  0.892939  0.196262  1
  Dy  Dy4  1  0.500000  0.608291  0.696361  1
  Dy  Dy5  1  0.500000  0.395624  0.302021  1
  Ho  Ho6  1  0.000000  0.762988  0.959201  1
  Ho  Ho7  1  0.000000  0.249132  0.043058  1
  C  C8  1  0.500000  0.494068  0.498185  1
  C  C9  1  0.500000  0.011142  0.999316  1
  C  C10  1  0.000000  0.357066  0.742481  1
  C  C11  1  0.000000  0.636567  0.263376  1
  C  C12  1  0.000000  0.862624  0.766328  1
  C  C13  1  0.000000  0.145309  0.234726  1
  C  C14  1  0.000000  0.426657  0.846423  1
  C  C15  1  0.000000  0.612464  0.152734  1
  C  C16  1  0.000000  0.076555  0.338956  1
  C  C17  1  0.000000  0.879645  0.655339  1
