# generated using pymatgen
data_Sr2Ni2Ir
_symmetry_space_group_name_H-M   'P 1'
_cell_length_a   4.22142200
_cell_length_b   4.22128070
_cell_length_c   8.69397100
_cell_angle_alpha   89.99712903
_cell_angle_beta   90.00011475
_cell_angle_gamma   119.99953358
_symmetry_Int_Tables_number   1
_chemical_formula_structural   Sr2Ni2Ir
_chemical_formula_sum   'Sr2 Ni2 Ir1'
_cell_volume   134.16951847
_cell_formula_units_Z   1
loop_
 _symmetry_equiv_pos_site_id
 _symmetry_equiv_pos_as_xyz
  1  'x, y, z'
loop_
 _atom_site_type_symbol
 _atom_site_label
 _atom_site_symmetry_multiplicity
 _atom_site_fract_x
 _atom_site_fract_y
 _atom_site_fract_z
 _atom_site_occupancy
  Sr  Sr0  1  0.666633  0.333297  0.276482  1
  Sr  Sr1  1  0.333364  0.666702  0.723636  1
  Ni  Ni2  1  0.333344  0.666639  0.043695  1
  Ni  Ni3  1  0.666658  0.333364  0.956224  1
  Ir  Ir4  1  0.999999  0.000000  0.999964  1
