# generated using pymatgen
data_Rb2Pa3Ag3Te4
_symmetry_space_group_name_H-M   'P 1'
_cell_length_a   8.78151400
_cell_length_b   8.78151424
_cell_length_c   11.48938240
_cell_angle_alpha   69.47494638
_cell_angle_beta   69.47494622
_cell_angle_gamma   27.78183799
_symmetry_Int_Tables_number   1
_chemical_formula_structural   Rb2Pa3Ag3Te4
_chemical_formula_sum   'Rb2 Pa3 Ag3 Te4'
_cell_volume   385.09462448
_cell_formula_units_Z   1
loop_
 _symmetry_equiv_pos_site_id
 _symmetry_equiv_pos_as_xyz
  1  'x, y, z'
loop_
 _atom_site_type_symbol
 _atom_site_label
 _atom_site_symmetry_multiplicity
 _atom_site_fract_x
 _atom_site_fract_y
 _atom_site_fract_z
 _atom_site_occupancy
  Rb  Rb0  1  0.135796  0.135796  0.949745  1
  Rb  Rb1  1  0.878212  0.878212  0.028810  1
  Pa  Pa2  1  0.903756  0.903756  0.455261  1
  Pa  Pa3  1  0.601433  0.601433  0.396230  1
  Pa  Pa4  1  0.066123  0.066123  0.566206  1
  Ag  Ag5  1  0.271030  0.271030  0.406734  1
  Ag  Ag6  1  0.419899  0.419899  0.647877  1
  Ag  Ag7  1  0.706119  0.706119  0.579690  1
  Te  Te8  1  0.205345  0.205345  0.202246  1
  Te  Te9  1  0.473082  0.473082  0.242734  1
  Te  Te10  1  0.533713  0.533713  0.786079  1
  Te  Te11  1  0.805491  0.805491  0.738388  1
