# generated using pymatgen
data_Dy3Tm(MoO6)2
_symmetry_space_group_name_H-M   'P 1'
_cell_length_a   9.93101598
_cell_length_b   9.93101644
_cell_length_c   5.37835715
_cell_angle_alpha   74.90804944
_cell_angle_beta   74.90804785
_cell_angle_gamma   68.04411644
_symmetry_Int_Tables_number   1
_chemical_formula_structural   Dy3Tm(MoO6)2
_chemical_formula_sum   'Dy6 Tm2 Mo4 O24'
_cell_volume   467.06347215
_cell_formula_units_Z   2
loop_
 _symmetry_equiv_pos_site_id
 _symmetry_equiv_pos_as_xyz
  1  'x, y, z'
loop_
 _atom_site_type_symbol
 _atom_site_label
 _atom_site_symmetry_multiplicity
 _atom_site_fract_x
 _atom_site_fract_y
 _atom_site_fract_z
 _atom_site_occupancy
  Dy  Dy0  1  0.551270  0.783165  0.622714  1
  Dy  Dy1  1  0.783165  0.551270  0.122714  1
  Dy  Dy2  1  0.448730  0.216835  0.377286  1
  Dy  Dy3  1  0.216835  0.448730  0.877286  1
  Dy  Dy4  1  0.862747  0.137253  0.250000  1
  Dy  Dy5  1  0.137253  0.862747  0.750000  1
  Tm  Tm6  1  0.395752  0.604248  0.250000  1
  Tm  Tm7  1  0.604248  0.395752  0.750000  1
  Mo  Mo8  1  0.296102  0.011894  0.062291  1
  Mo  Mo9  1  0.988106  0.703898  0.437709  1
  Mo  Mo10  1  0.703898  0.988106  0.937709  1
  Mo  Mo11  1  0.011894  0.296102  0.562291  1
  O  O12  1  0.608340  0.570721  0.923108  1
  O  O13  1  0.429279  0.391660  0.576892  1
  O  O14  1  0.391660  0.429279  0.076892  1
  O  O15  1  0.570721  0.608340  0.423108  1
  O  O16  1  0.337845  0.804922  0.925302  1
  O  O17  1  0.195078  0.662155  0.574698  1
  O  O18  1  0.662155  0.195078  0.074698  1
  O  O19  1  0.804922  0.337845  0.425302  1
  O  O20  1  0.326442  0.885499  0.376051  1
  O  O21  1  0.114501  0.673558  0.123949  1
  O  O22  1  0.673558  0.114501  0.623949  1
  O  O23  1  0.885499  0.326442  0.876051  1
  O  O24  1  0.184746  0.289444  0.634996  1
  O  O25  1  0.710556  0.815254  0.865004  1
  O  O26  1  0.815254  0.710556  0.365004  1
  O  O27  1  0.289444  0.184746  0.134996  1
  O  O28  1  0.048615  0.110601  0.513200  1
  O  O29  1  0.889399  0.951385  0.986800  1
  O  O30  1  0.432164  0.024059  0.755156  1
  O  O31  1  0.110601  0.048615  0.013200  1
  O  O32  1  0.024059  0.432164  0.255156  1
  O  O33  1  0.567836  0.975941  0.244844  1
  O  O34  1  0.975941  0.567836  0.744844  1
  O  O35  1  0.951385  0.889399  0.486800  1
