# generated using pymatgen
data_LuTh7AlSe17
_symmetry_space_group_name_H-M   'P 1'
_cell_length_a   8.40984767
_cell_length_b   8.41286497
_cell_length_c   11.16854400
_cell_angle_alpha   80.32883392
_cell_angle_beta   80.33682392
_cell_angle_gamma   64.74369578
_symmetry_Int_Tables_number   1
_chemical_formula_structural   LuTh7AlSe17
_chemical_formula_sum   'Lu1 Th7 Al1 Se17'
_cell_volume   700.38174994
_cell_formula_units_Z   1
loop_
 _symmetry_equiv_pos_site_id
 _symmetry_equiv_pos_as_xyz
  1  'x, y, z'
loop_
 _atom_site_type_symbol
 _atom_site_label
 _atom_site_symmetry_multiplicity
 _atom_site_fract_x
 _atom_site_fract_y
 _atom_site_fract_z
 _atom_site_occupancy
  Lu  Lu0  1  0.815588  0.306407  0.295873  1
  Th  Th1  1  0.695867  0.185813  0.700351  1
  Th  Th2  1  0.183407  0.696255  0.702867  1
  Th  Th3  1  0.304087  0.815370  0.295525  1
  Th  Th4  1  0.204829  0.204286  0.542325  1
  Th  Th5  1  0.795568  0.797923  0.452918  1
  Th  Th6  1  0.683114  0.676249  0.981962  1
  Th  Th7  1  0.319192  0.319027  0.023105  1
  Al  Al8  1  0.998437  0.002851  0.001971  1
  Se  Se9  1  0.822386  0.429322  0.528139  1
  Se  Se10  1  0.571035  0.181028  0.464149  1
  Se  Se11  1  0.179026  0.567246  0.465604  1
  Se  Se12  1  0.433572  0.820434  0.533038  1
  Se  Se13  1  0.945350  0.319139  0.031138  1
  Se  Se14  1  0.679583  0.054298  0.971772  1
  Se  Se15  1  0.054079  0.681028  0.973834  1
  Se  Se16  1  0.321743  0.945113  0.026540  1
  Se  Se17  1  0.204864  0.211613  0.279022  1
  Se  Se18  1  0.787894  0.787964  0.721551  1
  Se  Se19  1  0.056103  0.057055  0.776558  1
  Se  Se20  1  0.938217  0.956647  0.226386  1
  Se  Se21  1  0.300999  0.301787  0.756274  1
  Se  Se22  1  0.700530  0.690949  0.244915  1
  Se  Se23  1  0.519814  0.520774  0.831375  1
  Se  Se24  1  0.481539  0.477318  0.168535  1
  Se  Se25  1  0.003173  0.994105  0.504275  1
