# generated using pymatgen
data_Ca4SmDy3Hg8
_symmetry_space_group_name_H-M   'P 1'
_cell_length_a   7.53235200
_cell_length_b   7.55268100
_cell_length_c   7.49193700
_cell_angle_alpha   90.00000000
_cell_angle_beta   90.00005325
_cell_angle_gamma   90.00000000
_symmetry_Int_Tables_number   1
_chemical_formula_structural   Ca4SmDy3Hg8
_chemical_formula_sum   'Ca4 Sm1 Dy3 Hg8'
_cell_volume   426.21218912
_cell_formula_units_Z   1
loop_
 _symmetry_equiv_pos_site_id
 _symmetry_equiv_pos_as_xyz
  1  'x, y, z'
loop_
 _atom_site_type_symbol
 _atom_site_label
 _atom_site_symmetry_multiplicity
 _atom_site_fract_x
 _atom_site_fract_y
 _atom_site_fract_z
 _atom_site_occupancy
  Ca  Ca0  1  0.749542  0.250000  0.000188  1
  Ca  Ca1  1  0.249568  0.750000  0.499848  1
  Ca  Ca2  1  0.750417  0.250000  0.500159  1
  Ca  Ca3  1  0.250438  0.750000  0.999810  1
  Sm  Sm4  1  0.250762  0.250000  0.999993  1
  Dy  Dy5  1  0.749464  0.750000  0.999998  1
  Dy  Dy6  1  0.750605  0.750000  0.499990  1
  Dy  Dy7  1  0.249402  0.250000  0.500004  1
  Hg  Hg8  1  0.998855  0.501405  0.250136  1
  Hg  Hg9  1  0.998855  0.998597  0.250136  1
  Hg  Hg10  1  0.501416  0.998781  0.252604  1
  Hg  Hg11  1  0.501416  0.501219  0.252604  1
  Hg  Hg12  1  0.501102  0.501419  0.747391  1
  Hg  Hg13  1  0.501102  0.998583  0.747391  1
  Hg  Hg14  1  0.998527  0.998774  0.749875  1
  Hg  Hg15  1  0.998527  0.501226  0.749875  1
