# generated using pymatgen
data_CsLaZr6BBr18
_symmetry_space_group_name_H-M   'P 1'
_cell_length_a   10.28026100
_cell_length_b   10.28026059
_cell_length_c   19.27537900
_cell_angle_alpha   90.00000000
_cell_angle_beta   90.00000000
_cell_angle_gamma   119.99999810
_symmetry_Int_Tables_number   1
_chemical_formula_structural   CsLaZr6BBr18
_chemical_formula_sum   'Cs2 La2 Zr12 B2 Br36'
_cell_volume   1764.17567888
_cell_formula_units_Z   2
loop_
 _symmetry_equiv_pos_site_id
 _symmetry_equiv_pos_as_xyz
  1  'x, y, z'
loop_
 _atom_site_type_symbol
 _atom_site_label
 _atom_site_symmetry_multiplicity
 _atom_site_fract_x
 _atom_site_fract_y
 _atom_site_fract_z
 _atom_site_occupancy
  Cs  Cs0  1  0.333333  0.666667  0.750000  1
  Cs  Cs1  1  0.666667  0.333333  0.250000  1
  La  La2  1  0.666667  0.333333  0.750000  1
  La  La3  1  0.333333  0.666667  0.250000  1
  Zr  Zr4  1  0.832155  0.038070  0.570083  1
  Zr  Zr5  1  0.167845  0.961930  0.429917  1
  Zr  Zr6  1  0.961930  0.794086  0.570083  1
  Zr  Zr7  1  0.832155  0.794086  0.929917  1
  Zr  Zr8  1  0.038070  0.205914  0.429917  1
  Zr  Zr9  1  0.167845  0.205914  0.070083  1
  Zr  Zr10  1  0.205914  0.167845  0.570083  1
  Zr  Zr11  1  0.961930  0.167845  0.929917  1
  Zr  Zr12  1  0.794086  0.832155  0.429917  1
  Zr  Zr13  1  0.038070  0.832155  0.070083  1
  Zr  Zr14  1  0.205914  0.038070  0.929917  1
  Zr  Zr15  1  0.794086  0.961930  0.070083  1
  B  B16  1  0.000000  0.000000  0.500000  1
  B  B17  1  0.000000  0.000000  0.000000  1
  Br  Br18  1  0.272995  0.420790  0.500779  1
  Br  Br19  1  0.727005  0.579210  0.499221  1
  Br  Br20  1  0.579210  0.852205  0.500779  1
  Br  Br21  1  0.272995  0.852205  0.999221  1
  Br  Br22  1  0.420790  0.147795  0.499221  1
  Br  Br23  1  0.727005  0.147795  0.000779  1
  Br  Br24  1  0.147795  0.727005  0.500779  1
  Br  Br25  1  0.579210  0.727005  0.999221  1
  Br  Br26  1  0.852205  0.272995  0.499221  1
  Br  Br27  1  0.420790  0.272995  0.000779  1
  Br  Br28  1  0.147795  0.420790  0.999221  1
  Br  Br29  1  0.852205  0.579210  0.000779  1
  Br  Br30  1  0.041944  0.230543  0.659529  1
  Br  Br31  1  0.958056  0.769457  0.340471  1
  Br  Br32  1  0.769457  0.811401  0.659529  1
  Br  Br33  1  0.041944  0.811401  0.840471  1
  Br  Br34  1  0.230543  0.188599  0.340471  1
  Br  Br35  1  0.958056  0.188599  0.159529  1
  Br  Br36  1  0.188599  0.958056  0.659529  1
  Br  Br37  1  0.769457  0.958056  0.840471  1
  Br  Br38  1  0.811401  0.041944  0.340471  1
  Br  Br39  1  0.230543  0.041944  0.159529  1
  Br  Br40  1  0.188599  0.230543  0.840471  1
  Br  Br41  1  0.811401  0.769457  0.159529  1
  Br  Br42  1  0.624475  0.076209  0.661317  1
  Br  Br43  1  0.375525  0.923791  0.338683  1
  Br  Br44  1  0.923791  0.548265  0.661317  1
  Br  Br45  1  0.624475  0.548265  0.838683  1
  Br  Br46  1  0.076209  0.451735  0.338683  1
  Br  Br47  1  0.375525  0.451735  0.161317  1
  Br  Br48  1  0.451735  0.375525  0.661317  1
  Br  Br49  1  0.923791  0.375525  0.838683  1
  Br  Br50  1  0.548265  0.624475  0.338683  1
  Br  Br51  1  0.076209  0.624475  0.161317  1
  Br  Br52  1  0.451735  0.076209  0.838683  1
  Br  Br53  1  0.548265  0.923791  0.161317  1
