# generated using pymatgen
data_Sm3Ho7(SiHg)4
_symmetry_space_group_name_H-M   'P 1'
_cell_length_a   9.02969600
_cell_length_b   8.65584183
_cell_length_c   7.59065000
_cell_angle_alpha   89.94460291
_cell_angle_beta   89.99907359
_cell_angle_gamma   129.25110794
_symmetry_Int_Tables_number   1
_chemical_formula_structural   Sm3Ho7(SiHg)4
_chemical_formula_sum   'Sm3 Ho7 Si4 Hg4'
_cell_volume   459.42584155
_cell_formula_units_Z   1
loop_
 _symmetry_equiv_pos_site_id
 _symmetry_equiv_pos_as_xyz
  1  'x, y, z'
loop_
 _atom_site_type_symbol
 _atom_site_label
 _atom_site_symmetry_multiplicity
 _atom_site_fract_x
 _atom_site_fract_y
 _atom_site_fract_z
 _atom_site_occupancy
  Sm  Sm0  1  0.065778  0.333310  0.321728  1
  Sm  Sm1  1  0.935972  0.668172  0.677989  1
  Sm  Sm2  1  0.433681  0.167443  0.822069  1
  Ho  Ho3  1  0.790951  0.545913  0.177240  1
  Ho  Ho4  1  0.564932  0.826959  0.176068  1
  Ho  Ho5  1  0.208979  0.456188  0.821778  1
  Ho  Ho6  1  0.708967  0.955064  0.678867  1
  Ho  Ho7  1  0.289592  0.045980  0.321870  1
  Ho  Ho8  1  0.000265  0.000947  0.999840  1
  Ho  Ho9  1  0.499714  0.501078  0.499821  1
  Si  Si10  1  0.382011  0.385666  0.120182  1
  Si  Si11  1  0.618706  0.617135  0.880259  1
  Si  Si12  1  0.117712  0.116958  0.620205  1
  Si  Si13  1  0.879412  0.883667  0.378574  1
  Hg  Hg14  1  0.806110  0.242466  0.985047  1
  Hg  Hg15  1  0.193586  0.751127  0.025190  1
  Hg  Hg16  1  0.688379  0.250058  0.478452  1
  Hg  Hg17  1  0.315253  0.751866  0.514821  1
