# generated using pymatgen
data_TbEr2Cd3Sn2Au
_symmetry_space_group_name_H-M   'P 1'
_cell_length_a   7.46284273
_cell_length_b   7.46284361
_cell_length_c   4.54102000
_cell_angle_alpha   90.00000000
_cell_angle_beta   90.00000000
_cell_angle_gamma   120.28733788
_symmetry_Int_Tables_number   1
_chemical_formula_structural   TbEr2Cd3Sn2Au
_chemical_formula_sum   'Tb1 Er2 Cd3 Sn2 Au1'
_cell_volume   218.38757261
_cell_formula_units_Z   1
loop_
 _symmetry_equiv_pos_site_id
 _symmetry_equiv_pos_as_xyz
  1  'x, y, z'
loop_
 _atom_site_type_symbol
 _atom_site_label
 _atom_site_symmetry_multiplicity
 _atom_site_fract_x
 _atom_site_fract_y
 _atom_site_fract_z
 _atom_site_occupancy
  Tb  Tb0  1  0.409135  0.409135  0.000000  1
  Er  Er1  1  0.593434  0.000392  0.000000  1
  Er  Er2  1  0.000392  0.593434  0.000000  1
  Cd  Cd3  1  0.240183  0.000931  0.500000  1
  Cd  Cd4  1  0.000931  0.240183  0.500000  1
  Cd  Cd5  1  0.757965  0.757965  0.500000  1
  Sn  Sn6  1  0.332579  0.668678  0.500000  1
  Sn  Sn7  1  0.668678  0.332579  0.500000  1
  Au  Au8  1  0.996703  0.996703  0.000000  1
