# generated using pymatgen
data_Ho8Tm7Lu5Pb16
_symmetry_space_group_name_H-M   'P 1'
_cell_length_a   8.12785709
_cell_length_b   15.47409700
_cell_length_c   8.20093510
_cell_angle_alpha   89.99787902
_cell_angle_beta   89.98254682
_cell_angle_gamma   89.99915107
_symmetry_Int_Tables_number   1
_chemical_formula_structural   Ho8Tm7Lu5Pb16
_chemical_formula_sum   'Ho8 Tm7 Lu5 Pb16'
_cell_volume   1031.44180226
_cell_formula_units_Z   1
loop_
 _symmetry_equiv_pos_site_id
 _symmetry_equiv_pos_as_xyz
  1  'x, y, z'
loop_
 _atom_site_type_symbol
 _atom_site_label
 _atom_site_symmetry_multiplicity
 _atom_site_fract_x
 _atom_site_fract_y
 _atom_site_fract_z
 _atom_site_occupancy
  Ho  Ho0  1  0.464377  0.599669  0.676857  1
  Ho  Ho1  1  0.964446  0.900339  0.823086  1
  Ho  Ho2  1  0.535564  0.099646  0.323084  1
  Ho  Ho3  1  0.035605  0.400452  0.176952  1
  Ho  Ho4  1  0.535602  0.400336  0.323024  1
  Ho  Ho5  1  0.035546  0.099647  0.176914  1
  Ho  Ho6  1  0.464435  0.900343  0.676884  1
  Ho  Ho7  1  0.964418  0.599644  0.823031  1
  Tm  Tm8  1  0.623331  0.621128  0.158813  1
  Tm  Tm9  1  0.123356  0.878830  0.341146  1
  Tm  Tm10  1  0.376654  0.121148  0.841134  1
  Tm  Tm11  1  0.876613  0.378831  0.658890  1
  Tm  Tm12  1  0.376639  0.378893  0.841153  1
  Tm  Tm13  1  0.876639  0.121137  0.658829  1
  Tm  Tm14  1  0.623399  0.878845  0.158855  1
  Lu  Lu15  1  0.123395  0.621187  0.341185  1
  Lu  Lu16  1  0.792081  0.749942  0.495403  1
  Lu  Lu17  1  0.291890  0.749930  0.004675  1
  Lu  Lu18  1  0.208029  0.250010  0.504524  1
  Lu  Lu19  1  0.708024  0.250002  0.995424  1
  Pb  Pb20  1  0.717817  0.457232  0.966014  1
  Pb  Pb21  1  0.217802  0.042783  0.533971  1
  Pb  Pb22  1  0.282182  0.957206  0.033969  1
  Pb  Pb23  1  0.782509  0.542837  0.465955  1
  Pb  Pb24  1  0.282013  0.542831  0.034313  1
  Pb  Pb25  1  0.782184  0.957214  0.466036  1
  Pb  Pb26  1  0.717785  0.042776  0.966065  1
  Pb  Pb27  1  0.217708  0.457395  0.533775  1
  Pb  Pb28  1  0.429254  0.749937  0.371566  1
  Pb  Pb29  1  0.929559  0.749888  0.128614  1
  Pb  Pb30  1  0.570558  0.250010  0.628460  1
  Pb  Pb31  1  0.070620  0.250005  0.871565  1
  Pb  Pb32  1  0.653045  0.749993  0.846660  1
  Pb  Pb33  1  0.153055  0.749944  0.653168  1
  Pb  Pb34  1  0.346929  0.249997  0.153303  1
  Pb  Pb35  1  0.846935  0.249995  0.346701  1
