# generated using pymatgen
data_Li6Dy6Te(WO8)3
_symmetry_space_group_name_H-M   'P 1'
_cell_length_a   10.69574109
_cell_length_b   10.69574462
_cell_length_c   10.70530945
_cell_angle_alpha   109.47394689
_cell_angle_beta   109.47150900
_cell_angle_gamma   109.43224902
_symmetry_Int_Tables_number   1
_chemical_formula_structural   Li6Dy6Te(WO8)3
_chemical_formula_sum   'Li12 Dy12 Te2 W6 O48'
_cell_volume   943.17386613
_cell_formula_units_Z   2
loop_
 _symmetry_equiv_pos_site_id
 _symmetry_equiv_pos_as_xyz
  1  'x, y, z'
loop_
 _atom_site_type_symbol
 _atom_site_label
 _atom_site_symmetry_multiplicity
 _atom_site_fract_x
 _atom_site_fract_y
 _atom_site_fract_z
 _atom_site_occupancy
  Li  Li0  1  0.249772  0.375587  0.124378  1
  Li  Li1  1  0.374036  0.749654  0.125418  1
  Li  Li2  1  0.125047  0.875047  0.250001  1
  Li  Li3  1  0.624784  0.374784  0.250001  1
  Li  Li4  1  0.124239  0.248618  0.374584  1
  Li  Li5  1  0.751209  0.125393  0.375619  1
  Li  Li6  1  0.248794  0.874611  0.624380  1
  Li  Li7  1  0.875762  0.751382  0.625415  1
  Li  Li8  1  0.874952  0.124954  0.750000  1
  Li  Li9  1  0.375218  0.625219  0.749999  1
  Li  Li10  1  0.750228  0.624414  0.875619  1
  Li  Li11  1  0.625965  0.250344  0.874581  1
  Dy  Dy12  1  0.748980  0.874205  0.123524  1
  Dy  Dy13  1  0.874747  0.249086  0.125562  1
  Dy  Dy14  1  0.873836  0.623837  0.250001  1
  Dy  Dy15  1  0.374853  0.124854  0.250002  1
  Dy  Dy16  1  0.623524  0.749186  0.374437  1
  Dy  Dy17  1  0.250680  0.625457  0.376474  1
  Dy  Dy18  1  0.749319  0.374544  0.623524  1
  Dy  Dy19  1  0.376477  0.250816  0.625561  1
  Dy  Dy20  1  0.126164  0.376165  0.749999  1
  Dy  Dy21  1  0.625147  0.875147  0.750000  1
  Dy  Dy22  1  0.251019  0.125793  0.876474  1
  Dy  Dy23  1  0.125252  0.750914  0.874438  1
  Te  Te24  1  0.000001  0.500000  0.000000  1
  Te  Te25  1  0.000000  0.999999  0.499999  1
  W  W26  1  0.999998  0.999998  0.999998  1
  W  W27  1  0.500001  0.000001  0.999998  1
  W  W28  1  0.500000  0.500000  0.999998  1
  W  W29  1  0.500003  0.000003  0.500003  1
  W  W30  1  0.000004  0.500004  0.500000  1
  W  W31  1  0.499995  0.499996  0.499997  1
  O  O32  1  0.700834  0.619448  0.027538  1
  O  O33  1  0.827429  0.408062  0.028463  1
  O  O34  1  0.200954  0.173742  0.081808  1
  O  O35  1  0.380408  0.907845  0.081207  1
  O  O36  1  0.472640  0.173558  0.092250  1
  O  O37  1  0.119672  0.918753  0.092123  1
  O  O38  1  0.527040  0.700931  0.119089  1
  O  O39  1  0.091613  0.419178  0.120509  1
  O  O40  1  0.700530  0.081018  0.173494  1
  O  O41  1  0.972307  0.091800  0.173170  1
  O  O42  1  0.618922  0.527199  0.200880  1
  O  O43  1  0.080508  0.672393  0.200896  1
  O  O44  1  0.826318  0.418041  0.299120  1
  O  O45  1  0.971498  0.879612  0.299105  1
  O  O46  1  0.418631  0.799138  0.326831  1
  O  O47  1  0.407523  0.527035  0.326504  1
  O  O48  1  0.798668  0.971103  0.379491  1
  O  O49  1  0.081842  0.407952  0.380911  1
  O  O50  1  0.581308  0.380392  0.407750  1
  O  O51  1  0.326629  0.027548  0.407875  1
  O  O52  1  0.326636  0.299203  0.418794  1
  O  O53  1  0.591935  0.119144  0.418191  1
  O  O54  1  0.879600  0.798967  0.471535  1
  O  O55  1  0.091909  0.673296  0.472460  1
  O  O56  1  0.120401  0.201034  0.528466  1
  O  O57  1  0.908092  0.326704  0.527539  1
  O  O58  1  0.408065  0.880857  0.581809  1
  O  O59  1  0.673365  0.700801  0.581209  1
  O  O60  1  0.673371  0.972453  0.592127  1
  O  O61  1  0.418692  0.619609  0.592252  1
  O  O62  1  0.918160  0.592049  0.619089  1
  O  O63  1  0.201333  0.028895  0.620511  1
  O  O64  1  0.592479  0.472969  0.673499  1
  O  O65  1  0.581370  0.200864  0.673171  1
  O  O66  1  0.028504  0.120388  0.700894  1
  O  O67  1  0.173681  0.581959  0.700879  1
  O  O68  1  0.919493  0.327606  0.799104  1
  O  O69  1  0.381079  0.472800  0.799119  1
  O  O70  1  0.027693  0.908199  0.826829  1
  O  O71  1  0.299470  0.918982  0.826504  1
  O  O72  1  0.908389  0.580821  0.879491  1
  O  O73  1  0.472958  0.299070  0.880911  1
  O  O74  1  0.880326  0.081245  0.907876  1
  O  O75  1  0.527358  0.826442  0.907749  1
  O  O76  1  0.799045  0.826257  0.918190  1
  O  O77  1  0.619591  0.092156  0.918792  1
  O  O78  1  0.299165  0.380552  0.972459  1
  O  O79  1  0.172572  0.591938  0.971538  1
