# generated using pymatgen
data_LaEu5(TiSb5)2
_symmetry_space_group_name_H-M   'P 1'
_cell_length_a   9.57035900
_cell_length_b   9.53491661
_cell_length_c   6.32878500
_cell_angle_alpha   90.00000000
_cell_angle_beta   90.00000000
_cell_angle_gamma   120.12304103
_symmetry_Int_Tables_number   1
_chemical_formula_structural   LaEu5(TiSb5)2
_chemical_formula_sum   'La1 Eu5 Ti2 Sb10'
_cell_volume   499.52394259
_cell_formula_units_Z   1
loop_
 _symmetry_equiv_pos_site_id
 _symmetry_equiv_pos_as_xyz
  1  'x, y, z'
loop_
 _atom_site_type_symbol
 _atom_site_label
 _atom_site_symmetry_multiplicity
 _atom_site_fract_x
 _atom_site_fract_y
 _atom_site_fract_z
 _atom_site_occupancy
  La  La0  1  0.616665  0.000000  0.250000  1
  Eu  Eu1  1  0.380858  0.000000  0.750000  1
  Eu  Eu2  1  0.385930  0.387781  0.250000  1
  Eu  Eu3  1  0.998149  0.612219  0.250000  1
  Eu  Eu4  1  0.002406  0.388420  0.750000  1
  Eu  Eu5  1  0.613986  0.611580  0.750000  1
  Ti  Ti6  1  0.001063  0.000000  0.998570  1
  Ti  Ti7  1  0.001063  0.000000  0.501430  1
  Sb  Sb8  1  0.664946  0.330757  0.500066  1
  Sb  Sb9  1  0.334188  0.669243  0.999934  1
  Sb  Sb10  1  0.751995  0.000000  0.750000  1
  Sb  Sb11  1  0.754625  0.752093  0.250000  1
  Sb  Sb12  1  0.334188  0.669243  0.500066  1
  Sb  Sb13  1  0.664946  0.330757  0.999934  1
  Sb  Sb14  1  0.247820  0.000000  0.250000  1
  Sb  Sb15  1  0.246396  0.248150  0.750000  1
  Sb  Sb16  1  0.998245  0.751850  0.750000  1
  Sb  Sb17  1  0.002531  0.247907  0.250000  1
