# generated using pymatgen
data_Dy9Ho3Ga20
_symmetry_space_group_name_H-M   'P 1'
_cell_length_a   6.10054603
_cell_length_b   9.62255600
_cell_length_c   11.58176906
_cell_angle_alpha   90.00000000
_cell_angle_beta   90.01184291
_cell_angle_gamma   90.00000000
_symmetry_Int_Tables_number   1
_chemical_formula_structural   Dy9Ho3Ga20
_chemical_formula_sum   'Dy9 Ho3 Ga20'
_cell_volume   679.88278914
_cell_formula_units_Z   1
loop_
 _symmetry_equiv_pos_site_id
 _symmetry_equiv_pos_as_xyz
  1  'x, y, z'
loop_
 _atom_site_type_symbol
 _atom_site_label
 _atom_site_symmetry_multiplicity
 _atom_site_fract_x
 _atom_site_fract_y
 _atom_site_fract_z
 _atom_site_occupancy
  Dy  Dy0  1  0.848980  0.750000  0.074712  1
  Dy  Dy1  1  0.890706  0.509692  0.351566  1
  Dy  Dy2  1  0.609283  0.990329  0.851428  1
  Dy  Dy3  1  0.109316  0.009800  0.648470  1
  Dy  Dy4  1  0.390507  0.490131  0.148463  1
  Dy  Dy5  1  0.109316  0.490200  0.648470  1
  Dy  Dy6  1  0.390507  0.009869  0.148463  1
  Dy  Dy7  1  0.890706  0.990308  0.351566  1
  Dy  Dy8  1  0.609283  0.509671  0.851428  1
  Ho  Ho9  1  0.651070  0.750000  0.574762  1
  Ho  Ho10  1  0.151121  0.250000  0.925243  1
  Ho  Ho11  1  0.348935  0.250000  0.425166  1
  Ga  Ga12  1  0.875107  0.053673  0.090554  1
  Ga  Ga13  1  0.624804  0.446554  0.590450  1
  Ga  Ga14  1  0.124951  0.553261  0.909410  1
  Ga  Ga15  1  0.375209  0.946600  0.409596  1
  Ga  Ga16  1  0.124951  0.946739  0.909410  1
  Ga  Ga17  1  0.375209  0.553400  0.409596  1
  Ga  Ga18  1  0.875107  0.446327  0.090554  1
  Ga  Ga19  1  0.624804  0.053446  0.590450  1
  Ga  Ga20  1  0.173414  0.750000  0.252079  1
  Ga  Ga21  1  0.327093  0.750000  0.751868  1
  Ga  Ga22  1  0.827097  0.250000  0.748107  1
  Ga  Ga23  1  0.672947  0.250000  0.248076  1
  Ga  Ga24  1  0.371964  0.750000  0.004481  1
  Ga  Ga25  1  0.127872  0.750000  0.504774  1
  Ga  Ga26  1  0.627476  0.250000  0.995396  1
  Ga  Ga27  1  0.872128  0.250000  0.495291  1
  Ga  Ga28  1  0.602089  0.750000  0.299573  1
  Ga  Ga29  1  0.897819  0.750000  0.799091  1
  Ga  Ga30  1  0.397874  0.250000  0.700749  1
  Ga  Ga31  1  0.102352  0.250000  0.200755  1
