# generated using pymatgen
data_Ta3MnFe2N
_symmetry_space_group_name_H-M   'P 1'
_cell_length_a   7.97809576
_cell_length_b   7.97863732
_cell_length_c   7.97884600
_cell_angle_alpha   59.99913479
_cell_angle_beta   59.99688920
_cell_angle_gamma   59.99578434
_symmetry_Int_Tables_number   1
_chemical_formula_structural   Ta3MnFe2N
_chemical_formula_sum   'Ta12 Mn4 Fe8 N4'
_cell_volume   359.10889693
_cell_formula_units_Z   4
loop_
 _symmetry_equiv_pos_site_id
 _symmetry_equiv_pos_as_xyz
  1  'x, y, z'
loop_
 _atom_site_type_symbol
 _atom_site_label
 _atom_site_symmetry_multiplicity
 _atom_site_fract_x
 _atom_site_fract_y
 _atom_site_fract_z
 _atom_site_occupancy
  Ta  Ta0  1  0.802365  0.802310  0.197662  1
  Ta  Ta1  1  0.197671  0.197887  0.802221  1
  Ta  Ta2  1  0.802349  0.197663  0.802329  1
  Ta  Ta3  1  0.197672  0.802201  0.197892  1
  Ta  Ta4  1  0.197672  0.802201  0.802236  1
  Ta  Ta5  1  0.802349  0.197663  0.197658  1
  Ta  Ta6  1  0.447635  0.447690  0.052338  1
  Ta  Ta7  1  0.052329  0.052113  0.447779  1
  Ta  Ta8  1  0.447651  0.052337  0.447671  1
  Ta  Ta9  1  0.052328  0.447799  0.052108  1
  Ta  Ta10  1  0.052328  0.447799  0.447764  1
  Ta  Ta11  1  0.447651  0.052337  0.052342  1
  Mn  Mn12  1  0.125000  0.625000  0.625000  1
  Mn  Mn13  1  0.625000  0.125000  0.625000  1
  Mn  Mn14  1  0.625000  0.625000  0.125000  1
  Mn  Mn15  1  0.625000  0.625000  0.625000  1
  Fe  Fe16  1  0.729275  0.423620  0.423552  1
  Fe  Fe17  1  0.423579  0.728849  0.423787  1
  Fe  Fe18  1  0.423596  0.423856  0.728756  1
  Fe  Fe19  1  0.423596  0.423856  0.423792  1
  Fe  Fe20  1  0.520725  0.826380  0.826448  1
  Fe  Fe21  1  0.826421  0.521151  0.826213  1
  Fe  Fe22  1  0.826404  0.826144  0.521244  1
  Fe  Fe23  1  0.826404  0.826144  0.826208  1
  N  N24  1  0.625000  0.125000  0.125000  1
  N  N25  1  0.125000  0.625000  0.125000  1
  N  N26  1  0.125000  0.125000  0.625000  1
  N  N27  1  0.125000  0.125000  0.125000  1
