# generated using pymatgen
data_BaEu19Au16
_symmetry_space_group_name_H-M   'P 1'
_cell_length_a   8.15830997
_cell_length_b   8.28306510
_cell_length_c   15.88332300
_cell_angle_alpha   89.92059029
_cell_angle_beta   89.61731409
_cell_angle_gamma   90.10904983
_symmetry_Int_Tables_number   1
_chemical_formula_structural   BaEu19Au16
_chemical_formula_sum   'Ba1 Eu19 Au16'
_cell_volume   1073.30152461
_cell_formula_units_Z   1
loop_
 _symmetry_equiv_pos_site_id
 _symmetry_equiv_pos_as_xyz
  1  'x, y, z'
loop_
 _atom_site_type_symbol
 _atom_site_label
 _atom_site_symmetry_multiplicity
 _atom_site_fract_x
 _atom_site_fract_y
 _atom_site_fract_z
 _atom_site_occupancy
  Ba  Ba0  1  0.012935  0.175179  0.407119  1
  Eu  Eu1  1  0.856919  0.664519  0.378649  1
  Eu  Eu2  1  0.520736  0.324034  0.096990  1
  Eu  Eu3  1  0.146872  0.338692  0.623624  1
  Eu  Eu4  1  0.357655  0.835624  0.376761  1
  Eu  Eu5  1  0.137923  0.335855  0.879865  1
  Eu  Eu6  1  0.362160  0.836754  0.119062  1
  Eu  Eu7  1  0.196646  0.493598  0.248360  1
  Eu  Eu8  1  0.514969  0.326391  0.401730  1
  Eu  Eu9  1  0.804902  0.506343  0.750274  1
  Eu  Eu10  1  0.979659  0.825439  0.901159  1
  Eu  Eu11  1  0.983349  0.819773  0.600806  1
  Eu  Eu12  1  0.484809  0.676889  0.598229  1
  Eu  Eu13  1  0.642278  0.166003  0.622214  1
  Eu  Eu14  1  0.304013  0.992998  0.750616  1
  Eu  Eu15  1  0.640361  0.162937  0.878980  1
  Eu  Eu16  1  0.695263  0.006271  0.248266  1
  Eu  Eu17  1  0.860895  0.663287  0.118333  1
  Eu  Eu18  1  0.478261  0.674756  0.900508  1
  Eu  Eu19  1  0.021401  0.175129  0.097805  1
  Au  Au20  1  0.818738  0.366894  0.244998  1
  Au  Au21  1  0.438186  0.382310  0.751248  1
  Au  Au22  1  0.677861  0.863601  0.749990  1
  Au  Au23  1  0.806818  0.474644  0.546281  1
  Au  Au24  1  0.699165  0.974079  0.044356  1
  Au  Au25  1  0.801798  0.472174  0.954154  1
  Au  Au26  1  0.196670  0.539627  0.458990  1
  Au  Au27  1  0.198113  0.526773  0.044616  1
  Au  Au28  1  0.176620  0.636432  0.751513  1
  Au  Au29  1  0.327347  0.136367  0.246374  1
  Au  Au30  1  0.562666  0.620600  0.248884  1
  Au  Au31  1  0.063145  0.877218  0.245928  1
  Au  Au32  1  0.302501  0.027853  0.954387  1
  Au  Au33  1  0.938454  0.119308  0.750008  1
  Au  Au34  1  0.677252  0.959369  0.460688  1
  Au  Au35  1  0.312659  0.022281  0.548237  1
