# generated using pymatgen
data_Y10InFeHg2
_symmetry_space_group_name_H-M   'P 1'
_cell_length_a   9.67162166
_cell_length_b   9.73328282
_cell_length_c   9.65592400
_cell_angle_alpha   90.00000000
_cell_angle_beta   90.00000000
_cell_angle_gamma   120.21111443
_symmetry_Int_Tables_number   1
_chemical_formula_structural   Y10InFeHg2
_chemical_formula_sum   'Y20 In2 Fe2 Hg4'
_cell_volume   785.51645849
_cell_formula_units_Z   2
loop_
 _symmetry_equiv_pos_site_id
 _symmetry_equiv_pos_as_xyz
  1  'x, y, z'
loop_
 _atom_site_type_symbol
 _atom_site_label
 _atom_site_symmetry_multiplicity
 _atom_site_fract_x
 _atom_site_fract_y
 _atom_site_fract_z
 _atom_site_occupancy
  Y  Y0  1  0.007113  0.003557  0.510738  1
  Y  Y1  1  0.007113  0.003557  0.989262  1
  Y  Y2  1  0.533917  0.453525  0.250000  1
  Y  Y3  1  0.533917  0.080393  0.250000  1
  Y  Y4  1  0.915424  0.457712  0.250000  1
  Y  Y5  1  0.458771  0.542809  0.750000  1
  Y  Y6  1  0.458771  0.915962  0.750000  1
  Y  Y7  1  0.081542  0.540771  0.750000  1
  Y  Y8  1  0.209729  0.786843  0.435536  1
  Y  Y9  1  0.209729  0.422886  0.435536  1
  Y  Y10  1  0.578531  0.789266  0.434330  1
  Y  Y11  1  0.788113  0.211039  0.563666  1
  Y  Y12  1  0.788113  0.577073  0.563666  1
  Y  Y13  1  0.424147  0.212073  0.566337  1
  Y  Y14  1  0.788113  0.211039  0.936334  1
  Y  Y15  1  0.788113  0.577073  0.936334  1
  Y  Y16  1  0.424147  0.212073  0.933663  1
  Y  Y17  1  0.209729  0.786843  0.064464  1
  Y  Y18  1  0.209729  0.422886  0.064464  1
  Y  Y19  1  0.578531  0.789266  0.065670  1
  In  In20  1  0.885435  0.115090  0.250000  1
  In  In21  1  0.885435  0.770345  0.250000  1
  Fe  Fe22  1  0.331709  0.665855  0.250000  1
  Fe  Fe23  1  0.668795  0.334397  0.750000  1
  Hg  Hg24  1  0.231842  0.115921  0.250000  1
  Hg  Hg25  1  0.121296  0.878369  0.750000  1
  Hg  Hg26  1  0.121296  0.242926  0.750000  1
  Hg  Hg27  1  0.760902  0.880451  0.750000  1
