# generated using pymatgen
data_LuH5Ru
_symmetry_space_group_name_H-M   'P 1'
_cell_length_a   4.31216400
_cell_length_b   4.64073300
_cell_length_c   11.40587700
_cell_angle_alpha   90.00000000
_cell_angle_beta   90.00000000
_cell_angle_gamma   90.00000000
_symmetry_Int_Tables_number   1
_chemical_formula_structural   LuH5Ru
_chemical_formula_sum   'Lu4 H20 Ru4'
_cell_volume   228.24986843
_cell_formula_units_Z   4
loop_
 _symmetry_equiv_pos_site_id
 _symmetry_equiv_pos_as_xyz
  1  'x, y, z'
loop_
 _atom_site_type_symbol
 _atom_site_label
 _atom_site_symmetry_multiplicity
 _atom_site_fract_x
 _atom_site_fract_y
 _atom_site_fract_z
 _atom_site_occupancy
  Lu  Lu0  1  0.278576  0.154585  0.650059  1
  Lu  Lu1  1  0.778576  0.345415  0.349941  1
  Lu  Lu2  1  0.221424  0.845415  0.150059  1
  Lu  Lu3  1  0.721424  0.654585  0.849941  1
  H  H4  1  0.538104  0.377535  0.515107  1
  H  H5  1  0.038104  0.122465  0.484893  1
  H  H6  1  0.961896  0.622465  0.015107  1
  H  H7  1  0.461896  0.877535  0.984893  1
  H  H8  1  0.138660  0.923392  0.816331  1
  H  H9  1  0.638660  0.576608  0.183669  1
  H  H10  1  0.361340  0.076608  0.316331  1
  H  H11  1  0.861340  0.423392  0.683669  1
  H  H12  1  0.192027  0.439983  0.826240  1
  H  H13  1  0.692027  0.060017  0.173760  1
  H  H14  1  0.307973  0.560017  0.326240  1
  H  H15  1  0.807973  0.939983  0.673760  1
  H  H16  1  0.621733  0.148629  0.821349  1
  H  H17  1  0.121733  0.351371  0.178651  1
  H  H18  1  0.878267  0.851371  0.321349  1
  H  H19  1  0.378267  0.648629  0.678651  1
  H  H20  1  0.979673  0.079894  0.999816  1
  H  H21  1  0.479673  0.420106  0.000184  1
  H  H22  1  0.520327  0.920106  0.499816  1
  H  H23  1  0.020327  0.579894  0.500184  1
  Ru  Ru24  1  0.314776  0.153016  0.908499  1
  Ru  Ru25  1  0.814776  0.346984  0.091501  1
  Ru  Ru26  1  0.185224  0.846984  0.408499  1
  Ru  Ru27  1  0.685224  0.653016  0.591501  1
