# generated using pymatgen
data_Tb4SmDyRh18
_symmetry_space_group_name_H-M   'P 1'
_cell_length_a   5.28328500
_cell_length_b   5.28328609
_cell_length_c   17.53615400
_cell_angle_alpha   90.00000000
_cell_angle_beta   90.00000000
_cell_angle_gamma   119.99999941
_symmetry_Int_Tables_number   1
_chemical_formula_structural   Tb4SmDyRh18
_chemical_formula_sum   'Tb4 Sm1 Dy1 Rh18'
_cell_volume   423.90950300
_cell_formula_units_Z   1
loop_
 _symmetry_equiv_pos_site_id
 _symmetry_equiv_pos_as_xyz
  1  'x, y, z'
loop_
 _atom_site_type_symbol
 _atom_site_label
 _atom_site_symmetry_multiplicity
 _atom_site_fract_x
 _atom_site_fract_y
 _atom_site_fract_z
 _atom_site_occupancy
  Tb  Tb0  1  0.333333  0.666667  0.957776  1
  Tb  Tb1  1  0.666667  0.333333  0.041766  1
  Tb  Tb2  1  0.666667  0.333333  0.458344  1
  Tb  Tb3  1  0.333333  0.666667  0.749951  1
  Sm  Sm4  1  0.666667  0.333333  0.249984  1
  Dy  Dy5  1  0.333333  0.666667  0.542297  1
  Rh  Rh6  1  0.167335  0.832665  0.374436  1
  Rh  Rh7  1  0.167335  0.334668  0.374436  1
  Rh  Rh8  1  0.665332  0.832665  0.374436  1
  Rh  Rh9  1  0.832688  0.167312  0.625892  1
  Rh  Rh10  1  0.832688  0.665376  0.625892  1
  Rh  Rh11  1  0.334624  0.167312  0.625892  1
  Rh  Rh12  1  0.832701  0.167299  0.873990  1
  Rh  Rh13  1  0.832701  0.665401  0.873990  1
  Rh  Rh14  1  0.334599  0.167299  0.873990  1
  Rh  Rh15  1  0.167325  0.832675  0.125624  1
  Rh  Rh16  1  0.167325  0.334650  0.125624  1
  Rh  Rh17  1  0.665350  0.832675  0.125624  1
  Rh  Rh18  1  0.333333  0.666667  0.250013  1
  Rh  Rh19  1  0.666667  0.333333  0.749961  1
  Rh  Rh20  1  0.000000  0.000000  0.250064  1
  Rh  Rh21  1  0.000000  0.000000  0.749943  1
  Rh  Rh22  1  0.000000  0.000000  0.500215  1
  Rh  Rh23  1  0.000000  0.000000  0.999857  1
