# generated using pymatgen
data_Ca3Ga2(SbP)2
_symmetry_space_group_name_H-M   'P 1'
_cell_length_a   8.48382075
_cell_length_b   8.48382009
_cell_length_c   6.74344861
_cell_angle_alpha   89.87623134
_cell_angle_beta   89.87622877
_cell_angle_gamma   75.59442148
_symmetry_Int_Tables_number   1
_chemical_formula_structural   Ca3Ga2(SbP)2
_chemical_formula_sum   'Ca6 Ga4 Sb4 P4'
_cell_volume   470.09909924
_cell_formula_units_Z   2
loop_
 _symmetry_equiv_pos_site_id
 _symmetry_equiv_pos_as_xyz
  1  'x, y, z'
loop_
 _atom_site_type_symbol
 _atom_site_label
 _atom_site_symmetry_multiplicity
 _atom_site_fract_x
 _atom_site_fract_y
 _atom_site_fract_z
 _atom_site_occupancy
  Ca  Ca0  1  0.999447  0.268495  0.014600  1
  Ca  Ca1  1  0.731505  0.000553  0.485400  1
  Ca  Ca2  1  0.000553  0.731505  0.985400  1
  Ca  Ca3  1  0.268495  0.999447  0.514600  1
  Ca  Ca4  1  0.586208  0.413792  0.750000  1
  Ca  Ca5  1  0.413792  0.586208  0.250000  1
  Ga  Ga6  1  0.194333  0.408327  0.605791  1
  Ga  Ga7  1  0.591673  0.805667  0.894209  1
  Ga  Ga8  1  0.805667  0.591673  0.394209  1
  Ga  Ga9  1  0.408327  0.194333  0.105791  1
  Sb  Sb10  1  0.936695  0.280795  0.513356  1
  Sb  Sb11  1  0.719205  0.063305  0.986644  1
  Sb  Sb12  1  0.063305  0.719205  0.486644  1
  Sb  Sb13  1  0.280795  0.936695  0.013356  1
  P  P14  1  0.261895  0.438811  0.945030  1
  P  P15  1  0.561189  0.738105  0.554970  1
  P  P16  1  0.738105  0.561189  0.054970  1
  P  P17  1  0.438811  0.261895  0.445030  1
