# generated using pymatgen
data_LuCoBr
_symmetry_space_group_name_H-M   'P 1'
_cell_length_a   3.85575700
_cell_length_b   3.85575681
_cell_length_c   11.19559700
_cell_angle_alpha   90.00000000
_cell_angle_beta   90.00000000
_cell_angle_gamma   120.00001024
_symmetry_Int_Tables_number   1
_chemical_formula_structural   LuCoBr
_chemical_formula_sum   'Lu2 Co2 Br2'
_cell_volume   144.14418717
_cell_formula_units_Z   2
loop_
 _symmetry_equiv_pos_site_id
 _symmetry_equiv_pos_as_xyz
  1  'x, y, z'
loop_
 _atom_site_type_symbol
 _atom_site_label
 _atom_site_symmetry_multiplicity
 _atom_site_fract_x
 _atom_site_fract_y
 _atom_site_fract_z
 _atom_site_occupancy
  Lu  Lu0  1  0.000000  0.000000  0.160673  1
  Lu  Lu1  1  0.000000  0.000000  0.839327  1
  Co  Co2  1  0.666667  0.333334  0.005232  1
  Co  Co3  1  0.333334  0.666667  0.994768  1
  Br  Br4  1  0.333334  0.666667  0.329436  1
  Br  Br5  1  0.666667  0.333334  0.670564  1
