# generated using pymatgen
data_Mg12AlSi3Pd8
_symmetry_space_group_name_H-M   'P 1'
_cell_length_a   8.37689814
_cell_length_b   8.37689938
_cell_length_c   8.37689832
_cell_angle_alpha   59.93035461
_cell_angle_beta   59.93035048
_cell_angle_gamma   59.93034818
_symmetry_Int_Tables_number   1
_chemical_formula_structural   Mg12AlSi3Pd8
_chemical_formula_sum   'Mg12 Al1 Si3 Pd8'
_cell_volume   415.00003830
_cell_formula_units_Z   1
loop_
 _symmetry_equiv_pos_site_id
 _symmetry_equiv_pos_as_xyz
  1  'x, y, z'
loop_
 _atom_site_type_symbol
 _atom_site_label
 _atom_site_symmetry_multiplicity
 _atom_site_fract_x
 _atom_site_fract_y
 _atom_site_fract_z
 _atom_site_occupancy
  Mg  Mg0  1  0.195065  0.805373  0.195065  1
  Mg  Mg1  1  0.195065  0.195065  0.805373  1
  Mg  Mg2  1  0.194354  0.804995  0.804995  1
  Mg  Mg3  1  0.054935  0.444627  0.054935  1
  Mg  Mg4  1  0.805373  0.195065  0.195065  1
  Mg  Mg5  1  0.055646  0.445005  0.445005  1
  Mg  Mg6  1  0.445005  0.055646  0.445005  1
  Mg  Mg7  1  0.445005  0.445005  0.055646  1
  Mg  Mg8  1  0.804995  0.804995  0.194354  1
  Mg  Mg9  1  0.444627  0.054935  0.054935  1
  Mg  Mg10  1  0.804995  0.194354  0.804995  1
  Mg  Mg11  1  0.054935  0.054935  0.444627  1
  Al  Al12  1  0.625000  0.625000  0.625000  1
  Si  Si13  1  0.125000  0.625000  0.625000  1
  Si  Si14  1  0.625000  0.625000  0.125000  1
  Si  Si15  1  0.625000  0.125000  0.625000  1
  Pd  Pd16  1  0.839969  0.486374  0.839969  1
  Pd  Pd17  1  0.837230  0.837230  0.837230  1
  Pd  Pd18  1  0.486374  0.839969  0.839969  1
  Pd  Pd19  1  0.410031  0.763626  0.410031  1
  Pd  Pd20  1  0.839969  0.839969  0.486374  1
  Pd  Pd21  1  0.763626  0.410031  0.410031  1
  Pd  Pd22  1  0.412770  0.412770  0.412770  1
  Pd  Pd23  1  0.410031  0.410031  0.763626  1
