# generated using pymatgen
data_LiPr6Al17(Re3Os4)2
_symmetry_space_group_name_H-M   'P 1'
_cell_length_a   8.91612700
_cell_length_b   8.91612633
_cell_length_c   9.72655600
_cell_angle_alpha   90.00000000
_cell_angle_beta   90.00000000
_cell_angle_gamma   119.99999878
_symmetry_Int_Tables_number   1
_chemical_formula_structural   LiPr6Al17(Re3Os4)2
_chemical_formula_sum   'Li1 Pr6 Al17 Re6 Os8'
_cell_volume   669.64123350
_cell_formula_units_Z   1
loop_
 _symmetry_equiv_pos_site_id
 _symmetry_equiv_pos_as_xyz
  1  'x, y, z'
loop_
 _atom_site_type_symbol
 _atom_site_label
 _atom_site_symmetry_multiplicity
 _atom_site_fract_x
 _atom_site_fract_y
 _atom_site_fract_z
 _atom_site_occupancy
  Li  Li0  1  0.000000  0.000000  0.250000  1
  Pr  Pr1  1  0.188889  0.377779  0.250000  1
  Pr  Pr2  1  0.805095  0.610190  0.750000  1
  Pr  Pr3  1  0.622221  0.811111  0.250000  1
  Pr  Pr4  1  0.389810  0.194905  0.750000  1
  Pr  Pr5  1  0.188889  0.811111  0.250000  1
  Pr  Pr6  1  0.805095  0.194905  0.750000  1
  Al  Al7  1  0.333333  0.666667  0.001743  1
  Al  Al8  1  0.666667  0.333333  0.997323  1
  Al  Al9  1  0.666667  0.333333  0.502677  1
  Al  Al10  1  0.333333  0.666667  0.498257  1
  Al  Al11  1  0.164592  0.329181  0.576818  1
  Al  Al12  1  0.836505  0.673012  0.423478  1
  Al  Al13  1  0.670819  0.835408  0.576818  1
  Al  Al14  1  0.836505  0.673012  0.076522  1
  Al  Al15  1  0.326988  0.163495  0.423478  1
  Al  Al16  1  0.164592  0.329181  0.923182  1
  Al  Al17  1  0.164592  0.835408  0.576818  1
  Al  Al18  1  0.326988  0.163495  0.076522  1
  Al  Al19  1  0.836505  0.163495  0.423478  1
  Al  Al20  1  0.670819  0.835408  0.923182  1
  Al  Al21  1  0.836505  0.163495  0.076522  1
  Al  Al22  1  0.164592  0.835408  0.923182  1
  Al  Al23  1  0.000000  0.000000  0.750000  1
  Re  Re24  1  0.571946  0.143893  0.250000  1
  Re  Re25  1  0.428169  0.856339  0.750000  1
  Re  Re26  1  0.856107  0.428054  0.250000  1
  Re  Re27  1  0.143661  0.571831  0.750000  1
  Re  Re28  1  0.571946  0.428054  0.250000  1
  Re  Re29  1  0.428169  0.571831  0.750000  1
  Os  Os30  1  0.499563  0.999126  0.000930  1
  Os  Os31  1  0.000874  0.500437  0.000930  1
  Os  Os32  1  0.499563  0.999126  0.499070  1
  Os  Os33  1  0.499563  0.500437  0.000930  1
  Os  Os34  1  0.000874  0.500437  0.499070  1
  Os  Os35  1  0.499563  0.500437  0.499070  1
  Os  Os36  1  0.000000  0.000000  0.995275  1
  Os  Os37  1  0.000000  0.000000  0.504725  1
