# generated using pymatgen
data_Dy15Ho2Er3Pb16
_symmetry_space_group_name_H-M   'P 1'
_cell_length_a   8.19436601
_cell_length_b   8.27501853
_cell_length_c   15.63519301
_cell_angle_alpha   90.00302291
_cell_angle_beta   89.99977811
_cell_angle_gamma   90.02339029
_symmetry_Int_Tables_number   1
_chemical_formula_structural   Dy15Ho2Er3Pb16
_chemical_formula_sum   'Dy15 Ho2 Er3 Pb16'
_cell_volume   1060.19937308
_cell_formula_units_Z   1
loop_
 _symmetry_equiv_pos_site_id
 _symmetry_equiv_pos_as_xyz
  1  'x, y, z'
loop_
 _atom_site_type_symbol
 _atom_site_label
 _atom_site_symmetry_multiplicity
 _atom_site_fract_x
 _atom_site_fract_y
 _atom_site_fract_z
 _atom_site_occupancy
  Dy  Dy0  1  0.877316  0.659374  0.620527  1
  Dy  Dy1  1  0.622534  0.159255  0.379435  1
  Dy  Dy2  1  0.122517  0.340733  0.120609  1
  Dy  Dy3  1  0.622545  0.159289  0.120576  1
  Dy  Dy4  1  0.122503  0.340720  0.379367  1
  Dy  Dy5  1  0.377573  0.840768  0.620549  1
  Dy  Dy6  1  0.877342  0.659358  0.879487  1
  Dy  Dy7  1  0.534821  0.323220  0.899978  1
  Dy  Dy8  1  0.034700  0.176553  0.600039  1
  Dy  Dy9  1  0.465231  0.676684  0.399909  1
  Dy  Dy10  1  0.965224  0.823308  0.100039  1
  Dy  Dy11  1  0.465203  0.676701  0.100036  1
  Dy  Dy12  1  0.965236  0.823338  0.399960  1
  Dy  Dy13  1  0.534819  0.323254  0.600033  1
  Dy  Dy14  1  0.034724  0.176532  0.899953  1
  Ho  Ho15  1  0.377535  0.840799  0.879430  1
  Ho  Ho16  1  0.208877  0.503816  0.750029  1
  Er  Er17  1  0.708849  0.996069  0.750017  1
  Er  Er18  1  0.791121  0.496099  0.250044  1
  Er  Er19  1  0.291156  0.003809  0.250042  1
  Pb  Pb20  1  0.280990  0.032868  0.042817  1
  Pb  Pb21  1  0.780956  0.467092  0.457067  1
  Pb  Pb22  1  0.719030  0.967042  0.542871  1
  Pb  Pb23  1  0.219156  0.533246  0.957344  1
  Pb  Pb24  1  0.718870  0.967004  0.957096  1
  Pb  Pb25  1  0.219046  0.533073  0.542626  1
  Pb  Pb26  1  0.280945  0.032974  0.457076  1
  Pb  Pb27  1  0.780950  0.467088  0.042923  1
  Pb  Pb28  1  0.572796  0.626600  0.750053  1
  Pb  Pb29  1  0.072388  0.874045  0.750041  1
  Pb  Pb30  1  0.427622  0.373755  0.249997  1
  Pb  Pb31  1  0.927630  0.126224  0.249996  1
  Pb  Pb32  1  0.346715  0.152339  0.750036  1
  Pb  Pb33  1  0.846227  0.346812  0.750001  1
  Pb  Pb34  1  0.653461  0.846949  0.249997  1
  Pb  Pb35  1  0.153387  0.653212  0.250000  1
