# generated using pymatgen
data_NaCa21(Ga4Pb3)2
_symmetry_space_group_name_H-M   'P 1'
_cell_length_a   11.49071826
_cell_length_b   11.49071869
_cell_length_c   11.49071900
_cell_angle_alpha   60.00000198
_cell_angle_beta   60.00000076
_cell_angle_gamma   60.00000505
_symmetry_Int_Tables_number   1
_chemical_formula_structural   NaCa21(Ga4Pb3)2
_chemical_formula_sum   'Na1 Ca21 Ga8 Pb6'
_cell_volume   1072.81935709
_cell_formula_units_Z   1
loop_
 _symmetry_equiv_pos_site_id
 _symmetry_equiv_pos_as_xyz
  1  'x, y, z'
loop_
 _atom_site_type_symbol
 _atom_site_label
 _atom_site_symmetry_multiplicity
 _atom_site_fract_x
 _atom_site_fract_y
 _atom_site_fract_z
 _atom_site_occupancy
  Na  Na0  1  0.500000  0.500000  0.500000  1
  Ca  Ca1  1  0.000000  0.000000  0.000000  1
  Ca  Ca2  1  0.130764  0.130764  0.130764  1
  Ca  Ca3  1  0.392292  0.869236  0.869236  1
  Ca  Ca4  1  0.869236  0.392292  0.869236  1
  Ca  Ca5  1  0.869236  0.869236  0.392292  1
  Ca  Ca6  1  0.130764  0.607708  0.130764  1
  Ca  Ca7  1  0.130764  0.130764  0.607708  1
  Ca  Ca8  1  0.607708  0.130764  0.130764  1
  Ca  Ca9  1  0.869236  0.869236  0.869236  1
  Ca  Ca10  1  0.500000  0.832142  0.500000  1
  Ca  Ca11  1  0.832142  0.500000  0.500000  1
  Ca  Ca12  1  0.500000  0.832142  0.167858  1
  Ca  Ca13  1  0.167858  0.500000  0.832142  1
  Ca  Ca14  1  0.832142  0.500000  0.167858  1
  Ca  Ca15  1  0.500000  0.500000  0.832142  1
  Ca  Ca16  1  0.167858  0.832142  0.500000  1
  Ca  Ca17  1  0.500000  0.167858  0.832142  1
  Ca  Ca18  1  0.500000  0.500000  0.167858  1
  Ca  Ca19  1  0.832142  0.167858  0.500000  1
  Ca  Ca20  1  0.167858  0.500000  0.500000  1
  Ca  Ca21  1  0.500000  0.167858  0.500000  1
  Ga  Ga22  1  0.308974  0.308973  0.308973  1
  Ga  Ga23  1  0.926920  0.691027  0.691027  1
  Ga  Ga24  1  0.691027  0.926920  0.691027  1
  Ga  Ga25  1  0.691027  0.691027  0.926920  1
  Ga  Ga26  1  0.308973  0.073080  0.308973  1
  Ga  Ga27  1  0.308973  0.308973  0.073080  1
  Ga  Ga28  1  0.073080  0.308973  0.308973  1
  Ga  Ga29  1  0.691027  0.691027  0.691026  1
  Pb  Pb30  1  0.216300  0.783700  0.216300  1
  Pb  Pb31  1  0.216300  0.783700  0.783700  1
  Pb  Pb32  1  0.783700  0.216300  0.216300  1
  Pb  Pb33  1  0.783700  0.783700  0.216300  1
  Pb  Pb34  1  0.216300  0.216300  0.783700  1
  Pb  Pb35  1  0.783700  0.216300  0.783700  1
