# generated using pymatgen
data_Sn8B6Ir13Ru
_symmetry_space_group_name_H-M   'P 1'
_cell_length_a   9.35812500
_cell_length_b   9.35812527
_cell_length_c   5.71579200
_cell_angle_alpha   90.00000000
_cell_angle_beta   90.00000000
_cell_angle_gamma   120.00000260
_symmetry_Int_Tables_number   1
_chemical_formula_structural   Sn8B6Ir13Ru
_chemical_formula_sum   'Sn8 B6 Ir13 Ru1'
_cell_volume   433.49563899
_cell_formula_units_Z   1
loop_
 _symmetry_equiv_pos_site_id
 _symmetry_equiv_pos_as_xyz
  1  'x, y, z'
loop_
 _atom_site_type_symbol
 _atom_site_label
 _atom_site_symmetry_multiplicity
 _atom_site_fract_x
 _atom_site_fract_y
 _atom_site_fract_z
 _atom_site_occupancy
  Sn  Sn0  1  0.502397  0.091251  0.749169  1
  Sn  Sn1  1  0.091251  0.588853  0.250831  1
  Sn  Sn2  1  0.908749  0.411147  0.749169  1
  Sn  Sn3  1  0.588853  0.497603  0.749169  1
  Sn  Sn4  1  0.497603  0.908749  0.250831  1
  Sn  Sn5  1  0.333333  0.666667  0.749348  1
  Sn  Sn6  1  0.411147  0.502397  0.250831  1
  Sn  Sn7  1  0.666667  0.333333  0.250652  1
  B  B8  1  0.830123  0.793664  0.250452  1
  B  B9  1  0.963541  0.169877  0.250452  1
  B  B10  1  0.206336  0.036459  0.250452  1
  B  B11  1  0.793664  0.963541  0.749548  1
  B  B12  1  0.036459  0.830123  0.749548  1
  B  B13  1  0.169877  0.206336  0.749548  1
  Ir  Ir14  1  0.124025  0.354097  0.998892  1
  Ir  Ir15  1  0.770889  0.123324  0.499139  1
  Ir  Ir16  1  0.769930  0.124025  0.001108  1
  Ir  Ir17  1  0.647564  0.770889  0.500861  1
  Ir  Ir18  1  0.123324  0.352436  0.500861  1
  Ir  Ir19  1  0.875975  0.645903  0.001108  1
  Ir  Ir20  1  0.354097  0.230070  0.001108  1
  Ir  Ir21  1  0.229111  0.876676  0.500861  1
  Ir  Ir22  1  0.876676  0.647564  0.499139  1
  Ir  Ir23  1  0.352436  0.229111  0.499139  1
  Ir  Ir24  1  0.230070  0.875975  0.998892  1
  Ir  Ir25  1  0.000000  0.000000  0.000000  1
  Ir  Ir26  1  0.645903  0.769930  0.998892  1
  Ru  Ru27  1  0.000000  0.000000  0.500000  1
