# generated using pymatgen
data_Ca4Al6IrPd
_symmetry_space_group_name_H-M   'P 1'
_cell_length_a   5.60641300
_cell_length_b   5.60641268
_cell_length_c   8.80758500
_cell_angle_alpha   90.00000000
_cell_angle_beta   90.00000000
_cell_angle_gamma   119.99999599
_symmetry_Int_Tables_number   1
_chemical_formula_structural   Ca4Al6IrPd
_chemical_formula_sum   'Ca4 Al6 Ir1 Pd1'
_cell_volume   239.74946232
_cell_formula_units_Z   1
loop_
 _symmetry_equiv_pos_site_id
 _symmetry_equiv_pos_as_xyz
  1  'x, y, z'
loop_
 _atom_site_type_symbol
 _atom_site_label
 _atom_site_symmetry_multiplicity
 _atom_site_fract_x
 _atom_site_fract_y
 _atom_site_fract_z
 _atom_site_occupancy
  Ca  Ca0  1  0.666668  0.333333  0.052718  1
  Ca  Ca1  1  0.666668  0.333333  0.441696  1
  Ca  Ca2  1  0.333333  0.666667  0.558305  1
  Ca  Ca3  1  0.333333  0.666667  0.947283  1
  Al  Al4  1  0.162186  0.324371  0.254723  1
  Al  Al5  1  0.162186  0.837813  0.254723  1
  Al  Al6  1  0.675628  0.837813  0.254723  1
  Al  Al7  1  0.324370  0.162185  0.745277  1
  Al  Al8  1  0.837814  0.162185  0.745277  1
  Al  Al9  1  0.837815  0.675629  0.745277  1
  Ir  Ir10  1  0.000000  0.000000  0.500000  1
  Pd  Pd11  1  0.000000  0.000000  0.000000  1
