# generated using pymatgen
data_Tc2Ag6MoF18
_symmetry_space_group_name_H-M   'P 1'
_cell_length_a   9.98363600
_cell_length_b   9.98363652
_cell_length_c   5.36844800
_cell_angle_alpha   90.00000000
_cell_angle_beta   90.00000000
_cell_angle_gamma   119.99999827
_symmetry_Int_Tables_number   1
_chemical_formula_structural   Tc2Ag6MoF18
_chemical_formula_sum   'Tc2 Ag6 Mo1 F18'
_cell_volume   463.40091770
_cell_formula_units_Z   1
loop_
 _symmetry_equiv_pos_site_id
 _symmetry_equiv_pos_as_xyz
  1  'x, y, z'
loop_
 _atom_site_type_symbol
 _atom_site_label
 _atom_site_symmetry_multiplicity
 _atom_site_fract_x
 _atom_site_fract_y
 _atom_site_fract_z
 _atom_site_occupancy
  Tc  Tc0  1  0.000000  0.999995  0.500141  1
  Tc  Tc1  1  0.333330  0.666670  0.002300  1
  Ag  Ag2  1  0.002897  0.629001  0.499911  1
  Ag  Ag3  1  0.626102  0.997101  0.499916  1
  Ag  Ag4  1  0.370995  0.373895  0.499914  1
  Ag  Ag5  1  0.290918  0.998879  0.999819  1
  Ag  Ag6  1  0.707965  0.709086  0.999821  1
  Ag  Ag7  1  0.001123  0.292037  0.999811  1
  Mo  Mo8  1  0.666667  0.333333  0.998018  1
  F  F9  1  0.086350  0.896928  0.296225  1
  F  F10  1  0.810577  0.913645  0.296229  1
  F  F11  1  0.103074  0.189421  0.296231  1
  F  F12  1  0.913430  0.810435  0.703993  1
  F  F13  1  0.897003  0.086571  0.704000  1
  F  F14  1  0.189567  0.102992  0.704002  1
  F  F15  1  0.225438  0.746380  0.794391  1
  F  F16  1  0.520944  0.774560  0.794387  1
  F  F17  1  0.253621  0.479059  0.794380  1
  F  F18  1  0.775827  0.522086  0.214098  1
  F  F19  1  0.746254  0.224180  0.214080  1
  F  F20  1  0.477912  0.253741  0.214097  1
  F  F21  1  0.407974  0.853770  0.210730  1
  F  F22  1  0.445799  0.592029  0.210723  1
  F  F23  1  0.146232  0.554214  0.210726  1
  F  F24  1  0.591478  0.446098  0.780699  1
  F  F25  1  0.854630  0.408527  0.780678  1
  F  F26  1  0.553896  0.145366  0.780680  1
