# generated using pymatgen
data_Zr10Al2InSb3
_symmetry_space_group_name_H-M   'P 1'
_cell_length_a   5.54638913
_cell_length_b   8.40517182
_cell_length_c   8.41559339
_cell_angle_alpha   83.75818059
_cell_angle_beta   70.75971559
_cell_angle_gamma   70.73492394
_symmetry_Int_Tables_number   1
_chemical_formula_structural   Zr10Al2InSb3
_chemical_formula_sum   'Zr10 Al2 In1 Sb3'
_cell_volume   349.66596036
_cell_formula_units_Z   1
loop_
 _symmetry_equiv_pos_site_id
 _symmetry_equiv_pos_as_xyz
  1  'x, y, z'
loop_
 _atom_site_type_symbol
 _atom_site_label
 _atom_site_symmetry_multiplicity
 _atom_site_fract_x
 _atom_site_fract_y
 _atom_site_fract_z
 _atom_site_occupancy
  Zr  Zr0  1  0.248293  0.500000  0.500616  1
  Zr  Zr1  1  0.751091  0.500000  0.500616  1
  Zr  Zr2  1  0.076882  0.137216  0.709020  1
  Zr  Zr3  1  0.922644  0.862886  0.291825  1
  Zr  Zr4  1  0.785761  0.290944  0.137535  1
  Zr  Zr5  1  0.423579  0.291495  0.861346  1
  Zr  Zr6  1  0.215074  0.708505  0.861346  1
  Zr  Zr7  1  0.576704  0.709056  0.137535  1
  Zr  Zr8  1  0.714098  0.862784  0.709020  1
  Zr  Zr9  1  0.285531  0.137114  0.291825  1
  Al  Al10  1  0.250112  0.000000  0.999776  1
  Al  Al11  1  0.750112  0.000000  0.999776  1
  In  In12  1  0.163896  0.500000  0.172207  1
  Sb  Sb13  1  0.836130  0.500000  0.827739  1
  Sb  Sb14  1  0.336449  0.827195  0.499908  1
  Sb  Sb15  1  0.663643  0.172805  0.499908  1
