# generated using pymatgen
data_Ti6ZnSN2
_symmetry_space_group_name_H-M   'P 1'
_cell_length_a   5.48715027
_cell_length_b   5.48715104
_cell_length_c   7.98074800
_cell_angle_alpha   90.00000000
_cell_angle_beta   90.00000000
_cell_angle_gamma   146.91177454
_symmetry_Int_Tables_number   1
_chemical_formula_structural   Ti6ZnSN2
_chemical_formula_sum   'Ti6 Zn1 S1 N2'
_cell_volume   131.18197436
_cell_formula_units_Z   1
loop_
 _symmetry_equiv_pos_site_id
 _symmetry_equiv_pos_as_xyz
  1  'x, y, z'
loop_
 _atom_site_type_symbol
 _atom_site_label
 _atom_site_symmetry_multiplicity
 _atom_site_fract_x
 _atom_site_fract_y
 _atom_site_fract_z
 _atom_site_occupancy
  Ti  Ti0  1  0.630311  0.369689  0.563723  1
  Ti  Ti1  1  0.375153  0.624847  0.041001  1
  Ti  Ti2  1  0.375153  0.624847  0.458999  1
  Ti  Ti3  1  0.630311  0.369689  0.936277  1
  Ti  Ti4  1  0.936314  0.063686  0.750000  1
  Ti  Ti5  1  0.044377  0.955623  0.250000  1
  Zn  Zn6  1  0.746808  0.253192  0.250000  1
  S  S7  1  0.257712  0.742288  0.750000  1
  N  N8  1  0.001931  0.998069  0.505429  1
  N  N9  1  0.001931  0.998069  0.994571  1
