# generated using pymatgen
data_UCd2Fe3O8
_symmetry_space_group_name_H-M   'P 1'
_cell_length_a   6.51982889
_cell_length_b   6.46212265
_cell_length_c   6.46021719
_cell_angle_alpha   120.23214532
_cell_angle_beta   119.83138227
_cell_angle_gamma   89.70731823
_symmetry_Int_Tables_number   1
_chemical_formula_structural   UCd2Fe3O8
_chemical_formula_sum   'U1 Cd2 Fe3 O8'
_cell_volume   192.76136455
_cell_formula_units_Z   1
loop_
 _symmetry_equiv_pos_site_id
 _symmetry_equiv_pos_as_xyz
  1  'x, y, z'
loop_
 _atom_site_type_symbol
 _atom_site_label
 _atom_site_symmetry_multiplicity
 _atom_site_fract_x
 _atom_site_fract_y
 _atom_site_fract_z
 _atom_site_occupancy
  U  U0  1  0.500000  0.500000  0.000000  1
  Cd  Cd1  1  0.414604  0.138885  0.275684  1
  Cd  Cd2  1  0.585400  0.861117  0.724317  1
  Fe  Fe3  1  0.999994  0.499999  0.499996  1
  Fe  Fe4  1  0.999994  0.999996  0.499999  1
  Fe  Fe5  1  0.999994  0.499991  0.999987  1
  O  O6  1  0.175754  0.724848  0.451057  1
  O  O7  1  0.259169  0.271111  0.988268  1
  O  O8  1  0.259021  0.718847  0.988966  1
  O  O9  1  0.258843  0.269934  0.539938  1
  O  O10  1  0.740982  0.281155  0.011037  1
  O  O11  1  0.741162  0.730069  0.460065  1
  O  O12  1  0.824251  0.275156  0.548949  1
  O  O13  1  0.740834  0.728893  0.011735  1
