# generated using pymatgen
data_DyHoTm3CoSb2
_symmetry_space_group_name_H-M   'P 1'
_cell_length_a   7.79932000
_cell_length_b   8.73644100
_cell_length_c   12.06944200
_cell_angle_alpha   90.00000000
_cell_angle_beta   90.00000000
_cell_angle_gamma   90.00000000
_symmetry_Int_Tables_number   1
_chemical_formula_structural   DyHoTm3CoSb2
_chemical_formula_sum   'Dy4 Ho4 Tm12 Co4 Sb8'
_cell_volume   822.39124800
_cell_formula_units_Z   4
loop_
 _symmetry_equiv_pos_site_id
 _symmetry_equiv_pos_as_xyz
  1  'x, y, z'
loop_
 _atom_site_type_symbol
 _atom_site_label
 _atom_site_symmetry_multiplicity
 _atom_site_fract_x
 _atom_site_fract_y
 _atom_site_fract_z
 _atom_site_occupancy
  Dy  Dy0  1  0.621738  0.750000  0.307345  1
  Dy  Dy1  1  0.878262  0.750000  0.807345  1
  Dy  Dy2  1  0.378262  0.250000  0.692655  1
  Dy  Dy3  1  0.121738  0.250000  0.192655  1
  Ho  Ho4  1  0.155228  0.750000  0.203529  1
  Ho  Ho5  1  0.344772  0.750000  0.703529  1
  Ho  Ho6  1  0.844772  0.250000  0.796471  1
  Ho  Ho7  1  0.655228  0.250000  0.296471  1
  Tm  Tm8  1  0.450653  0.750000  0.997960  1
  Tm  Tm9  1  0.049347  0.750000  0.497960  1
  Tm  Tm10  1  0.549347  0.250000  0.002040  1
  Tm  Tm11  1  0.950653  0.250000  0.502040  1
  Tm  Tm12  1  0.823111  0.536266  0.065075  1
  Tm  Tm13  1  0.676889  0.963734  0.565075  1
  Tm  Tm14  1  0.176889  0.036266  0.934925  1
  Tm  Tm15  1  0.323111  0.463734  0.434925  1
  Tm  Tm16  1  0.176889  0.463734  0.934925  1
  Tm  Tm17  1  0.323111  0.036266  0.434925  1
  Tm  Tm18  1  0.823111  0.963734  0.065075  1
  Tm  Tm19  1  0.676889  0.536266  0.565075  1
  Co  Co20  1  0.433184  0.750000  0.491112  1
  Co  Co21  1  0.066816  0.750000  0.991112  1
  Co  Co22  1  0.566816  0.250000  0.508888  1
  Co  Co23  1  0.933184  0.250000  0.008888  1
  Sb  Sb24  1  0.930052  0.508668  0.328510  1
  Sb  Sb25  1  0.569948  0.991332  0.828510  1
  Sb  Sb26  1  0.069948  0.008668  0.671490  1
  Sb  Sb27  1  0.430052  0.491332  0.171490  1
  Sb  Sb28  1  0.069948  0.491332  0.671490  1
  Sb  Sb29  1  0.430052  0.008668  0.171490  1
  Sb  Sb30  1  0.930052  0.991332  0.328510  1
  Sb  Sb31  1  0.569948  0.508668  0.828510  1
