# generated using pymatgen
data_Dy2Lu4Al24Ru5Pt3
_symmetry_space_group_name_H-M   'P 1'
_cell_length_a   8.80138470
_cell_length_b   8.77967379
_cell_length_c   9.50409108
_cell_angle_alpha   89.81269257
_cell_angle_beta   90.06471706
_cell_angle_gamma   119.60057116
_symmetry_Int_Tables_number   1
_chemical_formula_structural   Dy2Lu4Al24Ru5Pt3
_chemical_formula_sum   'Dy2 Lu4 Al24 Ru5 Pt3'
_cell_volume   638.56068984
_cell_formula_units_Z   1
loop_
 _symmetry_equiv_pos_site_id
 _symmetry_equiv_pos_as_xyz
  1  'x, y, z'
loop_
 _atom_site_type_symbol
 _atom_site_label
 _atom_site_symmetry_multiplicity
 _atom_site_fract_x
 _atom_site_fract_y
 _atom_site_fract_z
 _atom_site_occupancy
  Dy  Dy0  1  0.811263  0.614931  0.751584  1
  Dy  Dy1  1  0.383672  0.189612  0.749900  1
  Lu  Lu2  1  0.193798  0.803712  0.249069  1
  Lu  Lu3  1  0.189470  0.389448  0.248184  1
  Lu  Lu4  1  0.612107  0.809017  0.249510  1
  Lu  Lu5  1  0.806546  0.196022  0.751016  1
  Al  Al6  1  0.563853  0.436945  0.250267  1
  Al  Al7  1  0.561776  0.124814  0.246877  1
  Al  Al8  1  0.877875  0.440128  0.250143  1
  Al  Al9  1  0.435133  0.563710  0.749731  1
  Al  Al10  1  0.438731  0.874921  0.753720  1
  Al  Al11  1  0.122435  0.559375  0.749814  1
  Al  Al12  1  0.322673  0.162275  0.419892  1
  Al  Al13  1  0.842219  0.167559  0.419899  1
  Al  Al14  1  0.842363  0.675767  0.420889  1
  Al  Al15  1  0.676969  0.838047  0.577577  1
  Al  Al16  1  0.159023  0.831711  0.578075  1
  Al  Al17  1  0.157633  0.324812  0.576667  1
  Al  Al18  1  0.675235  0.842594  0.925262  1
  Al  Al19  1  0.164565  0.836165  0.923302  1
  Al  Al20  1  0.158119  0.325705  0.924383  1
  Al  Al21  1  0.324493  0.157356  0.077282  1
  Al  Al22  1  0.836234  0.162736  0.078998  1
  Al  Al23  1  0.841747  0.674516  0.078045  1
  Al  Al24  1  0.673059  0.335674  0.528823  1
  Al  Al25  1  0.327446  0.663779  0.468074  1
  Al  Al26  1  0.330753  0.669298  0.030520  1
  Al  Al27  1  0.669724  0.329995  0.972164  1
  Al  Al28  1  0.997211  0.000462  0.249810  1
  Al  Al29  1  0.001147  0.001145  0.750159  1
  Ru  Ru30  1  0.000407  0.999799  0.500058  1
  Ru  Ru31  1  0.000448  0.999845  0.999905  1
  Ru  Ru32  1  0.000573  0.499582  0.499125  1
  Ru  Ru33  1  0.500349  0.999043  0.001397  1
  Ru  Ru34  1  0.000828  0.499651  0.000729  1
  Pt  Pt35  1  0.500038  0.500599  0.498805  1
  Pt  Pt36  1  0.500610  0.999154  0.499032  1
  Pt  Pt37  1  0.499475  0.500095  0.001311  1
