# generated using pymatgen
data_NdErTlRuO7
_symmetry_space_group_name_H-M   'P 1'
_cell_length_a   6.37438008
_cell_length_b   6.62971921
_cell_length_c   7.59427000
_cell_angle_alpha   90.00000000
_cell_angle_beta   90.00000000
_cell_angle_gamma   110.92383683
_symmetry_Int_Tables_number   1
_chemical_formula_structural   NdErTlRuO7
_chemical_formula_sum   'Nd2 Er2 Tl2 Ru2 O14'
_cell_volume   299.77266508
_cell_formula_units_Z   2
loop_
 _symmetry_equiv_pos_site_id
 _symmetry_equiv_pos_as_xyz
  1  'x, y, z'
loop_
 _atom_site_type_symbol
 _atom_site_label
 _atom_site_symmetry_multiplicity
 _atom_site_fract_x
 _atom_site_fract_y
 _atom_site_fract_z
 _atom_site_occupancy
  Nd  Nd0  1  0.000000  0.000000  0.500000  1
  Nd  Nd1  1  0.000000  0.000000  0.000000  1
  Er  Er2  1  0.947817  0.489129  0.750000  1
  Er  Er3  1  0.052183  0.510871  0.250000  1
  Tl  Tl4  1  0.485868  0.980590  0.750000  1
  Tl  Tl5  1  0.514132  0.019410  0.250000  1
  Ru  Ru6  1  0.500000  0.500000  0.500000  1
  Ru  Ru7  1  0.500000  0.500000  0.000000  1
  O  O8  1  0.589939  0.504734  0.750000  1
  O  O9  1  0.410061  0.495266  0.250000  1
  O  O10  1  0.847350  0.131638  0.750000  1
  O  O11  1  0.152650  0.868362  0.250000  1
  O  O12  1  0.122467  0.847452  0.750000  1
  O  O13  1  0.877533  0.152548  0.250000  1
  O  O14  1  0.425834  0.183628  0.000659  1
  O  O15  1  0.574166  0.816372  0.500659  1
  O  O16  1  0.175501  0.432543  0.963226  1
  O  O17  1  0.824499  0.567457  0.463226  1
  O  O18  1  0.425834  0.183628  0.499341  1
  O  O19  1  0.574166  0.816372  0.999341  1
  O  O20  1  0.824499  0.567457  0.036774  1
  O  O21  1  0.175501  0.432543  0.536774  1
