# generated using pymatgen
data_Pr2Dy(ErRh6)3
_symmetry_space_group_name_H-M   'P 1'
_cell_length_a   5.25752800
_cell_length_b   5.25752767
_cell_length_c   17.55476700
_cell_angle_alpha   90.00000000
_cell_angle_beta   90.00000000
_cell_angle_gamma   119.99998952
_symmetry_Int_Tables_number   1
_chemical_formula_structural   Pr2Dy(ErRh6)3
_chemical_formula_sum   'Pr2 Dy1 Er3 Rh18'
_cell_volume   420.23179474
_cell_formula_units_Z   1
loop_
 _symmetry_equiv_pos_site_id
 _symmetry_equiv_pos_as_xyz
  1  'x, y, z'
loop_
 _atom_site_type_symbol
 _atom_site_label
 _atom_site_symmetry_multiplicity
 _atom_site_fract_x
 _atom_site_fract_y
 _atom_site_fract_z
 _atom_site_occupancy
  Pr  Pr0  1  0.333333  0.666667  0.749878  1
  Pr  Pr1  1  0.666667  0.333333  0.249994  1
  Dy  Dy2  1  0.333333  0.666667  0.958898  1
  Er  Er3  1  0.666667  0.333333  0.041772  1
  Er  Er4  1  0.666667  0.333333  0.458539  1
  Er  Er5  1  0.333333  0.666667  0.541349  1
  Rh  Rh6  1  0.167397  0.832603  0.375455  1
  Rh  Rh7  1  0.167397  0.334792  0.375455  1
  Rh  Rh8  1  0.665208  0.832603  0.375455  1
  Rh  Rh9  1  0.832623  0.167377  0.624456  1
  Rh  Rh10  1  0.832623  0.665248  0.624456  1
  Rh  Rh11  1  0.334752  0.167377  0.624456  1
  Rh  Rh12  1  0.832646  0.167354  0.875077  1
  Rh  Rh13  1  0.832646  0.665294  0.875077  1
  Rh  Rh14  1  0.334706  0.167354  0.875077  1
  Rh  Rh15  1  0.167335  0.832665  0.124862  1
  Rh  Rh16  1  0.167335  0.334670  0.124862  1
  Rh  Rh17  1  0.665330  0.832665  0.124862  1
  Rh  Rh18  1  0.333333  0.666667  0.250127  1
  Rh  Rh19  1  0.666667  0.333333  0.749796  1
  Rh  Rh20  1  0.000000  0.000000  0.250260  1
  Rh  Rh21  1  0.000000  0.000000  0.749765  1
  Rh  Rh22  1  0.000000  0.000000  0.499975  1
  Rh  Rh23  1  0.000000  0.000000  0.000102  1
