# generated using pymatgen
data_Te5Mo
_symmetry_space_group_name_H-M   'P 1'
_cell_length_a   6.88617372
_cell_length_b   7.53297745
_cell_length_c   8.37876495
_cell_angle_alpha   111.77361473
_cell_angle_beta   111.03627415
_cell_angle_gamma   93.31657219
_symmetry_Int_Tables_number   1
_chemical_formula_structural   Te5Mo
_chemical_formula_sum   'Te10 Mo2'
_cell_volume   367.46539318
_cell_formula_units_Z   2
loop_
 _symmetry_equiv_pos_site_id
 _symmetry_equiv_pos_as_xyz
  1  'x, y, z'
loop_
 _atom_site_type_symbol
 _atom_site_label
 _atom_site_symmetry_multiplicity
 _atom_site_fract_x
 _atom_site_fract_y
 _atom_site_fract_z
 _atom_site_occupancy
  Te  Te0  1  0.901566  0.657421  0.819480  1
  Te  Te1  1  0.115187  0.934837  0.269188  1
  Te  Te2  1  0.884813  0.065163  0.730812  1
  Te  Te3  1  0.479102  0.242524  0.923979  1
  Te  Te4  1  0.638359  0.176423  0.292591  1
  Te  Te5  1  0.361641  0.823577  0.707409  1
  Te  Te6  1  0.098434  0.342579  0.180520  1
  Te  Te7  1  0.520898  0.757476  0.076021  1
  Te  Te8  1  0.724885  0.649096  0.434259  1
  Te  Te9  1  0.275115  0.350904  0.565741  1
  Mo  Mo10  1  0.788366  0.998946  0.000492  1
  Mo  Mo11  1  0.211634  0.001054  0.999508  1
