# generated using pymatgen
data_DyMo2O7F
_symmetry_space_group_name_H-M   'P 1'
_cell_length_a   6.66097200
_cell_length_b   4.35803867
_cell_length_c   11.54764600
_cell_angle_alpha   89.49460304
_cell_angle_beta   90.00000000
_cell_angle_gamma   90.00000000
_symmetry_Int_Tables_number   1
_chemical_formula_structural   DyMo2O7F
_chemical_formula_sum   'Dy2 Mo4 O14 F2'
_cell_volume   335.20096024
_cell_formula_units_Z   2
loop_
 _symmetry_equiv_pos_site_id
 _symmetry_equiv_pos_as_xyz
  1  'x, y, z'
loop_
 _atom_site_type_symbol
 _atom_site_label
 _atom_site_symmetry_multiplicity
 _atom_site_fract_x
 _atom_site_fract_y
 _atom_site_fract_z
 _atom_site_occupancy
  Dy  Dy0  1  0.799061  0.000000  0.750000  1
  Dy  Dy1  1  0.200939  0.000000  0.250000  1
  Mo  Mo2  1  0.331710  0.902951  0.594236  1
  Mo  Mo3  1  0.331710  0.097049  0.905764  1
  Mo  Mo4  1  0.668290  0.097049  0.405764  1
  Mo  Mo5  1  0.668290  0.902951  0.094236  1
  O  O6  1  0.342235  0.505861  0.597048  1
  O  O7  1  0.342235  0.494139  0.902952  1
  O  O8  1  0.657765  0.494139  0.402952  1
  O  O9  1  0.657765  0.505861  0.097048  1
  O  O10  1  0.077689  0.983176  0.628193  1
  O  O11  1  0.077689  0.016824  0.871807  1
  O  O12  1  0.922311  0.016824  0.371807  1
  O  O13  1  0.922311  0.983176  0.128193  1
  O  O14  1  0.649429  0.999185  0.566551  1
  O  O15  1  0.649429  0.000815  0.933449  1
  O  O16  1  0.350571  0.000815  0.433449  1
  O  O17  1  0.350571  0.999185  0.066551  1
  O  O18  1  0.440506  0.000000  0.750000  1
  O  O19  1  0.559494  0.000000  0.250000  1
  F  F20  1  0.802889  0.500000  0.750000  1
  F  F21  1  0.197111  0.500000  0.250000  1
