# generated using pymatgen
data_Cd3In4(PO4)6
_symmetry_space_group_name_H-M   'P 1'
_cell_length_a   6.66151115
_cell_length_b   9.13952909
_cell_length_c   9.22097657
_cell_angle_alpha   91.60848650
_cell_angle_beta   108.22695195
_cell_angle_gamma   106.89022416
_symmetry_Int_Tables_number   1
_chemical_formula_structural   Cd3In4(PO4)6
_chemical_formula_sum   'Cd3 In4 P6 O24'
_cell_volume   505.84264123
_cell_formula_units_Z   1
loop_
 _symmetry_equiv_pos_site_id
 _symmetry_equiv_pos_as_xyz
  1  'x, y, z'
loop_
 _atom_site_type_symbol
 _atom_site_label
 _atom_site_symmetry_multiplicity
 _atom_site_fract_x
 _atom_site_fract_y
 _atom_site_fract_z
 _atom_site_occupancy
  Cd  Cd0  1  0.260638  0.759534  0.243378  1
  Cd  Cd1  1  0.747670  0.236884  0.764993  1
  Cd  Cd2  1  0.026432  0.984185  0.986797  1
  In  In3  1  0.135251  0.871234  0.571682  1
  In  In4  1  0.365704  0.428714  0.125330  1
  In  In5  1  0.862103  0.129392  0.423729  1
  In  In6  1  0.631410  0.569913  0.874467  1
  P  P7  1  0.244690  0.211993  0.780872  1
  P  P8  1  0.755164  0.788926  0.216011  1
  P  P9  1  0.353030  0.144373  0.362082  1
  P  P10  1  0.129702  0.636788  0.854231  1
  P  P11  1  0.649567  0.853567  0.638165  1
  P  P12  1  0.868864  0.364495  0.143922  1
  O  O13  1  0.260351  0.047741  0.763657  1
  O  O14  1  0.224070  0.231635  0.944988  1
  O  O15  1  0.732391  0.949676  0.237119  1
  O  O16  1  0.776302  0.769450  0.052381  1
  O  O17  1  0.967817  0.764710  0.332626  1
  O  O18  1  0.545585  0.667760  0.233096  1
  O  O19  1  0.032992  0.236285  0.664265  1
  O  O20  1  0.455630  0.330220  0.764127  1
  O  O21  1  0.140633  0.687355  0.699588  1
  O  O22  1  0.347435  0.299393  0.306348  1
  O  O23  1  0.857086  0.315202  0.299363  1
  O  O24  1  0.652549  0.697017  0.691542  1
  O  O25  1  0.416348  0.841914  0.521768  1
  O  O26  1  0.097330  0.493585  0.167707  1
  O  O27  1  0.585433  0.158405  0.481468  1
  O  O28  1  0.903524  0.508753  0.833621  1
  O  O29  1  0.290193  0.018001  0.224489  1
  O  O30  1  0.163615  0.771584  0.973990  1
  O  O31  1  0.721504  0.978221  0.778974  1
  O  O32  1  0.838136  0.231855  0.025579  1
  O  O33  1  0.184189  0.094575  0.452127  1
  O  O34  1  0.316132  0.556431  0.914765  1
  O  O35  1  0.814471  0.903084  0.545628  1
  O  O36  1  0.682356  0.446049  0.084624  1
