# generated using pymatgen
data_Li4Ca5Au4
_symmetry_space_group_name_H-M   'P 1'
_cell_length_a   8.58527852
_cell_length_b   8.58527781
_cell_length_c   8.58527800
_cell_angle_alpha   93.64703665
_cell_angle_beta   93.64703635
_cell_angle_gamma   150.78335258
_symmetry_Int_Tables_number   1
_chemical_formula_structural   Li4Ca5Au4
_chemical_formula_sum   'Li4 Ca5 Au4'
_cell_volume   298.89052704
_cell_formula_units_Z   1
loop_
 _symmetry_equiv_pos_site_id
 _symmetry_equiv_pos_as_xyz
  1  'x, y, z'
loop_
 _atom_site_type_symbol
 _atom_site_label
 _atom_site_symmetry_multiplicity
 _atom_site_fract_x
 _atom_site_fract_y
 _atom_site_fract_z
 _atom_site_occupancy
  Li  Li0  1  0.602085  0.076593  0.678678  1
  Li  Li1  1  0.923407  0.602085  0.525492  1
  Li  Li2  1  0.076593  0.397915  0.474508  1
  Li  Li3  1  0.397915  0.923407  0.321322  1
  Ca  Ca4  1  0.128072  0.792923  0.920995  1
  Ca  Ca5  1  0.207077  0.128072  0.335149  1
  Ca  Ca6  1  0.871928  0.207077  0.079005  1
  Ca  Ca7  1  0.500000  0.500000  0.000000  1
  Ca  Ca8  1  0.792923  0.871928  0.664851  1
  Au  Au9  1  0.440954  0.243667  0.684622  1
  Au  Au10  1  0.559046  0.756333  0.315378  1
  Au  Au11  1  0.243667  0.559046  0.802713  1
  Au  Au12  1  0.756333  0.440954  0.197287  1
