# generated using pymatgen
data_CdAg2(PO4)2
_symmetry_space_group_name_H-M   'P 1'
_cell_length_a   5.02112499
_cell_length_b   5.88857909
_cell_length_c   6.88622295
_cell_angle_alpha   105.31970639
_cell_angle_beta   85.74556272
_cell_angle_gamma   111.48729452
_symmetry_Int_Tables_number   1
_chemical_formula_structural   CdAg2(PO4)2
_chemical_formula_sum   'Cd1 Ag2 P2 O8'
_cell_volume   182.66611764
_cell_formula_units_Z   1
loop_
 _symmetry_equiv_pos_site_id
 _symmetry_equiv_pos_as_xyz
  1  'x, y, z'
loop_
 _atom_site_type_symbol
 _atom_site_label
 _atom_site_symmetry_multiplicity
 _atom_site_fract_x
 _atom_site_fract_y
 _atom_site_fract_z
 _atom_site_occupancy
  Cd  Cd0  1  0.699740  0.272116  0.691480  1
  Ag  Ag1  1  0.000265  0.994803  0.000458  1
  Ag  Ag2  1  0.316038  0.726043  0.306311  1
  P  P3  1  0.366662  0.671243  0.782364  1
  P  P4  1  0.633164  0.330598  0.217934  1
  O  O5  1  0.393173  0.858558  0.654302  1
  O  O6  1  0.615617  0.158836  0.357721  1
  O  O7  1  0.665132  0.664431  0.830470  1
  O  O8  1  0.327398  0.321497  0.163264  1
  O  O9  1  0.240966  0.770303  0.992938  1
  O  O10  1  0.756955  0.224145  0.010930  1
  O  O11  1  0.182620  0.398378  0.678897  1
  O  O12  1  0.802269  0.609050  0.312932  1
