# generated using pymatgen
data_Pr18Dy2Si15Sn
_symmetry_space_group_name_H-M   'P 1'
_cell_length_a   7.90010432
_cell_length_b   7.90514967
_cell_length_c   15.26375200
_cell_angle_alpha   89.97225502
_cell_angle_beta   89.60861393
_cell_angle_gamma   90.05554558
_symmetry_Int_Tables_number   1
_chemical_formula_structural   Pr18Dy2Si15Sn
_chemical_formula_sum   'Pr18 Dy2 Si15 Sn1'
_cell_volume   953.22151218
_cell_formula_units_Z   1
loop_
 _symmetry_equiv_pos_site_id
 _symmetry_equiv_pos_as_xyz
  1  'x, y, z'
loop_
 _atom_site_type_symbol
 _atom_site_label
 _atom_site_symmetry_multiplicity
 _atom_site_fract_x
 _atom_site_fract_y
 _atom_site_fract_z
 _atom_site_occupancy
  Pr  Pr0  1  0.797612  0.190688  0.752567  1
  Pr  Pr1  1  0.690116  0.692170  0.496537  1
  Pr  Pr2  1  0.375084  0.012377  0.447788  1
  Pr  Pr3  1  0.493964  0.869450  0.698403  1
  Pr  Pr4  1  0.511619  0.122906  0.197036  1
  Pr  Pr5  1  0.877664  0.486916  0.300371  1
  Pr  Pr6  1  0.121888  0.517078  0.806241  1
  Pr  Pr7  1  0.623675  0.986480  0.950445  1
  Pr  Pr8  1  0.005258  0.383383  0.546939  1
  Pr  Pr9  1  0.989122  0.623221  0.054201  1
  Pr  Pr10  1  0.126361  0.979434  0.882164  1
  Pr  Pr11  1  0.521011  0.627843  0.127193  1
  Pr  Pr12  1  0.489398  0.382473  0.625932  1
  Pr  Pr13  1  0.629154  0.521777  0.876440  1
  Pr  Pr14  1  0.373495  0.479337  0.370696  1
  Pr  Pr15  1  0.872824  0.019834  0.375865  1
  Pr  Pr16  1  0.980478  0.127353  0.123914  1
  Pr  Pr17  1  0.009420  0.860040  0.618658  1
  Dy  Dy18  1  0.310406  0.311089  0.001367  1
  Dy  Dy19  1  0.190292  0.811112  0.249391  1
  Si  Si20  1  0.329762  0.691679  0.956395  1
  Si  Si21  1  0.665918  0.303853  0.451026  1
  Si  Si22  1  0.692717  0.329968  0.047299  1
  Si  Si23  1  0.305191  0.669353  0.544577  1
  Si  Si24  1  0.809124  0.829320  0.204261  1
  Si  Si25  1  0.170164  0.191490  0.295258  1
  Si  Si26  1  0.834850  0.805457  0.797944  1
  Si  Si27  1  0.287331  0.922822  0.063842  1
  Si  Si28  1  0.573394  0.790276  0.308320  1
  Si  Si29  1  0.426387  0.213952  0.819585  1
  Si  Si30  1  0.789736  0.576940  0.691483  1
  Si  Si31  1  0.213031  0.422188  0.187290  1
  Si  Si32  1  0.709938  0.079846  0.559722  1
  Si  Si33  1  0.927118  0.289929  0.941822  1
  Si  Si34  1  0.082666  0.714521  0.434271  1
  Sn  Sn35  1  0.193834  0.163444  0.694761  1
