# generated using pymatgen
data_P4PdSeO14
_symmetry_space_group_name_H-M   'P 1'
_cell_length_a   4.84219586
_cell_length_b   6.97438801
_cell_length_c   8.15717521
_cell_angle_alpha   91.31996941
_cell_angle_beta   92.26961199
_cell_angle_gamma   106.38099953
_symmetry_Int_Tables_number   1
_chemical_formula_structural   P4PdSeO14
_chemical_formula_sum   'P4 Pd1 Se1 O14'
_cell_volume   263.92100007
_cell_formula_units_Z   1
loop_
 _symmetry_equiv_pos_site_id
 _symmetry_equiv_pos_as_xyz
  1  'x, y, z'
loop_
 _atom_site_type_symbol
 _atom_site_label
 _atom_site_symmetry_multiplicity
 _atom_site_fract_x
 _atom_site_fract_y
 _atom_site_fract_z
 _atom_site_occupancy
  P  P0  1  0.530492  0.137045  0.768692  1
  P  P1  1  0.112956  0.748270  0.695754  1
  P  P2  1  0.887044  0.251730  0.304246  1
  P  P3  1  0.469508  0.862955  0.231308  1
  Pd  Pd4  1  0.000000  0.000000  0.000000  1
  Se  Se5  1  0.500000  0.500000  0.500000  1
  O  O6  1  0.381913  0.169106  0.926072  1
  O  O7  1  0.036066  0.753015  0.877331  1
  O  O8  1  0.810108  0.076349  0.797755  1
  O  O9  1  0.286868  0.595679  0.682096  1
  O  O10  1  0.616268  0.323481  0.664785  1
  O  O11  1  0.313007  0.966693  0.651914  1
  O  O12  1  0.863180  0.718145  0.566500  1
  O  O13  1  0.136820  0.281855  0.433500  1
  O  O14  1  0.686993  0.033307  0.348086  1
  O  O15  1  0.383732  0.676519  0.335215  1
  O  O16  1  0.713132  0.404321  0.317904  1
  O  O17  1  0.189892  0.923651  0.202245  1
  O  O18  1  0.963934  0.246985  0.122669  1
  O  O19  1  0.618087  0.830894  0.073928  1
