# generated using pymatgen
data_ErPu3(AsSe)4
_symmetry_space_group_name_H-M   'P 1'
_cell_length_a   3.96336500
_cell_length_b   3.96451822
_cell_length_c   17.22655417
_cell_angle_alpha   90.04004470
_cell_angle_beta   90.00000000
_cell_angle_gamma   90.00000000
_symmetry_Int_Tables_number   1
_chemical_formula_structural   ErPu3(AsSe)4
_chemical_formula_sum   'Er1 Pu3 As4 Se4'
_cell_volume   270.67789826
_cell_formula_units_Z   1
loop_
 _symmetry_equiv_pos_site_id
 _symmetry_equiv_pos_as_xyz
  1  'x, y, z'
loop_
 _atom_site_type_symbol
 _atom_site_label
 _atom_site_symmetry_multiplicity
 _atom_site_fract_x
 _atom_site_fract_y
 _atom_site_fract_z
 _atom_site_occupancy
  Er  Er0  1  0.250000  0.742327  0.636549  1
  Pu  Pu1  1  0.750000  0.244404  0.863260  1
  Pu  Pu2  1  0.750000  0.257482  0.360694  1
  Pu  Pu3  1  0.250000  0.755464  0.138865  1
  As  As4  1  0.250000  0.237945  0.499001  1
  As  As5  1  0.250000  0.257981  0.001068  1
  As  As6  1  0.750000  0.762218  0.498875  1
  As  As7  1  0.750000  0.742360  0.000932  1
  Se  Se8  1  0.750000  0.243540  0.684186  1
  Se  Se9  1  0.750000  0.255323  0.182183  1
  Se  Se10  1  0.250000  0.756549  0.317788  1
  Se  Se11  1  0.250000  0.744408  0.816599  1
