# generated using pymatgen
data_Sr8Tb3Y(GaO5)4
_symmetry_space_group_name_H-M   'P 1'
_cell_length_a   5.98035104
_cell_length_b   7.64238179
_cell_length_c   12.51435326
_cell_angle_alpha   91.37262927
_cell_angle_beta   90.01216356
_cell_angle_gamma   89.99637236
_symmetry_Int_Tables_number   1
_chemical_formula_structural   Sr8Tb3Y(GaO5)4
_chemical_formula_sum   'Sr8 Tb3 Y1 Ga4 O20'
_cell_volume   571.79343777
_cell_formula_units_Z   1
loop_
 _symmetry_equiv_pos_site_id
 _symmetry_equiv_pos_as_xyz
  1  'x, y, z'
loop_
 _atom_site_type_symbol
 _atom_site_label
 _atom_site_symmetry_multiplicity
 _atom_site_fract_x
 _atom_site_fract_y
 _atom_site_fract_z
 _atom_site_occupancy
  Sr  Sr0  1  0.772822  0.486992  0.330178  1
  Sr  Sr1  1  0.727157  0.987060  0.830216  1
  Sr  Sr2  1  0.227184  0.512968  0.669919  1
  Sr  Sr3  1  0.272811  0.013010  0.169787  1
  Sr  Sr4  1  0.772265  0.985423  0.367168  1
  Sr  Sr5  1  0.727703  0.485356  0.867182  1
  Sr  Sr6  1  0.227741  0.014585  0.632932  1
  Sr  Sr7  1  0.272258  0.514544  0.132788  1
  Tb  Tb8  1  0.754695  0.271049  0.619602  1
  Tb  Tb9  1  0.745285  0.771086  0.119473  1
  Tb  Tb10  1  0.245285  0.728909  0.380498  1
  Y  Y11  1  0.255012  0.229224  0.880223  1
  Ga  Ga12  1  0.719709  0.742308  0.580198  1
  Ga  Ga13  1  0.780174  0.242284  0.080031  1
  Ga  Ga14  1  0.280266  0.257681  0.419801  1
  Ga  Ga15  1  0.219693  0.757675  0.919799  1
  O  O16  1  0.790042  0.970380  0.628931  1
  O  O17  1  0.710034  0.470276  0.128943  1
  O  O18  1  0.209969  0.029669  0.371061  1
  O  O19  1  0.290027  0.529617  0.871099  1
  O  O20  1  0.716503  0.067959  0.177056  1
  O  O21  1  0.783584  0.567852  0.677072  1
  O  O22  1  0.283505  0.932313  0.823080  1
  O  O23  1  0.216421  0.432075  0.322922  1
  O  O24  1  0.541954  0.747473  0.275636  1
  O  O25  1  0.958636  0.247394  0.775915  1
  O  O26  1  0.458072  0.252453  0.724488  1
  O  O27  1  0.041948  0.752529  0.224375  1
  O  O28  1  0.597367  0.213077  0.960009  1
  O  O29  1  0.901793  0.713055  0.460095  1
  O  O30  1  0.401826  0.786913  0.039954  1
  O  O31  1  0.098122  0.286939  0.539928  1
  O  O32  1  0.089258  0.237190  0.046967  1
  O  O33  1  0.410889  0.737298  0.547421  1
  O  O34  1  0.910832  0.762680  0.952616  1
  O  O35  1  0.589159  0.262705  0.452637  1
