# generated using pymatgen
data_SrLa(Sb2Rh)2
_symmetry_space_group_name_H-M   'P 1'
_cell_length_a   9.36812800
_cell_length_b   9.36812724
_cell_length_c   9.38670400
_cell_angle_alpha   90.00000000
_cell_angle_beta   90.00000000
_cell_angle_gamma   151.45428068
_symmetry_Int_Tables_number   1
_chemical_formula_structural   SrLa(Sb2Rh)2
_chemical_formula_sum   'Sr2 La2 Sb8 Rh4'
_cell_volume   393.65817447
_cell_formula_units_Z   2
loop_
 _symmetry_equiv_pos_site_id
 _symmetry_equiv_pos_as_xyz
  1  'x, y, z'
loop_
 _atom_site_type_symbol
 _atom_site_label
 _atom_site_symmetry_multiplicity
 _atom_site_fract_x
 _atom_site_fract_y
 _atom_site_fract_z
 _atom_site_occupancy
  Sr  Sr0  1  0.500000  0.500000  0.500000  1
  Sr  Sr1  1  0.500000  0.500000  0.000000  1
  La  La2  1  0.297745  0.702255  0.250000  1
  La  La3  1  0.702255  0.297745  0.750000  1
  Sb  Sb4  1  0.919874  0.080126  0.750000  1
  Sb  Sb5  1  0.920529  0.079471  0.250000  1
  Sb  Sb6  1  0.080126  0.919874  0.250000  1
  Sb  Sb7  1  0.079471  0.920529  0.750000  1
  Sb  Sb8  1  0.701738  0.298262  0.410719  1
  Sb  Sb9  1  0.298262  0.701738  0.589281  1
  Sb  Sb10  1  0.298262  0.701738  0.910719  1
  Sb  Sb11  1  0.701738  0.298262  0.089281  1
  Rh  Rh12  1  0.154317  0.845683  0.498556  1
  Rh  Rh13  1  0.845683  0.154317  0.998556  1
  Rh  Rh14  1  0.154317  0.845683  0.001444  1
  Rh  Rh15  1  0.845683  0.154317  0.501444  1
