# generated using pymatgen
data_La4TmIn3Br
_symmetry_space_group_name_H-M   'P 1'
_cell_length_a   9.66677900
_cell_length_b   9.66684496
_cell_length_c   6.92887000
_cell_angle_alpha   89.99993776
_cell_angle_beta   89.99915746
_cell_angle_gamma   120.00288419
_symmetry_Int_Tables_number   1
_chemical_formula_structural   La4TmIn3Br
_chemical_formula_sum   'La8 Tm2 In6 Br2'
_cell_volume   560.72118596
_cell_formula_units_Z   2
loop_
 _symmetry_equiv_pos_site_id
 _symmetry_equiv_pos_as_xyz
  1  'x, y, z'
loop_
 _atom_site_type_symbol
 _atom_site_label
 _atom_site_symmetry_multiplicity
 _atom_site_fract_x
 _atom_site_fract_y
 _atom_site_fract_z
 _atom_site_occupancy
  La  La0  1  0.731964  0.731968  0.254246  1
  La  La1  1  0.000000  0.731941  0.745758  1
  La  La2  1  0.731959  0.000046  0.745751  1
  La  La3  1  0.268036  0.268032  0.745754  1
  La  La4  1  0.000000  0.268059  0.254242  1
  La  La5  1  0.268041  0.999954  0.254249  1
  La  La6  1  0.333337  0.666683  0.999989  1
  La  La7  1  0.666663  0.333317  0.000011  1
  Tm  Tm8  1  0.333336  0.666669  0.500000  1
  Tm  Tm9  1  0.666664  0.333331  0.500000  1
  In  In10  1  0.393274  0.000007  0.741365  1
  In  In11  1  0.999996  0.606731  0.258649  1
  In  In12  1  0.606726  0.999993  0.258635  1
  In  In13  1  0.000004  0.393269  0.741351  1
  In  In14  1  0.393274  0.393271  0.258642  1
  In  In15  1  0.606726  0.606729  0.741358  1
  Br  Br16  1  0.000000  0.000000  0.500000  1
  Br  Br17  1  0.000000  0.000000  0.000000  1
