# generated using pymatgen
data_TbNd16(YIr4)3
_symmetry_space_group_name_H-M   'P 1'
_cell_length_a   11.22591300
_cell_length_b   11.22591300
_cell_length_c   6.53565700
_cell_angle_alpha   90.00000000
_cell_angle_beta   90.00000000
_cell_angle_gamma   90.00000000
_symmetry_Int_Tables_number   1
_chemical_formula_structural   TbNd16(YIr4)3
_chemical_formula_sum   'Tb1 Nd16 Y3 Ir12'
_cell_volume   823.63083261
_cell_formula_units_Z   1
loop_
 _symmetry_equiv_pos_site_id
 _symmetry_equiv_pos_as_xyz
  1  'x, y, z'
loop_
 _atom_site_type_symbol
 _atom_site_label
 _atom_site_symmetry_multiplicity
 _atom_site_fract_x
 _atom_site_fract_y
 _atom_site_fract_z
 _atom_site_occupancy
  Tb  Tb0  1  0.500000  0.500000  0.500000  1
  Nd  Nd1  1  0.289606  0.088250  0.380417  1
  Nd  Nd2  1  0.289600  0.911705  0.880402  1
  Nd  Nd3  1  0.710400  0.088295  0.880402  1
  Nd  Nd4  1  0.710394  0.911750  0.380417  1
  Nd  Nd5  1  0.588290  0.789624  0.880433  1
  Nd  Nd6  1  0.588244  0.210366  0.380400  1
  Nd  Nd7  1  0.411756  0.789634  0.380400  1
  Nd  Nd8  1  0.411710  0.210376  0.880433  1
  Nd  Nd9  1  0.210366  0.411756  0.619600  1
  Nd  Nd10  1  0.210376  0.588290  0.119567  1
  Nd  Nd11  1  0.789624  0.411710  0.119567  1
  Nd  Nd12  1  0.789634  0.588244  0.619600  1
  Nd  Nd13  1  0.911705  0.710400  0.119598  1
  Nd  Nd14  1  0.911750  0.289606  0.619583  1
  Nd  Nd15  1  0.088250  0.710394  0.619583  1
  Nd  Nd16  1  0.088295  0.289600  0.119598  1
  Y  Y17  1  0.000000  0.000000  0.500000  1
  Y  Y18  1  0.000000  0.000000  0.000000  1
  Y  Y19  1  0.500000  0.500000  0.000000  1
  Ir  Ir20  1  0.849963  0.150032  0.250016  1
  Ir  Ir21  1  0.849968  0.849963  0.749984  1
  Ir  Ir22  1  0.150032  0.150037  0.749984  1
  Ir  Ir23  1  0.150037  0.849968  0.250016  1
  Ir  Ir24  1  0.650011  0.350021  0.749868  1
  Ir  Ir25  1  0.649979  0.650011  0.250132  1
  Ir  Ir26  1  0.350021  0.349989  0.250132  1
  Ir  Ir27  1  0.349989  0.649979  0.749868  1
  Ir  Ir28  1  0.500000  0.000000  0.119780  1
  Ir  Ir29  1  0.500000  0.000000  0.619762  1
  Ir  Ir30  1  0.000000  0.500000  0.880220  1
  Ir  Ir31  1  0.000000  0.500000  0.380238  1
