# generated using pymatgen
data_Sm4GaSe3
_symmetry_space_group_name_H-M   'P 1'
_cell_length_a   7.28598541
_cell_length_b   7.28598570
_cell_length_c   7.28598600
_cell_angle_alpha   131.90889150
_cell_angle_beta   131.90889728
_cell_angle_gamma   70.37295842
_symmetry_Int_Tables_number   1
_chemical_formula_structural   Sm4GaSe3
_chemical_formula_sum   'Sm4 Ga1 Se3'
_cell_volume   209.92892029
_cell_formula_units_Z   1
loop_
 _symmetry_equiv_pos_site_id
 _symmetry_equiv_pos_as_xyz
  1  'x, y, z'
loop_
 _atom_site_type_symbol
 _atom_site_label
 _atom_site_symmetry_multiplicity
 _atom_site_fract_x
 _atom_site_fract_y
 _atom_site_fract_z
 _atom_site_occupancy
  Sm  Sm0  1  0.248553  0.248553  0.000000  1
  Sm  Sm1  1  0.751447  0.751447  0.000000  1
  Sm  Sm2  1  0.500000  0.000000  0.500000  1
  Sm  Sm3  1  0.000000  0.500000  0.500000  1
  Ga  Ga4  1  0.000000  0.000000  0.000000  1
  Se  Se5  1  0.500000  0.500000  0.000000  1
  Se  Se6  1  0.750000  0.250000  0.500000  1
  Se  Se7  1  0.250000  0.750000  0.500000  1
