# generated using pymatgen
data_Ce10Si7GeN3
_symmetry_space_group_name_H-M   'P 1'
_cell_length_a   10.65689700
_cell_length_b   10.65689939
_cell_length_c   4.49140400
_cell_angle_alpha   90.00000000
_cell_angle_beta   90.00000000
_cell_angle_gamma   119.99999568
_symmetry_Int_Tables_number   1
_chemical_formula_structural   Ce10Si7GeN3
_chemical_formula_sum   'Ce10 Si7 Ge1 N3'
_cell_volume   441.74781095
_cell_formula_units_Z   1
loop_
 _symmetry_equiv_pos_site_id
 _symmetry_equiv_pos_as_xyz
  1  'x, y, z'
loop_
 _atom_site_type_symbol
 _atom_site_label
 _atom_site_symmetry_multiplicity
 _atom_site_fract_x
 _atom_site_fract_y
 _atom_site_fract_z
 _atom_site_occupancy
  Ce  Ce0  1  0.212589  0.787411  0.000000  1
  Ce  Ce1  1  0.212589  0.425178  0.000000  1
  Ce  Ce2  1  0.499100  0.998201  0.500000  1
  Ce  Ce3  1  0.788604  0.577207  0.000000  1
  Ce  Ce4  1  0.422793  0.211396  0.000000  1
  Ce  Ce5  1  0.000000  0.000000  0.000000  1
  Ce  Ce6  1  0.574822  0.787411  0.000000  1
  Ce  Ce7  1  0.001799  0.500900  0.500000  1
  Ce  Ce8  1  0.788604  0.211396  0.000000  1
  Ce  Ce9  1  0.499100  0.500900  0.500000  1
  Si  Si10  1  0.999983  0.779148  0.500000  1
  Si  Si11  1  0.333333  0.666667  0.500000  1
  Si  Si12  1  0.220852  0.220835  0.500000  1
  Si  Si13  1  0.779165  0.779148  0.500000  1
  Si  Si14  1  0.779165  0.000017  0.500000  1
  Si  Si15  1  0.220852  0.000017  0.500000  1
  Si  Si16  1  0.999983  0.220835  0.500000  1
  Ge  Ge17  1  0.666667  0.333333  0.500000  1
  N  N18  1  0.500272  0.499728  0.000000  1
  N  N19  1  0.500272  0.000544  0.000000  1
  N  N20  1  0.999456  0.499728  0.000000  1
