# generated using pymatgen
data_LaTbSiO5
_symmetry_space_group_name_H-M   'P 1'
_cell_length_a   8.18338238
_cell_length_b   8.18338246
_cell_length_c   10.93860611
_cell_angle_alpha   61.19938298
_cell_angle_beta   61.19938369
_cell_angle_gamma   50.34554996
_symmetry_Int_Tables_number   1
_chemical_formula_structural   LaTbSiO5
_chemical_formula_sum   'La4 Tb4 Si4 O20'
_cell_volume   477.43680163
_cell_formula_units_Z   4
loop_
 _symmetry_equiv_pos_site_id
 _symmetry_equiv_pos_as_xyz
  1  'x, y, z'
loop_
 _atom_site_type_symbol
 _atom_site_label
 _atom_site_symmetry_multiplicity
 _atom_site_fract_x
 _atom_site_fract_y
 _atom_site_fract_z
 _atom_site_occupancy
  La  La0  1  0.784028  0.292050  0.033898  1
  La  La1  1  0.707950  0.215972  0.466102  1
  La  La2  1  0.215972  0.707950  0.966102  1
  La  La3  1  0.292050  0.784028  0.533898  1
  Tb  Tb4  1  0.236481  0.476224  0.337412  1
  Tb  Tb5  1  0.523776  0.763519  0.162588  1
  Tb  Tb6  1  0.763519  0.523776  0.662588  1
  Tb  Tb7  1  0.476224  0.236481  0.837412  1
  Si  Si8  1  0.728056  0.902996  0.307204  1
  Si  Si9  1  0.097004  0.271944  0.192796  1
  Si  Si10  1  0.271944  0.097004  0.692796  1
  Si  Si11  1  0.902996  0.728056  0.807204  1
  O  O12  1  0.421284  0.610408  0.110375  1
  O  O13  1  0.389592  0.578716  0.389625  1
  O  O14  1  0.578716  0.389592  0.889625  1
  O  O15  1  0.610408  0.421284  0.610375  1
  O  O16  1  0.866362  0.723753  0.431966  1
  O  O17  1  0.276247  0.133638  0.068034  1
  O  O18  1  0.133638  0.276247  0.568034  1
  O  O19  1  0.723753  0.866362  0.931966  1
  O  O20  1  0.568062  0.840849  0.315887  1
  O  O21  1  0.159151  0.431938  0.184113  1
  O  O22  1  0.431938  0.159151  0.684113  1
  O  O23  1  0.840849  0.568062  0.815887  1
  O  O24  1  0.156649  0.585333  0.824735  1
  O  O25  1  0.414667  0.843351  0.675265  1
  O  O26  1  0.843351  0.414667  0.175265  1
  O  O27  1  0.585333  0.156649  0.324735  1
  O  O28  1  0.908375  0.905315  0.647703  1
  O  O29  1  0.094685  0.091625  0.852297  1
  O  O30  1  0.091625  0.094685  0.352297  1
  O  O31  1  0.905315  0.908375  0.147703  1
