# generated using pymatgen
data_AgN5O14
_symmetry_space_group_name_H-M   'P 1'
_cell_length_a   7.90865057
_cell_length_b   7.90865119
_cell_length_c   7.90865073
_cell_angle_alpha   97.32155039
_cell_angle_beta   97.32155220
_cell_angle_gamma   138.16979402
_symmetry_Int_Tables_number   1
_chemical_formula_structural   AgN5O14
_chemical_formula_sum   'Ag1 N5 O14'
_cell_volume   308.16456075
_cell_formula_units_Z   1
loop_
 _symmetry_equiv_pos_site_id
 _symmetry_equiv_pos_as_xyz
  1  'x, y, z'
loop_
 _atom_site_type_symbol
 _atom_site_label
 _atom_site_symmetry_multiplicity
 _atom_site_fract_x
 _atom_site_fract_y
 _atom_site_fract_z
 _atom_site_occupancy
  Ag  Ag0  1  0.000000  0.000000  0.000000  1
  N  N1  1  0.540163  0.605546  0.677603  1
  N  N2  1  0.394454  0.072057  0.934617  1
  N  N3  1  0.927943  0.862559  0.322397  1
  N  N4  1  0.137441  0.459837  0.065383  1
  N  N5  1  0.250000  0.750000  0.500000  1
  O  O6  1  0.199344  0.450908  0.931508  1
  O  O7  1  0.498076  0.039326  0.854624  1
  O  O8  1  0.960674  0.815298  0.458750  1
  O  O9  1  0.121671  0.988686  0.250919  1
  O  O10  1  0.732164  0.800656  0.251565  1
  O  O11  1  0.184702  0.643452  0.145376  1
  O  O12  1  0.011314  0.262232  0.132985  1
  O  O13  1  0.737768  0.870752  0.749081  1
  O  O14  1  0.356548  0.501924  0.541250  1
  O  O15  1  0.047775  0.547775  0.500000  1
  O  O16  1  0.129248  0.878329  0.867015  1
  O  O17  1  0.549092  0.480599  0.748435  1
  O  O18  1  0.519401  0.267836  0.068492  1
  O  O19  1  0.452225  0.952225  0.500000  1
