# generated using pymatgen
data_TbNd8TmSn6
_symmetry_space_group_name_H-M   'P 1'
_cell_length_a   9.23898200
_cell_length_b   9.23898103
_cell_length_c   6.77774400
_cell_angle_alpha   90.00000000
_cell_angle_beta   90.00000000
_cell_angle_gamma   120.00000346
_symmetry_Int_Tables_number   1
_chemical_formula_structural   TbNd8TmSn6
_chemical_formula_sum   'Tb1 Nd8 Tm1 Sn6'
_cell_volume   501.03028092
_cell_formula_units_Z   1
loop_
 _symmetry_equiv_pos_site_id
 _symmetry_equiv_pos_as_xyz
  1  'x, y, z'
loop_
 _atom_site_type_symbol
 _atom_site_label
 _atom_site_symmetry_multiplicity
 _atom_site_fract_x
 _atom_site_fract_y
 _atom_site_fract_z
 _atom_site_occupancy
  Tb  Tb0  1  0.666667  0.333333  0.500000  1
  Nd  Nd1  1  0.666667  0.333333  0.000000  1
  Nd  Nd2  1  0.333333  0.666667  0.000000  1
  Nd  Nd3  1  0.757975  0.758141  0.748427  1
  Nd  Nd4  1  0.241859  0.999834  0.748427  1
  Nd  Nd5  1  0.000166  0.242025  0.748427  1
  Nd  Nd6  1  0.241859  0.242025  0.251573  1
  Nd  Nd7  1  0.757975  0.999834  0.251573  1
  Nd  Nd8  1  0.000166  0.758141  0.251573  1
  Tm  Tm9  1  0.333333  0.666667  0.500000  1
  Sn  Sn10  1  0.396223  0.396868  0.743674  1
  Sn  Sn11  1  0.603132  0.999355  0.743674  1
  Sn  Sn12  1  0.000645  0.603777  0.743674  1
  Sn  Sn13  1  0.603132  0.603777  0.256326  1
  Sn  Sn14  1  0.396223  0.999355  0.256326  1
  Sn  Sn15  1  0.000645  0.396868  0.256326  1
