# generated using pymatgen
data_Ho3Be2Co9B4
_symmetry_space_group_name_H-M   'P 1'
_cell_length_a   5.02395201
_cell_length_b   5.02241589
_cell_length_c   9.33027800
_cell_angle_alpha   90.00013417
_cell_angle_beta   90.00003948
_cell_angle_gamma   120.00306339
_symmetry_Int_Tables_number   1
_chemical_formula_structural   Ho3Be2Co9B4
_chemical_formula_sum   'Ho3 Be2 Co9 B4'
_cell_volume   203.87781148
_cell_formula_units_Z   1
loop_
 _symmetry_equiv_pos_site_id
 _symmetry_equiv_pos_as_xyz
  1  'x, y, z'
loop_
 _atom_site_type_symbol
 _atom_site_label
 _atom_site_symmetry_multiplicity
 _atom_site_fract_x
 _atom_site_fract_y
 _atom_site_fract_z
 _atom_site_occupancy
  Ho  Ho0  1  0.999990  0.999999  0.000127  1
  Ho  Ho1  1  0.999994  0.999998  0.337705  1
  Ho  Ho2  1  0.999998  0.999999  0.662221  1
  Be  Be3  1  0.333427  0.666651  0.000090  1
  Be  Be4  1  0.666556  0.333348  0.000090  1
  Co  Co5  1  0.499990  0.999988  0.499912  1
  Co  Co6  1  0.499982  0.500017  0.499862  1
  Co  Co7  1  0.000009  0.500004  0.499923  1
  Co  Co8  1  0.499995  0.000001  0.190359  1
  Co  Co9  1  0.499991  0.500000  0.190306  1
  Co  Co10  1  0.999996  0.499999  0.190381  1
  Co  Co11  1  0.500002  0.000002  0.809735  1
  Co  Co12  1  0.500002  0.500000  0.809717  1
  Co  Co13  1  0.999983  0.499994  0.809624  1
  B  B14  1  0.333401  0.666625  0.342132  1
  B  B15  1  0.666589  0.333375  0.342134  1
  B  B16  1  0.666623  0.333350  0.657840  1
  B  B17  1  0.333371  0.666650  0.657841  1
