# generated using pymatgen
data_Ho4Sc16(Bi3Sb)3
_symmetry_space_group_name_H-M   'P 1'
_cell_length_a   7.81927265
_cell_length_b   9.02569500
_cell_length_c   11.50381395
_cell_angle_alpha   90.00000000
_cell_angle_beta   90.04656083
_cell_angle_gamma   90.00000000
_symmetry_Int_Tables_number   1
_chemical_formula_structural   Ho4Sc16(Bi3Sb)3
_chemical_formula_sum   'Ho4 Sc16 Bi9 Sb3'
_cell_volume   811.87415425
_cell_formula_units_Z   1
loop_
 _symmetry_equiv_pos_site_id
 _symmetry_equiv_pos_as_xyz
  1  'x, y, z'
loop_
 _atom_site_type_symbol
 _atom_site_label
 _atom_site_symmetry_multiplicity
 _atom_site_fract_x
 _atom_site_fract_y
 _atom_site_fract_z
 _atom_site_occupancy
  Ho  Ho0  1  0.320553  0.250000  0.215948  1
  Ho  Ho1  1  0.814933  0.250000  0.278985  1
  Ho  Ho2  1  0.680711  0.750000  0.782239  1
  Ho  Ho3  1  0.180897  0.750000  0.717949  1
  Sc  Sc4  1  0.349752  0.750000  0.216974  1
  Sc  Sc5  1  0.849941  0.750000  0.282574  1
  Sc  Sc6  1  0.650340  0.250000  0.782767  1
  Sc  Sc7  1  0.151517  0.250000  0.721272  1
  Sc  Sc8  1  0.688113  0.565218  0.060725  1
  Sc  Sc9  1  0.189388  0.930535  0.438756  1
  Sc  Sc10  1  0.311950  0.064816  0.939433  1
  Sc  Sc11  1  0.808518  0.437586  0.562041  1
  Sc  Sc12  1  0.311950  0.435184  0.939433  1
  Sc  Sc13  1  0.808518  0.062414  0.562041  1
  Sc  Sc14  1  0.688113  0.934782  0.060725  1
  Sc  Sc15  1  0.189388  0.569465  0.438756  1
  Sc  Sc16  1  0.483041  0.250000  0.488841  1
  Sc  Sc17  1  0.978760  0.250000  0.011287  1
  Sc  Sc18  1  0.522234  0.750000  0.511762  1
  Sc  Sc19  1  0.021643  0.750000  0.988574  1
  Bi  Bi20  1  0.097922  0.250000  0.466078  1
  Bi  Bi21  1  0.564262  0.990049  0.328360  1
  Bi  Bi22  1  0.064540  0.509559  0.171488  1
  Bi  Bi23  1  0.435137  0.490261  0.671795  1
  Bi  Bi24  1  0.935301  0.009394  0.828595  1
  Bi  Bi25  1  0.435137  0.009739  0.671795  1
  Bi  Bi26  1  0.935301  0.490606  0.828595  1
  Bi  Bi27  1  0.564262  0.509951  0.328360  1
  Bi  Bi28  1  0.064540  0.990441  0.171488  1
  Sb  Sb29  1  0.402646  0.750000  0.966987  1
  Sb  Sb30  1  0.902635  0.750000  0.532948  1
  Sb  Sb31  1  0.598059  0.250000  0.032425  1
