# generated using pymatgen
data_HoEr9(Bi2P)2
_symmetry_space_group_name_H-M   'P 1'
_cell_length_a   7.92646603
_cell_length_b   8.92176702
_cell_length_c   12.05446107
_cell_angle_alpha   90.00648954
_cell_angle_beta   90.01059340
_cell_angle_gamma   89.99848292
_symmetry_Int_Tables_number   1
_chemical_formula_structural   HoEr9(Bi2P)2
_chemical_formula_sum   'Ho2 Er18 Bi8 P4'
_cell_volume   852.46836076
_cell_formula_units_Z   2
loop_
 _symmetry_equiv_pos_site_id
 _symmetry_equiv_pos_as_xyz
  1  'x, y, z'
loop_
 _atom_site_type_symbol
 _atom_site_label
 _atom_site_symmetry_multiplicity
 _atom_site_fract_x
 _atom_site_fract_y
 _atom_site_fract_z
 _atom_site_occupancy
  Ho  Ho0  1  0.817290  0.449433  0.064155  1
  Ho  Ho1  1  0.182710  0.550567  0.935845  1
  Er  Er2  1  0.850189  0.750027  0.794255  1
  Er  Er3  1  0.149811  0.249973  0.205745  1
  Er  Er4  1  0.350242  0.249974  0.705698  1
  Er  Er5  1  0.649758  0.750026  0.294302  1
  Er  Er6  1  0.376072  0.750044  0.699533  1
  Er  Er7  1  0.623928  0.249956  0.300467  1
  Er  Er8  1  0.876038  0.250001  0.800364  1
  Er  Er9  1  0.123962  0.749999  0.199636  1
  Er  Er10  1  0.958334  0.750043  0.501837  1
  Er  Er11  1  0.041666  0.249957  0.498163  1
  Er  Er12  1  0.458269  0.249955  0.998134  1
  Er  Er13  1  0.541731  0.750045  0.001866  1
  Er  Er14  1  0.682426  0.050714  0.564059  1
  Er  Er15  1  0.317574  0.949286  0.435941  1
  Er  Er16  1  0.182398  0.949392  0.935943  1
  Er  Er17  1  0.317623  0.550731  0.435975  1
  Er  Er18  1  0.817602  0.050608  0.064057  1
  Er  Er19  1  0.682377  0.449269  0.564025  1
  Bi  Bi20  1  0.576756  0.490617  0.826603  1
  Bi  Bi21  1  0.423244  0.509383  0.173397  1
  Bi  Bi22  1  0.076672  0.509387  0.673232  1
  Bi  Bi23  1  0.423278  0.990624  0.173322  1
  Bi  Bi24  1  0.923328  0.490613  0.326768  1
  Bi  Bi25  1  0.576722  0.009376  0.826678  1
  Bi  Bi26  1  0.923294  0.009394  0.326693  1
  Bi  Bi27  1  0.076706  0.990606  0.673307  1
  P  P28  1  0.575343  0.749995  0.512643  1
  P  P29  1  0.424657  0.250005  0.487357  1
  P  P30  1  0.075384  0.249455  0.987361  1
  P  P31  1  0.924616  0.750545  0.012639  1
