# generated using pymatgen
data_Sc4Co16Si11PRh4
_symmetry_space_group_name_H-M   'P 1'
_cell_length_a   3.67234000
_cell_length_b   10.44756704
_cell_length_c   11.90266804
_cell_angle_alpha   89.99027936
_cell_angle_beta   90.00000000
_cell_angle_gamma   90.00000000
_symmetry_Int_Tables_number   1
_chemical_formula_structural   Sc4Co16Si11PRh4
_chemical_formula_sum   'Sc4 Co16 Si11 P1 Rh4'
_cell_volume   456.66987646
_cell_formula_units_Z   1
loop_
 _symmetry_equiv_pos_site_id
 _symmetry_equiv_pos_as_xyz
  1  'x, y, z'
loop_
 _atom_site_type_symbol
 _atom_site_label
 _atom_site_symmetry_multiplicity
 _atom_site_fract_x
 _atom_site_fract_y
 _atom_site_fract_z
 _atom_site_occupancy
  Sc  Sc0  1  0.250000  0.581769  0.703917  1
  Sc  Sc1  1  0.250000  0.919557  0.202625  1
  Sc  Sc2  1  0.750000  0.419086  0.297042  1
  Sc  Sc3  1  0.750000  0.081935  0.794603  1
  Co  Co4  1  0.250000  0.407913  0.488607  1
  Co  Co5  1  0.250000  0.091756  0.991571  1
  Co  Co6  1  0.750000  0.592312  0.511679  1
  Co  Co7  1  0.750000  0.912164  0.013908  1
  Co  Co8  1  0.250000  0.212925  0.173393  1
  Co  Co9  1  0.250000  0.284240  0.674103  1
  Co  Co10  1  0.750000  0.786000  0.826626  1
  Co  Co11  1  0.750000  0.715206  0.325706  1
  Co  Co12  1  0.250000  0.885152  0.701640  1
  Co  Co13  1  0.250000  0.615464  0.201865  1
  Co  Co14  1  0.750000  0.113595  0.294393  1
  Co  Co15  1  0.750000  0.384155  0.798956  1
  Co  Co16  1  0.250000  0.465275  0.930752  1
  Co  Co17  1  0.250000  0.033558  0.428024  1
  Co  Co18  1  0.750000  0.533146  0.070658  1
  Co  Co19  1  0.750000  0.966525  0.569317  1
  Si  Si20  1  0.250000  0.418224  0.116217  1
  Si  Si21  1  0.250000  0.081379  0.613850  1
  Si  Si22  1  0.750000  0.581556  0.885452  1
  Si  Si23  1  0.750000  0.918078  0.384304  1
  Si  Si24  1  0.250000  0.266160  0.864610  1
  Si  Si25  1  0.250000  0.233231  0.363818  1
  Si  Si26  1  0.750000  0.732945  0.135482  1
  Si  Si27  1  0.750000  0.767233  0.635808  1
  Si  Si28  1  0.250000  0.594449  0.389978  1
  Si  Si29  1  0.250000  0.906896  0.889847  1
  Si  Si30  1  0.750000  0.405544  0.610361  1
  P  P31  1  0.750000  0.093777  0.111188  1
  Rh  Rh32  1  0.250000  0.712039  0.991348  1
  Rh  Rh33  1  0.250000  0.789720  0.491068  1
  Rh  Rh34  1  0.750000  0.286128  0.010127  1
  Rh  Rh35  1  0.750000  0.210909  0.507157  1
