# generated using pymatgen
data_NdMnSb12IrOs2
_symmetry_space_group_name_H-M   'P 1'
_cell_length_a   8.15763196
_cell_length_b   8.14358268
_cell_length_c   8.12981241
_cell_angle_alpha   109.32466479
_cell_angle_beta   109.40317817
_cell_angle_gamma   109.59591832
_symmetry_Int_Tables_number   1
_chemical_formula_structural   NdMnSb12IrOs2
_chemical_formula_sum   'Nd1 Mn1 Sb12 Ir1 Os2'
_cell_volume   416.21452290
_cell_formula_units_Z   1
loop_
 _symmetry_equiv_pos_site_id
 _symmetry_equiv_pos_as_xyz
  1  'x, y, z'
loop_
 _atom_site_type_symbol
 _atom_site_label
 _atom_site_symmetry_multiplicity
 _atom_site_fract_x
 _atom_site_fract_y
 _atom_site_fract_z
 _atom_site_occupancy
  Nd  Nd0  1  0.000000  0.000000  0.000000  1
  Mn  Mn1  1  0.500000  0.500000  0.500000  1
  Sb  Sb2  1  0.154620  0.815887  0.659476  1
  Sb  Sb3  1  0.845380  0.184113  0.340524  1
  Sb  Sb4  1  0.837677  0.504551  0.660207  1
  Sb  Sb5  1  0.162323  0.495449  0.339793  1
  Sb  Sb6  1  0.817694  0.660993  0.156450  1
  Sb  Sb7  1  0.182306  0.339007  0.843550  1
  Sb  Sb8  1  0.505550  0.658330  0.837484  1
  Sb  Sb9  1  0.494450  0.341670  0.162516  1
  Sb  Sb10  1  0.661493  0.156416  0.815694  1
  Sb  Sb11  1  0.338507  0.843584  0.184306  1
  Sb  Sb12  1  0.660377  0.838118  0.505418  1
  Sb  Sb13  1  0.339623  0.161882  0.494582  1
  Ir  Ir14  1  0.500000  0.000000  0.000000  1
  Os  Os15  1  0.000000  0.000000  0.500000  1
  Os  Os16  1  0.000000  0.500000  0.000000  1
