# generated using pymatgen
data_Tb7Zr(B6Os)4
_symmetry_space_group_name_H-M   'P 1'
_cell_length_a   3.65452500
_cell_length_b   9.15763441
_cell_length_c   11.52972768
_cell_angle_alpha   90.07588823
_cell_angle_beta   90.00000000
_cell_angle_gamma   90.00000000
_symmetry_Int_Tables_number   1
_chemical_formula_structural   Tb7Zr(B6Os)4
_chemical_formula_sum   'Tb7 Zr1 B24 Os4'
_cell_volume   385.86279661
_cell_formula_units_Z   1
loop_
 _symmetry_equiv_pos_site_id
 _symmetry_equiv_pos_as_xyz
  1  'x, y, z'
loop_
 _atom_site_type_symbol
 _atom_site_label
 _atom_site_symmetry_multiplicity
 _atom_site_fract_x
 _atom_site_fract_y
 _atom_site_fract_z
 _atom_site_occupancy
  Tb  Tb0  1  0.000000  0.322458  0.413558  1
  Tb  Tb1  1  0.000000  0.677867  0.586892  1
  Tb  Tb2  1  0.000000  0.821366  0.086058  1
  Tb  Tb3  1  0.000000  0.178913  0.913281  1
  Tb  Tb4  1  0.000000  0.944377  0.373696  1
  Tb  Tb5  1  0.000000  0.056451  0.627460  1
  Tb  Tb6  1  0.000000  0.444237  0.125446  1
  Zr  Zr7  1  0.000000  0.556429  0.873215  1
  B  B8  1  0.500000  0.553843  0.432648  1
  B  B9  1  0.500000  0.447005  0.568022  1
  B  B10  1  0.500000  0.053607  0.066513  1
  B  B11  1  0.500000  0.943667  0.933239  1
  B  B12  1  0.500000  0.747371  0.419526  1
  B  B13  1  0.500000  0.253630  0.581326  1
  B  B14  1  0.500000  0.247859  0.080042  1
  B  B15  1  0.500000  0.748339  0.919554  1
  B  B16  1  0.500000  0.790445  0.266215  1
  B  B17  1  0.500000  0.210078  0.734958  1
  B  B18  1  0.500000  0.290673  0.233032  1
  B  B19  1  0.500000  0.706366  0.766339  1
  B  B20  1  0.500000  0.631257  0.185470  1
  B  B21  1  0.500000  0.371374  0.815963  1
  B  B22  1  0.500000  0.132556  0.314248  1
  B  B23  1  0.500000  0.866523  0.685713  1
  B  B24  1  0.500000  0.984198  0.212845  1
  B  B25  1  0.500000  0.014970  0.787930  1
  B  B26  1  0.500000  0.483365  0.286861  1
  B  B27  1  0.500000  0.518896  0.714153  1
  B  B28  1  0.500000  0.605130  0.025184  1
  B  B29  1  0.500000  0.397873  0.967971  1
  B  B30  1  0.500000  0.111584  0.470100  1
  B  B31  1  0.500000  0.888836  0.531008  1
  Os  Os32  1  0.000000  0.637422  0.320272  1
  Os  Os33  1  0.000000  0.364967  0.681689  1
  Os  Os34  1  0.000000  0.138104  0.177284  1
  Os  Os35  1  0.000000  0.857962  0.822293  1
