# generated using pymatgen
data_Y2Ho3Ir2
_symmetry_space_group_name_H-M   'P 1'
_cell_length_a   6.46303024
_cell_length_b   7.23011040
_cell_length_c   8.54148383
_cell_angle_alpha   96.87292163
_cell_angle_beta   112.23038882
_cell_angle_gamma   89.99999914
_symmetry_Int_Tables_number   1
_chemical_formula_structural   Y2Ho3Ir2
_chemical_formula_sum   'Y4 Ho6 Ir4'
_cell_volume   366.36241778
_cell_formula_units_Z   2
loop_
 _symmetry_equiv_pos_site_id
 _symmetry_equiv_pos_as_xyz
  1  'x, y, z'
loop_
 _atom_site_type_symbol
 _atom_site_label
 _atom_site_symmetry_multiplicity
 _atom_site_fract_x
 _atom_site_fract_y
 _atom_site_fract_z
 _atom_site_occupancy
  Y  Y0  1  0.973891  0.917846  0.185322  1
  Y  Y1  1  0.788570  0.582154  0.814678  1
  Y  Y2  1  0.026109  0.082154  0.814678  1
  Y  Y3  1  0.211430  0.417846  0.185322  1
  Ho  Ho4  1  0.650700  0.816143  0.440367  1
  Ho  Ho5  1  0.210333  0.683857  0.559633  1
  Ho  Ho6  1  0.349300  0.183857  0.559633  1
  Ho  Ho7  1  0.789667  0.316143  0.440367  1
  Ho  Ho8  1  0.428239  0.750000  0.000000  1
  Ho  Ho9  1  0.571761  0.250000  0.000000  1
  Ir  Ir10  1  0.820037  0.573628  0.222074  1
  Ir  Ir11  1  0.597964  0.926372  0.777926  1
  Ir  Ir12  1  0.179963  0.426372  0.777926  1
  Ir  Ir13  1  0.402036  0.073628  0.222074  1
