# generated using pymatgen
data_Ho5Er6Th5(MgRu)4
_symmetry_space_group_name_H-M   'P 1'
_cell_length_a   9.69989790
_cell_length_b   9.74716325
_cell_length_c   9.74716331
_cell_angle_alpha   59.83766926
_cell_angle_beta   60.16028618
_cell_angle_gamma   60.16028029
_symmetry_Int_Tables_number   1
_chemical_formula_structural   Ho5Er6Th5(MgRu)4
_chemical_formula_sum   'Ho5 Er6 Th5 Mg4 Ru4'
_cell_volume   652.40664776
_cell_formula_units_Z   1
loop_
 _symmetry_equiv_pos_site_id
 _symmetry_equiv_pos_as_xyz
  1  'x, y, z'
loop_
 _atom_site_type_symbol
 _atom_site_label
 _atom_site_symmetry_multiplicity
 _atom_site_fract_x
 _atom_site_fract_y
 _atom_site_fract_z
 _atom_site_occupancy
  Ho  Ho0  1  0.564649  0.935351  0.935351  1
  Ho  Ho1  1  0.563259  0.935274  0.565142  1
  Ho  Ho2  1  0.936325  0.565142  0.935274  1
  Ho  Ho3  1  0.563259  0.565142  0.935274  1
  Ho  Ho4  1  0.936325  0.935274  0.565142  1
  Er  Er5  1  0.186128  0.813872  0.813872  1
  Er  Er6  1  0.190880  0.810011  0.185101  1
  Er  Er7  1  0.814007  0.185101  0.810011  1
  Er  Er8  1  0.190880  0.185101  0.810011  1
  Er  Er9  1  0.814007  0.810011  0.185101  1
  Er  Er10  1  0.933218  0.566782  0.566782  1
  Th  Th11  1  0.342433  0.348758  0.348758  1
  Th  Th12  1  0.346610  0.347624  0.959156  1
  Th  Th13  1  0.346610  0.959156  0.347624  1
  Th  Th14  1  0.960050  0.348758  0.348758  1
  Th  Th15  1  0.816027  0.183973  0.183973  1
  Mg  Mg16  1  0.581271  0.579673  0.579673  1
  Mg  Mg17  1  0.579650  0.581784  0.258917  1
  Mg  Mg18  1  0.579650  0.258917  0.581784  1
  Mg  Mg19  1  0.259386  0.579673  0.579673  1
  Ru  Ru20  1  0.129781  0.146868  0.146868  1
  Ru  Ru21  1  0.144556  0.142241  0.568647  1
  Ru  Ru22  1  0.144556  0.568647  0.142241  1
  Ru  Ru23  1  0.576481  0.146868  0.146868  1
