# generated using pymatgen
data_Y2Mn2Fe10P7
_symmetry_space_group_name_H-M   'P 1'
_cell_length_a   9.01002729
_cell_length_b   9.02228907
_cell_length_c   3.63819100
_cell_angle_alpha   90.00000000
_cell_angle_beta   90.00000000
_cell_angle_gamma   119.92720379
_symmetry_Int_Tables_number   1
_chemical_formula_structural   Y2Mn2Fe10P7
_chemical_formula_sum   'Y2 Mn2 Fe10 P7'
_cell_volume   256.31680287
_cell_formula_units_Z   1
loop_
 _symmetry_equiv_pos_site_id
 _symmetry_equiv_pos_as_xyz
  1  'x, y, z'
loop_
 _atom_site_type_symbol
 _atom_site_label
 _atom_site_symmetry_multiplicity
 _atom_site_fract_x
 _atom_site_fract_y
 _atom_site_fract_z
 _atom_site_occupancy
  Y  Y0  1  0.669002  0.334815  0.000000  1
  Y  Y1  1  0.331946  0.666680  0.500000  1
  Mn  Mn2  1  0.782375  0.895250  0.500000  1
  Mn  Mn3  1  0.117009  0.216538  0.500000  1
  Fe  Fe4  1  0.056810  0.633414  0.000000  1
  Fe  Fe5  1  0.574456  0.943813  0.000000  1
  Fe  Fe6  1  0.368458  0.424070  0.000000  1
  Fe  Fe7  1  0.273644  0.119455  0.000000  1
  Fe  Fe8  1  0.845220  0.726161  0.000000  1
  Fe  Fe9  1  0.880335  0.152433  0.000000  1
  Fe  Fe10  1  0.433081  0.049194  0.500000  1
  Fe  Fe11  1  0.616222  0.566275  0.500000  1
  Fe  Fe12  1  0.950786  0.385138  0.500000  1
  Fe  Fe13  1  0.096536  0.883903  0.500000  1
  P  P14  1  0.299218  0.889294  0.000000  1
  P  P15  1  0.586005  0.697080  0.000000  1
  P  P16  1  0.109531  0.412991  0.000000  1
  P  P17  1  0.407733  0.289756  0.500000  1
  P  P18  1  0.890876  0.601482  0.500000  1
  P  P19  1  0.709800  0.115000  0.500000  1
  P  P20  1  0.000957  0.997257  0.000000  1
