# generated using pymatgen
data_Er14Tm2Cd4Ir3Ru
_symmetry_space_group_name_H-M   'P 1'
_cell_length_a   9.55896697
_cell_length_b   9.55896704
_cell_length_c   9.55923743
_cell_angle_alpha   59.68315583
_cell_angle_beta   59.68315657
_cell_angle_gamma   59.67902661
_symmetry_Int_Tables_number   1
_chemical_formula_structural   Er14Tm2Cd4Ir3Ru
_chemical_formula_sum   'Er14 Tm2 Cd4 Ir3 Ru1'
_cell_volume   613.16758874
_cell_formula_units_Z   1
loop_
 _symmetry_equiv_pos_site_id
 _symmetry_equiv_pos_as_xyz
  1  'x, y, z'
loop_
 _atom_site_type_symbol
 _atom_site_label
 _atom_site_symmetry_multiplicity
 _atom_site_fract_x
 _atom_site_fract_y
 _atom_site_fract_z
 _atom_site_occupancy
  Er  Er0  1  0.598650  0.205402  0.598624  1
  Er  Er1  1  0.205402  0.598650  0.598624  1
  Er  Er2  1  0.061535  0.438991  0.438838  1
  Er  Er3  1  0.438531  0.059935  0.059977  1
  Er  Er4  1  0.438991  0.061535  0.438838  1
  Er  Er5  1  0.059935  0.438531  0.059977  1
  Er  Er6  1  0.439071  0.439071  0.061499  1
  Er  Er7  1  0.060040  0.060040  0.438409  1
  Er  Er8  1  0.188927  0.811617  0.811894  1
  Er  Er9  1  0.810050  0.188099  0.188149  1
  Er  Er10  1  0.811617  0.188927  0.811894  1
  Er  Er11  1  0.188099  0.810050  0.188149  1
  Er  Er12  1  0.811642  0.811642  0.189091  1
  Er  Er13  1  0.187943  0.187943  0.810318  1
  Tm  Tm14  1  0.598894  0.598894  0.598823  1
  Tm  Tm15  1  0.598536  0.598536  0.205787  1
  Cd  Cd16  1  0.830036  0.830036  0.830084  1
  Cd  Cd17  1  0.830730  0.830730  0.506614  1
  Cd  Cd18  1  0.830674  0.506639  0.830797  1
  Cd  Cd19  1  0.506639  0.830674  0.830797  1
  Ir  Ir20  1  0.393335  0.393335  0.825796  1
  Ir  Ir21  1  0.393599  0.825508  0.393009  1
  Ir  Ir22  1  0.825508  0.393599  0.393009  1
  Ru  Ru23  1  0.391613  0.391613  0.391000  1
