# generated using pymatgen
data_TbYbGaRh3
_symmetry_space_group_name_H-M   'P 1'
_cell_length_a   5.16002993
_cell_length_b   5.16003161
_cell_length_c   5.16003000
_cell_angle_alpha   65.64244709
_cell_angle_beta   65.64245086
_cell_angle_gamma   65.64243783
_symmetry_Int_Tables_number   1
_chemical_formula_structural   TbYbGaRh3
_chemical_formula_sum   'Tb1 Yb1 Ga1 Rh3'
_cell_volume   109.05142938
_cell_formula_units_Z   1
loop_
 _symmetry_equiv_pos_site_id
 _symmetry_equiv_pos_as_xyz
  1  'x, y, z'
loop_
 _atom_site_type_symbol
 _atom_site_label
 _atom_site_symmetry_multiplicity
 _atom_site_fract_x
 _atom_site_fract_y
 _atom_site_fract_z
 _atom_site_occupancy
  Tb  Tb0  1  0.496287  0.496287  0.496287  1
  Yb  Yb1  1  0.754680  0.754680  0.754680  1
  Ga  Ga2  1  0.125399  0.125399  0.125399  1
  Rh  Rh3  1  0.123465  0.626704  0.123465  1
  Rh  Rh4  1  0.123465  0.123465  0.626704  1
  Rh  Rh5  1  0.626704  0.123465  0.123465  1
