# generated using pymatgen
data_YbPr7Lu12Si15Pd
_symmetry_space_group_name_H-M   'P 1'
_cell_length_a   7.43640038
_cell_length_b   7.69162550
_cell_length_c   14.63787923
_cell_angle_alpha   89.96999744
_cell_angle_beta   90.03973430
_cell_angle_gamma   90.24240639
_symmetry_Int_Tables_number   1
_chemical_formula_structural   YbPr7Lu12Si15Pd
_chemical_formula_sum   'Yb1 Pr7 Lu12 Si15 Pd1'
_cell_volume   837.24970777
_cell_formula_units_Z   1
loop_
 _symmetry_equiv_pos_site_id
 _symmetry_equiv_pos_as_xyz
  1  'x, y, z'
loop_
 _atom_site_type_symbol
 _atom_site_label
 _atom_site_symmetry_multiplicity
 _atom_site_fract_x
 _atom_site_fract_y
 _atom_site_fract_z
 _atom_site_occupancy
  Yb  Yb0  1  0.017977  0.181047  0.404651  1
  Pr  Pr1  1  0.518382  0.321099  0.399060  1
  Pr  Pr2  1  0.480431  0.675688  0.901766  1
  Pr  Pr3  1  0.482358  0.672527  0.599297  1
  Pr  Pr4  1  0.980639  0.825501  0.597939  1
  Pr  Pr5  1  0.982437  0.825463  0.901785  1
  Pr  Pr6  1  0.519858  0.325610  0.097536  1
  Pr  Pr7  1  0.018869  0.175741  0.095994  1
  Lu  Lu8  1  0.327547  0.181461  0.621413  1
  Lu  Lu9  1  0.675484  0.824920  0.375133  1
  Lu  Lu10  1  0.657545  0.993800  0.750272  1
  Lu  Lu11  1  0.175364  0.667720  0.378475  1
  Lu  Lu12  1  0.825662  0.320386  0.877405  1
  Lu  Lu13  1  0.822525  0.326549  0.621468  1
  Lu  Lu14  1  0.845567  0.491311  0.253341  1
  Lu  Lu15  1  0.342125  0.005824  0.250775  1
  Lu  Lu16  1  0.321461  0.176944  0.876924  1
  Lu  Lu17  1  0.174429  0.678725  0.123460  1
  Lu  Lu18  1  0.679064  0.824447  0.124943  1
  Lu  Lu19  1  0.157007  0.503712  0.746482  1
  Si  Si20  1  0.278396  0.881155  0.749978  1
  Si  Si21  1  0.470430  0.617537  0.248049  1
  Si  Si22  1  0.028502  0.120337  0.749237  1
  Si  Si23  1  0.532620  0.381192  0.752692  1
  Si  Si24  1  0.974050  0.881342  0.251221  1
  Si  Si25  1  0.722420  0.121673  0.248588  1
  Si  Si26  1  0.850678  0.535342  0.038683  1
  Si  Si27  1  0.353275  0.966896  0.039769  1
  Si  Si28  1  0.148008  0.467633  0.960878  1
  Si  Si29  1  0.646183  0.030788  0.539715  1
  Si  Si30  1  0.353259  0.963391  0.461348  1
  Si  Si31  1  0.841157  0.537462  0.458572  1
  Si  Si32  1  0.778634  0.620393  0.752433  1
  Si  Si33  1  0.224237  0.379726  0.247214  1
  Si  Si34  1  0.648906  0.032347  0.961173  1
  Pd  Pd35  1  0.144511  0.464313  0.542329  1
