# generated using pymatgen
data_YbTmNpO6
_symmetry_space_group_name_H-M   'P 1'
_cell_length_a   5.50826100
_cell_length_b   7.78784855
_cell_length_c   11.63944501
_cell_angle_alpha   74.23782787
_cell_angle_beta   90.00000000
_cell_angle_gamma   90.00000000
_symmetry_Int_Tables_number   1
_chemical_formula_structural   YbTmNpO6
_chemical_formula_sum   'Yb4 Tm4 Np4 O24'
_cell_volume   480.52809960
_cell_formula_units_Z   4
loop_
 _symmetry_equiv_pos_site_id
 _symmetry_equiv_pos_as_xyz
  1  'x, y, z'
loop_
 _atom_site_type_symbol
 _atom_site_label
 _atom_site_symmetry_multiplicity
 _atom_site_fract_x
 _atom_site_fract_y
 _atom_site_fract_z
 _atom_site_occupancy
  Yb  Yb0  1  0.694295  0.500000  0.250000  1
  Yb  Yb1  1  0.305705  0.500000  0.750000  1
  Yb  Yb2  1  0.745804  0.000000  0.250000  1
  Yb  Yb3  1  0.254196  0.000000  0.750000  1
  Tm  Tm4  1  0.183570  0.207031  0.418464  1
  Tm  Tm5  1  0.183570  0.792969  0.081536  1
  Tm  Tm6  1  0.816430  0.792969  0.581536  1
  Tm  Tm7  1  0.816430  0.207031  0.918464  1
  Np  Np8  1  0.254930  0.277611  0.114173  1
  Np  Np9  1  0.254930  0.722389  0.385827  1
  Np  Np10  1  0.745070  0.722389  0.885827  1
  Np  Np11  1  0.745070  0.277611  0.614173  1
  O  O12  1  0.443615  0.200444  0.271173  1
  O  O13  1  0.443615  0.799556  0.228827  1
  O  O14  1  0.556385  0.799556  0.728827  1
  O  O15  1  0.556385  0.200444  0.771173  1
  O  O16  1  0.048253  0.058996  0.099300  1
  O  O17  1  0.048253  0.941004  0.400700  1
  O  O18  1  0.951747  0.941004  0.900700  1
  O  O19  1  0.951747  0.058996  0.599300  1
  O  O20  1  0.980448  0.286498  0.232063  1
  O  O21  1  0.980448  0.713502  0.267937  1
  O  O22  1  0.019552  0.713502  0.767937  1
  O  O23  1  0.019552  0.286498  0.732063  1
  O  O24  1  0.878897  0.372836  0.447900  1
  O  O25  1  0.878897  0.627164  0.052100  1
  O  O26  1  0.121103  0.627164  0.552100  1
  O  O27  1  0.121103  0.372836  0.947900  1
  O  O28  1  0.622595  0.518677  0.613000  1
  O  O29  1  0.622595  0.481323  0.887000  1
  O  O30  1  0.377405  0.481323  0.387000  1
  O  O31  1  0.377405  0.518677  0.113000  1
  O  O32  1  0.455620  0.157203  0.562143  1
  O  O33  1  0.455620  0.842797  0.937857  1
  O  O34  1  0.544380  0.842797  0.437857  1
  O  O35  1  0.544380  0.157203  0.062143  1
