# generated using pymatgen
data_Zr8Al14GeRh7
_symmetry_space_group_name_H-M   'P 1'
_cell_length_a   8.90192782
_cell_length_b   8.90192658
_cell_length_c   8.90192772
_cell_angle_alpha   120.25243851
_cell_angle_beta   119.78985968
_cell_angle_gamma   89.96383937
_symmetry_Int_Tables_number   1
_chemical_formula_structural   Zr8Al14GeRh7
_chemical_formula_sum   'Zr8 Al14 Ge1 Rh7'
_cell_volume   498.64256097
_cell_formula_units_Z   1
loop_
 _symmetry_equiv_pos_site_id
 _symmetry_equiv_pos_as_xyz
  1  'x, y, z'
loop_
 _atom_site_type_symbol
 _atom_site_label
 _atom_site_symmetry_multiplicity
 _atom_site_fract_x
 _atom_site_fract_y
 _atom_site_fract_z
 _atom_site_occupancy
  Zr  Zr0  1  0.801115  0.295264  0.083927  1
  Zr  Zr1  1  0.211337  0.295264  0.494149  1
  Zr  Zr2  1  0.199393  0.699393  0.500000  1
  Zr  Zr3  1  0.211337  0.717189  0.916073  1
  Zr  Zr4  1  0.801115  0.717189  0.505851  1
  Zr  Zr5  1  0.785009  0.285009  0.500000  1
  Zr  Zr6  1  0.379557  0.120677  0.741121  1
  Zr  Zr7  1  0.379557  0.638436  0.258879  1
  Al  Al8  1  0.160961  0.330999  0.170036  1
  Al  Al9  1  0.160961  0.990925  0.829964  1
  Al  Al10  1  0.152541  0.338383  0.814157  1
  Al  Al11  1  0.524223  0.338383  0.185843  1
  Al  Al12  1  0.835970  0.661818  0.825850  1
  Al  Al13  1  0.835970  0.010118  0.174150  1
  Al  Al14  1  0.834810  0.663365  0.171446  1
  Al  Al15  1  0.491919  0.663365  0.828554  1
  Al  Al16  1  0.380627  0.121051  0.259577  1
  Al  Al17  1  0.861474  0.121051  0.740423  1
  Al  Al18  1  0.622486  0.878868  0.256383  1
  Al  Al19  1  0.622486  0.366103  0.743617  1
  Al  Al20  1  0.623132  0.878813  0.744318  1
  Al  Al21  1  0.134495  0.878813  0.255682  1
  Ge  Ge22  1  0.992007  0.492007  0.500000  1
  Rh  Rh23  1  0.997952  0.999188  0.500654  1
  Rh  Rh24  1  0.498534  0.999188  0.001235  1
  Rh  Rh25  1  0.498829  0.498829  0.000000  1
  Rh  Rh26  1  0.498534  0.497298  0.499346  1
  Rh  Rh27  1  0.997952  0.497298  0.998765  1
  Rh  Rh28  1  0.999174  0.999174  0.000000  1
  Rh  Rh29  1  0.506540  0.006540  0.500000  1
