# generated using pymatgen
data_Yb3Y(Mo2C3)2
_symmetry_space_group_name_H-M   'P 1'
_cell_length_a   6.51468700
_cell_length_b   5.93167942
_cell_length_c   11.87200961
_cell_angle_alpha   66.62180796
_cell_angle_beta   90.00000000
_cell_angle_gamma   90.00000000
_symmetry_Int_Tables_number   1
_chemical_formula_structural   Yb3Y(Mo2C3)2
_chemical_formula_sum   'Yb6 Y2 Mo8 C12'
_cell_volume   421.10804925
_cell_formula_units_Z   2
loop_
 _symmetry_equiv_pos_site_id
 _symmetry_equiv_pos_as_xyz
  1  'x, y, z'
loop_
 _atom_site_type_symbol
 _atom_site_label
 _atom_site_symmetry_multiplicity
 _atom_site_fract_x
 _atom_site_fract_y
 _atom_site_fract_z
 _atom_site_occupancy
  Yb  Yb0  1  0.795964  0.680978  0.905639  1
  Yb  Yb1  1  0.295964  0.319022  0.594361  1
  Yb  Yb2  1  0.207239  0.313770  0.091522  1
  Yb  Yb3  1  0.707239  0.686230  0.408478  1
  Yb  Yb4  1  0.994357  0.730245  0.637488  1
  Yb  Yb5  1  0.494357  0.269755  0.862512  1
  Y  Y6  1  0.002358  0.264933  0.363601  1
  Y  Y7  1  0.502358  0.735067  0.136399  1
  Mo  Mo8  1  0.989352  0.823471  0.125128  1
  Mo  Mo9  1  0.489352  0.176529  0.374872  1
  Mo  Mo10  1  0.011044  0.178617  0.878029  1
  Mo  Mo11  1  0.511044  0.821383  0.621971  1
  Mo  Mo12  1  0.766468  0.184000  0.655050  1
  Mo  Mo13  1  0.232456  0.812163  0.344215  1
  Mo  Mo14  1  0.732456  0.187837  0.155785  1
  Mo  Mo15  1  0.266468  0.816000  0.844950  1
  C  C16  1  0.643479  0.507259  0.648872  1
  C  C17  1  0.143479  0.492741  0.851128  1
  C  C18  1  0.355094  0.489599  0.348013  1
  C  C19  1  0.855094  0.510401  0.151987  1
  C  C20  1  0.219647  0.920498  0.992155  1
  C  C21  1  0.719647  0.079502  0.507845  1
  C  C22  1  0.782070  0.084642  0.009525  1
  C  C23  1  0.282070  0.915358  0.490475  1
  C  C24  1  0.472233  0.025445  0.243348  1
  C  C25  1  0.028237  0.034208  0.744000  1
  C  C26  1  0.972233  0.974555  0.256652  1
  C  C27  1  0.528237  0.965792  0.756000  1
