# generated using pymatgen
data_KNdSm2(SbAu)4
_symmetry_space_group_name_H-M   'P 1'
_cell_length_a   4.66280800
_cell_length_b   4.66280784
_cell_length_c   17.55087200
_cell_angle_alpha   90.00000000
_cell_angle_beta   90.00000000
_cell_angle_gamma   120.00000111
_symmetry_Int_Tables_number   1
_chemical_formula_structural   KNdSm2(SbAu)4
_chemical_formula_sum   'K1 Nd1 Sm2 Sb4 Au4'
_cell_volume   330.46416863
_cell_formula_units_Z   1
loop_
 _symmetry_equiv_pos_site_id
 _symmetry_equiv_pos_as_xyz
  1  'x, y, z'
loop_
 _atom_site_type_symbol
 _atom_site_label
 _atom_site_symmetry_multiplicity
 _atom_site_fract_x
 _atom_site_fract_y
 _atom_site_fract_z
 _atom_site_occupancy
  K  K0  1  0.000000  0.000000  0.250455  1
  Nd  Nd1  1  0.000000  0.000000  0.986660  1
  Sm  Sm2  1  0.000000  0.000000  0.512627  1
  Sm  Sm3  1  0.000000  0.000000  0.748385  1
  Sb  Sb4  1  0.333333  0.666667  0.391348  1
  Sb  Sb5  1  0.666667  0.333333  0.617056  1
  Sb  Sb6  1  0.666667  0.333333  0.879624  1
  Sb  Sb7  1  0.333333  0.666667  0.109424  1
  Au  Au8  1  0.666667  0.333333  0.425244  1
  Au  Au9  1  0.333333  0.666667  0.665148  1
  Au  Au10  1  0.333333  0.666667  0.833635  1
  Au  Au11  1  0.666667  0.333333  0.080395  1
