# generated using pymatgen
data_Nb12Co8W4C3N
_symmetry_space_group_name_H-M   'P 1'
_cell_length_a   8.22340866
_cell_length_b   8.21081894
_cell_length_c   8.22340800
_cell_angle_alpha   59.94926822
_cell_angle_beta   60.00000267
_cell_angle_gamma   59.94926500
_symmetry_Int_Tables_number   1
_chemical_formula_structural   Nb12Co8W4C3N
_chemical_formula_sum   'Nb12 Co8 W4 C3 N1'
_cell_volume   392.32116594
_cell_formula_units_Z   1
loop_
 _symmetry_equiv_pos_site_id
 _symmetry_equiv_pos_as_xyz
  1  'x, y, z'
loop_
 _atom_site_type_symbol
 _atom_site_label
 _atom_site_symmetry_multiplicity
 _atom_site_fract_x
 _atom_site_fract_y
 _atom_site_fract_z
 _atom_site_occupancy
  Nb  Nb0  1  0.690180  0.309713  0.690180  1
  Nb  Nb1  1  0.941571  0.557864  0.558994  1
  Nb  Nb2  1  0.559820  0.940287  0.940073  1
  Nb  Nb3  1  0.941571  0.557864  0.941571  1
  Nb  Nb4  1  0.558994  0.557864  0.941571  1
  Nb  Nb5  1  0.940073  0.940287  0.559820  1
  Nb  Nb6  1  0.691006  0.692136  0.308429  1
  Nb  Nb7  1  0.308429  0.692136  0.691006  1
  Nb  Nb8  1  0.690180  0.309713  0.309927  1
  Nb  Nb9  1  0.309927  0.309713  0.690180  1
  Nb  Nb10  1  0.559820  0.940287  0.559820  1
  Nb  Nb11  1  0.308429  0.692136  0.308429  1
  Co  Co12  1  0.327078  0.326232  0.327078  1
  Co  Co13  1  0.230389  0.923768  0.922922  1
  Co  Co14  1  0.922835  0.231496  0.922835  1
  Co  Co15  1  0.922922  0.923768  0.230389  1
  Co  Co16  1  0.327165  0.018504  0.327165  1
  Co  Co17  1  0.327078  0.326232  0.019611  1
  Co  Co18  1  0.019611  0.326232  0.327078  1
  Co  Co19  1  0.922922  0.923768  0.922922  1
  W  W20  1  0.125000  0.125000  0.125000  1
  W  W21  1  0.625000  0.125000  0.125000  1
  W  W22  1  0.125000  0.625000  0.125000  1
  W  W23  1  0.125000  0.125000  0.625000  1
  C  C24  1  0.625000  0.625000  0.625000  1
  C  C25  1  0.125000  0.625000  0.625000  1
  C  C26  1  0.625000  0.625000  0.125000  1
  N  N27  1  0.625000  0.125000  0.625000  1
