# generated using pymatgen
data_PrDy3(CuP2)4
_symmetry_space_group_name_H-M   'P 1'
_cell_length_a   3.73022000
_cell_length_b   3.80205879
_cell_length_c   19.68254400
_cell_angle_alpha   90.05509679
_cell_angle_beta   90.00000000
_cell_angle_gamma   90.00000000
_symmetry_Int_Tables_number   1
_chemical_formula_structural   PrDy3(CuP2)4
_chemical_formula_sum   'Pr1 Dy3 Cu4 P8'
_cell_volume   279.14786090
_cell_formula_units_Z   1
loop_
 _symmetry_equiv_pos_site_id
 _symmetry_equiv_pos_as_xyz
  1  'x, y, z'
loop_
 _atom_site_type_symbol
 _atom_site_label
 _atom_site_symmetry_multiplicity
 _atom_site_fract_x
 _atom_site_fract_y
 _atom_site_fract_z
 _atom_site_occupancy
  Pr  Pr0  1  0.750000  0.216004  0.117142  1
  Dy  Dy1  1  0.250000  0.715990  0.385011  1
  Dy  Dy2  1  0.250000  0.785985  0.877960  1
  Dy  Dy3  1  0.750000  0.283608  0.617470  1
  Cu  Cu4  1  0.250000  0.217091  0.254061  1
  Cu  Cu5  1  0.750000  0.783156  0.748026  1
  Cu  Cu6  1  0.250000  0.280997  0.747986  1
  Cu  Cu7  1  0.750000  0.715194  0.255054  1
  P  P8  1  0.750000  0.810307  0.503404  1
  P  P9  1  0.750000  0.689693  0.996187  1
  P  P10  1  0.250000  0.190591  0.498914  1
  P  P11  1  0.250000  0.311787  0.991788  1
  P  P12  1  0.250000  0.716012  0.179542  1
  P  P13  1  0.750000  0.215589  0.331418  1
  P  P14  1  0.750000  0.285116  0.824860  1
  P  P15  1  0.250000  0.782879  0.671176  1
