# generated using pymatgen
data_Tb6Al24IrRu2Rh5
_symmetry_space_group_name_H-M   'P 1'
_cell_length_a   8.83383135
_cell_length_b   8.80942762
_cell_length_c   9.55287957
_cell_angle_alpha   90.00000267
_cell_angle_beta   90.05735134
_cell_angle_gamma   119.90866205
_symmetry_Int_Tables_number   1
_chemical_formula_structural   Tb6Al24IrRu2Rh5
_chemical_formula_sum   'Tb6 Al24 Ir1 Ru2 Rh5'
_cell_volume   644.40725514
_cell_formula_units_Z   1
loop_
 _symmetry_equiv_pos_site_id
 _symmetry_equiv_pos_as_xyz
  1  'x, y, z'
loop_
 _atom_site_type_symbol
 _atom_site_label
 _atom_site_symmetry_multiplicity
 _atom_site_fract_x
 _atom_site_fract_y
 _atom_site_fract_z
 _atom_site_occupancy
  Tb  Tb0  1  0.382111  0.191055  0.250458  1
  Tb  Tb1  1  0.809397  0.192180  0.250513  1
  Tb  Tb2  1  0.809397  0.617216  0.250513  1
  Tb  Tb3  1  0.617889  0.808945  0.749542  1
  Tb  Tb4  1  0.190603  0.807820  0.749487  1
  Tb  Tb5  1  0.190603  0.382784  0.749487  1
  Al  Al6  1  0.437833  0.875567  0.250045  1
  Al  Al7  1  0.125041  0.562520  0.249551  1
  Al  Al8  1  0.437833  0.562266  0.250045  1
  Al  Al9  1  0.562167  0.124433  0.749955  1
  Al  Al10  1  0.874959  0.437480  0.750449  1
  Al  Al11  1  0.562167  0.437734  0.749955  1
  Al  Al12  1  0.163463  0.836522  0.424137  1
  Al  Al13  1  0.163463  0.326943  0.424137  1
  Al  Al14  1  0.673388  0.836695  0.423849  1
  Al  Al15  1  0.836537  0.163478  0.575863  1
  Al  Al16  1  0.836537  0.673057  0.575863  1
  Al  Al17  1  0.326612  0.163305  0.576151  1
  Al  Al18  1  0.836363  0.163034  0.923789  1
  Al  Al19  1  0.836363  0.673327  0.923789  1
  Al  Al20  1  0.326660  0.163329  0.924118  1
  Al  Al21  1  0.163637  0.836966  0.076211  1
  Al  Al22  1  0.163637  0.326673  0.076211  1
  Al  Al23  1  0.673340  0.836671  0.075882  1
  Al  Al24  1  0.333687  0.666844  0.529310  1
  Al  Al25  1  0.666313  0.333156  0.470690  1
  Al  Al26  1  0.666726  0.333362  0.029251  1
  Al  Al27  1  0.333274  0.666638  0.970749  1
  Al  Al28  1  0.000272  0.000136  0.250100  1
  Al  Al29  1  0.999728  0.999864  0.749900  1
  Ir  Ir30  1  0.000000  0.500000  0.500000  1
  Ru  Ru31  1  0.000000  0.000000  0.500000  1
  Ru  Ru32  1  0.000000  0.000000  0.000000  1
  Rh  Rh33  1  0.500000  0.000000  0.500000  1
  Rh  Rh34  1  0.500000  0.500000  0.500000  1
  Rh  Rh35  1  0.500000  0.000000  0.000000  1
  Rh  Rh36  1  0.000000  0.500000  0.000000  1
  Rh  Rh37  1  0.500000  0.500000  0.000000  1
