# generated using pymatgen
data_Tb4FeCo3I2
_symmetry_space_group_name_H-M   'P 1'
_cell_length_a   3.94827200
_cell_length_b   3.94827249
_cell_length_c   17.15265100
_cell_angle_alpha   90.00000000
_cell_angle_beta   90.00000000
_cell_angle_gamma   119.99997911
_symmetry_Int_Tables_number   1
_chemical_formula_structural   Tb4FeCo3I2
_chemical_formula_sum   'Tb4 Fe1 Co3 I2'
_cell_volume   231.56672659
_cell_formula_units_Z   1
loop_
 _symmetry_equiv_pos_site_id
 _symmetry_equiv_pos_as_xyz
  1  'x, y, z'
loop_
 _atom_site_type_symbol
 _atom_site_label
 _atom_site_symmetry_multiplicity
 _atom_site_fract_x
 _atom_site_fract_y
 _atom_site_fract_z
 _atom_site_occupancy
  Tb  Tb0  1  0.000000  0.000000  0.105770  1
  Tb  Tb1  1  0.000000  0.000000  0.603727  1
  Tb  Tb2  1  0.000000  0.000000  0.396343  1
  Tb  Tb3  1  0.000000  0.000000  0.893947  1
  Fe  Fe4  1  0.666667  0.333333  0.998409  1
  Co  Co5  1  0.333333  0.666667  0.001689  1
  Co  Co6  1  0.666667  0.333333  0.501160  1
  Co  Co7  1  0.333333  0.666667  0.498890  1
  I  I8  1  0.666667  0.333333  0.250283  1
  I  I9  1  0.333333  0.666667  0.749781  1
