# generated using pymatgen
data_Nd12Ga4Ge4PdRu7
_symmetry_space_group_name_H-M   'P 1'
_cell_length_a   5.72458279
_cell_length_b   8.07801192
_cell_length_c   13.73229688
_cell_angle_alpha   90.35851569
_cell_angle_beta   90.24958115
_cell_angle_gamma   90.17751825
_symmetry_Int_Tables_number   1
_chemical_formula_structural   Nd12Ga4Ge4PdRu7
_chemical_formula_sum   'Nd12 Ga4 Ge4 Pd1 Ru7'
_cell_volume   635.00445215
_cell_formula_units_Z   1
loop_
 _symmetry_equiv_pos_site_id
 _symmetry_equiv_pos_as_xyz
  1  'x, y, z'
loop_
 _atom_site_type_symbol
 _atom_site_label
 _atom_site_symmetry_multiplicity
 _atom_site_fract_x
 _atom_site_fract_y
 _atom_site_fract_z
 _atom_site_occupancy
  Nd  Nd0  1  0.632324  0.259359  0.256216  1
  Nd  Nd1  1  0.373690  0.735458  0.748227  1
  Nd  Nd2  1  0.365509  0.768971  0.251869  1
  Nd  Nd3  1  0.633003  0.233395  0.750532  1
  Nd  Nd4  1  0.144683  0.391593  0.096886  1
  Nd  Nd5  1  0.856535  0.599564  0.896691  1
  Nd  Nd6  1  0.850504  0.593012  0.598607  1
  Nd  Nd7  1  0.847963  0.902383  0.402746  1
  Nd  Nd8  1  0.151997  0.405908  0.401542  1
  Nd  Nd9  1  0.150997  0.096498  0.598845  1
  Nd  Nd10  1  0.151589  0.094741  0.899820  1
  Nd  Nd11  1  0.849464  0.911305  0.097777  1
  Ga  Ga12  1  0.620995  0.247666  0.998235  1
  Ga  Ga13  1  0.368575  0.755002  0.998223  1
  Ga  Ga14  1  0.380687  0.748951  0.499129  1
  Ga  Ga15  1  0.618900  0.249900  0.500671  1
  Ge  Ge16  1  0.134100  0.114949  0.251652  1
  Ge  Ge17  1  0.868866  0.884617  0.748081  1
  Ge  Ge18  1  0.867059  0.616051  0.249992  1
  Ge  Ge19  1  0.140122  0.384612  0.751134  1
  Pd  Pd20  1  0.639604  0.534366  0.092873  1
  Ru  Ru21  1  0.353361  0.032747  0.093279  1
  Ru  Ru22  1  0.647088  0.965754  0.906724  1
  Ru  Ru23  1  0.646917  0.970659  0.592912  1
  Ru  Ru24  1  0.645989  0.527648  0.404641  1
  Ru  Ru25  1  0.351626  0.029287  0.407401  1
  Ru  Ru26  1  0.354344  0.471915  0.593832  1
  Ru  Ru27  1  0.353510  0.473685  0.911461  1
