# generated using pymatgen
data_Er4Co9Si4Tc
_symmetry_space_group_name_H-M   'P 1'
_cell_length_a   11.43798908
_cell_length_b   11.43798875
_cell_length_c   11.43798900
_cell_angle_alpha   26.24137214
_cell_angle_beta   26.24137553
_cell_angle_gamma   26.24137033
_symmetry_Int_Tables_number   1
_chemical_formula_structural   Er4Co9Si4Tc
_chemical_formula_sum   'Er4 Co9 Si4 Tc1'
_cell_volume   257.77794212
_cell_formula_units_Z   1
loop_
 _symmetry_equiv_pos_site_id
 _symmetry_equiv_pos_as_xyz
  1  'x, y, z'
loop_
 _atom_site_type_symbol
 _atom_site_label
 _atom_site_symmetry_multiplicity
 _atom_site_fract_x
 _atom_site_fract_y
 _atom_site_fract_z
 _atom_site_occupancy
  Er  Er0  1  0.950050  0.950050  0.950050  1
  Er  Er1  1  0.852098  0.852098  0.852098  1
  Er  Er2  1  0.147902  0.147902  0.147902  1
  Er  Er3  1  0.049950  0.049950  0.049950  1
  Co  Co4  1  0.607818  0.607818  0.105795  1
  Co  Co5  1  0.894205  0.392182  0.392182  1
  Co  Co6  1  0.500000  0.000000  0.500000  1
  Co  Co7  1  0.392182  0.894205  0.392182  1
  Co  Co8  1  0.500000  0.500000  0.000000  1
  Co  Co9  1  0.105795  0.607818  0.607818  1
  Co  Co10  1  0.000000  0.500000  0.500000  1
  Co  Co11  1  0.392182  0.392182  0.894205  1
  Co  Co12  1  0.607818  0.105795  0.607818  1
  Si  Si13  1  0.280195  0.280195  0.280195  1
  Si  Si14  1  0.387130  0.387130  0.387130  1
  Si  Si15  1  0.719805  0.719805  0.719805  1
  Si  Si16  1  0.612870  0.612870  0.612870  1
  Tc  Tc17  1  0.500000  0.500000  0.500000  1
