# generated using pymatgen
data_Lu6TlCuTc
_symmetry_space_group_name_H-M   'P 1'
_cell_length_a   8.34103960
_cell_length_b   8.34104080
_cell_length_c   8.34104000
_cell_angle_alpha   113.36813567
_cell_angle_beta   111.12523714
_cell_angle_gamma   104.06100215
_symmetry_Int_Tables_number   1
_chemical_formula_structural   Lu6TlCuTc
_chemical_formula_sum   'Lu12 Tl2 Cu2 Tc2'
_cell_volume   443.58547880
_cell_formula_units_Z   2
loop_
 _symmetry_equiv_pos_site_id
 _symmetry_equiv_pos_as_xyz
  1  'x, y, z'
loop_
 _atom_site_type_symbol
 _atom_site_label
 _atom_site_symmetry_multiplicity
 _atom_site_fract_x
 _atom_site_fract_y
 _atom_site_fract_z
 _atom_site_occupancy
  Lu  Lu0  1  0.663198  0.848401  0.185203  1
  Lu  Lu1  1  0.336802  0.522005  0.185203  1
  Lu  Lu2  1  0.813584  0.782158  0.595742  1
  Lu  Lu3  1  0.186416  0.782158  0.968573  1
  Lu  Lu4  1  0.813584  0.217842  0.031427  1
  Lu  Lu5  1  0.186416  0.217842  0.404258  1
  Lu  Lu6  1  0.663198  0.477995  0.814797  1
  Lu  Lu7  1  0.336802  0.151599  0.814797  1
  Lu  Lu8  1  0.557968  0.258522  0.299446  1
  Lu  Lu9  1  0.442032  0.741478  0.700554  1
  Lu  Lu10  1  0.040925  0.741478  0.299446  1
  Lu  Lu11  1  0.959075  0.258522  0.700554  1
  Tl  Tl12  1  0.000000  0.500000  0.500000  1
  Tl  Tl13  1  0.500000  0.000000  0.500000  1
  Cu  Cu14  1  0.879760  0.879760  0.000000  1
  Cu  Cu15  1  0.120240  0.120240  0.000000  1
  Tc  Tc16  1  0.324784  0.500000  0.824784  1
  Tc  Tc17  1  0.675216  0.500000  0.175216  1
