# generated using pymatgen
data_YTh7CrS17
_symmetry_space_group_name_H-M   'P 1'
_cell_length_a   8.03764799
_cell_length_b   8.02221483
_cell_length_c   10.63435300
_cell_angle_alpha   80.57211983
_cell_angle_beta   80.40863559
_cell_angle_gamma   64.88782191
_symmetry_Int_Tables_number   1
_chemical_formula_structural   YTh7CrS17
_chemical_formula_sum   'Y1 Th7 Cr1 S17'
_cell_volume   608.87060533
_cell_formula_units_Z   1
loop_
 _symmetry_equiv_pos_site_id
 _symmetry_equiv_pos_as_xyz
  1  'x, y, z'
loop_
 _atom_site_type_symbol
 _atom_site_label
 _atom_site_symmetry_multiplicity
 _atom_site_fract_x
 _atom_site_fract_y
 _atom_site_fract_z
 _atom_site_occupancy
  Y  Y0  1  0.812968  0.302858  0.296450  1
  Th  Th1  1  0.300058  0.813292  0.293460  1
  Th  Th2  1  0.186008  0.699274  0.704361  1
  Th  Th3  1  0.699300  0.188059  0.702700  1
  Th  Th4  1  0.205512  0.205463  0.542438  1
  Th  Th5  1  0.794218  0.796673  0.452808  1
  Th  Th6  1  0.684428  0.677202  0.980830  1
  Th  Th7  1  0.317397  0.318140  0.024200  1
  Cr  Cr8  1  0.999909  0.001767  0.000950  1
  S  S9  1  0.824307  0.429731  0.530539  1
  S  S10  1  0.431434  0.821529  0.531269  1
  S  S11  1  0.177140  0.568791  0.467531  1
  S  S12  1  0.571139  0.177881  0.468384  1
  S  S13  1  0.944484  0.316526  0.028910  1
  S  S14  1  0.318609  0.944646  0.025423  1
  S  S15  1  0.055450  0.682618  0.973120  1
  S  S16  1  0.682410  0.056096  0.972596  1
  S  S17  1  0.207144  0.206885  0.278223  1
  S  S18  1  0.791048  0.790708  0.722569  1
  S  S19  1  0.058138  0.058708  0.777401  1
  S  S20  1  0.939764  0.948109  0.223843  1
  S  S21  1  0.303455  0.304139  0.755432  1
  S  S22  1  0.695044  0.694268  0.244823  1
  S  S23  1  0.519832  0.521407  0.832068  1
  S  S24  1  0.478568  0.479828  0.166116  1
  S  S25  1  0.002235  0.995404  0.503555  1
