# generated using pymatgen
data_Tm5ZrTaO12
_symmetry_space_group_name_H-M   'P 1'
_cell_length_a   6.38711239
_cell_length_b   6.34824718
_cell_length_c   6.35410606
_cell_angle_alpha   99.14483890
_cell_angle_beta   98.89756801
_cell_angle_gamma   98.78122262
_symmetry_Int_Tables_number   1
_chemical_formula_structural   Tm5ZrTaO12
_chemical_formula_sum   'Tm5 Zr1 Ta1 O12'
_cell_volume   247.12038410
_cell_formula_units_Z   1
loop_
 _symmetry_equiv_pos_site_id
 _symmetry_equiv_pos_as_xyz
  1  'x, y, z'
loop_
 _atom_site_type_symbol
 _atom_site_label
 _atom_site_symmetry_multiplicity
 _atom_site_fract_x
 _atom_site_fract_y
 _atom_site_fract_z
 _atom_site_occupancy
  Tm  Tm0  1  0.390186  0.687397  0.856704  1
  Tm  Tm1  1  0.861123  0.387469  0.692119  1
  Tm  Tm2  1  0.316872  0.144974  0.608518  1
  Tm  Tm3  1  0.612189  0.311884  0.138461  1
  Tm  Tm4  1  0.138736  0.610333  0.308997  1
  Zr  Zr5  1  0.681228  0.855973  0.387150  1
  Ta  Ta6  1  0.002032  0.997953  0.000757  1
  O  O7  1  0.436375  0.596554  0.182542  1
  O  O8  1  0.175738  0.430556  0.583229  1
  O  O9  1  0.594321  0.171831  0.427463  1
  O  O10  1  0.569034  0.413211  0.820222  1
  O  O11  1  0.818116  0.581927  0.415674  1
  O  O12  1  0.427569  0.823036  0.566604  1
  O  O13  1  0.903676  0.027590  0.691043  1
  O  O14  1  0.955102  0.306654  0.074738  1
  O  O15  1  0.302373  0.081407  0.954353  1
  O  O16  1  0.077683  0.958020  0.308654  1
  O  O17  1  0.044797  0.692603  0.923967  1
  O  O18  1  0.692851  0.920628  0.058802  1
