# generated using pymatgen
data_La6BiTe7
_symmetry_space_group_name_H-M   'P 1'
_cell_length_a   8.40287545
_cell_length_b   8.40287595
_cell_length_c   8.40287608
_cell_angle_alpha   109.36992334
_cell_angle_beta   109.36991771
_cell_angle_gamma   109.36992192
_symmetry_Int_Tables_number   1
_chemical_formula_structural   La6BiTe7
_chemical_formula_sum   'La6 Bi1 Te7'
_cell_volume   458.43751626
_cell_formula_units_Z   1
loop_
 _symmetry_equiv_pos_site_id
 _symmetry_equiv_pos_as_xyz
  1  'x, y, z'
loop_
 _atom_site_type_symbol
 _atom_site_label
 _atom_site_symmetry_multiplicity
 _atom_site_fract_x
 _atom_site_fract_y
 _atom_site_fract_z
 _atom_site_occupancy
  La  La0  1  0.874325  0.124596  0.750490  1
  La  La1  1  0.375709  0.250129  0.625216  1
  La  La2  1  0.124596  0.750490  0.874325  1
  La  La3  1  0.750490  0.874325  0.124596  1
  La  La4  1  0.250129  0.625216  0.375709  1
  La  La5  1  0.625216  0.375709  0.250129  1
  Bi  Bi6  1  0.655722  0.655722  0.655722  1
  Te  Te7  1  0.499815  0.999937  0.347210  1
  Te  Te8  1  0.999937  0.347210  0.499815  1
  Te  Te9  1  0.347210  0.499815  0.999937  1
  Te  Te10  1  0.999109  0.846153  0.499164  1
  Te  Te11  1  0.846153  0.499164  0.999109  1
  Te  Te12  1  0.152425  0.152425  0.152425  1
  Te  Te13  1  0.499164  0.999109  0.846153  1
