# generated using pymatgen
data_Th2Sb(AsRh2)6
_symmetry_space_group_name_H-M   'P 1'
_cell_length_a   10.10538500
_cell_length_b   10.10538464
_cell_length_c   4.01865800
_cell_angle_alpha   90.00000000
_cell_angle_beta   90.00000000
_cell_angle_gamma   119.99999790
_symmetry_Int_Tables_number   1
_chemical_formula_structural   Th2Sb(AsRh2)6
_chemical_formula_sum   'Th2 Sb1 As6 Rh12'
_cell_volume   355.39998222
_cell_formula_units_Z   1
loop_
 _symmetry_equiv_pos_site_id
 _symmetry_equiv_pos_as_xyz
  1  'x, y, z'
loop_
 _atom_site_type_symbol
 _atom_site_label
 _atom_site_symmetry_multiplicity
 _atom_site_fract_x
 _atom_site_fract_y
 _atom_site_fract_z
 _atom_site_occupancy
  Th  Th0  1  0.333333  0.666667  0.245494  1
  Th  Th1  1  0.666667  0.333333  0.754506  1
  Sb  Sb2  1  0.000000  0.000000  0.500000  1
  As  As3  1  0.402499  0.114289  0.254874  1
  As  As4  1  0.711790  0.597501  0.254874  1
  As  As5  1  0.885711  0.288210  0.254874  1
  As  As6  1  0.597501  0.885711  0.745126  1
  As  As7  1  0.288210  0.402499  0.745126  1
  As  As8  1  0.114289  0.711790  0.745126  1
  Rh  Rh9  1  0.451227  0.382159  0.253744  1
  Rh  Rh10  1  0.930932  0.548773  0.253744  1
  Rh  Rh11  1  0.617841  0.069068  0.253744  1
  Rh  Rh12  1  0.548773  0.617841  0.746256  1
  Rh  Rh13  1  0.069068  0.451227  0.746256  1
  Rh  Rh14  1  0.382159  0.930932  0.746256  1
  Rh  Rh15  1  0.154826  0.877441  0.236127  1
  Rh  Rh16  1  0.722615  0.845174  0.236127  1
  Rh  Rh17  1  0.122559  0.277385  0.236127  1
  Rh  Rh18  1  0.845174  0.122559  0.763873  1
  Rh  Rh19  1  0.277385  0.154826  0.763873  1
  Rh  Rh20  1  0.877441  0.722615  0.763873  1
