# generated using pymatgen
data_CeNiS2
_symmetry_space_group_name_H-M   'P 1'
_cell_length_a   7.07646400
_cell_length_b   6.29238670
_cell_length_c   6.67163506
_cell_angle_alpha   82.68119928
_cell_angle_beta   90.00000000
_cell_angle_gamma   90.00000000
_symmetry_Int_Tables_number   1
_chemical_formula_structural   CeNiS2
_chemical_formula_sum   'Ce4 Ni4 S8'
_cell_volume   294.65320258
_cell_formula_units_Z   4
loop_
 _symmetry_equiv_pos_site_id
 _symmetry_equiv_pos_as_xyz
  1  'x, y, z'
loop_
 _atom_site_type_symbol
 _atom_site_label
 _atom_site_symmetry_multiplicity
 _atom_site_fract_x
 _atom_site_fract_y
 _atom_site_fract_z
 _atom_site_occupancy
  Ce  Ce0  1  0.555966  0.699671  0.196132  1
  Ce  Ce1  1  0.055966  0.300329  0.303868  1
  Ce  Ce2  1  0.444034  0.300329  0.803868  1
  Ce  Ce3  1  0.944034  0.699671  0.696132  1
  Ni  Ni4  1  0.831389  0.057025  0.963277  1
  Ni  Ni5  1  0.168611  0.942975  0.036723  1
  Ni  Ni6  1  0.331389  0.942975  0.536723  1
  Ni  Ni7  1  0.668611  0.057025  0.463277  1
  S  S8  1  0.887372  0.907755  0.279927  1
  S  S9  1  0.387372  0.092245  0.220073  1
  S  S10  1  0.112628  0.092245  0.720073  1
  S  S11  1  0.612628  0.907755  0.779927  1
  S  S12  1  0.724972  0.404359  0.497085  1
  S  S13  1  0.775028  0.404359  0.997085  1
  S  S14  1  0.275028  0.595641  0.502915  1
  S  S15  1  0.224972  0.595641  0.002915  1
