# generated using pymatgen
data_Hf4TaNi
_symmetry_space_group_name_H-M   'P 1'
_cell_length_a   8.77943411
_cell_length_b   8.77943433
_cell_length_c   8.77943400
_cell_angle_alpha   60.00000125
_cell_angle_beta   60.00000041
_cell_angle_gamma   59.99999677
_symmetry_Int_Tables_number   1
_chemical_formula_structural   Hf4TaNi
_chemical_formula_sum   'Hf16 Ta4 Ni4'
_cell_volume   478.50289960
_cell_formula_units_Z   4
loop_
 _symmetry_equiv_pos_site_id
 _symmetry_equiv_pos_as_xyz
  1  'x, y, z'
loop_
 _atom_site_type_symbol
 _atom_site_label
 _atom_site_symmetry_multiplicity
 _atom_site_fract_x
 _atom_site_fract_y
 _atom_site_fract_z
 _atom_site_occupancy
  Hf  Hf0  1  0.192253  0.602582  0.602582  1
  Hf  Hf1  1  0.602582  0.192253  0.602582  1
  Hf  Hf2  1  0.602582  0.602582  0.192253  1
  Hf  Hf3  1  0.602582  0.602582  0.602582  1
  Hf  Hf4  1  0.814456  0.814456  0.185544  1
  Hf  Hf5  1  0.185544  0.185544  0.814456  1
  Hf  Hf6  1  0.814456  0.185544  0.814456  1
  Hf  Hf7  1  0.185544  0.814456  0.185544  1
  Hf  Hf8  1  0.185544  0.814456  0.814456  1
  Hf  Hf9  1  0.814456  0.185544  0.185544  1
  Hf  Hf10  1  0.448620  0.448620  0.051380  1
  Hf  Hf11  1  0.051380  0.051380  0.448620  1
  Hf  Hf12  1  0.448620  0.051380  0.448620  1
  Hf  Hf13  1  0.051380  0.448620  0.051380  1
  Hf  Hf14  1  0.051380  0.448620  0.448620  1
  Hf  Hf15  1  0.448620  0.051380  0.051380  1
  Ta  Ta16  1  0.496802  0.834400  0.834400  1
  Ta  Ta17  1  0.834400  0.496802  0.834400  1
  Ta  Ta18  1  0.834400  0.834400  0.496802  1
  Ta  Ta19  1  0.834400  0.834400  0.834400  1
  Ni  Ni20  1  0.821200  0.392933  0.392933  1
  Ni  Ni21  1  0.392933  0.821200  0.392933  1
  Ni  Ni22  1  0.392933  0.392933  0.821200  1
  Ni  Ni23  1  0.392933  0.392933  0.392933  1
