# generated using pymatgen
data_LaDyBiSbO7
_symmetry_space_group_name_H-M   'P 1'
_cell_length_a   6.63175562
_cell_length_b   6.63175601
_cell_length_c   7.69689200
_cell_angle_alpha   90.00000000
_cell_angle_beta   90.00000000
_cell_angle_gamma   109.76178376
_symmetry_Int_Tables_number   1
_chemical_formula_structural   LaDyBiSbO7
_chemical_formula_sum   'La2 Dy2 Bi2 Sb2 O14'
_cell_volume   318.57465284
_cell_formula_units_Z   2
loop_
 _symmetry_equiv_pos_site_id
 _symmetry_equiv_pos_as_xyz
  1  'x, y, z'
loop_
 _atom_site_type_symbol
 _atom_site_label
 _atom_site_symmetry_multiplicity
 _atom_site_fract_x
 _atom_site_fract_y
 _atom_site_fract_z
 _atom_site_occupancy
  La  La0  1  0.006857  0.993143  0.500000  1
  La  La1  1  0.006857  0.993143  0.000000  1
  Dy  Dy2  1  0.497785  0.955471  0.750000  1
  Dy  Dy3  1  0.044529  0.502215  0.250000  1
  Bi  Bi4  1  0.517401  0.038023  0.250000  1
  Bi  Bi5  1  0.961977  0.482599  0.750000  1
  Sb  Sb6  1  0.497484  0.502516  0.500000  1
  Sb  Sb7  1  0.497484  0.502516  0.000000  1
  O  O8  1  0.437337  0.190565  0.542411  1
  O  O9  1  0.809435  0.562663  0.457589  1
  O  O10  1  0.437337  0.190565  0.957589  1
  O  O11  1  0.809435  0.562663  0.042411  1
  O  O12  1  0.558627  0.823498  0.473032  1
  O  O13  1  0.176502  0.441373  0.526968  1
  O  O14  1  0.558627  0.823498  0.026968  1
  O  O15  1  0.176502  0.441373  0.973032  1
  O  O16  1  0.162578  0.863207  0.250000  1
  O  O17  1  0.136793  0.837422  0.750000  1
  O  O18  1  0.854044  0.100761  0.750000  1
  O  O19  1  0.899239  0.145956  0.250000  1
  O  O20  1  0.397696  0.444525  0.250000  1
  O  O21  1  0.555475  0.602304  0.750000  1
