# generated using pymatgen
data_Tm4Sc(SiHg)2
_symmetry_space_group_name_H-M   'P 1'
_cell_length_a   8.67146356
_cell_length_b   8.67146394
_cell_length_c   7.33244900
_cell_angle_alpha   90.00000000
_cell_angle_beta   90.00000000
_cell_angle_gamma   130.02739477
_symmetry_Int_Tables_number   1
_chemical_formula_structural   Tm4Sc(SiHg)2
_chemical_formula_sum   'Tm8 Sc2 Si4 Hg4'
_cell_volume   422.19542299
_cell_formula_units_Z   2
loop_
 _symmetry_equiv_pos_site_id
 _symmetry_equiv_pos_as_xyz
  1  'x, y, z'
loop_
 _atom_site_type_symbol
 _atom_site_label
 _atom_site_symmetry_multiplicity
 _atom_site_fract_x
 _atom_site_fract_y
 _atom_site_fract_z
 _atom_site_occupancy
  Tm  Tm0  1  0.554851  0.808482  0.175855  1
  Tm  Tm1  1  0.308482  0.054851  0.324145  1
  Tm  Tm2  1  0.191518  0.445149  0.824145  1
  Tm  Tm3  1  0.945149  0.691518  0.675855  1
  Tm  Tm4  1  0.691518  0.945149  0.675855  1
  Tm  Tm5  1  0.445149  0.191518  0.824145  1
  Tm  Tm6  1  0.808482  0.554851  0.175855  1
  Tm  Tm7  1  0.054851  0.308482  0.324145  1
  Sc  Sc8  1  0.500000  0.500000  0.500000  1
  Sc  Sc9  1  0.000000  0.000000  0.000000  1
  Si  Si10  1  0.621849  0.621849  0.874924  1
  Si  Si11  1  0.121849  0.121849  0.625076  1
  Si  Si12  1  0.878151  0.878151  0.374924  1
  Si  Si13  1  0.378151  0.378151  0.125076  1
  Hg  Hg14  1  0.281967  0.718033  0.500000  1
  Hg  Hg15  1  0.218033  0.781967  0.000000  1
  Hg  Hg16  1  0.718033  0.281967  0.500000  1
  Hg  Hg17  1  0.781967  0.218033  0.000000  1
