# generated using pymatgen
data_Na2LiScBi2
_symmetry_space_group_name_H-M   'P 1'
_cell_length_a   10.28694410
_cell_length_b   10.28694368
_cell_length_c   6.71726900
_cell_angle_alpha   90.00000000
_cell_angle_beta   90.00000000
_cell_angle_gamma   97.87554396
_symmetry_Int_Tables_number   1
_chemical_formula_structural   Na2LiScBi2
_chemical_formula_sum   'Na8 Li4 Sc4 Bi8'
_cell_volume   704.12504792
_cell_formula_units_Z   4
loop_
 _symmetry_equiv_pos_site_id
 _symmetry_equiv_pos_as_xyz
  1  'x, y, z'
loop_
 _atom_site_type_symbol
 _atom_site_label
 _atom_site_symmetry_multiplicity
 _atom_site_fract_x
 _atom_site_fract_y
 _atom_site_fract_z
 _atom_site_occupancy
  Na  Na0  1  0.572937  0.927063  0.250000  1
  Na  Na1  1  0.674255  0.325745  0.219520  1
  Na  Na2  1  0.325745  0.674255  0.780480  1
  Na  Na3  1  0.072937  0.427063  0.250000  1
  Na  Na4  1  0.927063  0.572937  0.750000  1
  Na  Na5  1  0.427063  0.072937  0.750000  1
  Na  Na6  1  0.825745  0.174255  0.719520  1
  Na  Na7  1  0.174255  0.825745  0.280480  1
  Li  Li8  1  0.880325  0.880325  0.500000  1
  Li  Li9  1  0.119675  0.119675  0.500000  1
  Li  Li10  1  0.619675  0.619675  0.000000  1
  Li  Li11  1  0.380325  0.380325  0.000000  1
  Sc  Sc12  1  0.870103  0.870103  0.000000  1
  Sc  Sc13  1  0.129897  0.129897  0.000000  1
  Sc  Sc14  1  0.370103  0.370103  0.500000  1
  Sc  Sc15  1  0.629897  0.629897  0.500000  1
  Bi  Bi16  1  0.114048  0.885952  0.768837  1
  Bi  Bi17  1  0.614048  0.385952  0.731163  1
  Bi  Bi18  1  0.885952  0.114048  0.231163  1
  Bi  Bi19  1  0.385952  0.614048  0.268837  1
  Bi  Bi20  1  0.362874  0.137126  0.250000  1
  Bi  Bi21  1  0.137126  0.362874  0.750000  1
  Bi  Bi22  1  0.637126  0.862874  0.750000  1
  Bi  Bi23  1  0.862874  0.637126  0.250000  1
