# generated using pymatgen
data_LiZn4PtRh2
_symmetry_space_group_name_H-M   'P 1'
_cell_length_a   6.02961700
_cell_length_b   6.06132100
_cell_length_c   6.13107000
_cell_angle_alpha   90.00003760
_cell_angle_beta   90.00015997
_cell_angle_gamma   90.00015164
_symmetry_Int_Tables_number   1
_chemical_formula_structural   LiZn4PtRh2
_chemical_formula_sum   'Li2 Zn8 Pt2 Rh4'
_cell_volume   224.07493837
_cell_formula_units_Z   2
loop_
 _symmetry_equiv_pos_site_id
 _symmetry_equiv_pos_as_xyz
  1  'x, y, z'
loop_
 _atom_site_type_symbol
 _atom_site_label
 _atom_site_symmetry_multiplicity
 _atom_site_fract_x
 _atom_site_fract_y
 _atom_site_fract_z
 _atom_site_occupancy
  Li  Li0  1  0.249390  0.250001  0.499952  1
  Li  Li1  1  0.750610  0.750001  0.500049  1
  Zn  Zn2  1  0.999996  0.999999  0.251468  1
  Zn  Zn3  1  0.999996  0.500012  0.251468  1
  Zn  Zn4  1  0.500022  0.999996  0.252507  1
  Zn  Zn5  1  0.500022  0.500000  0.252507  1
  Zn  Zn6  1  0.499979  0.000005  0.747493  1
  Zn  Zn7  1  0.499979  0.500001  0.747493  1
  Zn  Zn8  1  0.000003  0.000003  0.748532  1
  Zn  Zn9  1  0.000003  0.499987  0.748532  1
  Pt  Pt10  1  0.250432  0.250000  0.000009  1
  Pt  Pt11  1  0.749569  0.750001  0.999991  1
  Rh  Rh12  1  0.749577  0.250000  0.999994  1
  Rh  Rh13  1  0.250422  0.750001  0.000005  1
  Rh  Rh14  1  0.750509  0.250000  0.500005  1
  Rh  Rh15  1  0.249491  0.750002  0.499995  1
