# generated using pymatgen
data_Ho2Er10Ga2Ni3Ru
_symmetry_space_group_name_H-M   'P 1'
_cell_length_a   8.25135594
_cell_length_b   8.25253398
_cell_length_c   8.25253419
_cell_angle_alpha   112.68340583
_cell_angle_beta   109.64518243
_cell_angle_gamma   106.15605797
_symmetry_Int_Tables_number   1
_chemical_formula_structural   Ho2Er10Ga2Ni3Ru
_chemical_formula_sum   'Ho2 Er10 Ga2 Ni3 Ru1'
_cell_volume   431.16087733
_cell_formula_units_Z   1
loop_
 _symmetry_equiv_pos_site_id
 _symmetry_equiv_pos_as_xyz
  1  'x, y, z'
loop_
 _atom_site_type_symbol
 _atom_site_label
 _atom_site_symmetry_multiplicity
 _atom_site_fract_x
 _atom_site_fract_y
 _atom_site_fract_z
 _atom_site_occupancy
  Ho  Ho0  1  0.052486  0.746095  0.306389  1
  Ho  Ho1  1  0.959512  0.265094  0.694419  1
  Er  Er2  1  0.560275  0.254006  0.306269  1
  Er  Er3  1  0.429309  0.734834  0.694474  1
  Er  Er4  1  0.674237  0.863804  0.191972  1
  Er  Er5  1  0.328435  0.517754  0.192238  1
  Er  Er6  1  0.328435  0.136196  0.810681  1
  Er  Er7  1  0.674237  0.482265  0.810434  1
  Er  Er8  1  0.175917  0.221978  0.397702  1
  Er  Er9  1  0.816272  0.221360  0.037868  1
  Er  Er10  1  0.175917  0.778216  0.953940  1
  Er  Er11  1  0.816272  0.778405  0.594913  1
  Ga  Ga12  1  0.989823  0.499976  0.489847  1
  Ga  Ga13  1  0.502405  0.000019  0.502386  1
  Ni  Ni14  1  0.346582  0.500099  0.846483  1
  Ni  Ni15  1  0.882889  0.882017  0.000872  1
  Ni  Ni16  1  0.118981  0.117965  0.001016  1
  Ru  Ru17  1  0.668012  0.499918  0.168095  1
