# generated using pymatgen
data_Ho3Er9OsRu3
_symmetry_space_group_name_H-M   'P 1'
_cell_length_a   6.26563703
_cell_length_b   7.30535150
_cell_length_c   9.04046000
_cell_angle_alpha   90.00000000
_cell_angle_beta   90.00000000
_cell_angle_gamma   90.07616177
_symmetry_Int_Tables_number   1
_chemical_formula_structural   Ho3Er9OsRu3
_chemical_formula_sum   'Ho3 Er9 Os1 Ru3'
_cell_volume   413.80572546
_cell_formula_units_Z   1
loop_
 _symmetry_equiv_pos_site_id
 _symmetry_equiv_pos_as_xyz
  1  'x, y, z'
loop_
 _atom_site_type_symbol
 _atom_site_label
 _atom_site_symmetry_multiplicity
 _atom_site_fract_x
 _atom_site_fract_y
 _atom_site_fract_z
 _atom_site_occupancy
  Ho  Ho0  1  0.868229  0.540123  0.250000  1
  Ho  Ho1  1  0.632125  0.039916  0.250000  1
  Ho  Ho2  1  0.130351  0.460477  0.750000  1
  Er  Er3  1  0.333799  0.675521  0.062339  1
  Er  Er4  1  0.167259  0.175915  0.436234  1
  Er  Er5  1  0.667968  0.324286  0.563679  1
  Er  Er6  1  0.831515  0.823654  0.935649  1
  Er  Er7  1  0.667968  0.324286  0.936321  1
  Er  Er8  1  0.831515  0.823654  0.564351  1
  Er  Er9  1  0.333799  0.675521  0.437661  1
  Er  Er10  1  0.167259  0.175915  0.063766  1
  Er  Er11  1  0.367743  0.961528  0.750000  1
  Os  Os12  1  0.539839  0.616590  0.750000  1
  Ru  Ru13  1  0.038970  0.883436  0.250000  1
  Ru  Ru14  1  0.460867  0.382998  0.250000  1
  Ru  Ru15  1  0.960794  0.116179  0.750000  1
