# generated using pymatgen
data_NaNd6GaI12
_symmetry_space_group_name_H-M   'P 1'
_cell_length_a   10.04340612
_cell_length_b   10.04340572
_cell_length_c   10.04340614
_cell_angle_alpha   106.99836795
_cell_angle_beta   106.99838074
_cell_angle_gamma   106.99837259
_symmetry_Int_Tables_number   1
_chemical_formula_structural   NaNd6GaI12
_chemical_formula_sum   'Na1 Nd6 Ga1 I12'
_cell_volume   843.73881601
_cell_formula_units_Z   1
loop_
 _symmetry_equiv_pos_site_id
 _symmetry_equiv_pos_as_xyz
  1  'x, y, z'
loop_
 _atom_site_type_symbol
 _atom_site_label
 _atom_site_symmetry_multiplicity
 _atom_site_fract_x
 _atom_site_fract_y
 _atom_site_fract_z
 _atom_site_occupancy
  Na  Na0  1  0.500000  0.500000  0.500000  1
  Nd  Nd1  1  0.318714  0.106680  0.031808  1
  Nd  Nd2  1  0.031808  0.318714  0.106680  1
  Nd  Nd3  1  0.106680  0.031808  0.318714  1
  Nd  Nd4  1  0.893319  0.968192  0.681286  1
  Nd  Nd5  1  0.968192  0.681286  0.893319  1
  Nd  Nd6  1  0.681286  0.893320  0.968191  1
  Ga  Ga7  1  0.000000  0.000000  0.000000  1
  I  I8  1  0.683838  0.227629  0.075681  1
  I  I9  1  0.376340  0.456506  0.148838  1
  I  I10  1  0.075681  0.683838  0.227629  1
  I  I11  1  0.772370  0.924319  0.316162  1
  I  I12  1  0.456506  0.148839  0.376339  1
  I  I13  1  0.148839  0.376339  0.456506  1
  I  I14  1  0.851162  0.623661  0.543495  1
  I  I15  1  0.543494  0.851162  0.623661  1
  I  I16  1  0.227629  0.075681  0.683838  1
  I  I17  1  0.924319  0.316162  0.772370  1
  I  I18  1  0.623661  0.543495  0.851162  1
  I  I19  1  0.316162  0.772370  0.924319  1
