# generated using pymatgen
data_Ho4Cu3Pt
_symmetry_space_group_name_H-M   'P 1'
_cell_length_a   4.49196700
_cell_length_b   5.41055394
_cell_length_c   7.08128132
_cell_angle_alpha   90.29866085
_cell_angle_beta   90.00000000
_cell_angle_gamma   90.00000000
_symmetry_Int_Tables_number   1
_chemical_formula_structural   Ho4Cu3Pt
_chemical_formula_sum   'Ho4 Cu3 Pt1'
_cell_volume   172.10133385
_cell_formula_units_Z   1
loop_
 _symmetry_equiv_pos_site_id
 _symmetry_equiv_pos_as_xyz
  1  'x, y, z'
loop_
 _atom_site_type_symbol
 _atom_site_label
 _atom_site_symmetry_multiplicity
 _atom_site_fract_x
 _atom_site_fract_y
 _atom_site_fract_z
 _atom_site_occupancy
  Ho  Ho0  1  0.250000  0.358389  0.688085  1
  Ho  Ho1  1  0.250000  0.143933  0.178634  1
  Ho  Ho2  1  0.750000  0.637338  0.316251  1
  Ho  Ho3  1  0.750000  0.860765  0.817124  1
  Cu  Cu4  1  0.250000  0.870883  0.530149  1
  Cu  Cu5  1  0.250000  0.643031  0.039851  1
  Cu  Cu6  1  0.750000  0.125754  0.466128  1
  Pt  Pt7  1  0.750000  0.359907  0.963778  1
