# generated using pymatgen
data_Hf2Zr8ZnSiSn6
_symmetry_space_group_name_H-M   'P 1'
_cell_length_a   8.68671100
_cell_length_b   8.68671090
_cell_length_c   5.88541400
_cell_angle_alpha   90.00000000
_cell_angle_beta   90.00000000
_cell_angle_gamma   120.00000418
_symmetry_Int_Tables_number   1
_chemical_formula_structural   Hf2Zr8ZnSiSn6
_chemical_formula_sum   'Hf2 Zr8 Zn1 Si1 Sn6'
_cell_volume   384.60805249
_cell_formula_units_Z   1
loop_
 _symmetry_equiv_pos_site_id
 _symmetry_equiv_pos_as_xyz
  1  'x, y, z'
loop_
 _atom_site_type_symbol
 _atom_site_label
 _atom_site_symmetry_multiplicity
 _atom_site_fract_x
 _atom_site_fract_y
 _atom_site_fract_z
 _atom_site_occupancy
  Hf  Hf0  1  0.666667  0.333333  0.000000  1
  Hf  Hf1  1  0.333333  0.666667  0.000000  1
  Zr  Zr2  1  0.333333  0.666667  0.500000  1
  Zr  Zr3  1  0.666667  0.333333  0.500000  1
  Zr  Zr4  1  0.736102  0.736102  0.741763  1
  Zr  Zr5  1  0.263898  0.000000  0.741763  1
  Zr  Zr6  1  0.000000  0.263898  0.741763  1
  Zr  Zr7  1  0.263898  0.263898  0.258237  1
  Zr  Zr8  1  0.736102  0.000000  0.258237  1
  Zr  Zr9  1  0.000000  0.736102  0.258237  1
  Zn  Zn10  1  0.000000  0.000000  0.000000  1
  Si  Si11  1  0.000000  0.000000  0.500000  1
  Sn  Sn12  1  0.389039  0.389039  0.754666  1
  Sn  Sn13  1  0.610961  0.000000  0.754666  1
  Sn  Sn14  1  0.000000  0.610961  0.754666  1
  Sn  Sn15  1  0.610961  0.610961  0.245334  1
  Sn  Sn16  1  0.389039  0.000000  0.245334  1
  Sn  Sn17  1  0.000000  0.389039  0.245334  1
