# generated using pymatgen
data_La9Pr7(CoHg3)2
_symmetry_space_group_name_H-M   'P 1'
_cell_length_a   10.79923058
_cell_length_b   10.79923214
_cell_length_c   7.26927018
_cell_angle_alpha   89.89470973
_cell_angle_beta   90.10529106
_cell_angle_gamma   119.79605243
_symmetry_Int_Tables_number   1
_chemical_formula_structural   La9Pr7(CoHg3)2
_chemical_formula_sum   'La9 Pr7 Co2 Hg6'
_cell_volume   735.69027232
_cell_formula_units_Z   1
loop_
 _symmetry_equiv_pos_site_id
 _symmetry_equiv_pos_as_xyz
  1  'x, y, z'
loop_
 _atom_site_type_symbol
 _atom_site_label
 _atom_site_symmetry_multiplicity
 _atom_site_fract_x
 _atom_site_fract_y
 _atom_site_fract_z
 _atom_site_occupancy
  La  La0  1  0.170153  0.829847  0.981255  1
  La  La1  1  0.338779  0.169125  0.480694  1
  La  La2  1  0.830875  0.661221  0.480694  1
  La  La3  1  0.168813  0.338237  0.980362  1
  La  La4  1  0.661763  0.831187  0.980362  1
  La  La5  1  0.830169  0.169831  0.481675  1
  La  La6  1  0.333266  0.666734  0.702197  1
  La  La7  1  0.666999  0.333001  0.202153  1
  La  La8  1  0.455201  0.544799  0.288330  1
  Pr  Pr9  1  0.913821  0.456709  0.793021  1
  Pr  Pr10  1  0.543291  0.086179  0.793021  1
  Pr  Pr11  1  0.457294  0.915948  0.293460  1
  Pr  Pr12  1  0.084052  0.542706  0.293460  1
  Pr  Pr13  1  0.543325  0.456675  0.790602  1
  Pr  Pr14  1  0.000217  0.999783  0.294992  1
  Pr  Pr15  1  0.000197  0.999803  0.795334  1
  Co  Co16  1  0.335246  0.664754  0.047592  1
  Co  Co17  1  0.665935  0.334065  0.544173  1
  Hg  Hg18  1  0.166907  0.833093  0.533550  1
  Hg  Hg19  1  0.334607  0.166455  0.033354  1
  Hg  Hg20  1  0.833545  0.665393  0.033354  1
  Hg  Hg21  1  0.165754  0.333434  0.534551  1
  Hg  Hg22  1  0.666566  0.834246  0.534551  1
  Hg  Hg23  1  0.833227  0.166773  0.033256  1
