# generated using pymatgen
data_Zr4Sn(B7Ir6)2
_symmetry_space_group_name_H-M   'P 1'
_cell_length_a   3.46532712
_cell_length_b   7.87381764
_cell_length_c   13.62673304
_cell_angle_alpha   89.98833038
_cell_angle_beta   90.09761064
_cell_angle_gamma   90.11032180
_symmetry_Int_Tables_number   1
_chemical_formula_structural   Zr4Sn(B7Ir6)2
_chemical_formula_sum   'Zr4 Sn1 B14 Ir12'
_cell_volume   371.80899609
_cell_formula_units_Z   1
loop_
 _symmetry_equiv_pos_site_id
 _symmetry_equiv_pos_as_xyz
  1  'x, y, z'
loop_
 _atom_site_type_symbol
 _atom_site_label
 _atom_site_symmetry_multiplicity
 _atom_site_fract_x
 _atom_site_fract_y
 _atom_site_fract_z
 _atom_site_occupancy
  Zr  Zr0  1  0.250937  0.497332  0.837504  1
  Zr  Zr1  1  0.253135  0.002107  0.328844  1
  Zr  Zr2  1  0.746865  0.997893  0.671156  1
  Zr  Zr3  1  0.749063  0.502668  0.162496  1
  Sn  Sn4  1  0.500000  0.500000  0.500000  1
  B  B5  1  0.500000  0.000000  0.000000  1
  B  B6  1  0.000000  0.000000  0.000000  1
  B  B7  1  0.749234  0.325951  0.730749  1
  B  B8  1  0.752388  0.831247  0.217328  1
  B  B9  1  0.749904  0.753510  0.808069  1
  B  B10  1  0.749191  0.245991  0.296292  1
  B  B11  1  0.751065  0.423332  0.974537  1
  B  B12  1  0.750443  0.919110  0.473183  1
  B  B13  1  0.247612  0.168753  0.782672  1
  B  B14  1  0.250766  0.674049  0.269251  1
  B  B15  1  0.250809  0.754009  0.703708  1
  B  B16  1  0.250096  0.246490  0.191931  1
  B  B17  1  0.249557  0.080890  0.526817  1
  B  B18  1  0.248935  0.576668  0.025463  1
  Ir  Ir19  1  0.752875  0.595817  0.680502  1
  Ir  Ir20  1  0.750184  0.090308  0.161229  1
  Ir  Ir21  1  0.749632  0.702221  0.964287  1
  Ir  Ir22  1  0.754198  0.190614  0.457181  1
  Ir  Ir23  1  0.749245  0.202145  0.875449  1
  Ir  Ir24  1  0.753955  0.716646  0.360365  1
  Ir  Ir25  1  0.249816  0.909692  0.838771  1
  Ir  Ir26  1  0.247125  0.404183  0.319498  1
  Ir  Ir27  1  0.245802  0.809386  0.542819  1
  Ir  Ir28  1  0.250368  0.297779  0.035713  1
  Ir  Ir29  1  0.246045  0.283354  0.639635  1
  Ir  Ir30  1  0.250755  0.797855  0.124551  1
