# generated using pymatgen
data_Er12Fe4SnHg
_symmetry_space_group_name_H-M   'P 1'
_cell_length_a   8.32699818
_cell_length_b   8.32689234
_cell_length_c   8.32699905
_cell_angle_alpha   111.40539131
_cell_angle_beta   110.26954317
_cell_angle_gamma   106.77456617
_symmetry_Int_Tables_number   1
_chemical_formula_structural   Er12Fe4SnHg
_chemical_formula_sum   'Er12 Fe4 Sn1 Hg1'
_cell_volume   443.68274192
_cell_formula_units_Z   1
loop_
 _symmetry_equiv_pos_site_id
 _symmetry_equiv_pos_as_xyz
  1  'x, y, z'
loop_
 _atom_site_type_symbol
 _atom_site_label
 _atom_site_symmetry_multiplicity
 _atom_site_fract_x
 _atom_site_fract_y
 _atom_site_fract_z
 _atom_site_occupancy
  Er  Er0  1  0.311525  0.611694  0.300168  1
  Er  Er1  1  0.688475  0.388307  0.699832  1
  Er  Er2  1  0.311529  0.011357  0.699828  1
  Er  Er3  1  0.688471  0.988643  0.300172  1
  Er  Er4  1  0.437087  0.224764  0.212319  1
  Er  Er5  1  0.562913  0.775236  0.787681  1
  Er  Er6  1  0.012444  0.224764  0.787676  1
  Er  Er7  1  0.987556  0.775236  0.212324  1
  Er  Er8  1  0.188815  0.290971  0.479795  1
  Er  Er9  1  0.811185  0.709029  0.520205  1
  Er  Er10  1  0.188825  0.709029  0.897844  1
  Er  Er11  1  0.811175  0.290971  0.102156  1
  Fe  Fe12  1  0.108547  0.608534  0.499988  1
  Fe  Fe13  1  0.891454  0.391467  0.500012  1
  Fe  Fe14  1  0.386242  0.000000  0.386242  1
  Fe  Fe15  1  0.613758  0.000000  0.613758  1
  Sn  Sn16  1  0.500000  0.500000  0.000000  1
  Hg  Hg17  1  0.000000  0.000000  0.000000  1
