# generated using pymatgen
data_TmPaCo3Si5
_symmetry_space_group_name_H-M   'P 1'
_cell_length_a   7.85565566
_cell_length_b   7.85565505
_cell_length_c   7.85565557
_cell_angle_alpha   138.68858604
_cell_angle_beta   104.58978781
_cell_angle_gamma   89.82642108
_symmetry_Int_Tables_number   1
_chemical_formula_structural   TmPaCo3Si5
_chemical_formula_sum   'Tm2 Pa2 Co6 Si10'
_cell_volume   296.26738113
_cell_formula_units_Z   2
loop_
 _symmetry_equiv_pos_site_id
 _symmetry_equiv_pos_as_xyz
  1  'x, y, z'
loop_
 _atom_site_type_symbol
 _atom_site_label
 _atom_site_symmetry_multiplicity
 _atom_site_fract_x
 _atom_site_fract_y
 _atom_site_fract_z
 _atom_site_occupancy
  Tm  Tm0  1  0.103385  0.867833  0.235553  1
  Tm  Tm1  1  0.632280  0.367833  0.264447  1
  Pa  Pa2  1  0.366196  0.633641  0.732555  1
  Pa  Pa3  1  0.901087  0.133641  0.767445  1
  Co  Co4  1  0.021648  0.635996  0.385652  1
  Co  Co5  1  0.979668  0.361537  0.618132  1
  Co  Co6  1  0.502639  0.752639  0.250000  1
  Co  Co7  1  0.502639  0.252639  0.750000  1
  Co  Co8  1  0.250343  0.135996  0.114348  1
  Co  Co9  1  0.743406  0.861537  0.881868  1
  Si  Si10  1  0.270022  0.520022  0.250000  1
  Si  Si11  1  0.733523  0.983523  0.250000  1
  Si  Si12  1  0.995481  0.745481  0.750000  1
  Si  Si13  1  0.244477  0.396491  0.847986  1
  Si  Si14  1  0.756667  0.602837  0.153830  1
  Si  Si15  1  0.449008  0.102837  0.346170  1
  Si  Si16  1  0.995481  0.245481  0.250000  1
  Si  Si17  1  0.548505  0.896491  0.652014  1
  Si  Si18  1  0.733523  0.483523  0.750000  1
  Si  Si19  1  0.270022  0.020022  0.750000  1
