# generated using pymatgen
data_Dy16Hg4RuRh3
_symmetry_space_group_name_H-M   'P 1'
_cell_length_a   9.60870642
_cell_length_b   9.60870691
_cell_length_c   9.60870643
_cell_angle_alpha   59.68557247
_cell_angle_beta   59.68557040
_cell_angle_gamma   59.68556761
_symmetry_Int_Tables_number   1
_chemical_formula_structural   Dy16Hg4RuRh3
_chemical_formula_sum   'Dy16 Hg4 Ru1 Rh3'
_cell_volume   622.82574275
_cell_formula_units_Z   1
loop_
 _symmetry_equiv_pos_site_id
 _symmetry_equiv_pos_as_xyz
  1  'x, y, z'
loop_
 _atom_site_type_symbol
 _atom_site_label
 _atom_site_symmetry_multiplicity
 _atom_site_fract_x
 _atom_site_fract_y
 _atom_site_fract_z
 _atom_site_occupancy
  Dy  Dy0  1  0.687931  0.311170  0.311170  1
  Dy  Dy1  1  0.689738  0.689738  0.311496  1
  Dy  Dy2  1  0.311170  0.687931  0.311170  1
  Dy  Dy3  1  0.937436  0.937436  0.562303  1
  Dy  Dy4  1  0.149109  0.149109  0.551891  1
  Dy  Dy5  1  0.561956  0.940416  0.561956  1
  Dy  Dy6  1  0.149282  0.149282  0.149282  1
  Dy  Dy7  1  0.311170  0.311170  0.687931  1
  Dy  Dy8  1  0.940416  0.561956  0.561956  1
  Dy  Dy9  1  0.561956  0.561956  0.940416  1
  Dy  Dy10  1  0.562303  0.937436  0.937436  1
  Dy  Dy11  1  0.937436  0.562303  0.937436  1
  Dy  Dy12  1  0.149109  0.551891  0.149109  1
  Dy  Dy13  1  0.311496  0.689738  0.689738  1
  Dy  Dy14  1  0.689738  0.311496  0.689738  1
  Dy  Dy15  1  0.551891  0.149109  0.149109  1
  Hg  Hg16  1  0.914973  0.914973  0.255449  1
  Hg  Hg17  1  0.255449  0.914973  0.914973  1
  Hg  Hg18  1  0.914973  0.255449  0.914973  1
  Hg  Hg19  1  0.915345  0.915345  0.915345  1
  Ru  Ru20  1  0.358137  0.358137  0.358137  1
  Rh  Rh21  1  0.927065  0.355961  0.355961  1
  Rh  Rh22  1  0.355961  0.355961  0.927065  1
  Rh  Rh23  1  0.355961  0.927065  0.355961  1
