# generated using pymatgen
data_Tb6Y4Cd3Fe
_symmetry_space_group_name_H-M   'P 1'
_cell_length_a   9.60988200
_cell_length_b   9.61001139
_cell_length_c   9.85623400
_cell_angle_alpha   90.00000000
_cell_angle_beta   90.00000000
_cell_angle_gamma   119.99837825
_symmetry_Int_Tables_number   1
_chemical_formula_structural   Tb6Y4Cd3Fe
_chemical_formula_sum   'Tb12 Y8 Cd6 Fe2'
_cell_volume   788.29848488
_cell_formula_units_Z   2
loop_
 _symmetry_equiv_pos_site_id
 _symmetry_equiv_pos_as_xyz
  1  'x, y, z'
loop_
 _atom_site_type_symbol
 _atom_site_label
 _atom_site_symmetry_multiplicity
 _atom_site_fract_x
 _atom_site_fract_y
 _atom_site_fract_z
 _atom_site_occupancy
  Tb  Tb0  1  0.212223  0.787780  0.435865  1
  Tb  Tb1  1  0.212223  0.424444  0.435861  1
  Tb  Tb2  1  0.575560  0.787780  0.435860  1
  Tb  Tb3  1  0.787777  0.212220  0.564135  1
  Tb  Tb4  1  0.787777  0.575556  0.564139  1
  Tb  Tb5  1  0.424440  0.212220  0.564140  1
  Tb  Tb6  1  0.787777  0.212220  0.935865  1
  Tb  Tb7  1  0.787777  0.575556  0.935861  1
  Tb  Tb8  1  0.424440  0.212220  0.935860  1
  Tb  Tb9  1  0.212223  0.787780  0.064135  1
  Tb  Tb10  1  0.212223  0.424444  0.064139  1
  Tb  Tb11  1  0.575560  0.787780  0.064140  1
  Y  Y12  1  0.000000  0.000000  0.500000  1
  Y  Y13  1  0.000000  0.000000  0.000000  1
  Y  Y14  1  0.541764  0.458238  0.250000  1
  Y  Y15  1  0.541763  0.083525  0.250000  1
  Y  Y16  1  0.916472  0.458236  0.250000  1
  Y  Y17  1  0.458236  0.541762  0.750000  1
  Y  Y18  1  0.458237  0.916475  0.750000  1
  Y  Y19  1  0.083528  0.541764  0.750000  1
  Cd  Cd20  1  0.885366  0.114632  0.250000  1
  Cd  Cd21  1  0.885365  0.770735  0.250000  1
  Cd  Cd22  1  0.229264  0.114633  0.250000  1
  Cd  Cd23  1  0.114634  0.885368  0.750000  1
  Cd  Cd24  1  0.114635  0.229265  0.750000  1
  Cd  Cd25  1  0.770736  0.885367  0.750000  1
  Fe  Fe26  1  0.333337  0.666669  0.250000  1
  Fe  Fe27  1  0.666663  0.333331  0.750000  1
