# generated using pymatgen
data_YHf2TcF15
_symmetry_space_group_name_H-M   'P 1'
_cell_length_a   8.11751791
_cell_length_b   8.11751857
_cell_length_c   8.08267753
_cell_angle_alpha   79.69313384
_cell_angle_beta   79.69313482
_cell_angle_gamma   99.86749594
_symmetry_Int_Tables_number   1
_chemical_formula_structural   YHf2TcF15
_chemical_formula_sum   'Y2 Hf4 Tc2 F30'
_cell_volume   504.04283490
_cell_formula_units_Z   2
loop_
 _symmetry_equiv_pos_site_id
 _symmetry_equiv_pos_as_xyz
  1  'x, y, z'
loop_
 _atom_site_type_symbol
 _atom_site_label
 _atom_site_symmetry_multiplicity
 _atom_site_fract_x
 _atom_site_fract_y
 _atom_site_fract_z
 _atom_site_occupancy
  Y  Y0  1  0.177093  0.822907  0.250000  1
  Y  Y1  1  0.822907  0.177093  0.750000  1
  Hf  Hf2  1  0.744169  0.677223  0.672526  1
  Hf  Hf3  1  0.322777  0.255831  0.827474  1
  Hf  Hf4  1  0.255831  0.322777  0.327474  1
  Hf  Hf5  1  0.677223  0.744169  0.172526  1
  Tc  Tc6  1  0.750441  0.249559  0.250000  1
  Tc  Tc7  1  0.249559  0.750441  0.750000  1
  F  F8  1  0.314315  0.349769  0.055859  1
  F  F9  1  0.931854  0.809183  0.152182  1
  F  F10  1  0.841444  0.463262  0.684827  1
  F  F11  1  0.463262  0.841444  0.184827  1
  F  F12  1  0.809183  0.931854  0.652182  1
  F  F13  1  0.349769  0.314315  0.555858  1
  F  F14  1  0.685685  0.650231  0.944141  1
  F  F15  1  0.068146  0.190817  0.847818  1
  F  F16  1  0.158556  0.536738  0.315173  1
  F  F17  1  0.536738  0.158556  0.815173  1
  F  F18  1  0.190817  0.068146  0.347818  1
  F  F19  1  0.650231  0.685685  0.444141  1
  F  F20  1  0.773932  0.282718  0.001084  1
  F  F21  1  0.999268  0.273781  0.216895  1
  F  F22  1  0.778944  0.502612  0.223948  1
  F  F23  1  0.502612  0.778944  0.723948  1
  F  F24  1  0.273781  0.999268  0.716895  1
  F  F25  1  0.282718  0.773932  0.501084  1
  F  F26  1  0.226068  0.717282  0.998916  1
  F  F27  1  0.000732  0.726219  0.783105  1
  F  F28  1  0.221056  0.497388  0.776052  1
  F  F29  1  0.497388  0.221056  0.276052  1
  F  F30  1  0.726219  0.000732  0.283105  1
  F  F31  1  0.717282  0.226068  0.498916  1
  F  F32  1  0.469430  0.530570  0.250000  1
  F  F33  1  0.746508  0.952305  0.973927  1
  F  F34  1  0.047695  0.253492  0.526073  1
  F  F35  1  0.253492  0.047695  0.026073  1
  F  F36  1  0.952305  0.746508  0.473927  1
  F  F37  1  0.530570  0.469430  0.750000  1
