# generated using pymatgen
data_Dy19Lu(Sn3Pb)4
_symmetry_space_group_name_H-M   'P 1'
_cell_length_a   8.06272493
_cell_length_b   8.20470852
_cell_length_c   15.50675632
_cell_angle_alpha   89.99147692
_cell_angle_beta   90.02160197
_cell_angle_gamma   89.66880719
_symmetry_Int_Tables_number   1
_chemical_formula_structural   Dy19Lu(Sn3Pb)4
_chemical_formula_sum   'Dy19 Lu1 Sn12 Pb4'
_cell_volume   1025.79049765
_cell_formula_units_Z   1
loop_
 _symmetry_equiv_pos_site_id
 _symmetry_equiv_pos_as_xyz
  1  'x, y, z'
loop_
 _atom_site_type_symbol
 _atom_site_label
 _atom_site_symmetry_multiplicity
 _atom_site_fract_x
 _atom_site_fract_y
 _atom_site_fract_z
 _atom_site_occupancy
  Dy  Dy0  1  0.369110  0.838242  0.876043  1
  Dy  Dy1  1  0.869752  0.661310  0.623762  1
  Dy  Dy2  1  0.630486  0.161617  0.376175  1
  Dy  Dy3  1  0.130590  0.338393  0.123107  1
  Dy  Dy4  1  0.633628  0.162810  0.122670  1
  Dy  Dy5  1  0.133731  0.337227  0.377989  1
  Dy  Dy6  1  0.366028  0.836947  0.622884  1
  Dy  Dy7  1  0.866732  0.662450  0.877291  1
  Dy  Dy8  1  0.524692  0.320636  0.901159  1
  Dy  Dy9  1  0.025123  0.180084  0.598881  1
  Dy  Dy10  1  0.475337  0.679605  0.401646  1
  Dy  Dy11  1  0.975232  0.820204  0.098756  1
  Dy  Dy12  1  0.481753  0.678086  0.098463  1
  Dy  Dy13  1  0.981672  0.821744  0.401101  1
  Dy  Dy14  1  0.518236  0.322248  0.598966  1
  Dy  Dy15  1  0.018685  0.178450  0.900996  1
  Dy  Dy16  1  0.698691  0.997601  0.751253  1
  Dy  Dy17  1  0.800975  0.497011  0.248739  1
  Dy  Dy18  1  0.301040  0.002738  0.251236  1
  Lu  Lu19  1  0.199248  0.503469  0.748651  1
  Sn  Sn20  1  0.707936  0.963221  0.958353  1
  Sn  Sn21  1  0.207852  0.536311  0.542776  1
  Sn  Sn22  1  0.292389  0.036412  0.458626  1
  Sn  Sn23  1  0.791980  0.462858  0.041378  1
  Sn  Sn24  1  0.563494  0.618070  0.750021  1
  Sn  Sn25  1  0.065038  0.880762  0.750133  1
  Sn  Sn26  1  0.434624  0.381219  0.249911  1
  Sn  Sn27  1  0.935400  0.119068  0.250046  1
  Sn  Sn28  1  0.329989  0.150704  0.750257  1
  Sn  Sn29  1  0.831139  0.352144  0.749656  1
  Sn  Sn30  1  0.669371  0.851349  0.250330  1
  Sn  Sn31  1  0.170020  0.647707  0.249700  1
  Pb  Pb32  1  0.291528  0.036951  0.041110  1
  Pb  Pb33  1  0.791159  0.462332  0.458894  1
  Pb  Pb34  1  0.708612  0.962945  0.541411  1
  Pb  Pb35  1  0.208726  0.537081  0.957628  1
