# generated using pymatgen
data_Y16Cd4Ni2IrRu
_symmetry_space_group_name_H-M   'P 1'
_cell_length_a   9.62522475
_cell_length_b   9.62522499
_cell_length_c   9.67334991
_cell_angle_alpha   59.71455007
_cell_angle_beta   59.71454982
_cell_angle_gamma   59.54435792
_symmetry_Int_Tables_number   1
_chemical_formula_structural   Y16Cd4Ni2IrRu
_chemical_formula_sum   'Y16 Cd4 Ni2 Ir1 Ru1'
_cell_volume   628.76943734
_cell_formula_units_Z   1
loop_
 _symmetry_equiv_pos_site_id
 _symmetry_equiv_pos_as_xyz
  1  'x, y, z'
loop_
 _atom_site_type_symbol
 _atom_site_label
 _atom_site_symmetry_multiplicity
 _atom_site_fract_x
 _atom_site_fract_y
 _atom_site_fract_z
 _atom_site_occupancy
  Y  Y0  1  0.599466  0.599466  0.594404  1
  Y  Y1  1  0.600636  0.600636  0.204161  1
  Y  Y2  1  0.603265  0.203108  0.597879  1
  Y  Y3  1  0.203108  0.603265  0.597879  1
  Y  Y4  1  0.060419  0.437309  0.439796  1
  Y  Y5  1  0.437273  0.059459  0.062002  1
  Y  Y6  1  0.437309  0.060419  0.439796  1
  Y  Y7  1  0.059459  0.437273  0.062002  1
  Y  Y8  1  0.438426  0.438426  0.062142  1
  Y  Y9  1  0.060456  0.060456  0.438401  1
  Y  Y10  1  0.187818  0.811181  0.816290  1
  Y  Y11  1  0.809468  0.187701  0.186920  1
  Y  Y12  1  0.811181  0.187818  0.816290  1
  Y  Y13  1  0.187701  0.809468  0.186920  1
  Y  Y14  1  0.815083  0.815083  0.186888  1
  Y  Y15  1  0.189608  0.189608  0.809610  1
  Cd  Cd16  1  0.828938  0.828938  0.831136  1
  Cd  Cd17  1  0.829889  0.829889  0.506128  1
  Cd  Cd18  1  0.829425  0.506361  0.830904  1
  Cd  Cd19  1  0.506361  0.829425  0.830904  1
  Ni  Ni20  1  0.392801  0.825532  0.391932  1
  Ni  Ni21  1  0.825532  0.392801  0.391932  1
  Ir  Ir22  1  0.393143  0.393143  0.824404  1
  Ru  Ru23  1  0.393235  0.393235  0.391282  1
