# generated using pymatgen
data_YLu11Co5Sb
_symmetry_space_group_name_H-M   'P 1'
_cell_length_a   8.11662811
_cell_length_b   8.11662857
_cell_length_c   8.10862700
_cell_angle_alpha   110.80668812
_cell_angle_beta   110.57976957
_cell_angle_gamma   107.09574799
_symmetry_Int_Tables_number   1
_chemical_formula_structural   YLu11Co5Sb
_chemical_formula_sum   'Y1 Lu11 Co5 Sb1'
_cell_volume   410.47205296
_cell_formula_units_Z   1
loop_
 _symmetry_equiv_pos_site_id
 _symmetry_equiv_pos_as_xyz
  1  'x, y, z'
loop_
 _atom_site_type_symbol
 _atom_site_label
 _atom_site_symmetry_multiplicity
 _atom_site_fract_x
 _atom_site_fract_y
 _atom_site_fract_z
 _atom_site_occupancy
  Y  Y0  1  0.813347  0.711783  0.525131  1
  Lu  Lu1  1  0.184392  0.287220  0.471612  1
  Lu  Lu2  1  0.185624  0.711269  0.896894  1
  Lu  Lu3  1  0.816046  0.287156  0.103201  1
  Lu  Lu4  1  0.686542  0.378825  0.692810  1
  Lu  Lu5  1  0.311228  0.620240  0.306863  1
  Lu  Lu6  1  0.686622  0.995636  0.306863  1
  Lu  Lu7  1  0.313986  0.006269  0.692810  1
  Lu  Lu8  1  0.593008  0.789541  0.805847  1
  Lu  Lu9  1  0.403243  0.208729  0.193068  1
  Lu  Lu10  1  0.984340  0.789827  0.193068  1
  Lu  Lu11  1  0.016307  0.212840  0.805847  1
  Co  Co12  1  0.626121  0.001644  0.627765  1
  Co  Co13  1  0.373462  0.000131  0.373594  1
  Co  Co14  1  0.116508  0.611818  0.501146  1
  Co  Co15  1  0.889326  0.384637  0.501146  1
  Co  Co16  1  0.999386  0.002052  0.001438  1
  Sb  Sb17  1  0.500516  0.500384  0.000899  1
