# generated using pymatgen
data_LaH5Os
_symmetry_space_group_name_H-M   'P 1'
_cell_length_a   4.63443300
_cell_length_b   4.82547600
_cell_length_c   12.26816700
_cell_angle_alpha   90.00000000
_cell_angle_beta   90.00000000
_cell_angle_gamma   90.00000000
_symmetry_Int_Tables_number   1
_chemical_formula_structural   LaH5Os
_chemical_formula_sum   'La4 H20 Os4'
_cell_volume   274.35725378
_cell_formula_units_Z   4
loop_
 _symmetry_equiv_pos_site_id
 _symmetry_equiv_pos_as_xyz
  1  'x, y, z'
loop_
 _atom_site_type_symbol
 _atom_site_label
 _atom_site_symmetry_multiplicity
 _atom_site_fract_x
 _atom_site_fract_y
 _atom_site_fract_z
 _atom_site_occupancy
  La  La0  1  0.734761  0.338569  0.138671  1
  La  La1  1  0.234761  0.161431  0.861329  1
  La  La2  1  0.265239  0.838569  0.361329  1
  La  La3  1  0.765239  0.661431  0.638671  1
  H  H4  1  0.802971  0.338680  0.946974  1
  H  H5  1  0.470687  0.067388  0.688303  1
  H  H6  1  0.947960  0.871812  0.009886  1
  H  H7  1  0.729426  0.989502  0.845574  1
  H  H8  1  0.449557  0.356022  0.320493  1
  H  H9  1  0.770574  0.010498  0.345574  1
  H  H10  1  0.447960  0.628188  0.990114  1
  H  H11  1  0.270574  0.489502  0.654426  1
  H  H12  1  0.970687  0.432612  0.311697  1
  H  H13  1  0.697029  0.661320  0.446974  1
  H  H14  1  0.052040  0.371812  0.490114  1
  H  H15  1  0.197029  0.838680  0.553026  1
  H  H16  1  0.550443  0.856022  0.179507  1
  H  H17  1  0.949557  0.143978  0.679507  1
  H  H18  1  0.050443  0.643978  0.820493  1
  H  H19  1  0.029313  0.932612  0.188303  1
  H  H20  1  0.302971  0.161320  0.053026  1
  H  H21  1  0.529313  0.567388  0.811697  1
  H  H22  1  0.552040  0.128188  0.509886  1
  H  H23  1  0.229426  0.510498  0.154426  1
  Os  Os24  1  0.233784  0.171799  0.594538  1
  Os  Os25  1  0.266216  0.828201  0.094538  1
  Os  Os26  1  0.766216  0.671799  0.905462  1
  Os  Os27  1  0.733784  0.328201  0.405462  1
