# generated using pymatgen
data_Ta2SiB2Ru5
_symmetry_space_group_name_H-M   'P 1'
_cell_length_a   9.26850000
_cell_length_b   9.26850000
_cell_length_c   2.96809500
_cell_angle_alpha   90.00000000
_cell_angle_beta   90.00000000
_cell_angle_gamma   90.00000000
_symmetry_Int_Tables_number   1
_chemical_formula_structural   Ta2SiB2Ru5
_chemical_formula_sum   'Ta4 Si2 B4 Ru10'
_cell_volume   254.97447478
_cell_formula_units_Z   2
loop_
 _symmetry_equiv_pos_site_id
 _symmetry_equiv_pos_as_xyz
  1  'x, y, z'
loop_
 _atom_site_type_symbol
 _atom_site_label
 _atom_site_symmetry_multiplicity
 _atom_site_fract_x
 _atom_site_fract_y
 _atom_site_fract_z
 _atom_site_occupancy
  Ta  Ta0  1  0.822746  0.677254  0.000000  1
  Ta  Ta1  1  0.177254  0.322746  0.000000  1
  Ta  Ta2  1  0.322746  0.822746  0.000000  1
  Ta  Ta3  1  0.677254  0.177254  0.000000  1
  Si  Si4  1  0.500000  0.500000  0.000000  1
  Si  Si5  1  0.000000  0.000000  0.000000  1
  B  B6  1  0.624924  0.875076  0.000000  1
  B  B7  1  0.375076  0.124924  0.000000  1
  B  B8  1  0.124924  0.624924  0.000000  1
  B  B9  1  0.875076  0.375076  0.000000  1
  Ru  Ru10  1  0.567066  0.711452  0.500000  1
  Ru  Ru11  1  0.432934  0.288548  0.500000  1
  Ru  Ru12  1  0.067066  0.788548  0.500000  1
  Ru  Ru13  1  0.932934  0.211452  0.500000  1
  Ru  Ru14  1  0.288548  0.567066  0.500000  1
  Ru  Ru15  1  0.711452  0.432934  0.500000  1
  Ru  Ru16  1  0.211452  0.067066  0.500000  1
  Ru  Ru17  1  0.788548  0.932934  0.500000  1
  Ru  Ru18  1  0.500000  0.000000  0.500000  1
  Ru  Ru19  1  0.000000  0.500000  0.500000  1
