# generated using pymatgen
data_Ca2LuUN4
_symmetry_space_group_name_H-M   'P 1'
_cell_length_a   6.88801317
_cell_length_b   9.13935356
_cell_length_c   6.00691686
_cell_angle_alpha   29.15419999
_cell_angle_beta   55.01653619
_cell_angle_gamma   41.09112988
_symmetry_Int_Tables_number   1
_chemical_formula_structural   Ca2LuUN4
_chemical_formula_sum   'Ca2 Lu1 U1 N4'
_cell_volume   116.75130597
_cell_formula_units_Z   1
loop_
 _symmetry_equiv_pos_site_id
 _symmetry_equiv_pos_as_xyz
  1  'x, y, z'
loop_
 _atom_site_type_symbol
 _atom_site_label
 _atom_site_symmetry_multiplicity
 _atom_site_fract_x
 _atom_site_fract_y
 _atom_site_fract_z
 _atom_site_occupancy
  Ca  Ca0  1  0.750000  0.500000  0.000000  1
  Ca  Ca1  1  0.500000  0.000000  0.000000  1
  Lu  Lu2  1  0.250000  0.500000  0.000000  1
  U  U3  1  0.000000  0.000000  0.000000  1
  N  N4  1  0.487361  0.500000  0.525279  1
  N  N5  1  0.215816  0.000000  0.568368  1
  N  N6  1  0.012639  0.500000  0.474721  1
  N  N7  1  0.784184  0.000000  0.431632  1
