# generated using pymatgen
data_Sm2Dy3Co14P12Ru5
_symmetry_space_group_name_H-M   'P 1'
_cell_length_a   12.13040218
_cell_length_b   12.13412250
_cell_length_c   3.75570800
_cell_angle_alpha   90.00000000
_cell_angle_beta   90.00000000
_cell_angle_gamma   119.86519516
_symmetry_Int_Tables_number   1
_chemical_formula_structural   Sm2Dy3Co14P12Ru5
_chemical_formula_sum   'Sm2 Dy3 Co14 P12 Ru5'
_cell_volume   479.39595233
_cell_formula_units_Z   1
loop_
 _symmetry_equiv_pos_site_id
 _symmetry_equiv_pos_as_xyz
  1  'x, y, z'
loop_
 _atom_site_type_symbol
 _atom_site_label
 _atom_site_symmetry_multiplicity
 _atom_site_fract_x
 _atom_site_fract_y
 _atom_site_fract_z
 _atom_site_occupancy
  Sm  Sm0  1  0.662625  0.334028  0.000000  1
  Sm  Sm1  1  0.333285  0.666229  0.000000  1
  Dy  Dy2  1  0.185477  0.184238  0.500000  1
  Dy  Dy3  1  0.817257  0.000243  0.500000  1
  Dy  Dy4  1  0.000036  0.818094  0.500000  1
  Co  Co5  1  0.827910  0.198815  0.000000  1
  Co  Co6  1  0.801410  0.628865  0.000000  1
  Co  Co7  1  0.373853  0.178503  0.000000  1
  Co  Co8  1  0.194154  0.819819  0.000000  1
  Co  Co9  1  0.624428  0.803699  0.000000  1
  Co  Co10  1  0.180965  0.374092  0.000000  1
  Co  Co11  1  0.478976  0.358253  0.500000  1
  Co  Co12  1  0.129964  0.643729  0.500000  1
  Co  Co13  1  0.514213  0.870110  0.500000  1
  Co  Co14  1  0.357227  0.482563  0.500000  1
  Co  Co15  1  0.717149  0.718786  0.500000  1
  Co  Co16  1  0.280291  0.998568  0.500000  1
  Co  Co17  1  0.002582  0.282225  0.500000  1
  Co  Co18  1  0.999569  0.999570  0.000000  1
  P  P19  1  0.363644  0.363456  0.000000  1
  P  P20  1  0.633345  0.994986  0.000000  1
  P  P21  1  0.004609  0.639211  0.000000  1
  P  P22  1  0.839447  0.313376  0.500000  1
  P  P23  1  0.682780  0.524194  0.500000  1
  P  P24  1  0.471983  0.164819  0.500000  1
  P  P25  1  0.311697  0.835693  0.500000  1
  P  P26  1  0.522849  0.686941  0.500000  1
  P  P27  1  0.166127  0.475855  0.500000  1
  P  P28  1  0.819573  0.821665  0.000000  1
  P  P29  1  0.179322  0.999722  0.000000  1
  P  P30  1  0.002625  0.179507  0.000000  1
  Ru  Ru31  1  0.552136  0.553904  0.000000  1
  Ru  Ru32  1  0.440584  0.991977  0.000000  1
  Ru  Ru33  1  0.008357  0.449465  0.000000  1
  Ru  Ru34  1  0.642566  0.123090  0.500000  1
  Ru  Ru35  1  0.876989  0.521708  0.500000  1
