# generated using pymatgen
data_Sm4YIn3Cl
_symmetry_space_group_name_H-M   'P 1'
_cell_length_a   9.32246000
_cell_length_b   9.32246075
_cell_length_c   6.71979300
_cell_angle_alpha   89.99912690
_cell_angle_beta   89.99912640
_cell_angle_gamma   119.99963536
_symmetry_Int_Tables_number   1
_chemical_formula_structural   Sm4YIn3Cl
_chemical_formula_sum   'Sm8 Y2 In6 Cl2'
_cell_volume   505.76551540
_cell_formula_units_Z   2
loop_
 _symmetry_equiv_pos_site_id
 _symmetry_equiv_pos_as_xyz
  1  'x, y, z'
loop_
 _atom_site_type_symbol
 _atom_site_label
 _atom_site_symmetry_multiplicity
 _atom_site_fract_x
 _atom_site_fract_y
 _atom_site_fract_z
 _atom_site_occupancy
  Sm  Sm0  1  0.666656  0.333334  0.999999  1
  Sm  Sm1  1  0.333334  0.666657  0.999999  1
  Sm  Sm2  1  0.742538  0.742538  0.250348  1
  Sm  Sm3  1  0.257477  0.000017  0.250344  1
  Sm  Sm4  1  0.000016  0.257477  0.250344  1
  Sm  Sm5  1  0.257461  0.257461  0.749648  1
  Sm  Sm6  1  0.742524  0.999984  0.749659  1
  Sm  Sm7  1  0.999983  0.742523  0.749659  1
  Y  Y8  1  0.666669  0.333338  0.499999  1
  Y  Y9  1  0.333339  0.666670  0.499999  1
  In  In10  1  0.604950  0.999996  0.250433  1
  In  In11  1  0.999997  0.604951  0.250433  1
  In  In12  1  0.395037  0.395037  0.250439  1
  In  In13  1  0.395051  0.000004  0.749566  1
  In  In14  1  0.000004  0.395050  0.749566  1
  In  In15  1  0.604962  0.604962  0.749561  1
  Cl  Cl16  1  0.000001  0.000001  0.000001  1
  Cl  Cl17  1  0.000000  0.999999  0.500000  1
