# generated using pymatgen
data_Er2Ga2(SiPt)3
_symmetry_space_group_name_H-M   'P 1'
_cell_length_a   8.30048804
_cell_length_b   8.30048861
_cell_length_c   8.30048789
_cell_angle_alpha   138.13998718
_cell_angle_beta   104.76623029
_cell_angle_gamma   90.01986350
_symmetry_Int_Tables_number   1
_chemical_formula_structural   Er2Ga2(SiPt)3
_chemical_formula_sum   'Er4 Ga4 Si6 Pt6'
_cell_volume   352.63421100
_cell_formula_units_Z   2
loop_
 _symmetry_equiv_pos_site_id
 _symmetry_equiv_pos_as_xyz
  1  'x, y, z'
loop_
 _atom_site_type_symbol
 _atom_site_label
 _atom_site_symmetry_multiplicity
 _atom_site_fract_x
 _atom_site_fract_y
 _atom_site_fract_z
 _atom_site_occupancy
  Er  Er0  1  0.635203  0.368317  0.266886  1
  Er  Er1  1  0.364797  0.631683  0.733114  1
  Er  Er2  1  0.101430  0.868317  0.233114  1
  Er  Er3  1  0.898570  0.131683  0.766886  1
  Ga  Ga4  1  0.270225  0.520225  0.250000  1
  Ga  Ga5  1  0.729775  0.479775  0.750000  1
  Ga  Ga6  1  0.729775  0.979775  0.250000  1
  Ga  Ga7  1  0.270225  0.020225  0.750000  1
  Si  Si8  1  0.455489  0.107004  0.348485  1
  Si  Si9  1  0.544511  0.892996  0.651515  1
  Si  Si10  1  0.758519  0.607004  0.151515  1
  Si  Si11  1  0.241481  0.392996  0.848485  1
  Si  Si12  1  0.000000  0.250000  0.250000  1
  Si  Si13  1  0.000000  0.750000  0.750000  1
  Pt  Pt14  1  0.247627  0.128382  0.119245  1
  Pt  Pt15  1  0.752373  0.871618  0.880755  1
  Pt  Pt16  1  0.009137  0.628382  0.380755  1
  Pt  Pt17  1  0.990863  0.371618  0.619245  1
  Pt  Pt18  1  0.500000  0.250000  0.750000  1
  Pt  Pt19  1  0.500000  0.750000  0.250000  1
