# generated using pymatgen
data_DyY7Sc12Si9Ge7
_symmetry_space_group_name_H-M   'P 1'
_cell_length_a   7.15694172
_cell_length_b   7.41991022
_cell_length_c   14.06368568
_cell_angle_alpha   89.98504957
_cell_angle_beta   89.77704395
_cell_angle_gamma   90.02196435
_symmetry_Int_Tables_number   1
_chemical_formula_structural   DyY7Sc12Si9Ge7
_chemical_formula_sum   'Dy1 Y7 Sc12 Si9 Ge7'
_cell_volume   746.83033045
_cell_formula_units_Z   1
loop_
 _symmetry_equiv_pos_site_id
 _symmetry_equiv_pos_as_xyz
  1  'x, y, z'
loop_
 _atom_site_type_symbol
 _atom_site_label
 _atom_site_symmetry_multiplicity
 _atom_site_fract_x
 _atom_site_fract_y
 _atom_site_fract_z
 _atom_site_occupancy
  Dy  Dy0  1  0.493240  0.676750  0.598865  1
  Y  Y1  1  0.009748  0.174963  0.098271  1
  Y  Y2  1  0.993335  0.824519  0.902249  1
  Y  Y3  1  0.491972  0.676963  0.901873  1
  Y  Y4  1  0.993117  0.823015  0.598646  1
  Y  Y5  1  0.506635  0.322722  0.098604  1
  Y  Y6  1  0.007073  0.176802  0.401096  1
  Y  Y7  1  0.506662  0.323158  0.401132  1
  Sc  Sc8  1  0.165837  0.500844  0.750013  1
  Sc  Sc9  1  0.834488  0.499294  0.249924  1
  Sc  Sc10  1  0.334436  0.000696  0.248594  1
  Sc  Sc11  1  0.665454  0.999051  0.749951  1
  Sc  Sc12  1  0.336757  0.172715  0.626776  1
  Sc  Sc13  1  0.663000  0.827153  0.373272  1
  Sc  Sc14  1  0.163070  0.673000  0.373287  1
  Sc  Sc15  1  0.662400  0.826264  0.126780  1
  Sc  Sc16  1  0.836702  0.327431  0.626778  1
  Sc  Sc17  1  0.335240  0.172717  0.873779  1
  Sc  Sc18  1  0.835461  0.326149  0.873842  1
  Sc  Sc19  1  0.165622  0.675921  0.125717  1
  Si  Si20  1  0.037261  0.117855  0.750250  1
  Si  Si21  1  0.962074  0.881859  0.249770  1
  Si  Si22  1  0.462039  0.617404  0.249889  1
  Si  Si23  1  0.537668  0.382053  0.750339  1
  Si  Si24  1  0.289990  0.872209  0.750012  1
  Si  Si25  1  0.710495  0.127445  0.249805  1
  Si  Si26  1  0.209737  0.373140  0.249627  1
  Si  Si27  1  0.790080  0.627637  0.750446  1
  Si  Si28  1  0.334907  0.962361  0.040310  1
  Ge  Ge29  1  0.171527  0.460507  0.540762  1
  Ge  Ge30  1  0.828642  0.539687  0.459187  1
  Ge  Ge31  1  0.329119  0.960213  0.459186  1
  Ge  Ge32  1  0.830097  0.539049  0.040844  1
  Ge  Ge33  1  0.670861  0.039533  0.540639  1
  Ge  Ge34  1  0.169656  0.460678  0.959380  1
  Ge  Ge35  1  0.665597  0.038239  0.960106  1
