# generated using pymatgen
data_DyY3ReB12Ir
_symmetry_space_group_name_H-M   'P 1'
_cell_length_a   3.67544300
_cell_length_b   9.18072806
_cell_length_c   11.56953502
_cell_angle_alpha   90.34104013
_cell_angle_beta   90.00000000
_cell_angle_gamma   90.00000000
_symmetry_Int_Tables_number   1
_chemical_formula_structural   DyY3ReB12Ir
_chemical_formula_sum   'Dy2 Y6 Re2 B24 Ir2'
_cell_volume   390.38671217
_cell_formula_units_Z   2
loop_
 _symmetry_equiv_pos_site_id
 _symmetry_equiv_pos_as_xyz
  1  'x, y, z'
loop_
 _atom_site_type_symbol
 _atom_site_label
 _atom_site_symmetry_multiplicity
 _atom_site_fract_x
 _atom_site_fract_y
 _atom_site_fract_z
 _atom_site_occupancy
  Dy  Dy0  1  0.000000  0.441770  0.125787  1
  Dy  Dy1  1  0.000000  0.558230  0.874213  1
  Y  Y2  1  0.000000  0.317620  0.409662  1
  Y  Y3  1  0.000000  0.682380  0.590338  1
  Y  Y4  1  0.000000  0.826841  0.082398  1
  Y  Y5  1  0.000000  0.173159  0.917602  1
  Y  Y6  1  0.000000  0.946268  0.372425  1
  Y  Y7  1  0.000000  0.053732  0.627575  1
  Re  Re8  1  0.000000  0.138355  0.179515  1
  Re  Re9  1  0.000000  0.861645  0.820485  1
  B  B10  1  0.500000  0.554111  0.433716  1
  B  B11  1  0.500000  0.445889  0.566284  1
  B  B12  1  0.500000  0.053343  0.067459  1
  B  B13  1  0.500000  0.946657  0.932541  1
  B  B14  1  0.500000  0.748769  0.421148  1
  B  B15  1  0.500000  0.251231  0.578852  1
  B  B16  1  0.500000  0.247420  0.080828  1
  B  B17  1  0.500000  0.752580  0.919172  1
  B  B18  1  0.500000  0.790660  0.266338  1
  B  B19  1  0.500000  0.209340  0.733662  1
  B  B20  1  0.500000  0.292141  0.233865  1
  B  B21  1  0.500000  0.707859  0.766135  1
  B  B22  1  0.500000  0.632073  0.184385  1
  B  B23  1  0.500000  0.367927  0.815615  1
  B  B24  1  0.500000  0.132132  0.314277  1
  B  B25  1  0.500000  0.867868  0.685723  1
  B  B26  1  0.500000  0.983451  0.213040  1
  B  B27  1  0.500000  0.016549  0.786960  1
  B  B28  1  0.500000  0.482963  0.287113  1
  B  B29  1  0.500000  0.517037  0.712887  1
  B  B30  1  0.500000  0.608303  0.030374  1
  B  B31  1  0.500000  0.391697  0.969626  1
  B  B32  1  0.500000  0.109261  0.470354  1
  B  B33  1  0.500000  0.890739  0.529646  1
  Ir  Ir34  1  0.000000  0.636332  0.322254  1
  Ir  Ir35  1  0.000000  0.363668  0.677746  1
