# generated using pymatgen
data_Ho19Mg(IrAu2)4
_symmetry_space_group_name_H-M   'P 1'
_cell_length_a   11.23241700
_cell_length_b   11.23241700
_cell_length_c   6.28411100
_cell_angle_alpha   90.00000000
_cell_angle_beta   90.00000000
_cell_angle_gamma   90.00000000
_symmetry_Int_Tables_number   1
_chemical_formula_structural   Ho19Mg(IrAu2)4
_chemical_formula_sum   'Ho19 Mg1 Ir4 Au8'
_cell_volume   792.84863696
_cell_formula_units_Z   1
loop_
 _symmetry_equiv_pos_site_id
 _symmetry_equiv_pos_as_xyz
  1  'x, y, z'
loop_
 _atom_site_type_symbol
 _atom_site_label
 _atom_site_symmetry_multiplicity
 _atom_site_fract_x
 _atom_site_fract_y
 _atom_site_fract_z
 _atom_site_occupancy
  Ho  Ho0  1  0.292294  0.081032  0.359902  1
  Ho  Ho1  1  0.298031  0.917559  0.856986  1
  Ho  Ho2  1  0.701969  0.082441  0.856986  1
  Ho  Ho3  1  0.707706  0.918968  0.359902  1
  Ho  Ho4  1  0.585742  0.798661  0.857135  1
  Ho  Ho5  1  0.579805  0.200549  0.354529  1
  Ho  Ho6  1  0.420195  0.799451  0.354529  1
  Ho  Ho7  1  0.414258  0.201339  0.857135  1
  Ho  Ho8  1  0.200549  0.420195  0.645471  1
  Ho  Ho9  1  0.201339  0.585742  0.142865  1
  Ho  Ho10  1  0.798661  0.414258  0.142865  1
  Ho  Ho11  1  0.799451  0.579805  0.645471  1
  Ho  Ho12  1  0.917559  0.701969  0.143014  1
  Ho  Ho13  1  0.918968  0.292294  0.640098  1
  Ho  Ho14  1  0.081032  0.707706  0.640098  1
  Ho  Ho15  1  0.082441  0.298031  0.143014  1
  Ho  Ho16  1  0.000000  0.000000  0.000000  1
  Ho  Ho17  1  0.500000  0.500000  0.000000  1
  Ho  Ho18  1  0.500000  0.500000  0.500000  1
  Mg  Mg19  1  0.000000  0.000000  0.500000  1
  Ir  Ir20  1  0.500000  0.000000  0.104503  1
  Ir  Ir21  1  0.500000  0.000000  0.604452  1
  Ir  Ir22  1  0.000000  0.500000  0.895497  1
  Ir  Ir23  1  0.000000  0.500000  0.395548  1
  Au  Au24  1  0.846265  0.152225  0.255789  1
  Au  Au25  1  0.847775  0.846265  0.744211  1
  Au  Au26  1  0.152225  0.153735  0.744211  1
  Au  Au27  1  0.153735  0.847775  0.255789  1
  Au  Au28  1  0.656306  0.342599  0.748698  1
  Au  Au29  1  0.657401  0.656306  0.251302  1
  Au  Au30  1  0.342599  0.343694  0.251302  1
  Au  Au31  1  0.343694  0.657401  0.748698  1
