# generated using pymatgen
data_Tb12Si13Au11
_symmetry_space_group_name_H-M   'P 1'
_cell_length_a   4.29447000
_cell_length_b   7.40723401
_cell_length_c   23.54739943
_cell_angle_alpha   89.99214685
_cell_angle_beta   90.00000000
_cell_angle_gamma   90.00000000
_symmetry_Int_Tables_number   1
_chemical_formula_structural   Tb12Si13Au11
_chemical_formula_sum   'Tb12 Si13 Au11'
_cell_volume   749.04616521
_cell_formula_units_Z   1
loop_
 _symmetry_equiv_pos_site_id
 _symmetry_equiv_pos_as_xyz
  1  'x, y, z'
loop_
 _atom_site_type_symbol
 _atom_site_label
 _atom_site_symmetry_multiplicity
 _atom_site_fract_x
 _atom_site_fract_y
 _atom_site_fract_z
 _atom_site_occupancy
  Tb  Tb0  1  0.250000  0.746941  0.333197  1
  Tb  Tb1  1  0.750000  0.243395  0.666544  1
  Tb  Tb2  1  0.750000  0.245732  0.166493  1
  Tb  Tb3  1  0.250000  0.749745  0.833185  1
  Tb  Tb4  1  0.250000  0.755715  0.166765  1
  Tb  Tb5  1  0.750000  0.245211  0.834252  1
  Tb  Tb6  1  0.750000  0.255278  0.334117  1
  Tb  Tb7  1  0.250000  0.753840  0.666498  1
  Tb  Tb8  1  0.250000  0.747639  0.999341  1
  Tb  Tb9  1  0.750000  0.251707  0.000139  1
  Tb  Tb10  1  0.750000  0.234263  0.500716  1
  Tb  Tb11  1  0.250000  0.772960  0.498517  1
  Si  Si12  1  0.250000  0.082299  0.076003  1
  Si  Si13  1  0.750000  0.914134  0.917688  1
  Si  Si14  1  0.750000  0.585718  0.427405  1
  Si  Si15  1  0.250000  0.405209  0.584695  1
  Si  Si16  1  0.250000  0.083982  0.245808  1
  Si  Si17  1  0.750000  0.912786  0.748336  1
  Si  Si18  1  0.750000  0.583991  0.251787  1
  Si  Si19  1  0.250000  0.415142  0.748584  1
  Si  Si20  1  0.250000  0.088314  0.416927  1
  Si  Si21  1  0.750000  0.923228  0.583708  1
  Si  Si22  1  0.750000  0.584300  0.083364  1
  Si  Si23  1  0.250000  0.416970  0.919056  1
  Si  Si24  1  0.250000  0.084082  0.585254  1
  Au  Au25  1  0.250000  0.417604  0.250530  1
  Au  Au26  1  0.750000  0.579394  0.749729  1
  Au  Au27  1  0.750000  0.918722  0.254734  1
  Au  Au28  1  0.250000  0.081551  0.750553  1
  Au  Au29  1  0.250000  0.421577  0.417987  1
  Au  Au30  1  0.750000  0.582697  0.576835  1
  Au  Au31  1  0.750000  0.917433  0.085012  1
  Au  Au32  1  0.250000  0.082210  0.916010  1
  Au  Au33  1  0.250000  0.416645  0.085775  1
  Au  Au34  1  0.750000  0.581138  0.913292  1
  Au  Au35  1  0.750000  0.918451  0.411166  1
