# generated using pymatgen
data_Th2Al2FeCo
_symmetry_space_group_name_H-M   'P 1'
_cell_length_a   5.97255419
_cell_length_b   5.97255382
_cell_length_c   4.91932448
_cell_angle_alpha   78.44618759
_cell_angle_beta   78.44619299
_cell_angle_gamma   43.41991414
_symmetry_Int_Tables_number   1
_chemical_formula_structural   Th2Al2FeCo
_chemical_formula_sum   'Th2 Al2 Fe1 Co1'
_cell_volume   117.77779115
_cell_formula_units_Z   1
loop_
 _symmetry_equiv_pos_site_id
 _symmetry_equiv_pos_as_xyz
  1  'x, y, z'
loop_
 _atom_site_type_symbol
 _atom_site_label
 _atom_site_symmetry_multiplicity
 _atom_site_fract_x
 _atom_site_fract_y
 _atom_site_fract_z
 _atom_site_occupancy
  Th  Th0  1  0.869820  0.869820  0.313356  1
  Th  Th1  1  0.130125  0.130125  0.684340  1
  Al  Al2  1  0.590509  0.590509  0.189660  1
  Al  Al3  1  0.409749  0.409749  0.812409  1
  Fe  Fe4  1  0.194857  0.194857  0.152440  1
  Co  Co5  1  0.804940  0.804940  0.847796  1
