# generated using pymatgen
data_Nd4Er4Re3B24Ru
_symmetry_space_group_name_H-M   'P 1'
_cell_length_a   3.71386900
_cell_length_b   9.21939677
_cell_length_c   11.67193348
_cell_angle_alpha   89.91136852
_cell_angle_beta   90.00000000
_cell_angle_gamma   90.00000000
_symmetry_Int_Tables_number   1
_chemical_formula_structural   Nd4Er4Re3B24Ru
_chemical_formula_sum   'Nd4 Er4 Re3 B24 Ru1'
_cell_volume   399.64222718
_cell_formula_units_Z   1
loop_
 _symmetry_equiv_pos_site_id
 _symmetry_equiv_pos_as_xyz
  1  'x, y, z'
loop_
 _atom_site_type_symbol
 _atom_site_label
 _atom_site_symmetry_multiplicity
 _atom_site_fract_x
 _atom_site_fract_y
 _atom_site_fract_z
 _atom_site_occupancy
  Nd  Nd0  1  0.000000  0.322849  0.414141  1
  Nd  Nd1  1  0.000000  0.675831  0.584179  1
  Nd  Nd2  1  0.000000  0.822926  0.086727  1
  Nd  Nd3  1  0.000000  0.177770  0.914948  1
  Er  Er4  1  0.000000  0.943384  0.370111  1
  Er  Er5  1  0.000000  0.056803  0.631063  1
  Er  Er6  1  0.000000  0.443782  0.130184  1
  Er  Er7  1  0.000000  0.557598  0.869055  1
  Re  Re8  1  0.000000  0.639934  0.319042  1
  Re  Re9  1  0.000000  0.360253  0.681527  1
  Re  Re10  1  0.000000  0.139219  0.180102  1
  B  B11  1  0.500000  0.555155  0.430270  1
  B  B12  1  0.500000  0.444646  0.569395  1
  B  B13  1  0.500000  0.055245  0.069579  1
  B  B14  1  0.500000  0.943855  0.929953  1
  B  B15  1  0.500000  0.750270  0.416025  1
  B  B16  1  0.500000  0.249090  0.584180  1
  B  B17  1  0.500000  0.250908  0.083981  1
  B  B18  1  0.500000  0.750020  0.915509  1
  B  B19  1  0.500000  0.792245  0.266138  1
  B  B20  1  0.500000  0.208130  0.734467  1
  B  B21  1  0.500000  0.292015  0.233906  1
  B  B22  1  0.500000  0.708977  0.765836  1
  B  B23  1  0.500000  0.630323  0.185697  1
  B  B24  1  0.500000  0.369895  0.814711  1
  B  B25  1  0.500000  0.129836  0.313878  1
  B  B26  1  0.500000  0.869621  0.686099  1
  B  B27  1  0.500000  0.983862  0.213559  1
  B  B28  1  0.500000  0.014320  0.786842  1
  B  B29  1  0.500000  0.484453  0.286153  1
  B  B30  1  0.500000  0.515490  0.713317  1
  B  B31  1  0.500000  0.597912  0.026385  1
  B  B32  1  0.500000  0.403734  0.973146  1
  B  B33  1  0.500000  0.097000  0.473967  1
  B  B34  1  0.500000  0.902800  0.527151  1
  Ru  Ru35  1  0.000000  0.859846  0.818775  1
