# generated using pymatgen
data_Ca3Ge2SbRh6
_symmetry_space_group_name_H-M   'P 1'
_cell_length_a   5.79501800
_cell_length_b   5.79501680
_cell_length_c   15.48200200
_cell_angle_alpha   90.00000000
_cell_angle_beta   90.00000000
_cell_angle_gamma   119.99999541
_symmetry_Int_Tables_number   1
_chemical_formula_structural   Ca3Ge2SbRh6
_chemical_formula_sum   'Ca6 Ge4 Sb2 Rh12'
_cell_volume   450.26403605
_cell_formula_units_Z   2
loop_
 _symmetry_equiv_pos_site_id
 _symmetry_equiv_pos_as_xyz
  1  'x, y, z'
loop_
 _atom_site_type_symbol
 _atom_site_label
 _atom_site_symmetry_multiplicity
 _atom_site_fract_x
 _atom_site_fract_y
 _atom_site_fract_z
 _atom_site_occupancy
  Ca  Ca0  1  0.333333  0.666667  0.040531  1
  Ca  Ca1  1  0.333333  0.666667  0.250000  1
  Ca  Ca2  1  0.333333  0.666667  0.459469  1
  Ca  Ca3  1  0.666667  0.333334  0.540531  1
  Ca  Ca4  1  0.666667  0.333334  0.750000  1
  Ca  Ca5  1  0.666667  0.333334  0.959469  1
  Ge  Ge6  1  0.000000  0.000000  0.250000  1
  Ge  Ge7  1  0.666667  0.333334  0.250000  1
  Ge  Ge8  1  0.000000  0.000000  0.750000  1
  Ge  Ge9  1  0.333333  0.666667  0.750000  1
  Sb  Sb10  1  0.000000  0.000000  0.000000  1
  Sb  Sb11  1  0.000000  0.000000  0.500000  1
  Rh  Rh12  1  0.337174  0.168587  0.133263  1
  Rh  Rh13  1  0.831413  0.168587  0.133263  1
  Rh  Rh14  1  0.831413  0.662826  0.133263  1
  Rh  Rh15  1  0.337174  0.168587  0.366737  1
  Rh  Rh16  1  0.831413  0.168587  0.366737  1
  Rh  Rh17  1  0.831413  0.662826  0.366737  1
  Rh  Rh18  1  0.168587  0.337175  0.633264  1
  Rh  Rh19  1  0.168587  0.831413  0.633264  1
  Rh  Rh20  1  0.662826  0.831413  0.633264  1
  Rh  Rh21  1  0.168587  0.337175  0.866737  1
  Rh  Rh22  1  0.168587  0.831413  0.866737  1
  Rh  Rh23  1  0.662826  0.831413  0.866737  1
