# generated using pymatgen
data_Tb7Yb12DySn16
_symmetry_space_group_name_H-M   'P 1'
_cell_length_a   7.84231204
_cell_length_b   8.44030504
_cell_length_c   16.07992409
_cell_angle_alpha   89.99186166
_cell_angle_beta   90.00928920
_cell_angle_gamma   89.99344848
_symmetry_Int_Tables_number   1
_chemical_formula_structural   Tb7Yb12DySn16
_chemical_formula_sum   'Tb7 Yb12 Dy1 Sn16'
_cell_volume   1064.35435698
_cell_formula_units_Z   1
loop_
 _symmetry_equiv_pos_site_id
 _symmetry_equiv_pos_as_xyz
  1  'x, y, z'
loop_
 _atom_site_type_symbol
 _atom_site_label
 _atom_site_symmetry_multiplicity
 _atom_site_fract_x
 _atom_site_fract_y
 _atom_site_fract_z
 _atom_site_occupancy
  Tb  Tb0  1  0.673188  0.166075  0.621980  1
  Tb  Tb1  1  0.173170  0.334000  0.877995  1
  Tb  Tb2  1  0.326798  0.834029  0.121943  1
  Tb  Tb3  1  0.826845  0.665960  0.378087  1
  Tb  Tb4  1  0.326797  0.834030  0.378104  1
  Tb  Tb5  1  0.826793  0.665959  0.121940  1
  Tb  Tb6  1  0.673236  0.166010  0.877994  1
  Yb  Yb7  1  0.505034  0.688678  0.592872  1
  Yb  Yb8  1  0.005129  0.811255  0.907134  1
  Yb  Yb9  1  0.494879  0.311269  0.092840  1
  Yb  Yb10  1  0.994930  0.188768  0.407206  1
  Yb  Yb11  1  0.494840  0.311277  0.407162  1
  Yb  Yb12  1  0.994861  0.188747  0.092842  1
  Yb  Yb13  1  0.505104  0.688707  0.907135  1
  Yb  Yb14  1  0.005171  0.811209  0.592852  1
  Yb  Yb15  1  0.835802  0.512141  0.749961  1
  Yb  Yb16  1  0.335709  0.987866  0.749951  1
  Yb  Yb17  1  0.164263  0.487770  0.250006  1
  Yb  Yb18  1  0.664250  0.012216  0.249985  1
  Dy  Dy19  1  0.173192  0.334177  0.622030  1
  Sn  Sn20  1  0.671222  0.964548  0.459160  1
  Sn  Sn21  1  0.171231  0.535500  0.040846  1
  Sn  Sn22  1  0.328759  0.035489  0.959128  1
  Sn  Sn23  1  0.829216  0.464336  0.540967  1
  Sn  Sn24  1  0.328346  0.035879  0.540959  1
  Sn  Sn25  1  0.828739  0.464482  0.959152  1
  Sn  Sn26  1  0.671251  0.964499  0.040860  1
  Sn  Sn27  1  0.171342  0.535164  0.459416  1
  Sn  Sn28  1  0.471497  0.375424  0.749814  1
  Sn  Sn29  1  0.972012  0.124770  0.749843  1
  Sn  Sn30  1  0.528210  0.624452  0.250002  1
  Sn  Sn31  1  0.028241  0.875507  0.250010  1
  Sn  Sn32  1  0.718266  0.872989  0.749961  1
  Sn  Sn33  1  0.218107  0.626864  0.749852  1
  Sn  Sn34  1  0.281770  0.127019  0.250002  1
  Sn  Sn35  1  0.781800  0.372934  0.250009  1
