# generated using pymatgen
data_La2YCo(P3Rh4)2
_symmetry_space_group_name_H-M   'P 1'
_cell_length_a   3.91504500
_cell_length_b   11.27837700
_cell_length_c   12.98385400
_cell_angle_alpha   90.00000000
_cell_angle_beta   90.00000000
_cell_angle_gamma   90.00000000
_symmetry_Int_Tables_number   1
_chemical_formula_structural   La2YCo(P3Rh4)2
_chemical_formula_sum   'La4 Y2 Co2 P12 Rh16'
_cell_volume   573.30666293
_cell_formula_units_Z   2
loop_
 _symmetry_equiv_pos_site_id
 _symmetry_equiv_pos_as_xyz
  1  'x, y, z'
loop_
 _atom_site_type_symbol
 _atom_site_label
 _atom_site_symmetry_multiplicity
 _atom_site_fract_x
 _atom_site_fract_y
 _atom_site_fract_z
 _atom_site_occupancy
  La  La0  1  0.000000  0.500000  0.524287  1
  La  La1  1  0.500000  0.000000  0.478220  1
  La  La2  1  0.500000  0.816308  0.201132  1
  La  La3  1  0.500000  0.183692  0.201132  1
  Y  Y4  1  0.000000  0.683629  0.798455  1
  Y  Y5  1  0.000000  0.316371  0.798455  1
  Co  Co6  1  0.000000  0.500000  0.976872  1
  Co  Co7  1  0.500000  0.000000  0.010850  1
  P  P8  1  0.500000  0.500000  0.881769  1
  P  P9  1  0.000000  0.000000  0.109659  1
  P  P10  1  0.500000  0.500000  0.346348  1
  P  P11  1  0.000000  0.000000  0.655312  1
  P  P12  1  0.500000  0.312816  0.622907  1
  P  P13  1  0.500000  0.687184  0.622907  1
  P  P14  1  0.000000  0.189463  0.384133  1
  P  P15  1  0.000000  0.810537  0.384133  1
  P  P16  1  0.500000  0.849145  0.895472  1
  P  P17  1  0.500000  0.150855  0.895472  1
  P  P18  1  0.000000  0.641649  0.101079  1
  P  P19  1  0.000000  0.358351  0.101079  1
  Rh  Rh20  1  0.500000  0.500000  0.166899  1
  Rh  Rh21  1  0.000000  0.000000  0.833596  1
  Rh  Rh22  1  0.500000  0.500000  0.707118  1
  Rh  Rh23  1  0.000000  0.000000  0.295132  1
  Rh  Rh24  1  0.500000  0.338858  0.993034  1
  Rh  Rh25  1  0.500000  0.661142  0.993034  1
  Rh  Rh26  1  0.000000  0.165317  0.000753  1
  Rh  Rh27  1  0.000000  0.834683  0.000753  1
  Rh  Rh28  1  0.500000  0.293895  0.432131  1
  Rh  Rh29  1  0.500000  0.706105  0.432131  1
  Rh  Rh30  1  0.000000  0.207222  0.573982  1
  Rh  Rh31  1  0.000000  0.792778  0.573982  1
  Rh  Rh32  1  0.500000  0.873954  0.715321  1
  Rh  Rh33  1  0.500000  0.126046  0.715321  1
  Rh  Rh34  1  0.000000  0.623811  0.288569  1
  Rh  Rh35  1  0.000000  0.376189  0.288569  1
