# generated using pymatgen
data_Tb12Cd2Tc3
_symmetry_space_group_name_H-M   'P 1'
_cell_length_a   8.46895731
_cell_length_b   8.46959725
_cell_length_c   8.46895785
_cell_angle_alpha   109.64556342
_cell_angle_beta   109.62805773
_cell_angle_gamma   109.13749560
_symmetry_Int_Tables_number   1
_chemical_formula_structural   Tb12Cd2Tc3
_chemical_formula_sum   'Tb12 Cd2 Tc3'
_cell_volume   467.63411004
_cell_formula_units_Z   1
loop_
 _symmetry_equiv_pos_site_id
 _symmetry_equiv_pos_as_xyz
  1  'x, y, z'
loop_
 _atom_site_type_symbol
 _atom_site_label
 _atom_site_symmetry_multiplicity
 _atom_site_fract_x
 _atom_site_fract_y
 _atom_site_fract_z
 _atom_site_occupancy
  Tb  Tb0  1  0.187157  0.431070  0.243913  1
  Tb  Tb1  1  0.812843  0.568930  0.756087  1
  Tb  Tb2  1  0.187130  0.943219  0.756090  1
  Tb  Tb3  1  0.943162  0.187261  0.755862  1
  Tb  Tb4  1  0.812870  0.056781  0.243910  1
  Tb  Tb5  1  0.056838  0.812739  0.244138  1
  Tb  Tb6  1  0.431399  0.187261  0.244098  1
  Tb  Tb7  1  0.568601  0.812739  0.755902  1
  Tb  Tb8  1  0.318564  0.318505  0.637067  1
  Tb  Tb9  1  0.681436  0.681495  0.362933  1
  Tb  Tb10  1  0.681439  0.318505  0.999941  1
  Tb  Tb11  1  0.318561  0.681495  0.000059  1
  Cd  Cd12  1  0.000000  0.500000  0.500000  1
  Cd  Cd13  1  0.500000  0.000000  0.500000  1
  Tc  Tc14  1  0.338600  0.338602  0.000002  1
  Tc  Tc15  1  0.661400  0.661398  0.999998  1
  Tc  Tc16  1  0.000000  0.000000  0.000000  1
