# generated using pymatgen
data_YTm3(ScPt)4
_symmetry_space_group_name_H-M   'P 1'
_cell_length_a   4.62013800
_cell_length_b   6.94198598
_cell_length_c   8.36723044
_cell_angle_alpha   90.21364321
_cell_angle_beta   90.00000000
_cell_angle_gamma   90.00000000
_symmetry_Int_Tables_number   1
_chemical_formula_structural   YTm3(ScPt)4
_chemical_formula_sum   'Y1 Tm3 Sc4 Pt4'
_cell_volume   268.35975739
_cell_formula_units_Z   1
loop_
 _symmetry_equiv_pos_site_id
 _symmetry_equiv_pos_as_xyz
  1  'x, y, z'
loop_
 _atom_site_type_symbol
 _atom_site_label
 _atom_site_symmetry_multiplicity
 _atom_site_fract_x
 _atom_site_fract_y
 _atom_site_fract_z
 _atom_site_occupancy
  Y  Y0  1  0.750000  0.515546  0.823218  1
  Tm  Tm1  1  0.250000  0.984162  0.323763  1
  Tm  Tm2  1  0.750000  0.016618  0.674935  1
  Tm  Tm3  1  0.250000  0.483695  0.176099  1
  Sc  Sc4  1  0.750000  0.642545  0.425944  1
  Sc  Sc5  1  0.250000  0.358244  0.571973  1
  Sc  Sc6  1  0.750000  0.140914  0.073852  1
  Sc  Sc7  1  0.250000  0.857813  0.926757  1
  Pt  Pt8  1  0.250000  0.244176  0.903021  1
  Pt  Pt9  1  0.750000  0.753864  0.101478  1
  Pt  Pt10  1  0.250000  0.749159  0.596777  1
  Pt  Pt11  1  0.750000  0.253264  0.402184  1
