# generated using pymatgen
data_Pr8Si13Sb
_symmetry_space_group_name_H-M   'P 1'
_cell_length_a   7.57004590
_cell_length_b   7.57004656
_cell_length_c   11.94738072
_cell_angle_alpha   89.47898334
_cell_angle_beta   89.47898900
_cell_angle_gamma   133.59970772
_symmetry_Int_Tables_number   1
_chemical_formula_structural   Pr8Si13Sb
_chemical_formula_sum   'Pr8 Si13 Sb1'
_cell_volume   495.67588809
_cell_formula_units_Z   1
loop_
 _symmetry_equiv_pos_site_id
 _symmetry_equiv_pos_as_xyz
  1  'x, y, z'
loop_
 _atom_site_type_symbol
 _atom_site_label
 _atom_site_symmetry_multiplicity
 _atom_site_fract_x
 _atom_site_fract_y
 _atom_site_fract_z
 _atom_site_occupancy
  Pr  Pr0  1  0.503591  0.997965  0.124923  1
  Pr  Pr1  1  0.003602  0.505001  0.876867  1
  Pr  Pr2  1  0.494999  0.996398  0.623133  1
  Pr  Pr3  1  0.002035  0.496409  0.375077  1
  Pr  Pr4  1  0.496717  0.503283  0.250000  1
  Pr  Pr5  1  0.500677  0.499323  0.750000  1
  Pr  Pr6  1  0.002472  0.001670  0.492340  1
  Pr  Pr7  1  0.998330  0.997528  0.007660  1
  Si  Si8  1  0.589783  0.416090  0.492125  1
  Si  Si9  1  0.419760  0.589078  0.502476  1
  Si  Si10  1  0.410922  0.580240  0.997524  1
  Si  Si11  1  0.583910  0.410217  0.007875  1
  Si  Si12  1  0.591538  0.928312  0.371932  1
  Si  Si13  1  0.913984  0.573075  0.620160  1
  Si  Si14  1  0.426925  0.086016  0.879840  1
  Si  Si15  1  0.071688  0.408462  0.128068  1
  Si  Si16  1  0.392611  0.069257  0.364366  1
  Si  Si17  1  0.068320  0.386258  0.633477  1
  Si  Si18  1  0.613742  0.931680  0.866523  1
  Si  Si19  1  0.930743  0.607389  0.135634  1
  Si  Si20  1  0.927197  0.072803  0.250000  1
  Sb  Sb21  1  0.056455  0.943545  0.750000  1
