# generated using pymatgen
data_Ho8ZnCu(Si6Pd)2
_symmetry_space_group_name_H-M   'P 1'
_cell_length_a   8.08784800
_cell_length_b   8.08784815
_cell_length_c   8.07000400
_cell_angle_alpha   90.00000000
_cell_angle_beta   90.00000000
_cell_angle_gamma   119.99999940
_symmetry_Int_Tables_number   1
_chemical_formula_structural   Ho8ZnCu(Si6Pd)2
_chemical_formula_sum   'Ho8 Zn1 Cu1 Si12 Pd2'
_cell_volume   457.16224169
_cell_formula_units_Z   1
loop_
 _symmetry_equiv_pos_site_id
 _symmetry_equiv_pos_as_xyz
  1  'x, y, z'
loop_
 _atom_site_type_symbol
 _atom_site_label
 _atom_site_symmetry_multiplicity
 _atom_site_fract_x
 _atom_site_fract_y
 _atom_site_fract_z
 _atom_site_occupancy
  Ho  Ho0  1  0.501613  0.003224  0.249694  1
  Ho  Ho1  1  0.500440  0.000881  0.750536  1
  Ho  Ho2  1  0.996776  0.498387  0.249694  1
  Ho  Ho3  1  0.999119  0.499560  0.750536  1
  Ho  Ho4  1  0.501613  0.498387  0.249694  1
  Ho  Ho5  1  0.500440  0.499560  0.750536  1
  Ho  Ho6  1  0.000000  0.000000  0.249396  1
  Ho  Ho7  1  0.000000  0.000000  0.750278  1
  Zn  Zn8  1  0.333333  0.666667  0.004785  1
  Cu  Cu9  1  0.666667  0.333333  0.996667  1
  Si  Si10  1  0.165219  0.330436  0.998691  1
  Si  Si11  1  0.829330  0.658661  0.000946  1
  Si  Si12  1  0.669564  0.834781  0.998691  1
  Si  Si13  1  0.834095  0.668189  0.500979  1
  Si  Si14  1  0.341339  0.170670  0.000946  1
  Si  Si15  1  0.166019  0.332036  0.499103  1
  Si  Si16  1  0.165219  0.834781  0.998691  1
  Si  Si17  1  0.331811  0.165905  0.500979  1
  Si  Si18  1  0.829330  0.170670  0.000946  1
  Si  Si19  1  0.667964  0.833981  0.499103  1
  Si  Si20  1  0.834095  0.165905  0.500979  1
  Si  Si21  1  0.166019  0.833981  0.499103  1
  Pd  Pd22  1  0.666667  0.333333  0.500776  1
  Pd  Pd23  1  0.333333  0.666667  0.498253  1
