# generated using pymatgen
data_K4Rb2Al4Sb5As
_symmetry_space_group_name_H-M   'P 1'
_cell_length_a   6.73978600
_cell_length_b   8.00820326
_cell_length_c   11.18453445
_cell_angle_alpha   70.81826684
_cell_angle_beta   90.00000000
_cell_angle_gamma   90.00000000
_symmetry_Int_Tables_number   1
_chemical_formula_structural   K4Rb2Al4Sb5As
_chemical_formula_sum   'K4 Rb2 Al4 Sb5 As1'
_cell_volume   570.15430835
_cell_formula_units_Z   1
loop_
 _symmetry_equiv_pos_site_id
 _symmetry_equiv_pos_as_xyz
  1  'x, y, z'
loop_
 _atom_site_type_symbol
 _atom_site_label
 _atom_site_symmetry_multiplicity
 _atom_site_fract_x
 _atom_site_fract_y
 _atom_site_fract_z
 _atom_site_occupancy
  K  K0  1  0.250000  0.364974  0.481639  1
  K  K1  1  0.250000  0.516269  0.842804  1
  K  K2  1  0.750000  0.629772  0.514172  1
  K  K3  1  0.250000  0.855792  0.131314  1
  Rb  Rb4  1  0.750000  0.143650  0.892762  1
  Rb  Rb5  1  0.750000  0.506332  0.154055  1
  Al  Al6  1  0.988547  0.061281  0.332648  1
  Al  Al7  1  0.500675  0.935020  0.659281  1
  Al  Al8  1  0.511453  0.061281  0.332648  1
  Al  Al9  1  0.999325  0.935020  0.659281  1
  Sb  Sb10  1  0.250000  0.812267  0.499982  1
  Sb  Sb11  1  0.750000  0.191402  0.492351  1
  Sb  Sb12  1  0.250000  0.301095  0.187473  1
  Sb  Sb13  1  0.750000  0.689169  0.804776  1
  Sb  Sb14  1  0.250000  0.071496  0.788879  1
  As  As15  1  0.750000  0.925177  0.225937  1
