# generated using pymatgen
data_Tb4Er4Sc12Si15Hg
_symmetry_space_group_name_H-M   'P 1'
_cell_length_a   7.12608865
_cell_length_b   7.38587550
_cell_length_c   14.08199946
_cell_angle_alpha   89.94079091
_cell_angle_beta   89.54761494
_cell_angle_gamma   90.18172989
_symmetry_Int_Tables_number   1
_chemical_formula_structural   Tb4Er4Sc12Si15Hg
_chemical_formula_sum   'Tb4 Er4 Sc12 Si15 Hg1'
_cell_volume   741.14223329
_cell_formula_units_Z   1
loop_
 _symmetry_equiv_pos_site_id
 _symmetry_equiv_pos_as_xyz
  1  'x, y, z'
loop_
 _atom_site_type_symbol
 _atom_site_label
 _atom_site_symmetry_multiplicity
 _atom_site_fract_x
 _atom_site_fract_y
 _atom_site_fract_z
 _atom_site_occupancy
  Tb  Tb0  1  0.010996  0.175045  0.097864  1
  Tb  Tb1  1  0.988044  0.826224  0.904332  1
  Tb  Tb2  1  0.488489  0.676562  0.904718  1
  Tb  Tb3  1  0.990416  0.832211  0.597327  1
  Er  Er4  1  0.511081  0.322724  0.097534  1
  Er  Er5  1  0.006270  0.171020  0.397293  1
  Er  Er6  1  0.510532  0.321138  0.399059  1
  Er  Er7  1  0.497481  0.682692  0.599869  1
  Sc  Sc8  1  0.164113  0.502042  0.753800  1
  Sc  Sc9  1  0.835632  0.497635  0.250448  1
  Sc  Sc10  1  0.335621  0.000536  0.249223  1
  Sc  Sc11  1  0.667136  0.997716  0.751652  1
  Sc  Sc12  1  0.344610  0.168387  0.628483  1
  Sc  Sc13  1  0.662430  0.823531  0.372822  1
  Sc  Sc14  1  0.165633  0.677213  0.370443  1
  Sc  Sc15  1  0.667574  0.823622  0.125024  1
  Sc  Sc16  1  0.826384  0.325545  0.625571  1
  Sc  Sc17  1  0.330794  0.175868  0.876307  1
  Sc  Sc18  1  0.830294  0.323736  0.876075  1
  Sc  Sc19  1  0.168580  0.675880  0.125596  1
  Si  Si20  1  0.037934  0.122747  0.751016  1
  Si  Si21  1  0.962256  0.882740  0.248486  1
  Si  Si22  1  0.465248  0.613282  0.248197  1
  Si  Si23  1  0.535072  0.386554  0.751658  1
  Si  Si24  1  0.287424  0.873265  0.751215  1
  Si  Si25  1  0.710208  0.127577  0.248581  1
  Si  Si26  1  0.212843  0.370247  0.248756  1
  Si  Si27  1  0.789498  0.628223  0.751774  1
  Si  Si28  1  0.831402  0.536687  0.458564  1
  Si  Si29  1  0.337351  0.962433  0.459500  1
  Si  Si30  1  0.842145  0.535160  0.039435  1
  Si  Si31  1  0.660788  0.038166  0.536473  1
  Si  Si32  1  0.155454  0.463721  0.962664  1
  Si  Si33  1  0.656326  0.037123  0.961663  1
  Si  Si34  1  0.342787  0.965322  0.040394  1
  Hg  Hg35  1  0.171152  0.457429  0.538185  1
