# generated using pymatgen
data_Nd4Zn8Cd3In
_symmetry_space_group_name_H-M   'P 1'
_cell_length_a   4.59050300
_cell_length_b   7.45682543
_cell_length_c   10.13117135
_cell_angle_alpha   90.03058556
_cell_angle_beta   90.00000000
_cell_angle_gamma   90.00000000
_symmetry_Int_Tables_number   1
_chemical_formula_structural   Nd4Zn8Cd3In
_chemical_formula_sum   'Nd4 Zn8 Cd3 In1'
_cell_volume   346.79581704
_cell_formula_units_Z   1
loop_
 _symmetry_equiv_pos_site_id
 _symmetry_equiv_pos_as_xyz
  1  'x, y, z'
loop_
 _atom_site_type_symbol
 _atom_site_label
 _atom_site_symmetry_multiplicity
 _atom_site_fract_x
 _atom_site_fract_y
 _atom_site_fract_z
 _atom_site_occupancy
  Nd  Nd0  1  0.250000  0.312977  0.673504  1
  Nd  Nd1  1  0.250000  0.814452  0.826140  1
  Nd  Nd2  1  0.750000  0.685608  0.325216  1
  Nd  Nd3  1  0.750000  0.185771  0.172564  1
  Zn  Zn4  1  0.250000  0.900103  0.146357  1
  Zn  Zn5  1  0.250000  0.400624  0.352920  1
  Zn  Zn6  1  0.750000  0.100110  0.856610  1
  Zn  Zn7  1  0.750000  0.597958  0.646277  1
  Zn  Zn8  1  0.250000  0.184796  0.965001  1
  Zn  Zn9  1  0.250000  0.680592  0.534249  1
  Zn  Zn10  1  0.750000  0.815167  0.035469  1
  Zn  Zn11  1  0.750000  0.318169  0.464660  1
  Cd  Cd12  1  0.250000  0.525179  0.094858  1
  Cd  Cd13  1  0.250000  0.024929  0.404605  1
  Cd  Cd14  1  0.750000  0.475988  0.904683  1
  In  In15  1  0.750000  0.977576  0.596887  1
