# generated using pymatgen
data_Nd3ScHg5
_symmetry_space_group_name_H-M   'P 1'
_cell_length_a   8.39595297
_cell_length_b   8.39595354
_cell_length_c   8.39595417
_cell_angle_alpha   66.60453267
_cell_angle_beta   66.60453036
_cell_angle_gamma   66.60450795
_symmetry_Int_Tables_number   1
_chemical_formula_structural   Nd3ScHg5
_chemical_formula_sum   'Nd6 Sc2 Hg10'
_cell_volume   477.97209736
_cell_formula_units_Z   2
loop_
 _symmetry_equiv_pos_site_id
 _symmetry_equiv_pos_as_xyz
  1  'x, y, z'
loop_
 _atom_site_type_symbol
 _atom_site_label
 _atom_site_symmetry_multiplicity
 _atom_site_fract_x
 _atom_site_fract_y
 _atom_site_fract_z
 _atom_site_occupancy
  Nd  Nd0  1  0.891432  0.184641  0.623922  1
  Nd  Nd1  1  0.623922  0.891432  0.184641  1
  Nd  Nd2  1  0.184641  0.623922  0.891432  1
  Nd  Nd3  1  0.108568  0.815359  0.376078  1
  Nd  Nd4  1  0.376078  0.108568  0.815359  1
  Nd  Nd5  1  0.815359  0.376078  0.108568  1
  Sc  Sc6  1  0.657154  0.657154  0.657154  1
  Sc  Sc7  1  0.342846  0.342846  0.342846  1
  Hg  Hg8  1  0.000000  0.000000  0.000000  1
  Hg  Hg9  1  0.500000  0.500000  0.500000  1
  Hg  Hg10  1  0.805498  0.805498  0.805498  1
  Hg  Hg11  1  0.194502  0.194502  0.194502  1
  Hg  Hg12  1  0.942715  0.554825  0.319613  1
  Hg  Hg13  1  0.319613  0.942715  0.554825  1
  Hg  Hg14  1  0.554825  0.319613  0.942715  1
  Hg  Hg15  1  0.057285  0.445175  0.680387  1
  Hg  Hg16  1  0.680387  0.057285  0.445175  1
  Hg  Hg17  1  0.445175  0.680387  0.057285  1
