# generated using pymatgen
data_Ho4Ga3Os3Ru2
_symmetry_space_group_name_H-M   'P 1'
_cell_length_a   5.32560306
_cell_length_b   5.32560242
_cell_length_c   8.90866800
_cell_angle_alpha   90.00000000
_cell_angle_beta   90.00000000
_cell_angle_gamma   119.99109761
_symmetry_Int_Tables_number   1
_chemical_formula_structural   Ho4Ga3Os3Ru2
_chemical_formula_sum   'Ho4 Ga3 Os3 Ru2'
_cell_volume   218.83656701
_cell_formula_units_Z   1
loop_
 _symmetry_equiv_pos_site_id
 _symmetry_equiv_pos_as_xyz
  1  'x, y, z'
loop_
 _atom_site_type_symbol
 _atom_site_label
 _atom_site_symmetry_multiplicity
 _atom_site_fract_x
 _atom_site_fract_y
 _atom_site_fract_z
 _atom_site_occupancy
  Ho  Ho0  1  0.666699  0.333301  0.558202  1
  Ho  Ho1  1  0.333312  0.666688  0.434082  1
  Ho  Ho2  1  0.333312  0.666688  0.065918  1
  Ho  Ho3  1  0.666699  0.333301  0.941798  1
  Ga  Ga4  1  0.165993  0.331942  0.750000  1
  Ga  Ga5  1  0.165968  0.834032  0.750000  1
  Ga  Ga6  1  0.668058  0.834007  0.750000  1
  Os  Os7  1  0.829662  0.659424  0.250000  1
  Os  Os8  1  0.829701  0.170299  0.250000  1
  Os  Os9  1  0.340576  0.170338  0.250000  1
  Ru  Ru10  1  0.000010  0.999990  0.498995  1
  Ru  Ru11  1  0.000010  0.999990  0.001005  1
