# generated using pymatgen
data_Y2Ho3Er(ReB7)2
_symmetry_space_group_name_H-M   'P 1'
_cell_length_a   8.05847659
_cell_length_b   8.05847557
_cell_length_c   9.34744366
_cell_angle_alpha   89.95788488
_cell_angle_beta   90.04211536
_cell_angle_gamma   154.70816199
_symmetry_Int_Tables_number   1
_chemical_formula_structural   Y2Ho3Er(ReB7)2
_chemical_formula_sum   'Y2 Ho3 Er1 Re2 B14'
_cell_volume   259.33394747
_cell_formula_units_Z   1
loop_
 _symmetry_equiv_pos_site_id
 _symmetry_equiv_pos_as_xyz
  1  'x, y, z'
loop_
 _atom_site_type_symbol
 _atom_site_label
 _atom_site_symmetry_multiplicity
 _atom_site_fract_x
 _atom_site_fract_y
 _atom_site_fract_z
 _atom_site_occupancy
  Y  Y0  1  0.243207  0.756793  0.249973  1
  Y  Y1  1  0.756927  0.243073  0.750041  1
  Ho  Ho2  1  0.105164  0.894836  0.559715  1
  Ho  Ho3  1  0.105156  0.894844  0.940329  1
  Ho  Ho4  1  0.894810  0.105190  0.440227  1
  Er  Er5  1  0.895047  0.104953  0.059269  1
  Re  Re6  1  0.052329  0.947671  0.249828  1
  Re  Re7  1  0.947520  0.052479  0.750257  1
  B  B8  1  0.456174  0.543826  0.249659  1
  B  B9  1  0.543595  0.456405  0.750055  1
  B  B10  1  0.727364  0.272636  0.033351  1
  B  B11  1  0.272845  0.727155  0.533294  1
  B  B12  1  0.273027  0.726973  0.966849  1
  B  B13  1  0.727149  0.272851  0.466712  1
  B  B14  1  0.631870  0.368130  0.349483  1
  B  B15  1  0.368133  0.631867  0.849842  1
  B  B16  1  0.368117  0.631883  0.650506  1
  B  B17  1  0.631875  0.368125  0.150539  1
  B  B18  1  0.520493  0.479507  0.404912  1
  B  B19  1  0.479372  0.520628  0.905246  1
  B  B20  1  0.479450  0.520550  0.595034  1
  B  B21  1  0.520375  0.479625  0.094880  1
