# generated using pymatgen
data_Rb2U(Br2O)2
_symmetry_space_group_name_H-M   'P 1'
_cell_length_a   7.46506940
_cell_length_b   8.04257332
_cell_length_c   7.46506978
_cell_angle_alpha   57.40615377
_cell_angle_beta   65.18770894
_cell_angle_gamma   57.40614944
_symmetry_Int_Tables_number   1
_chemical_formula_structural   Rb2U(Br2O)2
_chemical_formula_sum   'Rb2 U1 Br4 O2'
_cell_volume   312.79942701
_cell_formula_units_Z   1
loop_
 _symmetry_equiv_pos_site_id
 _symmetry_equiv_pos_as_xyz
  1  'x, y, z'
loop_
 _atom_site_type_symbol
 _atom_site_label
 _atom_site_symmetry_multiplicity
 _atom_site_fract_x
 _atom_site_fract_y
 _atom_site_fract_z
 _atom_site_occupancy
  Rb  Rb0  1  0.250000  0.250000  0.250000  1
  Rb  Rb1  1  0.750000  0.750000  0.750000  1
  U  U2  1  0.000000  0.000000  0.000000  1
  Br  Br3  1  0.750284  0.750284  0.249716  1
  Br  Br4  1  0.249716  0.249716  0.750284  1
  Br  Br5  1  0.750284  0.249716  0.249716  1
  Br  Br6  1  0.249716  0.750284  0.750284  1
  O  O7  1  0.813814  0.186186  0.813814  1
  O  O8  1  0.186186  0.813814  0.186186  1
