# generated using pymatgen
data_CsY6Ho4(C2I9)2
_symmetry_space_group_name_H-M   'P 1'
_cell_length_a   11.48009278
_cell_length_b   11.48925320
_cell_length_c   11.49623688
_cell_angle_alpha   113.21701569
_cell_angle_beta   86.68881373
_cell_angle_gamma   120.04761587
_symmetry_Int_Tables_number   1
_chemical_formula_structural   CsY6Ho4(C2I9)2
_chemical_formula_sum   'Cs1 Y6 Ho4 C4 I18'
_cell_volume   1187.52781831
_cell_formula_units_Z   1
loop_
 _symmetry_equiv_pos_site_id
 _symmetry_equiv_pos_as_xyz
  1  'x, y, z'
loop_
 _atom_site_type_symbol
 _atom_site_label
 _atom_site_symmetry_multiplicity
 _atom_site_fract_x
 _atom_site_fract_y
 _atom_site_fract_z
 _atom_site_occupancy
  Cs  Cs0  1  0.499885  0.999661  0.499875  1
  Y  Y1  1  0.907218  0.610548  0.708984  1
  Y  Y2  1  0.104143  0.945383  0.000895  1
  Y  Y3  1  0.035741  0.962478  0.676121  1
  Y  Y4  1  0.320708  0.274427  0.287562  1
  Y  Y5  1  0.723009  0.647534  0.984795  1
  Y  Y6  1  0.895924  0.055679  0.999691  1
  Ho  Ho7  1  0.680510  0.725895  0.713182  1
  Ho  Ho8  1  0.275760  0.351095  0.015493  1
  Ho  Ho9  1  0.093601  0.388205  0.290325  1
  Ho  Ho10  1  0.964474  0.037761  0.322595  1
  C  C11  1  0.151322  0.220164  0.120789  1
  C  C12  1  0.847724  0.780513  0.879109  1
  C  C13  1  0.923473  0.856455  0.803213  1
  C  C14  1  0.075220  0.143825  0.196877  1
  I  I15  1  0.450610  0.530845  0.831697  1
  I  I16  1  0.382837  0.040073  0.157676  1
  I  I17  1  0.777812  0.855358  0.502038  1
  I  I18  1  0.839818  0.310198  0.154355  1
  I  I19  1  0.548762  0.469573  0.166553  1
  I  I20  1  0.219630  0.143393  0.497980  1
  I  I21  1  0.317630  0.098631  0.830132  1
  I  I22  1  0.683557  0.903545  0.172025  1
  I  I23  1  0.973653  0.757258  0.171131  1
  I  I24  1  0.934488  0.296927  0.499443  1
  I  I25  1  0.027919  0.245362  0.830844  1
  I  I26  1  0.067067  0.701817  0.498581  1
  I  I27  1  0.260244  0.618722  0.181957  1
  I  I28  1  0.739537  0.378373  0.817409  1
  I  I29  1  0.642900  0.437725  0.502344  1
  I  I30  1  0.162022  0.691034  0.847026  1
  I  I31  1  0.617666  0.958408  0.841709  1
  I  I32  1  0.355134  0.563136  0.497596  1
