# generated using pymatgen
data_YB2IrRu
_symmetry_space_group_name_H-M   'P 1'
_cell_length_a   6.79251826
_cell_length_b   5.98225791
_cell_length_c   5.54777945
_cell_angle_alpha   72.07667216
_cell_angle_beta   56.92649856
_cell_angle_gamma   50.99683439
_symmetry_Int_Tables_number   1
_chemical_formula_structural   YB2IrRu
_chemical_formula_sum   'Y2 B4 Ir2 Ru2'
_cell_volume   146.57957480
_cell_formula_units_Z   2
loop_
 _symmetry_equiv_pos_site_id
 _symmetry_equiv_pos_as_xyz
  1  'x, y, z'
loop_
 _atom_site_type_symbol
 _atom_site_label
 _atom_site_symmetry_multiplicity
 _atom_site_fract_x
 _atom_site_fract_y
 _atom_site_fract_z
 _atom_site_occupancy
  Y  Y0  1  0.744497  0.744497  0.755503  1
  Y  Y1  1  0.494497  0.494497  0.505503  1
  B  B2  1  0.066498  0.436512  0.062840  1
  B  B3  1  0.815850  0.187160  0.813488  1
  B  B4  1  0.436512  0.066498  0.434150  1
  B  B5  1  0.187160  0.815850  0.183502  1
  Ir  Ir6  1  0.865941  0.865941  0.134059  1
  Ir  Ir7  1  0.115941  0.115941  0.384059  1
  Ru  Ru8  1  0.386552  0.386552  0.113448  1
  Ru  Ru9  1  0.136552  0.136552  0.863448  1
