# generated using pymatgen
data_Ti8ReMo2
_symmetry_space_group_name_H-M   'P 1'
_cell_length_a   5.28330928
_cell_length_b   5.28330821
_cell_length_c   11.76690700
_cell_angle_alpha   105.68898814
_cell_angle_beta   105.68898488
_cell_angle_gamma   34.86352808
_symmetry_Int_Tables_number   1
_chemical_formula_structural   Ti8ReMo2
_chemical_formula_sum   'Ti8 Re1 Mo2'
_cell_volume   180.05269689
_cell_formula_units_Z   1
loop_
 _symmetry_equiv_pos_site_id
 _symmetry_equiv_pos_as_xyz
  1  'x, y, z'
loop_
 _atom_site_type_symbol
 _atom_site_label
 _atom_site_symmetry_multiplicity
 _atom_site_fract_x
 _atom_site_fract_y
 _atom_site_fract_z
 _atom_site_occupancy
  Ti  Ti0  1  0.710901  0.710901  0.083931  1
  Ti  Ti1  1  0.460660  0.460660  0.174740  1
  Ti  Ti2  1  0.207473  0.207473  0.281567  1
  Ti  Ti3  1  0.623453  0.623453  0.455281  1
  Ti  Ti4  1  0.376548  0.376548  0.544718  1
  Ti  Ti5  1  0.792527  0.792527  0.718433  1
  Ti  Ti6  1  0.539340  0.539340  0.825260  1
  Ti  Ti7  1  0.289100  0.289100  0.916070  1
  Re  Re8  1  0.000000  0.000000  0.000000  1
  Mo  Mo9  1  0.920110  0.920110  0.358261  1
  Mo  Mo10  1  0.079890  0.079890  0.641740  1
