# generated using pymatgen
data_Tb2Dy2Tm(ReO6)2
_symmetry_space_group_name_H-M   'P 1'
_cell_length_a   6.84049786
_cell_length_b   6.84049828
_cell_length_c   7.53216600
_cell_angle_alpha   73.82433003
_cell_angle_beta   73.82433777
_cell_angle_gamma   49.06244341
_symmetry_Int_Tables_number   1
_chemical_formula_structural   Tb2Dy2Tm(ReO6)2
_chemical_formula_sum   'Tb2 Dy2 Tm1 Re2 O12'
_cell_volume   253.45716459
_cell_formula_units_Z   1
loop_
 _symmetry_equiv_pos_site_id
 _symmetry_equiv_pos_as_xyz
  1  'x, y, z'
loop_
 _atom_site_type_symbol
 _atom_site_label
 _atom_site_symmetry_multiplicity
 _atom_site_fract_x
 _atom_site_fract_y
 _atom_site_fract_z
 _atom_site_occupancy
  Tb  Tb0  1  0.803358  0.803358  0.358334  1
  Tb  Tb1  1  0.196642  0.196642  0.641666  1
  Dy  Dy2  1  0.185033  0.185033  0.175624  1
  Dy  Dy3  1  0.814967  0.814967  0.824376  1
  Tm  Tm4  1  0.500000  0.500000  0.500000  1
  Re  Re5  1  0.286525  0.713475  0.000000  1
  Re  Re6  1  0.713475  0.286525  0.000000  1
  O  O7  1  0.413100  0.917530  0.915824  1
  O  O8  1  0.082470  0.586900  0.084176  1
  O  O9  1  0.586900  0.082470  0.084176  1
  O  O10  1  0.917530  0.413100  0.915824  1
  O  O11  1  0.598389  0.098116  0.573556  1
  O  O12  1  0.901884  0.401611  0.426444  1
  O  O13  1  0.401611  0.901884  0.426444  1
  O  O14  1  0.000940  0.000940  0.823713  1
  O  O15  1  0.999060  0.999060  0.176287  1
  O  O16  1  0.499249  0.499249  0.791865  1
  O  O17  1  0.500751  0.500751  0.208135  1
  O  O18  1  0.098116  0.598389  0.573556  1
