# generated using pymatgen
data_Rb2Cu(PSe3)2
_symmetry_space_group_name_H-M   'P 1'
_cell_length_a   13.24492800
_cell_length_b   6.65749353
_cell_length_c   9.56742568
_cell_angle_alpha   53.12306243
_cell_angle_beta   90.00000000
_cell_angle_gamma   90.00000000
_symmetry_Int_Tables_number   1
_chemical_formula_structural   Rb2Cu(PSe3)2
_chemical_formula_sum   'Rb4 Cu2 P4 Se12'
_cell_volume   674.84714145
_cell_formula_units_Z   2
loop_
 _symmetry_equiv_pos_site_id
 _symmetry_equiv_pos_as_xyz
  1  'x, y, z'
loop_
 _atom_site_type_symbol
 _atom_site_label
 _atom_site_symmetry_multiplicity
 _atom_site_fract_x
 _atom_site_fract_y
 _atom_site_fract_z
 _atom_site_occupancy
  Rb  Rb0  1  0.700562  0.825990  0.036186  1
  Rb  Rb1  1  0.299438  0.174010  0.963814  1
  Rb  Rb2  1  0.200562  0.174010  0.463814  1
  Rb  Rb3  1  0.799438  0.825990  0.536186  1
  Cu  Cu4  1  0.000000  0.000000  0.000000  1
  Cu  Cu5  1  0.500000  0.000000  0.500000  1
  P  P6  1  0.949260  0.373342  0.116322  1
  P  P7  1  0.050740  0.626658  0.883678  1
  P  P8  1  0.449260  0.626658  0.383678  1
  P  P9  1  0.550740  0.373342  0.616322  1
  Se  Se10  1  0.958464  0.562045  0.246093  1
  Se  Se11  1  0.041536  0.437955  0.753907  1
  Se  Se12  1  0.458464  0.437955  0.253907  1
  Se  Se13  1  0.541536  0.562045  0.746093  1
  Se  Se14  1  0.531635  0.989838  0.248364  1
  Se  Se15  1  0.468365  0.010162  0.751636  1
  Se  Se16  1  0.031635  0.010162  0.251636  1
  Se  Se17  1  0.968365  0.989838  0.748364  1
  Se  Se18  1  0.798331  0.344167  0.040538  1
  Se  Se19  1  0.201669  0.655833  0.959462  1
  Se  Se20  1  0.298331  0.655833  0.459462  1
  Se  Se21  1  0.701669  0.344167  0.540538  1
