# generated using pymatgen
data_Ti10Be2(SnSb)3
_symmetry_space_group_name_H-M   'P 1'
_cell_length_a   8.15341900
_cell_length_b   8.15342063
_cell_length_c   5.45020000
_cell_angle_alpha   90.00000000
_cell_angle_beta   90.00000000
_cell_angle_gamma   120.00000555
_symmetry_Int_Tables_number   1
_chemical_formula_structural   Ti10Be2(SnSb)3
_chemical_formula_sum   'Ti10 Be2 Sn3 Sb3'
_cell_volume   313.77811946
_cell_formula_units_Z   1
loop_
 _symmetry_equiv_pos_site_id
 _symmetry_equiv_pos_as_xyz
  1  'x, y, z'
loop_
 _atom_site_type_symbol
 _atom_site_label
 _atom_site_symmetry_multiplicity
 _atom_site_fract_x
 _atom_site_fract_y
 _atom_site_fract_z
 _atom_site_occupancy
  Ti  Ti0  1  0.666667  0.333333  0.500472  1
  Ti  Ti1  1  0.333333  0.666667  0.500472  1
  Ti  Ti2  1  0.333333  0.666667  0.999528  1
  Ti  Ti3  1  0.666667  0.333333  0.999528  1
  Ti  Ti4  1  0.744946  0.744946  0.250000  1
  Ti  Ti5  1  0.255054  0.000000  0.250000  1
  Ti  Ti6  1  0.000000  0.255054  0.250000  1
  Ti  Ti7  1  0.251636  0.251636  0.750000  1
  Ti  Ti8  1  0.748364  0.000000  0.750000  1
  Ti  Ti9  1  0.000000  0.748364  0.750000  1
  Be  Be10  1  0.000000  0.000000  0.005769  1
  Be  Be11  1  0.000000  0.000000  0.494231  1
  Sn  Sn12  1  0.386669  0.386669  0.250000  1
  Sn  Sn13  1  0.613331  0.000000  0.250000  1
  Sn  Sn14  1  0.000000  0.613331  0.250000  1
  Sb  Sb15  1  0.610563  0.610563  0.750000  1
  Sb  Sb16  1  0.389437  0.000000  0.750000  1
  Sb  Sb17  1  0.000000  0.389437  0.750000  1
