# generated using pymatgen
data_Ho12Er7Tm(CoBi2)4
_symmetry_space_group_name_H-M   'P 1'
_cell_length_a   7.92120412
_cell_length_b   8.85500205
_cell_length_c   12.32886919
_cell_angle_alpha   89.99117108
_cell_angle_beta   90.01829297
_cell_angle_gamma   89.99164723
_symmetry_Int_Tables_number   1
_chemical_formula_structural   Ho12Er7Tm(CoBi2)4
_chemical_formula_sum   'Ho12 Er7 Tm1 Co4 Bi8'
_cell_volume   864.77491596
_cell_formula_units_Z   1
loop_
 _symmetry_equiv_pos_site_id
 _symmetry_equiv_pos_as_xyz
  1  'x, y, z'
loop_
 _atom_site_type_symbol
 _atom_site_label
 _atom_site_symmetry_multiplicity
 _atom_site_fract_x
 _atom_site_fract_y
 _atom_site_fract_z
 _atom_site_occupancy
  Ho  Ho0  1  0.347182  0.749923  0.699716  1
  Ho  Ho1  1  0.652956  0.250046  0.300318  1
  Ho  Ho2  1  0.846996  0.250033  0.800193  1
  Ho  Ho3  1  0.152991  0.749983  0.199787  1
  Ho  Ho4  1  0.884916  0.750001  0.811270  1
  Ho  Ho5  1  0.115051  0.250021  0.188701  1
  Ho  Ho6  1  0.385140  0.250060  0.688606  1
  Ho  Ho7  1  0.615136  0.749879  0.311394  1
  Ho  Ho8  1  0.052819  0.749913  0.497938  1
  Ho  Ho9  1  0.946821  0.250120  0.502067  1
  Ho  Ho10  1  0.552958  0.249993  0.002056  1
  Ho  Ho11  1  0.447088  0.749996  0.997945  1
  Er  Er12  1  0.325454  0.462016  0.437182  1
  Er  Er13  1  0.174740  0.461846  0.937099  1
  Er  Er14  1  0.325244  0.037999  0.437116  1
  Er  Er15  1  0.825277  0.538066  0.062932  1
  Er  Er16  1  0.674709  0.961698  0.562904  1
  Er  Er17  1  0.825263  0.961913  0.062884  1
  Er  Er18  1  0.174729  0.038170  0.937101  1
  Tm  Tm19  1  0.674033  0.538237  0.562810  1
  Co  Co20  1  0.065734  0.749995  0.991993  1
  Co  Co21  1  0.934264  0.250010  0.008003  1
  Co  Co22  1  0.565892  0.250170  0.508023  1
  Co  Co23  1  0.434598  0.749809  0.492082  1
  Bi  Bi24  1  0.571537  0.509542  0.826653  1
  Bi  Bi25  1  0.428526  0.490508  0.173283  1
  Bi  Bi26  1  0.071275  0.490523  0.673203  1
  Bi  Bi27  1  0.428537  0.009525  0.173296  1
  Bi  Bi28  1  0.928610  0.509549  0.326730  1
  Bi  Bi29  1  0.571493  0.990475  0.826727  1
  Bi  Bi30  1  0.928561  0.990461  0.326724  1
  Bi  Bi31  1  0.071469  0.009520  0.673263  1
