# generated using pymatgen
data_Er2Lu2B12MoRh
_symmetry_space_group_name_H-M   'P 1'
_cell_length_a   3.62119200
_cell_length_b   9.10639250
_cell_length_c   11.51079909
_cell_angle_alpha   90.36844838
_cell_angle_beta   90.00000000
_cell_angle_gamma   90.00000000
_symmetry_Int_Tables_number   1
_chemical_formula_structural   Er2Lu2B12MoRh
_chemical_formula_sum   'Er4 Lu4 B24 Mo2 Rh2'
_cell_volume   379.57221258
_cell_formula_units_Z   2
loop_
 _symmetry_equiv_pos_site_id
 _symmetry_equiv_pos_as_xyz
  1  'x, y, z'
loop_
 _atom_site_type_symbol
 _atom_site_label
 _atom_site_symmetry_multiplicity
 _atom_site_fract_x
 _atom_site_fract_y
 _atom_site_fract_z
 _atom_site_occupancy
  Er  Er0  1  0.500000  0.318343  0.412026  1
  Er  Er1  1  0.500000  0.681657  0.587974  1
  Er  Er2  1  0.500000  0.175683  0.916719  1
  Er  Er3  1  0.500000  0.824317  0.083281  1
  Lu  Lu4  1  0.500000  0.443244  0.126813  1
  Lu  Lu5  1  0.500000  0.556756  0.873187  1
  Lu  Lu6  1  0.500000  0.055066  0.627954  1
  Lu  Lu7  1  0.500000  0.944934  0.372046  1
  B  B8  1  0.000000  0.104293  0.472589  1
  B  B9  1  0.000000  0.895707  0.527411  1
  B  B10  1  0.000000  0.397210  0.970814  1
  B  B11  1  0.000000  0.602790  0.029186  1
  B  B12  1  0.000000  0.131430  0.318160  1
  B  B13  1  0.000000  0.868570  0.681840  1
  B  B14  1  0.000000  0.369446  0.816235  1
  B  B15  1  0.000000  0.630554  0.183765  1
  B  B16  1  0.000000  0.051839  0.066015  1
  B  B17  1  0.000000  0.948161  0.933985  1
  B  B18  1  0.000000  0.445908  0.565370  1
  B  B19  1  0.000000  0.554092  0.434630  1
  B  B20  1  0.000000  0.482766  0.288025  1
  B  B21  1  0.000000  0.517234  0.711975  1
  B  B22  1  0.000000  0.021394  0.785797  1
  B  B23  1  0.000000  0.978606  0.214203  1
  B  B24  1  0.000000  0.251455  0.079485  1
  B  B25  1  0.000000  0.748545  0.920515  1
  B  B26  1  0.000000  0.249577  0.579254  1
  B  B27  1  0.000000  0.750423  0.420746  1
  B  B28  1  0.000000  0.296128  0.236767  1
  B  B29  1  0.000000  0.703872  0.763233  1
  B  B30  1  0.000000  0.208803  0.734317  1
  B  B31  1  0.000000  0.791197  0.265683  1
  Mo  Mo32  1  0.500000  0.139409  0.181536  1
  Mo  Mo33  1  0.500000  0.860591  0.818464  1
  Rh  Rh34  1  0.500000  0.361935  0.678346  1
  Rh  Rh35  1  0.500000  0.638065  0.321654  1
