# generated using pymatgen
data_Nb3ReS8
_symmetry_space_group_name_H-M   'P 1'
_cell_length_a   13.33644367
_cell_length_b   13.33644345
_cell_length_c   5.68488858
_cell_angle_alpha   85.38963107
_cell_angle_beta   85.38963209
_cell_angle_gamma   14.19822254
_symmetry_Int_Tables_number   1
_chemical_formula_structural   Nb3ReS8
_chemical_formula_sum   'Nb3 Re1 S8'
_cell_volume   247.18948313
_cell_formula_units_Z   1
loop_
 _symmetry_equiv_pos_site_id
 _symmetry_equiv_pos_as_xyz
  1  'x, y, z'
loop_
 _atom_site_type_symbol
 _atom_site_label
 _atom_site_symmetry_multiplicity
 _atom_site_fract_x
 _atom_site_fract_y
 _atom_site_fract_z
 _atom_site_occupancy
  Nb  Nb0  1  0.749685  0.749685  0.753540  1
  Nb  Nb1  1  0.499895  0.499895  0.502811  1
  Nb  Nb2  1  0.249870  0.249870  0.252575  1
  Re  Re3  1  0.999869  0.999869  0.997133  1
  S  S4  1  0.059762  0.059762  0.653697  1
  S  S5  1  0.810148  0.810148  0.392598  1
  S  S6  1  0.557384  0.557384  0.135966  1
  S  S7  1  0.310029  0.310029  0.891849  1
  S  S8  1  0.689582  0.689582  0.437384  1
  S  S9  1  0.442347  0.442347  0.179644  1
  S  S10  1  0.189379  0.189379  0.937981  1
  S  S11  1  0.940051  0.940051  0.698819  1
