# generated using pymatgen
data_TmThZr3Si4
_symmetry_space_group_name_H-M   'P 1'
_cell_length_a   7.38262590
_cell_length_b   7.16853604
_cell_length_c   7.35536884
_cell_angle_alpha   71.70515686
_cell_angle_beta   89.78109696
_cell_angle_gamma   90.37840166
_symmetry_Int_Tables_number   1
_chemical_formula_structural   TmThZr3Si4
_chemical_formula_sum   'Tm2 Th2 Zr6 Si8'
_cell_volume   369.57429560
_cell_formula_units_Z   2
loop_
 _symmetry_equiv_pos_site_id
 _symmetry_equiv_pos_as_xyz
  1  'x, y, z'
loop_
 _atom_site_type_symbol
 _atom_site_label
 _atom_site_symmetry_multiplicity
 _atom_site_fract_x
 _atom_site_fract_y
 _atom_site_fract_z
 _atom_site_occupancy
  Tm  Tm0  1  0.673700  0.928723  0.694123  1
  Tm  Tm1  1  0.326300  0.071277  0.305877  1
  Th  Th2  1  0.171139  0.571469  0.311371  1
  Th  Th3  1  0.828861  0.428531  0.688629  1
  Zr  Zr4  1  0.675492  0.749907  0.250941  1
  Zr  Zr5  1  0.324508  0.250093  0.749059  1
  Zr  Zr6  1  0.180101  0.751014  0.753731  1
  Zr  Zr7  1  0.819899  0.248986  0.246269  1
  Zr  Zr8  1  0.000000  0.000000  0.000000  1
  Zr  Zr9  1  0.500000  0.500000  0.000000  1
  Si  Si10  1  0.965660  0.874810  0.418156  1
  Si  Si11  1  0.034340  0.125190  0.581844  1
  Si  Si12  1  0.468091  0.635720  0.584025  1
  Si  Si13  1  0.531909  0.364280  0.415975  1
  Si  Si14  1  0.873589  0.631111  0.993010  1
  Si  Si15  1  0.126411  0.368889  0.006990  1
  Si  Si16  1  0.379076  0.874958  0.006483  1
  Si  Si17  1  0.620924  0.125042  0.993517  1
