# generated using pymatgen
data_Th3ZnAg3Pt2
_symmetry_space_group_name_H-M   'P 1'
_cell_length_a   7.77964500
_cell_length_b   7.77964557
_cell_length_c   3.89602400
_cell_angle_alpha   90.00000000
_cell_angle_beta   90.00000000
_cell_angle_gamma   120.00001031
_symmetry_Int_Tables_number   1
_chemical_formula_structural   Th3ZnAg3Pt2
_chemical_formula_sum   'Th3 Zn1 Ag3 Pt2'
_cell_volume   204.20755321
_cell_formula_units_Z   1
loop_
 _symmetry_equiv_pos_site_id
 _symmetry_equiv_pos_as_xyz
  1  'x, y, z'
loop_
 _atom_site_type_symbol
 _atom_site_label
 _atom_site_symmetry_multiplicity
 _atom_site_fract_x
 _atom_site_fract_y
 _atom_site_fract_z
 _atom_site_occupancy
  Th  Th0  1  0.578305  0.000000  0.000000  1
  Th  Th1  1  0.000000  0.578305  0.000000  1
  Th  Th2  1  0.421695  0.421695  0.000000  1
  Zn  Zn3  1  0.000000  0.000000  0.000000  1
  Ag  Ag4  1  0.242139  0.000000  0.500000  1
  Ag  Ag5  1  0.000000  0.242139  0.500000  1
  Ag  Ag6  1  0.757861  0.757861  0.500000  1
  Pt  Pt7  1  0.333333  0.666667  0.500000  1
  Pt  Pt8  1  0.666667  0.333333  0.500000  1
