# generated using pymatgen
data_Mn4MoOs
_symmetry_space_group_name_H-M   'P 1'
_cell_length_a   4.67566000
_cell_length_b   4.67566021
_cell_length_c   7.67954300
_cell_angle_alpha   90.00000000
_cell_angle_beta   90.00000000
_cell_angle_gamma   120.00001269
_symmetry_Int_Tables_number   1
_chemical_formula_structural   Mn4MoOs
_chemical_formula_sum   'Mn8 Mo2 Os2'
_cell_volume   145.39578543
_cell_formula_units_Z   2
loop_
 _symmetry_equiv_pos_site_id
 _symmetry_equiv_pos_as_xyz
  1  'x, y, z'
loop_
 _atom_site_type_symbol
 _atom_site_label
 _atom_site_symmetry_multiplicity
 _atom_site_fract_x
 _atom_site_fract_y
 _atom_site_fract_z
 _atom_site_occupancy
  Mn  Mn0  1  0.173592  0.347182  0.751309  1
  Mn  Mn1  1  0.826408  0.173592  0.251309  1
  Mn  Mn2  1  0.347182  0.173592  0.251309  1
  Mn  Mn3  1  0.652818  0.826408  0.751309  1
  Mn  Mn4  1  0.000000  0.000000  0.000047  1
  Mn  Mn5  1  0.000000  0.000000  0.500047  1
  Mn  Mn6  1  0.826408  0.652818  0.251309  1
  Mn  Mn7  1  0.173592  0.826408  0.751309  1
  Mo  Mo8  1  0.666667  0.333333  0.565044  1
  Mo  Mo9  1  0.333333  0.666667  0.065044  1
  Os  Os10  1  0.333333  0.666667  0.430980  1
  Os  Os11  1  0.666667  0.333333  0.930980  1
