# generated using pymatgen
data_U2AlReB8
_symmetry_space_group_name_H-M   'P 1'
_cell_length_a   3.60605700
_cell_length_b   5.91781903
_cell_length_c   5.91781857
_cell_angle_alpha   104.11051804
_cell_angle_beta   90.00000000
_cell_angle_gamma   90.00000000
_symmetry_Int_Tables_number   1
_chemical_formula_structural   U2AlReB8
_chemical_formula_sum   'U2 Al1 Re1 B8'
_cell_volume   122.47580669
_cell_formula_units_Z   1
loop_
 _symmetry_equiv_pos_site_id
 _symmetry_equiv_pos_as_xyz
  1  'x, y, z'
loop_
 _atom_site_type_symbol
 _atom_site_label
 _atom_site_symmetry_multiplicity
 _atom_site_fract_x
 _atom_site_fract_y
 _atom_site_fract_z
 _atom_site_occupancy
  U  U0  1  0.000000  0.301304  0.699464  1
  U  U1  1  0.000000  0.699464  0.301304  1
  Al  Al2  1  0.000000  0.816188  0.816188  1
  Re  Re3  1  0.000000  0.172454  0.172454  1
  B  B4  1  0.500000  0.937414  0.617398  1
  B  B5  1  0.500000  0.067218  0.384590  1
  B  B6  1  0.500000  0.617398  0.937414  1
  B  B7  1  0.500000  0.384590  0.067218  1
  B  B8  1  0.500000  0.619302  0.619302  1
  B  B9  1  0.500000  0.378140  0.378140  1
  B  B10  1  0.500000  0.097044  0.909483  1
  B  B11  1  0.500000  0.909483  0.097044  1
