# generated using pymatgen
data_SrPuInAs2
_symmetry_space_group_name_H-M   'P 1'
_cell_length_a   6.83687600
_cell_length_b   6.83687624
_cell_length_c   27.68594400
_cell_angle_alpha   90.00000000
_cell_angle_beta   90.00000000
_cell_angle_gamma   120.00000851
_symmetry_Int_Tables_number   1
_chemical_formula_structural   SrPuInAs2
_chemical_formula_sum   'Sr2 Pu2 In2 As4'
_cell_volume   1120.74123825
_cell_formula_units_Z   2
loop_
 _symmetry_equiv_pos_site_id
 _symmetry_equiv_pos_as_xyz
  1  'x, y, z'
loop_
 _atom_site_type_symbol
 _atom_site_label
 _atom_site_symmetry_multiplicity
 _atom_site_fract_x
 _atom_site_fract_y
 _atom_site_fract_z
 _atom_site_occupancy
  Sr  Sr0  1  0.000000  0.000000  0.000330  1
  Sr  Sr1  1  0.000000  0.000000  0.500039  1
  Pu  Pu2  1  0.666667  0.333333  0.830610  1
  Pu  Pu3  1  0.333333  0.666667  0.169204  1
  In  In4  1  0.333333  0.666667  0.340651  1
  In  In5  1  0.666667  0.333333  0.659648  1
  As  As6  1  0.666667  0.333333  0.395254  1
  As  As7  1  0.333333  0.666667  0.603459  1
  As  As8  1  0.333333  0.666667  0.900366  1
  As  As9  1  0.666667  0.333333  0.100439  1
