# generated using pymatgen
data_Lu7(PSe3)2
_symmetry_space_group_name_H-M   'P 1'
_cell_length_a   7.83598272
_cell_length_b   6.78876385
_cell_length_c   7.85328700
_cell_angle_alpha   89.97500132
_cell_angle_beta   59.97771939
_cell_angle_gamma   73.05161664
_symmetry_Int_Tables_number   1
_chemical_formula_structural   Lu7(PSe3)2
_chemical_formula_sum   'Lu7 P2 Se6'
_cell_volume   340.63173267
_cell_formula_units_Z   1
loop_
 _symmetry_equiv_pos_site_id
 _symmetry_equiv_pos_as_xyz
  1  'x, y, z'
loop_
 _atom_site_type_symbol
 _atom_site_label
 _atom_site_symmetry_multiplicity
 _atom_site_fract_x
 _atom_site_fract_y
 _atom_site_fract_z
 _atom_site_occupancy
  Lu  Lu0  1  0.160136  0.687862  0.979755  1
  Lu  Lu1  1  0.660479  0.187858  0.745638  1
  Lu  Lu2  1  0.148027  0.180284  0.736757  1
  Lu  Lu3  1  0.659438  0.688815  0.980828  1
  Lu  Lu4  1  0.160402  0.687992  0.480060  1
  Lu  Lu5  1  0.660071  0.188195  0.213986  1
  Lu  Lu6  1  0.170741  0.197666  0.225363  1
  P  P7  1  0.408374  0.445493  0.105441  1
  P  P8  1  0.912019  0.930852  0.854077  1
  Se  Se9  1  0.414565  0.934233  0.359477  1
  Se  Se10  1  0.904443  0.443518  0.602556  1
  Se  Se11  1  0.903825  0.443748  0.114982  1
  Se  Se12  1  0.411854  0.430502  0.604314  1
  Se  Se13  1  0.909538  0.945502  0.355181  1
  Se  Se14  1  0.414021  0.934420  0.848000  1
