# generated using pymatgen
data_Y3Ho17Hg6OsRu
_symmetry_space_group_name_H-M   'P 1'
_cell_length_a   9.54273601
_cell_length_b   9.54126653
_cell_length_c   9.74686500
_cell_angle_alpha   90.00000000
_cell_angle_beta   90.00000000
_cell_angle_gamma   119.99872978
_symmetry_Int_Tables_number   1
_chemical_formula_structural   Y3Ho17Hg6OsRu
_chemical_formula_sum   'Y3 Ho17 Hg6 Os1 Ru1'
_cell_volume   768.56407256
_cell_formula_units_Z   1
loop_
 _symmetry_equiv_pos_site_id
 _symmetry_equiv_pos_as_xyz
  1  'x, y, z'
loop_
 _atom_site_type_symbol
 _atom_site_label
 _atom_site_symmetry_multiplicity
 _atom_site_fract_x
 _atom_site_fract_y
 _atom_site_fract_z
 _atom_site_occupancy
  Y  Y0  1  0.539613  0.460468  0.250000  1
  Y  Y1  1  0.539616  0.079149  0.250000  1
  Y  Y2  1  0.920801  0.460403  0.250000  1
  Ho  Ho3  1  0.999993  0.999997  0.499654  1
  Ho  Ho4  1  0.999993  0.999997  0.000346  1
  Ho  Ho5  1  0.209446  0.790524  0.441266  1
  Ho  Ho6  1  0.209447  0.418924  0.441264  1
  Ho  Ho7  1  0.581077  0.790539  0.441242  1
  Ho  Ho8  1  0.790537  0.209494  0.560229  1
  Ho  Ho9  1  0.790534  0.581038  0.560231  1
  Ho  Ho10  1  0.418975  0.209488  0.560227  1
  Ho  Ho11  1  0.790537  0.209494  0.939771  1
  Ho  Ho12  1  0.790534  0.581038  0.939769  1
  Ho  Ho13  1  0.418975  0.209488  0.939773  1
  Ho  Ho14  1  0.209446  0.790524  0.058734  1
  Ho  Ho15  1  0.209447  0.418924  0.058736  1
  Ho  Ho16  1  0.581077  0.790539  0.058758  1
  Ho  Ho17  1  0.458998  0.540985  0.750000  1
  Ho  Ho18  1  0.458998  0.918011  0.750000  1
  Ho  Ho19  1  0.081954  0.540977  0.750000  1
  Hg  Hg20  1  0.883184  0.116656  0.250000  1
  Hg  Hg21  1  0.883204  0.766533  0.250000  1
  Hg  Hg22  1  0.233293  0.116631  0.250000  1
  Hg  Hg23  1  0.117267  0.882855  0.750000  1
  Hg  Hg24  1  0.117246  0.234405  0.750000  1
  Hg  Hg25  1  0.765777  0.882906  0.750000  1
  Os  Os26  1  0.333340  0.666668  0.250000  1
  Ru  Ru27  1  0.666691  0.333346  0.750000  1
