# generated using pymatgen
data_U2Co12Si7
_symmetry_space_group_name_H-M   'P 1'
_cell_length_a   9.08132135
_cell_length_b   9.04317584
_cell_length_c   3.64834100
_cell_angle_alpha   90.00000000
_cell_angle_beta   90.00000000
_cell_angle_gamma   119.99556201
_symmetry_Int_Tables_number   1
_chemical_formula_structural   U2Co12Si7
_chemical_formula_sum   'U2 Co12 Si7'
_cell_volume   259.48693410
_cell_formula_units_Z   1
loop_
 _symmetry_equiv_pos_site_id
 _symmetry_equiv_pos_as_xyz
  1  'x, y, z'
loop_
 _atom_site_type_symbol
 _atom_site_label
 _atom_site_symmetry_multiplicity
 _atom_site_fract_x
 _atom_site_fract_y
 _atom_site_fract_z
 _atom_site_occupancy
  U  U0  1  0.334880  0.666737  0.000000  1
  U  U1  1  0.666059  0.333648  0.500001  1
  Co  Co2  1  0.455667  0.071194  0.000000  1
  Co  Co3  1  0.928428  0.383302  0.000000  1
  Co  Co4  1  0.616444  0.543048  0.000000  1
  Co  Co5  1  0.369076  0.437007  0.500001  1
  Co  Co6  1  0.562843  0.931930  0.500001  1
  Co  Co7  1  0.066685  0.630898  0.500001  1
  Co  Co8  1  0.144200  0.282131  0.000000  1
  Co  Co9  1  0.718546  0.862165  0.000000  1
  Co  Co10  1  0.137807  0.856744  0.000000  1
  Co  Co11  1  0.209771  0.104370  0.500001  1
  Co  Co12  1  0.894785  0.106896  0.500001  1
  Co  Co13  1  0.895156  0.790922  0.500001  1
  Si  Si14  1  0.092284  0.394834  0.500001  1
  Si  Si15  1  0.607046  0.697799  0.500001  1
  Si  Si16  1  0.301579  0.907353  0.500001  1
  Si  Si17  1  0.999615  0.000199  0.000000  1
  Si  Si18  1  0.385264  0.277788  0.000000  1
  Si  Si19  1  0.720613  0.107132  0.000000  1
  Si  Si20  1  0.893251  0.613907  0.000000  1
