# generated using pymatgen
data_Tb7Nd4YTh4(MgIr)4
_symmetry_space_group_name_H-M   'P 1'
_cell_length_a   9.91941191
_cell_length_b   9.90994039
_cell_length_c   9.89310618
_cell_angle_alpha   59.89584216
_cell_angle_beta   59.81446818
_cell_angle_gamma   59.93074429
_symmetry_Int_Tables_number   1
_chemical_formula_structural   Tb7Nd4YTh4(MgIr)4
_chemical_formula_sum   'Tb7 Nd4 Y1 Th4 Mg4 Ir4'
_cell_volume   685.79305710
_cell_formula_units_Z   1
loop_
 _symmetry_equiv_pos_site_id
 _symmetry_equiv_pos_as_xyz
  1  'x, y, z'
loop_
 _atom_site_type_symbol
 _atom_site_label
 _atom_site_symmetry_multiplicity
 _atom_site_fract_x
 _atom_site_fract_y
 _atom_site_fract_z
 _atom_site_occupancy
  Tb  Tb0  1  0.063032  0.436046  0.437863  1
  Tb  Tb1  1  0.434706  0.064412  0.064451  1
  Tb  Tb2  1  0.435003  0.062676  0.439480  1
  Tb  Tb3  1  0.064142  0.435743  0.063393  1
  Tb  Tb4  1  0.434844  0.437965  0.063210  1
  Tb  Tb5  1  0.064479  0.063884  0.436735  1
  Tb  Tb6  1  0.191078  0.814062  0.810386  1
  Nd  Nd7  1  0.813207  0.188847  0.186707  1
  Nd  Nd8  1  0.818042  0.187949  0.812765  1
  Nd  Nd9  1  0.189141  0.812512  0.184671  1
  Nd  Nd10  1  0.814835  0.812716  0.187816  1
  Y  Y11  1  0.191068  0.188769  0.807801  1
  Th  Th12  1  0.595166  0.594987  0.597531  1
  Th  Th13  1  0.596076  0.597174  0.208788  1
  Th  Th14  1  0.597138  0.207440  0.598360  1
  Th  Th15  1  0.206220  0.597768  0.598124  1
  Mg  Mg16  1  0.829836  0.828719  0.828894  1
  Mg  Mg17  1  0.828075  0.828829  0.512733  1
  Mg  Mg18  1  0.829329  0.512568  0.828091  1
  Mg  Mg19  1  0.511524  0.829430  0.827749  1
  Ir  Ir20  1  0.392180  0.392078  0.396510  1
  Ir  Ir21  1  0.390735  0.393436  0.819229  1
  Ir  Ir22  1  0.391835  0.818706  0.395352  1
  Ir  Ir23  1  0.818306  0.393279  0.393363  1
