# generated using pymatgen
data_Ho2LuIn3Ag2Au
_symmetry_space_group_name_H-M   'P 1'
_cell_length_a   7.81888175
_cell_length_b   7.81556960
_cell_length_c   3.90315200
_cell_angle_alpha   90.00000000
_cell_angle_beta   90.00000000
_cell_angle_gamma   119.81531320
_symmetry_Int_Tables_number   1
_chemical_formula_structural   Ho2LuIn3Ag2Au
_chemical_formula_sum   'Ho2 Lu1 In3 Ag2 Au1'
_cell_volume   206.94579447
_cell_formula_units_Z   1
loop_
 _symmetry_equiv_pos_site_id
 _symmetry_equiv_pos_as_xyz
  1  'x, y, z'
loop_
 _atom_site_type_symbol
 _atom_site_label
 _atom_site_symmetry_multiplicity
 _atom_site_fract_x
 _atom_site_fract_y
 _atom_site_fract_z
 _atom_site_occupancy
  Ho  Ho0  1  0.407828  0.006529  0.500000  1
  Ho  Ho1  1  0.993754  0.401385  0.500000  1
  Lu  Lu2  1  0.599031  0.592162  0.500000  1
  In  In3  1  0.734780  0.993851  0.000000  1
  In  In4  1  0.004264  0.740076  0.000000  1
  In  In5  1  0.260268  0.265249  0.000000  1
  Ag  Ag6  1  0.334836  0.666170  0.000000  1
  Ag  Ag7  1  0.999253  0.999269  0.500000  1
  Au  Au8  1  0.665986  0.335310  0.000000  1
