# generated using pymatgen
data_Y8Sc12Ga15Pt
_symmetry_space_group_name_H-M   'P 1'
_cell_length_a   7.22674141
_cell_length_b   7.58677664
_cell_length_c   14.48122800
_cell_angle_alpha   90.00000000
_cell_angle_beta   90.00000000
_cell_angle_gamma   89.31689694
_symmetry_Int_Tables_number   1
_chemical_formula_structural   Y8Sc12Ga15Pt
_chemical_formula_sum   'Y8 Sc12 Ga15 Pt1'
_cell_volume   793.91560398
_cell_formula_units_Z   1
loop_
 _symmetry_equiv_pos_site_id
 _symmetry_equiv_pos_as_xyz
  1  'x, y, z'
loop_
 _atom_site_type_symbol
 _atom_site_label
 _atom_site_symmetry_multiplicity
 _atom_site_fract_x
 _atom_site_fract_y
 _atom_site_fract_z
 _atom_site_occupancy
  Y  Y0  1  0.994978  0.819912  0.405962  1
  Y  Y1  1  0.495648  0.680137  0.094377  1
  Y  Y2  1  0.503022  0.323095  0.595433  1
  Y  Y3  1  0.002606  0.177695  0.903949  1
  Y  Y4  1  0.002606  0.177695  0.596051  1
  Y  Y5  1  0.503022  0.323095  0.904567  1
  Y  Y6  1  0.495648  0.680137  0.405623  1
  Y  Y7  1  0.994978  0.819912  0.094038  1
  Sc  Sc8  1  0.670349  0.997469  0.250000  1
  Sc  Sc9  1  0.169927  0.502248  0.250000  1
  Sc  Sc10  1  0.821780  0.502869  0.750000  1
  Sc  Sc11  1  0.334820  0.998493  0.750000  1
  Sc  Sc12  1  0.662916  0.829562  0.626926  1
  Sc  Sc13  1  0.170827  0.669403  0.873003  1
  Sc  Sc14  1  0.836658  0.325834  0.375985  1
  Sc  Sc15  1  0.334824  0.171473  0.126235  1
  Sc  Sc16  1  0.334824  0.171473  0.373765  1
  Sc  Sc17  1  0.836658  0.325834  0.124015  1
  Sc  Sc18  1  0.170827  0.669403  0.626997  1
  Sc  Sc19  1  0.662916  0.829562  0.873074  1
  Ga  Ga20  1  0.789542  0.626296  0.250000  1
  Ga  Ga21  1  0.289295  0.869447  0.250000  1
  Ga  Ga22  1  0.711779  0.132418  0.750000  1
  Ga  Ga23  1  0.210428  0.364006  0.750000  1
  Ga  Ga24  1  0.537830  0.382088  0.250000  1
  Ga  Ga25  1  0.036197  0.117224  0.250000  1
  Ga  Ga26  1  0.966597  0.883709  0.750000  1
  Ga  Ga27  1  0.835716  0.538117  0.541140  1
  Ga  Ga28  1  0.332390  0.964949  0.961390  1
  Ga  Ga29  1  0.664273  0.036886  0.460975  1
  Ga  Ga30  1  0.167358  0.463102  0.038068  1
  Ga  Ga31  1  0.167358  0.463102  0.461932  1
  Ga  Ga32  1  0.664273  0.036886  0.039025  1
  Ga  Ga33  1  0.332390  0.964949  0.538610  1
  Ga  Ga34  1  0.835716  0.538117  0.958860  1
  Pt  Pt35  1  0.459022  0.623406  0.750000  1
