# generated using pymatgen
data_Ta3CrGa2C
_symmetry_space_group_name_H-M   'P 1'
_cell_length_a   8.26499060
_cell_length_b   8.26499073
_cell_length_c   8.26499000
_cell_angle_alpha   60.00000290
_cell_angle_beta   60.00000242
_cell_angle_gamma   60.00000441
_symmetry_Int_Tables_number   1
_chemical_formula_structural   Ta3CrGa2C
_chemical_formula_sum   'Ta12 Cr4 Ga8 C4'
_cell_volume   399.21982625
_cell_formula_units_Z   4
loop_
 _symmetry_equiv_pos_site_id
 _symmetry_equiv_pos_as_xyz
  1  'x, y, z'
loop_
 _atom_site_type_symbol
 _atom_site_label
 _atom_site_symmetry_multiplicity
 _atom_site_fract_x
 _atom_site_fract_y
 _atom_site_fract_z
 _atom_site_occupancy
  Ta  Ta0  1  0.554494  0.945506  0.554494  1
  Ta  Ta1  1  0.304494  0.695506  0.695506  1
  Ta  Ta2  1  0.695506  0.304494  0.304494  1
  Ta  Ta3  1  0.304494  0.695506  0.304494  1
  Ta  Ta4  1  0.695506  0.695506  0.304494  1
  Ta  Ta5  1  0.304494  0.304494  0.695506  1
  Ta  Ta6  1  0.554494  0.554494  0.945506  1
  Ta  Ta7  1  0.945506  0.554494  0.554494  1
  Ta  Ta8  1  0.554494  0.945506  0.945506  1
  Ta  Ta9  1  0.945506  0.945506  0.554494  1
  Ta  Ta10  1  0.695506  0.304494  0.695506  1
  Ta  Ta11  1  0.945506  0.554494  0.945506  1
  Cr  Cr12  1  0.125000  0.125000  0.125000  1
  Cr  Cr13  1  0.625000  0.125000  0.125000  1
  Cr  Cr14  1  0.125000  0.625000  0.125000  1
  Cr  Cr15  1  0.125000  0.125000  0.625000  1
  Ga  Ga16  1  0.913479  0.913479  0.913479  1
  Ga  Ga17  1  0.990436  0.336521  0.336521  1
  Ga  Ga18  1  0.336521  0.990436  0.336521  1
  Ga  Ga19  1  0.336521  0.336521  0.990436  1
  Ga  Ga20  1  0.913479  0.259564  0.913479  1
  Ga  Ga21  1  0.913479  0.913479  0.259564  1
  Ga  Ga22  1  0.259564  0.913479  0.913479  1
  Ga  Ga23  1  0.336521  0.336521  0.336521  1
  C  C24  1  0.625000  0.625000  0.625000  1
  C  C25  1  0.125000  0.625000  0.625000  1
  C  C26  1  0.625000  0.125000  0.625000  1
  C  C27  1  0.625000  0.625000  0.125000  1
