# generated using pymatgen
data_Pa3Co8MoP6
_symmetry_space_group_name_H-M   'P 1'
_cell_length_a   3.77982200
_cell_length_b   10.56454800
_cell_length_c   12.26042400
_cell_angle_alpha   90.00000000
_cell_angle_beta   90.00000000
_cell_angle_gamma   90.00000000
_symmetry_Int_Tables_number   1
_chemical_formula_structural   Pa3Co8MoP6
_chemical_formula_sum   'Pa6 Co16 Mo2 P12'
_cell_volume   489.58461147
_cell_formula_units_Z   2
loop_
 _symmetry_equiv_pos_site_id
 _symmetry_equiv_pos_as_xyz
  1  'x, y, z'
loop_
 _atom_site_type_symbol
 _atom_site_label
 _atom_site_symmetry_multiplicity
 _atom_site_fract_x
 _atom_site_fract_y
 _atom_site_fract_z
 _atom_site_occupancy
  Pa  Pa0  1  0.000000  0.500000  0.525253  1
  Pa  Pa1  1  0.500000  0.000000  0.474747  1
  Pa  Pa2  1  0.500000  0.819889  0.207456  1
  Pa  Pa3  1  0.500000  0.180111  0.207456  1
  Pa  Pa4  1  0.000000  0.680111  0.792544  1
  Pa  Pa5  1  0.000000  0.319889  0.792544  1
  Co  Co6  1  0.500000  0.500000  0.699959  1
  Co  Co7  1  0.000000  0.000000  0.300041  1
  Co  Co8  1  0.000000  0.500000  0.983556  1
  Co  Co9  1  0.500000  0.000000  0.016444  1
  Co  Co10  1  0.500000  0.332045  0.989619  1
  Co  Co11  1  0.500000  0.667955  0.989619  1
  Co  Co12  1  0.000000  0.167955  0.010381  1
  Co  Co13  1  0.000000  0.832045  0.010381  1
  Co  Co14  1  0.500000  0.302123  0.429469  1
  Co  Co15  1  0.500000  0.697877  0.429469  1
  Co  Co16  1  0.000000  0.197877  0.570531  1
  Co  Co17  1  0.000000  0.802123  0.570531  1
  Co  Co18  1  0.500000  0.877681  0.712229  1
  Co  Co19  1  0.500000  0.122319  0.712229  1
  Co  Co20  1  0.000000  0.622319  0.287771  1
  Co  Co21  1  0.000000  0.377681  0.287771  1
  Mo  Mo22  1  0.500000  0.500000  0.152329  1
  Mo  Mo23  1  0.000000  0.000000  0.847671  1
  P  P24  1  0.500000  0.500000  0.882386  1
  P  P25  1  0.000000  0.000000  0.117614  1
  P  P26  1  0.500000  0.500000  0.345058  1
  P  P27  1  0.000000  0.000000  0.654942  1
  P  P28  1  0.500000  0.308313  0.613068  1
  P  P29  1  0.500000  0.691687  0.613068  1
  P  P30  1  0.000000  0.191687  0.386932  1
  P  P31  1  0.000000  0.808313  0.386932  1
  P  P32  1  0.500000  0.845828  0.896104  1
  P  P33  1  0.500000  0.154172  0.896104  1
  P  P34  1  0.000000  0.654172  0.103896  1
  P  P35  1  0.000000  0.345828  0.103896  1
