# generated using pymatgen
data_Pr3YF12
_symmetry_space_group_name_H-M   'P 1'
_cell_length_a   4.55144156
_cell_length_b   6.72998777
_cell_length_c   7.18744100
_cell_angle_alpha   90.00000000
_cell_angle_beta   90.00000000
_cell_angle_gamma   88.89462887
_symmetry_Int_Tables_number   1
_chemical_formula_structural   Pr3YF12
_chemical_formula_sum   'Pr3 Y1 F12'
_cell_volume   220.11858522
_cell_formula_units_Z   1
loop_
 _symmetry_equiv_pos_site_id
 _symmetry_equiv_pos_as_xyz
  1  'x, y, z'
loop_
 _atom_site_type_symbol
 _atom_site_label
 _atom_site_symmetry_multiplicity
 _atom_site_fract_x
 _atom_site_fract_y
 _atom_site_fract_z
 _atom_site_occupancy
  Pr  Pr0  1  0.937650  0.629149  0.750000  1
  Pr  Pr1  1  0.433483  0.867571  0.250000  1
  Pr  Pr2  1  0.557318  0.136265  0.750000  1
  Y  Y3  1  0.055117  0.366003  0.250000  1
  F  F4  1  0.375191  0.173709  0.432527  1
  F  F5  1  0.884738  0.332984  0.559696  1
  F  F6  1  0.120976  0.651184  0.068624  1
  F  F7  1  0.614523  0.837812  0.937975  1
  F  F8  1  0.603694  0.518012  0.250000  1
  F  F9  1  0.078744  0.977773  0.750000  1
  F  F10  1  0.919005  0.028317  0.250000  1
  F  F11  1  0.424130  0.485531  0.750000  1
  F  F12  1  0.375191  0.173709  0.067473  1
  F  F13  1  0.884738  0.332984  0.940304  1
  F  F14  1  0.120976  0.651184  0.431376  1
  F  F15  1  0.614523  0.837812  0.562025  1
