# generated using pymatgen
data_Tm5ZrGa7Co16
_symmetry_space_group_name_H-M   'P 1'
_cell_length_a   8.41663729
_cell_length_b   8.41491012
_cell_length_c   8.41343100
_cell_angle_alpha   60.02955785
_cell_angle_beta   59.97947905
_cell_angle_gamma   59.98536608
_symmetry_Int_Tables_number   1
_chemical_formula_structural   Tm5ZrGa7Co16
_chemical_formula_sum   'Tm5 Zr1 Ga7 Co16'
_cell_volume   421.33512314
_cell_formula_units_Z   1
loop_
 _symmetry_equiv_pos_site_id
 _symmetry_equiv_pos_as_xyz
  1  'x, y, z'
loop_
 _atom_site_type_symbol
 _atom_site_label
 _atom_site_symmetry_multiplicity
 _atom_site_fract_x
 _atom_site_fract_y
 _atom_site_fract_z
 _atom_site_occupancy
  Tm  Tm0  1  0.280331  0.719735  0.719642  1
  Tm  Tm1  1  0.283052  0.716944  0.281508  1
  Tm  Tm2  1  0.283086  0.281480  0.716894  1
  Tm  Tm3  1  0.718532  0.281467  0.716977  1
  Tm  Tm4  1  0.718492  0.717025  0.281491  1
  Zr  Zr5  1  0.727857  0.272070  0.272153  1
  Ga  Ga6  1  0.500256  0.999764  0.999804  1
  Ga  Ga7  1  0.000115  0.499837  0.499845  1
  Ga  Ga8  1  0.999237  0.499715  0.000705  1
  Ga  Ga9  1  0.999278  0.000706  0.499697  1
  Ga  Ga10  1  0.500388  0.000639  0.499671  1
  Ga  Ga11  1  0.500411  0.499690  0.000642  1
  Ga  Ga12  1  0.000510  0.999440  0.999431  1
  Co  Co13  1  0.323720  0.322667  0.322738  1
  Co  Co14  1  0.322207  0.321235  0.034404  1
  Co  Co15  1  0.030815  0.322715  0.322779  1
  Co  Co16  1  0.322224  0.034283  0.321326  1
  Co  Co17  1  0.678666  0.677798  0.677720  1
  Co  Co18  1  0.677284  0.676383  0.969031  1
  Co  Co19  1  0.677296  0.969078  0.676310  1
  Co  Co20  1  0.965661  0.677842  0.677765  1
  Co  Co21  1  0.119511  0.127560  0.127556  1
  Co  Co22  1  0.125161  0.126007  0.623676  1
  Co  Co23  1  0.625432  0.127521  0.127519  1
  Co  Co24  1  0.125190  0.623594  0.126031  1
  Co  Co25  1  0.874013  0.874816  0.874792  1
  Co  Co26  1  0.872441  0.880519  0.374608  1
  Co  Co27  1  0.872426  0.374663  0.880496  1
  Co  Co28  1  0.376410  0.874807  0.874785  1
