# generated using pymatgen
data_La6Nd2MgHgRu2
_symmetry_space_group_name_H-M   'P 1'
_cell_length_a   10.06945985
_cell_length_b   10.04609220
_cell_length_c   10.03123479
_cell_angle_alpha   60.10379801
_cell_angle_beta   59.97163033
_cell_angle_gamma   59.82535812
_symmetry_Int_Tables_number   1
_chemical_formula_structural   La6Nd2MgHgRu2
_chemical_formula_sum   'La12 Nd4 Mg2 Hg2 Ru4'
_cell_volume   716.98780432
_cell_formula_units_Z   2
loop_
 _symmetry_equiv_pos_site_id
 _symmetry_equiv_pos_as_xyz
  1  'x, y, z'
loop_
 _atom_site_type_symbol
 _atom_site_label
 _atom_site_symmetry_multiplicity
 _atom_site_fract_x
 _atom_site_fract_y
 _atom_site_fract_z
 _atom_site_occupancy
  La  La0  1  0.596994  0.595759  0.210891  1
  La  La1  1  0.441202  0.058798  0.058798  1
  La  La2  1  0.061022  0.439591  0.061212  1
  La  La3  1  0.438175  0.061212  0.439591  1
  La  La4  1  0.216336  0.593594  0.594639  1
  La  La5  1  0.062265  0.437735  0.437735  1
  La  La6  1  0.596357  0.210891  0.595759  1
  La  La7  1  0.595433  0.594639  0.593594  1
  La  La8  1  0.189285  0.813234  0.185930  1
  La  La9  1  0.811552  0.185930  0.813234  1
  La  La10  1  0.061658  0.061444  0.439452  1
  La  La11  1  0.437445  0.439452  0.061444  1
  Nd  Nd12  1  0.811695  0.188305  0.188305  1
  Nd  Nd13  1  0.189347  0.185463  0.813240  1
  Nd  Nd14  1  0.811950  0.813240  0.185463  1
  Nd  Nd15  1  0.187651  0.812349  0.812349  1
  Mg  Mg16  1  0.824168  0.523375  0.829206  1
  Mg  Mg17  1  0.823251  0.829206  0.523375  1
  Hg  Hg18  1  0.838362  0.828867  0.830474  1
  Hg  Hg19  1  0.502298  0.830474  0.828867  1
  Ru  Ru20  1  0.840564  0.385986  0.385924  1
  Ru  Ru21  1  0.387527  0.385924  0.385986  1
  Ru  Ru22  1  0.387619  0.838870  0.385666  1
  Ru  Ru23  1  0.387845  0.385666  0.838870  1
