# generated using pymatgen
data_Tb4Yb5Ho2In9Pd4
_symmetry_space_group_name_H-M   'P 1'
_cell_length_a   13.35512777
_cell_length_b   13.28661482
_cell_length_c   3.68222100
_cell_angle_alpha   90.00000000
_cell_angle_beta   90.00000000
_cell_angle_gamma   111.51670855
_symmetry_Int_Tables_number   1
_chemical_formula_structural   Tb4Yb5Ho2In9Pd4
_chemical_formula_sum   'Tb4 Yb5 Ho2 In9 Pd4'
_cell_volume   607.85533841
_cell_formula_units_Z   1
loop_
 _symmetry_equiv_pos_site_id
 _symmetry_equiv_pos_as_xyz
  1  'x, y, z'
loop_
 _atom_site_type_symbol
 _atom_site_label
 _atom_site_symmetry_multiplicity
 _atom_site_fract_x
 _atom_site_fract_y
 _atom_site_fract_z
 _atom_site_occupancy
  Tb  Tb0  1  0.375017  0.622641  0.000000  1
  Tb  Tb1  1  0.624983  0.377359  0.000000  1
  Tb  Tb2  1  0.308738  0.311627  0.000000  1
  Tb  Tb3  1  0.691262  0.688373  0.000000  1
  Yb  Yb4  1  0.069816  0.414443  0.000000  1
  Yb  Yb5  1  0.930184  0.585557  0.000000  1
  Yb  Yb6  1  0.157714  0.839255  0.000000  1
  Yb  Yb7  1  0.842286  0.160745  0.000000  1
  Yb  Yb8  1  0.000000  0.000000  0.000000  1
  Ho  Ho9  1  0.416181  0.072769  0.000000  1
  Ho  Ho10  1  0.583819  0.927231  0.000000  1
  In  In11  1  0.369760  0.837739  0.500000  1
  In  In12  1  0.630240  0.162261  0.500000  1
  In  In13  1  0.836339  0.369472  0.500000  1
  In  In14  1  0.163661  0.630528  0.500000  1
  In  In15  1  0.219070  0.077142  0.500000  1
  In  In16  1  0.780930  0.922858  0.500000  1
  In  In17  1  0.078233  0.217698  0.500000  1
  In  In18  1  0.921767  0.782302  0.500000  1
  In  In19  1  0.500000  0.500000  0.500000  1
  Pd  Pd20  1  0.448792  0.245926  0.500000  1
  Pd  Pd21  1  0.551208  0.754074  0.500000  1
  Pd  Pd22  1  0.245562  0.448918  0.500000  1
  Pd  Pd23  1  0.754438  0.551082  0.500000  1
