# generated using pymatgen
data_Ba12ZnSn11Au12
_symmetry_space_group_name_H-M   'P 1'
_cell_length_a   5.05895000
_cell_length_b   8.55093858
_cell_length_c   25.31135500
_cell_angle_alpha   90.14014162
_cell_angle_beta   90.00000000
_cell_angle_gamma   90.00000000
_symmetry_Int_Tables_number   1
_chemical_formula_structural   Ba12ZnSn11Au12
_chemical_formula_sum   'Ba12 Zn1 Sn11 Au12'
_cell_volume   1094.93482730
_cell_formula_units_Z   1
loop_
 _symmetry_equiv_pos_site_id
 _symmetry_equiv_pos_as_xyz
  1  'x, y, z'
loop_
 _atom_site_type_symbol
 _atom_site_label
 _atom_site_symmetry_multiplicity
 _atom_site_fract_x
 _atom_site_fract_y
 _atom_site_fract_z
 _atom_site_occupancy
  Ba  Ba0  1  0.750000  0.222964  0.499616  1
  Ba  Ba1  1  0.250000  0.795245  0.165540  1
  Ba  Ba2  1  0.250000  0.784280  0.503791  1
  Ba  Ba3  1  0.250000  0.790717  0.833798  1
  Ba  Ba4  1  0.250000  0.712505  0.332427  1
  Ba  Ba5  1  0.750000  0.203253  0.834653  1
  Ba  Ba6  1  0.750000  0.291506  0.997118  1
  Ba  Ba7  1  0.750000  0.292033  0.667730  1
  Ba  Ba8  1  0.750000  0.292452  0.333167  1
  Ba  Ba9  1  0.250000  0.702074  0.665774  1
  Ba  Ba10  1  0.250000  0.708346  0.002750  1
  Ba  Ba11  1  0.750000  0.208666  0.166082  1
  Zn  Zn12  1  0.250000  0.412461  0.569919  1
  Sn  Sn13  1  0.250000  0.082587  0.396144  1
  Sn  Sn14  1  0.250000  0.086865  0.061837  1
  Sn  Sn15  1  0.250000  0.415813  0.896039  1
  Sn  Sn16  1  0.750000  0.583034  0.104234  1
  Sn  Sn17  1  0.250000  0.415514  0.771984  1
  Sn  Sn18  1  0.750000  0.581730  0.227542  1
  Sn  Sn19  1  0.750000  0.588795  0.434721  1
  Sn  Sn20  1  0.750000  0.914185  0.937578  1
  Sn  Sn21  1  0.250000  0.082982  0.271037  1
  Sn  Sn22  1  0.750000  0.922560  0.604347  1
  Sn  Sn23  1  0.750000  0.917903  0.727472  1
  Au  Au24  1  0.250000  0.096672  0.593666  1
  Au  Au25  1  0.250000  0.084311  0.740367  1
  Au  Au26  1  0.750000  0.586844  0.906671  1
  Au  Au27  1  0.750000  0.915002  0.407746  1
  Au  Au28  1  0.750000  0.562132  0.568446  1
  Au  Au29  1  0.750000  0.586562  0.759767  1
  Au  Au30  1  0.250000  0.418423  0.425722  1
  Au  Au31  1  0.250000  0.414723  0.239480  1
  Au  Au32  1  0.750000  0.918827  0.066889  1
  Au  Au33  1  0.250000  0.412985  0.093182  1
  Au  Au34  1  0.250000  0.080331  0.934142  1
  Au  Au35  1  0.750000  0.914721  0.258623  1
