# generated using pymatgen
data_Ca3TlPd2RhPb2
_symmetry_space_group_name_H-M   'P 1'
_cell_length_a   7.93918900
_cell_length_b   7.90737976
_cell_length_c   3.92499800
_cell_angle_alpha   90.00000000
_cell_angle_beta   90.00000000
_cell_angle_gamma   120.13313931
_symmetry_Int_Tables_number   1
_chemical_formula_structural   Ca3TlPd2RhPb2
_chemical_formula_sum   'Ca3 Tl1 Pd2 Rh1 Pb2'
_cell_volume   213.10546866
_cell_formula_units_Z   1
loop_
 _symmetry_equiv_pos_site_id
 _symmetry_equiv_pos_as_xyz
  1  'x, y, z'
loop_
 _atom_site_type_symbol
 _atom_site_label
 _atom_site_symmetry_multiplicity
 _atom_site_fract_x
 _atom_site_fract_y
 _atom_site_fract_z
 _atom_site_occupancy
  Ca  Ca0  1  0.400396  0.400736  0.500000  1
  Ca  Ca1  1  0.999660  0.599264  0.500000  1
  Ca  Ca2  1  0.598097  0.000000  0.500000  1
  Tl  Tl3  1  0.264751  0.000000  0.000000  1
  Pd  Pd4  1  0.668644  0.334618  0.000000  1
  Pd  Pd5  1  0.334026  0.665382  0.000000  1
  Rh  Rh6  1  0.996378  0.000000  0.500000  1
  Pb  Pb7  1  0.737998  0.737949  0.000000  1
  Pb  Pb8  1  0.000049  0.262051  0.000000  1
