# generated using pymatgen
data_Pr6EuIrBr12
_symmetry_space_group_name_H-M   'P 1'
_cell_length_a   9.72201727
_cell_length_b   9.72533574
_cell_length_c   9.58199782
_cell_angle_alpha   106.80735569
_cell_angle_beta   106.50953857
_cell_angle_gamma   106.64463741
_symmetry_Int_Tables_number   1
_chemical_formula_structural   Pr6EuIrBr12
_chemical_formula_sum   'Pr6 Eu1 Ir1 Br12'
_cell_volume   761.51440209
_cell_formula_units_Z   1
loop_
 _symmetry_equiv_pos_site_id
 _symmetry_equiv_pos_as_xyz
  1  'x, y, z'
loop_
 _atom_site_type_symbol
 _atom_site_label
 _atom_site_symmetry_multiplicity
 _atom_site_fract_x
 _atom_site_fract_y
 _atom_site_fract_z
 _atom_site_occupancy
  Pr  Pr0  1  0.107131  0.316507  0.021336  1
  Pr  Pr1  1  0.316039  0.021732  0.106982  1
  Pr  Pr2  1  0.021428  0.103981  0.307933  1
  Pr  Pr3  1  0.978573  0.896019  0.692068  1
  Pr  Pr4  1  0.683961  0.978269  0.893018  1
  Pr  Pr5  1  0.892869  0.683493  0.978664  1
  Eu  Eu6  1  0.500000  0.500000  0.500000  1
  Ir  Ir7  1  0.000000  0.000000  0.000000  1
  Br  Br8  1  0.217013  0.682049  0.073944  1
  Br  Br9  1  0.452381  0.369855  0.156181  1
  Br  Br10  1  0.682291  0.074222  0.218759  1
  Br  Br11  1  0.926757  0.783319  0.319510  1
  Br  Br12  1  0.158440  0.452634  0.371063  1
  Br  Br13  1  0.370438  0.158490  0.453750  1
  Br  Br14  1  0.629562  0.841510  0.546251  1
  Br  Br15  1  0.841561  0.547366  0.628937  1
  Br  Br16  1  0.073244  0.216681  0.680491  1
  Br  Br17  1  0.317710  0.925779  0.781241  1
  Br  Br18  1  0.547619  0.630145  0.843820  1
  Br  Br19  1  0.782987  0.317951  0.926056  1
