# generated using pymatgen
data_Tb6Y6Co5Bi
_symmetry_space_group_name_H-M   'P 1'
_cell_length_a   8.36336052
_cell_length_b   8.37438686
_cell_length_c   8.36336116
_cell_angle_alpha   110.73137835
_cell_angle_beta   110.63351114
_cell_angle_gamma   107.02393616
_symmetry_Int_Tables_number   1
_chemical_formula_structural   Tb6Y6Co5Bi
_chemical_formula_sum   'Tb6 Y6 Co5 Bi1'
_cell_volume   450.59573364
_cell_formula_units_Z   1
loop_
 _symmetry_equiv_pos_site_id
 _symmetry_equiv_pos_as_xyz
  1  'x, y, z'
loop_
 _atom_site_type_symbol
 _atom_site_label
 _atom_site_symmetry_multiplicity
 _atom_site_fract_x
 _atom_site_fract_y
 _atom_site_fract_z
 _atom_site_occupancy
  Tb  Tb0  1  0.688569  0.998709  0.310141  1
  Tb  Tb1  1  0.311431  0.001291  0.689859  1
  Tb  Tb2  1  0.601995  0.796474  0.806237  1
  Tb  Tb3  1  0.398005  0.203526  0.193763  1
  Tb  Tb4  1  0.990237  0.796474  0.194477  1
  Tb  Tb5  1  0.009763  0.203526  0.805523  1
  Y  Y6  1  0.815501  0.708225  0.524164  1
  Y  Y7  1  0.184499  0.291775  0.475836  1
  Y  Y8  1  0.184061  0.708225  0.892725  1
  Y  Y9  1  0.815939  0.291775  0.107275  1
  Y  Y10  1  0.688365  0.379997  0.691632  1
  Y  Y11  1  0.311635  0.620003  0.308368  1
  Co  Co12  1  0.622486  0.000000  0.622486  1
  Co  Co13  1  0.377514  0.000000  0.377514  1
  Co  Co14  1  0.110732  0.611450  0.500718  1
  Co  Co15  1  0.889268  0.388550  0.499282  1
  Co  Co16  1  0.000000  0.000000  0.000000  1
  Bi  Bi17  1  0.500000  0.500000  0.000000  1
