# generated using pymatgen
data_Dy5Er5(RuPb3)2
_symmetry_space_group_name_H-M   'P 1'
_cell_length_a   9.29146248
_cell_length_b   9.28626217
_cell_length_c   6.56001100
_cell_angle_alpha   90.00000000
_cell_angle_beta   90.00000000
_cell_angle_gamma   119.98148755
_symmetry_Int_Tables_number   1
_chemical_formula_structural   Dy5Er5(RuPb3)2
_chemical_formula_sum   'Dy5 Er5 Ru2 Pb6'
_cell_volume   490.27664154
_cell_formula_units_Z   1
loop_
 _symmetry_equiv_pos_site_id
 _symmetry_equiv_pos_as_xyz
  1  'x, y, z'
loop_
 _atom_site_type_symbol
 _atom_site_label
 _atom_site_symmetry_multiplicity
 _atom_site_fract_x
 _atom_site_fract_y
 _atom_site_fract_z
 _atom_site_occupancy
  Dy  Dy0  1  0.000000  0.763619  0.750000  1
  Dy  Dy1  1  0.333408  0.666634  0.499851  1
  Dy  Dy2  1  0.666592  0.333225  0.499851  1
  Dy  Dy3  1  0.333408  0.666634  0.000149  1
  Dy  Dy4  1  0.666592  0.333225  0.000149  1
  Er  Er5  1  0.235838  0.999974  0.250000  1
  Er  Er6  1  0.763982  0.000057  0.750000  1
  Er  Er7  1  0.000000  0.235877  0.250000  1
  Er  Er8  1  0.764162  0.764136  0.250000  1
  Er  Er9  1  0.236018  0.236074  0.750000  1
  Ru  Ru10  1  0.000000  0.000522  0.000403  1
  Ru  Ru11  1  0.000000  0.000522  0.499597  1
  Pb  Pb12  1  0.402109  0.402283  0.250000  1
  Pb  Pb13  1  0.000000  0.401763  0.750000  1
  Pb  Pb14  1  0.000000  0.597716  0.250000  1
  Pb  Pb15  1  0.597891  0.000174  0.250000  1
  Pb  Pb16  1  0.402500  0.000032  0.750000  1
  Pb  Pb17  1  0.597500  0.597533  0.750000  1
