# generated using pymatgen
data_Pu4B16MoW3
_symmetry_space_group_name_H-M   'P 1'
_cell_length_a   3.63080400
_cell_length_b   6.02590004
_cell_length_c   11.67404209
_cell_angle_alpha   89.98596391
_cell_angle_beta   90.00000000
_cell_angle_gamma   90.00000000
_symmetry_Int_Tables_number   1
_chemical_formula_structural   Pu4B16MoW3
_chemical_formula_sum   'Pu4 B16 Mo1 W3'
_cell_volume   255.41474801
_cell_formula_units_Z   1
loop_
 _symmetry_equiv_pos_site_id
 _symmetry_equiv_pos_as_xyz
  1  'x, y, z'
loop_
 _atom_site_type_symbol
 _atom_site_label
 _atom_site_symmetry_multiplicity
 _atom_site_fract_x
 _atom_site_fract_y
 _atom_site_fract_z
 _atom_site_occupancy
  Pu  Pu0  1  0.000000  0.625142  0.349446  1
  Pu  Pu1  1  0.000000  0.374924  0.650672  1
  Pu  Pu2  1  0.000000  0.125035  0.150640  1
  Pu  Pu3  1  0.000000  0.874895  0.849179  1
  B  B4  1  0.500000  0.786853  0.187269  1
  B  B5  1  0.500000  0.213055  0.812627  1
  B  B6  1  0.500000  0.286835  0.312723  1
  B  B7  1  0.500000  0.713734  0.686876  1
  B  B8  1  0.500000  0.866529  0.032425  1
  B  B9  1  0.500000  0.133416  0.967568  1
  B  B10  1  0.500000  0.366763  0.467718  1
  B  B11  1  0.500000  0.633659  0.532659  1
  B  B12  1  0.500000  0.883970  0.452973  1
  B  B13  1  0.500000  0.115629  0.547382  1
  B  B14  1  0.500000  0.384079  0.047227  1
  B  B15  1  0.500000  0.615935  0.952758  1
  B  B16  1  0.500000  0.973212  0.307311  1
  B  B17  1  0.500000  0.026165  0.692651  1
  B  B18  1  0.500000  0.473324  0.192693  1
  B  B19  1  0.500000  0.526873  0.807206  1
  Mo  Mo20  1  0.000000  0.868082  0.586280  1
  W  W21  1  0.000000  0.632454  0.086632  1
  W  W22  1  0.000000  0.367493  0.913309  1
  W  W23  1  0.000000  0.131944  0.413778  1
