# generated using pymatgen
data_Pr8Ir3BrO24
_symmetry_space_group_name_H-M   'P 1'
_cell_length_a   5.47003224
_cell_length_b   9.45345964
_cell_length_c   10.22736500
_cell_angle_alpha   89.85869775
_cell_angle_beta   90.01686392
_cell_angle_gamma   89.93083906
_symmetry_Int_Tables_number   1
_chemical_formula_structural   Pr8Ir3BrO24
_chemical_formula_sum   'Pr8 Ir3 Br1 O24'
_cell_volume   528.86248296
_cell_formula_units_Z   1
loop_
 _symmetry_equiv_pos_site_id
 _symmetry_equiv_pos_as_xyz
  1  'x, y, z'
loop_
 _atom_site_type_symbol
 _atom_site_label
 _atom_site_symmetry_multiplicity
 _atom_site_fract_x
 _atom_site_fract_y
 _atom_site_fract_z
 _atom_site_occupancy
  Pr  Pr0  1  0.034809  0.218888  0.133020  1
  Pr  Pr1  1  0.467403  0.778986  0.633518  1
  Pr  Pr2  1  0.965995  0.717666  0.369370  1
  Pr  Pr3  1  0.534517  0.282750  0.866081  1
  Pr  Pr4  1  0.028445  0.103516  0.539645  1
  Pr  Pr5  1  0.474477  0.898854  0.039117  1
  Pr  Pr6  1  0.972879  0.603463  0.962264  1
  Pr  Pr7  1  0.525591  0.400931  0.461286  1
  Ir  Ir8  1  0.546562  0.004062  0.358518  1
  Ir  Ir9  1  0.955269  0.996820  0.857794  1
  Ir  Ir10  1  0.454753  0.503841  0.141313  1
  Br  Br11  1  0.044717  0.492906  0.646763  1
  O  O12  1  0.439109  0.149884  0.480967  1
  O  O13  1  0.064285  0.851470  0.981423  1
  O  O14  1  0.559366  0.649684  0.017369  1
  O  O15  1  0.933721  0.349451  0.519526  1
  O  O16  1  0.724478  0.389631  0.062518  1
  O  O17  1  0.767824  0.611662  0.560793  1
  O  O18  1  0.279104  0.888639  0.434714  1
  O  O19  1  0.224633  0.112700  0.934255  1
  O  O20  1  0.247718  0.411446  0.005218  1
  O  O21  1  0.255152  0.591567  0.505658  1
  O  O22  1  0.753810  0.912643  0.495005  1
  O  O23  1  0.748158  0.089776  0.994277  1
  O  O24  1  0.184776  0.631054  0.179591  1
  O  O25  1  0.302901  0.364633  0.678427  1
  O  O26  1  0.817992  0.132149  0.321738  1
  O  O27  1  0.685695  0.867521  0.822826  1
  O  O28  1  0.338680  0.058661  0.216445  1
  O  O29  1  0.162427  0.941711  0.717432  1
  O  O30  1  0.662566  0.558084  0.281929  1
  O  O31  1  0.842431  0.443274  0.782661  1
  O  O32  1  0.326315  0.360193  0.256365  1
  O  O33  1  0.176881  0.632068  0.757332  1
  O  O34  1  0.676623  0.861599  0.242703  1
  O  O35  1  0.819939  0.137815  0.742142  1
