# generated using pymatgen
data_NdEr2Fe2Co7P6
_symmetry_space_group_name_H-M   'P 1'
_cell_length_a   3.71580100
_cell_length_b   10.60450700
_cell_length_c   12.16640500
_cell_angle_alpha   90.00000000
_cell_angle_beta   90.00000000
_cell_angle_gamma   90.00000000
_symmetry_Int_Tables_number   1
_chemical_formula_structural   NdEr2Fe2Co7P6
_chemical_formula_sum   'Nd2 Er4 Fe4 Co14 P12'
_cell_volume   479.40791476
_cell_formula_units_Z   2
loop_
 _symmetry_equiv_pos_site_id
 _symmetry_equiv_pos_as_xyz
  1  'x, y, z'
loop_
 _atom_site_type_symbol
 _atom_site_label
 _atom_site_symmetry_multiplicity
 _atom_site_fract_x
 _atom_site_fract_y
 _atom_site_fract_z
 _atom_site_occupancy
  Nd  Nd0  1  0.750000  0.250000  0.477006  1
  Nd  Nd1  1  0.250000  0.750000  0.522994  1
  Er  Er2  1  0.250000  0.930757  0.797173  1
  Er  Er3  1  0.250000  0.569243  0.797173  1
  Er  Er4  1  0.750000  0.069243  0.202827  1
  Er  Er5  1  0.750000  0.430757  0.202827  1
  Fe  Fe6  1  0.250000  0.250000  0.846776  1
  Fe  Fe7  1  0.750000  0.750000  0.153224  1
  Fe  Fe8  1  0.750000  0.250000  0.011187  1
  Fe  Fe9  1  0.250000  0.750000  0.988813  1
  Co  Co10  1  0.250000  0.250000  0.294790  1
  Co  Co11  1  0.750000  0.750000  0.705210  1
  Co  Co12  1  0.250000  0.418370  0.005618  1
  Co  Co13  1  0.250000  0.081630  0.005618  1
  Co  Co14  1  0.750000  0.581630  0.994382  1
  Co  Co15  1  0.750000  0.918370  0.994382  1
  Co  Co16  1  0.250000  0.454248  0.571206  1
  Co  Co17  1  0.250000  0.045752  0.571206  1
  Co  Co18  1  0.750000  0.545752  0.428794  1
  Co  Co19  1  0.750000  0.954248  0.428794  1
  Co  Co20  1  0.250000  0.871038  0.287578  1
  Co  Co21  1  0.250000  0.628962  0.287578  1
  Co  Co22  1  0.750000  0.128962  0.712422  1
  Co  Co23  1  0.750000  0.371038  0.712422  1
  P  P24  1  0.250000  0.250000  0.114469  1
  P  P25  1  0.750000  0.750000  0.885531  1
  P  P26  1  0.250000  0.250000  0.662641  1
  P  P27  1  0.750000  0.750000  0.337359  1
  P  P28  1  0.250000  0.442761  0.381219  1
  P  P29  1  0.250000  0.057239  0.381219  1
  P  P30  1  0.750000  0.557239  0.618781  1
  P  P31  1  0.750000  0.942761  0.618781  1
  P  P32  1  0.250000  0.903110  0.105777  1
  P  P33  1  0.250000  0.596890  0.105777  1
  P  P34  1  0.750000  0.096890  0.894223  1
  P  P35  1  0.750000  0.403110  0.894223  1
