# generated using pymatgen
data_Er18TmMgIr12
_symmetry_space_group_name_H-M   'P 1'
_cell_length_a   10.76247500
_cell_length_b   10.76247500
_cell_length_c   6.27036900
_cell_angle_alpha   90.00000000
_cell_angle_beta   90.00000000
_cell_angle_gamma   90.00000000
_symmetry_Int_Tables_number   1
_chemical_formula_structural   Er18TmMgIr12
_chemical_formula_sum   'Er18 Tm1 Mg1 Ir12'
_cell_volume   726.30228474
_cell_formula_units_Z   1
loop_
 _symmetry_equiv_pos_site_id
 _symmetry_equiv_pos_as_xyz
  1  'x, y, z'
loop_
 _atom_site_type_symbol
 _atom_site_label
 _atom_site_symmetry_multiplicity
 _atom_site_fract_x
 _atom_site_fract_y
 _atom_site_fract_z
 _atom_site_occupancy
  Er  Er0  1  0.284275  0.084480  0.378047  1
  Er  Er1  1  0.290677  0.912254  0.878880  1
  Er  Er2  1  0.709323  0.087746  0.878880  1
  Er  Er3  1  0.715725  0.915520  0.378047  1
  Er  Er4  1  0.588424  0.791836  0.877843  1
  Er  Er5  1  0.587267  0.208187  0.376428  1
  Er  Er6  1  0.412733  0.791813  0.376428  1
  Er  Er7  1  0.411576  0.208164  0.877843  1
  Er  Er8  1  0.208187  0.412733  0.623572  1
  Er  Er9  1  0.208164  0.588424  0.122157  1
  Er  Er10  1  0.791836  0.411576  0.122157  1
  Er  Er11  1  0.791813  0.587267  0.623572  1
  Er  Er12  1  0.912254  0.709323  0.121120  1
  Er  Er13  1  0.915520  0.284275  0.621953  1
  Er  Er14  1  0.084480  0.715725  0.621953  1
  Er  Er15  1  0.087746  0.290677  0.121120  1
  Er  Er16  1  0.000000  0.000000  0.000000  1
  Er  Er17  1  0.500000  0.500000  0.000000  1
  Tm  Tm18  1  0.500000  0.500000  0.500000  1
  Mg  Mg19  1  0.000000  0.000000  0.500000  1
  Ir  Ir20  1  0.846167  0.154645  0.247282  1
  Ir  Ir21  1  0.845355  0.846167  0.752718  1
  Ir  Ir22  1  0.154645  0.153833  0.752718  1
  Ir  Ir23  1  0.153833  0.845355  0.247282  1
  Ir  Ir24  1  0.654191  0.346227  0.748196  1
  Ir  Ir25  1  0.653773  0.654191  0.251804  1
  Ir  Ir26  1  0.346227  0.345809  0.251804  1
  Ir  Ir27  1  0.345809  0.653773  0.748196  1
  Ir  Ir28  1  0.500000  0.000000  0.124396  1
  Ir  Ir29  1  0.500000  0.000000  0.620566  1
  Ir  Ir30  1  0.000000  0.500000  0.875604  1
  Ir  Ir31  1  0.000000  0.500000  0.379434  1
