# generated using pymatgen
data_TmTh2(GaCo)3
_symmetry_space_group_name_H-M   'P 1'
_cell_length_a   7.12975700
_cell_length_b   7.12975736
_cell_length_c   3.83625800
_cell_angle_alpha   90.00000000
_cell_angle_beta   90.00000000
_cell_angle_gamma   121.00382046
_symmetry_Int_Tables_number   1
_chemical_formula_structural   TmTh2(GaCo)3
_chemical_formula_sum   'Tm1 Th2 Ga3 Co3'
_cell_volume   167.14965291
_cell_formula_units_Z   1
loop_
 _symmetry_equiv_pos_site_id
 _symmetry_equiv_pos_as_xyz
  1  'x, y, z'
loop_
 _atom_site_type_symbol
 _atom_site_label
 _atom_site_symmetry_multiplicity
 _atom_site_fract_x
 _atom_site_fract_y
 _atom_site_fract_z
 _atom_site_occupancy
  Tm  Tm0  1  0.588316  0.588317  0.499999  1
  Th  Th1  1  0.418457  0.997526  0.499999  1
  Th  Th2  1  0.997526  0.418457  0.499999  1
  Ga  Ga3  1  0.760988  0.986234  0.000000  1
  Ga  Ga4  1  0.254496  0.254497  0.000000  1
  Ga  Ga5  1  0.986234  0.760987  0.000000  1
  Co  Co6  1  0.668470  0.314650  0.000000  1
  Co  Co7  1  0.314650  0.668470  0.000000  1
  Co  Co8  1  0.010862  0.010862  0.499999  1
