# generated using pymatgen
data_SmLuPa(Co3P2)3
_symmetry_space_group_name_H-M   'P 1'
_cell_length_a   3.70756600
_cell_length_b   10.51176700
_cell_length_c   12.14244600
_cell_angle_alpha   90.00000000
_cell_angle_beta   90.00000000
_cell_angle_gamma   90.00000000
_symmetry_Int_Tables_number   1
_chemical_formula_structural   SmLuPa(Co3P2)3
_chemical_formula_sum   'Sm2 Lu2 Pa2 Co18 P12'
_cell_volume   473.22839707
_cell_formula_units_Z   2
loop_
 _symmetry_equiv_pos_site_id
 _symmetry_equiv_pos_as_xyz
  1  'x, y, z'
loop_
 _atom_site_type_symbol
 _atom_site_label
 _atom_site_symmetry_multiplicity
 _atom_site_fract_x
 _atom_site_fract_y
 _atom_site_fract_z
 _atom_site_occupancy
  Sm  Sm0  1  0.500000  0.813758  0.204891  1
  Sm  Sm1  1  0.500000  0.186242  0.204891  1
  Lu  Lu2  1  0.000000  0.684600  0.794462  1
  Lu  Lu3  1  0.000000  0.315400  0.794462  1
  Pa  Pa4  1  0.000000  0.500000  0.529761  1
  Pa  Pa5  1  0.500000  0.000000  0.472929  1
  Co  Co6  1  0.500000  0.500000  0.158349  1
  Co  Co7  1  0.000000  0.000000  0.841444  1
  Co  Co8  1  0.500000  0.500000  0.697224  1
  Co  Co9  1  0.000000  0.000000  0.305703  1
  Co  Co10  1  0.000000  0.500000  0.979617  1
  Co  Co11  1  0.500000  0.000000  0.012197  1
  Co  Co12  1  0.500000  0.335674  0.990541  1
  Co  Co13  1  0.500000  0.664326  0.990541  1
  Co  Co14  1  0.000000  0.167741  0.003427  1
  Co  Co15  1  0.000000  0.832259  0.003427  1
  Co  Co16  1  0.500000  0.302360  0.434218  1
  Co  Co17  1  0.500000  0.697640  0.434218  1
  Co  Co18  1  0.000000  0.199170  0.571179  1
  Co  Co19  1  0.000000  0.800830  0.571179  1
  Co  Co20  1  0.500000  0.879108  0.711868  1
  Co  Co21  1  0.500000  0.120892  0.711868  1
  Co  Co22  1  0.000000  0.618502  0.290608  1
  Co  Co23  1  0.000000  0.381498  0.290608  1
  P  P24  1  0.500000  0.500000  0.875986  1
  P  P25  1  0.000000  0.000000  0.117873  1
  P  P26  1  0.500000  0.500000  0.343807  1
  P  P27  1  0.000000  0.000000  0.657466  1
  P  P28  1  0.500000  0.307603  0.619784  1
  P  P29  1  0.500000  0.692397  0.619784  1
  P  P30  1  0.000000  0.194150  0.386293  1
  P  P31  1  0.000000  0.805850  0.386293  1
  P  P32  1  0.500000  0.845198  0.893267  1
  P  P33  1  0.500000  0.154802  0.893267  1
  P  P34  1  0.000000  0.648898  0.103283  1
  P  P35  1  0.000000  0.351102  0.103283  1
