# generated using pymatgen
data_Nb12Al9Co3(CN)2
_symmetry_space_group_name_H-M   'P 1'
_cell_length_a   8.26133513
_cell_length_b   8.26133577
_cell_length_c   8.28079744
_cell_angle_alpha   59.89664072
_cell_angle_beta   59.89664606
_cell_angle_gamma   59.85853628
_symmetry_Int_Tables_number   1
_chemical_formula_structural   Nb12Al9Co3(CN)2
_chemical_formula_sum   'Nb12 Al9 Co3 C2 N2'
_cell_volume   398.57717925
_cell_formula_units_Z   1
loop_
 _symmetry_equiv_pos_site_id
 _symmetry_equiv_pos_as_xyz
  1  'x, y, z'
loop_
 _atom_site_type_symbol
 _atom_site_label
 _atom_site_symmetry_multiplicity
 _atom_site_fract_x
 _atom_site_fract_y
 _atom_site_fract_z
 _atom_site_occupancy
  Nb  Nb0  1  0.687854  0.311481  0.685345  1
  Nb  Nb1  1  0.938519  0.562146  0.564655  1
  Nb  Nb2  1  0.553262  0.941657  0.940047  1
  Nb  Nb3  1  0.941657  0.553262  0.940047  1
  Nb  Nb4  1  0.563349  0.563349  0.937904  1
  Nb  Nb5  1  0.940417  0.940417  0.554612  1
  Nb  Nb6  1  0.686651  0.686651  0.312096  1
  Nb  Nb7  1  0.311481  0.687854  0.685345  1
  Nb  Nb8  1  0.696738  0.308343  0.309953  1
  Nb  Nb9  1  0.309583  0.309583  0.695388  1
  Nb  Nb10  1  0.562146  0.938519  0.564655  1
  Nb  Nb11  1  0.308343  0.696738  0.309953  1
  Al  Al12  1  0.125000  0.125000  0.125000  1
  Al  Al13  1  0.334764  0.334764  0.332947  1
  Al  Al14  1  0.247976  0.908823  0.909635  1
  Al  Al15  1  0.908823  0.247976  0.909635  1
  Al  Al16  1  0.908792  0.908792  0.248831  1
  Al  Al17  1  0.341177  0.002024  0.340365  1
  Al  Al18  1  0.341208  0.341208  0.001169  1
  Al  Al19  1  0.002024  0.341177  0.340365  1
  Al  Al20  1  0.915236  0.915236  0.917053  1
  Co  Co21  1  0.625000  0.125000  0.125000  1
  Co  Co22  1  0.125000  0.625000  0.125000  1
  Co  Co23  1  0.125000  0.125000  0.625000  1
  C  C24  1  0.625000  0.625000  0.625000  1
  C  C25  1  0.625000  0.625000  0.125000  1
  N  N26  1  0.125000  0.625000  0.625000  1
  N  N27  1  0.625000  0.125000  0.625000  1
