# generated using pymatgen
data_CeDy5(SnRh)6
_symmetry_space_group_name_H-M   'P 1'
_cell_length_a   7.52817238
_cell_length_b   7.56226540
_cell_length_c   7.82894400
_cell_angle_alpha   90.00000000
_cell_angle_beta   90.00000000
_cell_angle_gamma   120.14599456
_symmetry_Int_Tables_number   1
_chemical_formula_structural   CeDy5(SnRh)6
_chemical_formula_sum   'Ce1 Dy5 Sn6 Rh6'
_cell_volume   385.42022405
_cell_formula_units_Z   1
loop_
 _symmetry_equiv_pos_site_id
 _symmetry_equiv_pos_as_xyz
  1  'x, y, z'
loop_
 _atom_site_type_symbol
 _atom_site_label
 _atom_site_symmetry_multiplicity
 _atom_site_fract_x
 _atom_site_fract_y
 _atom_site_fract_z
 _atom_site_occupancy
  Ce  Ce0  1  0.000000  0.587024  0.250000  1
  Dy  Dy1  1  0.593102  0.002340  0.750000  1
  Dy  Dy2  1  0.406862  0.409267  0.750000  1
  Dy  Dy3  1  0.000060  0.594574  0.750000  1
  Dy  Dy4  1  0.594621  0.999266  0.250000  1
  Dy  Dy5  1  0.405490  0.404534  0.250000  1
  Sn  Sn6  1  0.263160  0.004499  0.999403  1
  Sn  Sn7  1  0.736843  0.741348  0.500601  1
  Sn  Sn8  1  0.999996  0.254880  0.503282  1
  Sn  Sn9  1  0.999996  0.254880  0.996718  1
  Sn  Sn10  1  0.736843  0.741348  0.999399  1
  Sn  Sn11  1  0.263160  0.004499  0.500597  1
  Rh  Rh12  1  0.674598  0.339502  0.005062  1
  Rh  Rh13  1  0.674598  0.339502  0.494938  1
  Rh  Rh14  1  0.325325  0.664830  0.005457  1
  Rh  Rh15  1  0.325325  0.664830  0.494543  1
  Rh  Rh16  1  0.000013  0.997855  0.750000  1
  Rh  Rh17  1  0.000010  0.995023  0.250000  1
