# generated using pymatgen
data_Ce(Lu2Co)2
_symmetry_space_group_name_H-M   'P 1'
_cell_length_a   8.44426803
_cell_length_b   8.44426837
_cell_length_c   6.72707525
_cell_angle_alpha   84.33582883
_cell_angle_beta   84.33582921
_cell_angle_gamma   42.85300652
_symmetry_Int_Tables_number   1
_chemical_formula_structural   Ce(Lu2Co)2
_chemical_formula_sum   'Ce2 Lu8 Co4'
_cell_volume   324.40004082
_cell_formula_units_Z   2
loop_
 _symmetry_equiv_pos_site_id
 _symmetry_equiv_pos_as_xyz
  1  'x, y, z'
loop_
 _atom_site_type_symbol
 _atom_site_label
 _atom_site_symmetry_multiplicity
 _atom_site_fract_x
 _atom_site_fract_y
 _atom_site_fract_z
 _atom_site_occupancy
  Ce  Ce0  1  0.202069  0.992678  0.599698  1
  Ce  Ce1  1  0.007322  0.797931  0.900302  1
  Lu  Lu2  1  0.219486  0.352271  0.316422  1
  Lu  Lu3  1  0.647729  0.780514  0.183578  1
  Lu  Lu4  1  0.788143  0.643763  0.679234  1
  Lu  Lu5  1  0.356237  0.211857  0.820766  1
  Lu  Lu6  1  0.981575  0.207086  0.088683  1
  Lu  Lu7  1  0.792914  0.018425  0.411317  1
  Lu  Lu8  1  0.570046  0.429954  0.750000  1
  Lu  Lu9  1  0.420446  0.579554  0.250000  1
  Co  Co10  1  0.162478  0.617147  0.593100  1
  Co  Co11  1  0.382853  0.837522  0.906900  1
  Co  Co12  1  0.845783  0.377082  0.434949  1
  Co  Co13  1  0.622918  0.154217  0.065051  1
