# generated using pymatgen
data_La2Be(BRu)7
_symmetry_space_group_name_H-M   'P 1'
_cell_length_a   6.51482900
_cell_length_b   6.51482900
_cell_length_c   10.18445000
_cell_angle_alpha   90.00000000
_cell_angle_beta   90.00000000
_cell_angle_gamma   90.00000000
_symmetry_Int_Tables_number   1
_chemical_formula_structural   La2Be(BRu)7
_chemical_formula_sum   'La4 Be2 B14 Ru14'
_cell_volume   432.25857977
_cell_formula_units_Z   2
loop_
 _symmetry_equiv_pos_site_id
 _symmetry_equiv_pos_as_xyz
  1  'x, y, z'
loop_
 _atom_site_type_symbol
 _atom_site_label
 _atom_site_symmetry_multiplicity
 _atom_site_fract_x
 _atom_site_fract_y
 _atom_site_fract_z
 _atom_site_occupancy
  La  La0  1  0.734304  0.878242  0.999382  1
  La  La1  1  0.121758  0.734304  0.499382  1
  La  La2  1  0.878242  0.265696  0.499382  1
  La  La3  1  0.265696  0.121758  0.999382  1
  Be  Be4  1  0.500000  0.500000  0.347871  1
  Be  Be5  1  0.500000  0.500000  0.847871  1
  B  B6  1  0.500000  0.000000  0.588118  1
  B  B7  1  0.500000  0.000000  0.410058  1
  B  B8  1  0.898277  0.276851  0.172865  1
  B  B9  1  0.104644  0.720617  0.828407  1
  B  B10  1  0.276851  0.101723  0.672865  1
  B  B11  1  0.101723  0.723149  0.172865  1
  B  B12  1  0.279383  0.104644  0.328407  1
  B  B13  1  0.895356  0.279383  0.828407  1
  B  B14  1  0.500000  0.500000  0.655129  1
  B  B15  1  0.500000  0.500000  0.155129  1
  B  B16  1  0.000000  0.500000  0.910058  1
  B  B17  1  0.723149  0.898277  0.672865  1
  B  B18  1  0.720617  0.895356  0.328407  1
  B  B19  1  0.000000  0.500000  0.088118  1
  Ru  Ru20  1  0.202807  0.398889  0.750707  1
  Ru  Ru21  1  0.391054  0.277130  0.503665  1
  Ru  Ru22  1  0.398889  0.797193  0.250707  1
  Ru  Ru23  1  0.202893  0.396450  0.243818  1
  Ru  Ru24  1  0.608946  0.722870  0.503665  1
  Ru  Ru25  1  0.603550  0.202893  0.743818  1
  Ru  Ru26  1  0.277130  0.608946  0.003665  1
  Ru  Ru27  1  0.722870  0.391054  0.003665  1
  Ru  Ru28  1  0.797107  0.603550  0.243818  1
  Ru  Ru29  1  0.797193  0.601111  0.750707  1
  Ru  Ru30  1  0.396450  0.797107  0.743818  1
  Ru  Ru31  1  0.000000  0.000000  0.251137  1
  Ru  Ru32  1  0.601111  0.202807  0.250707  1
  Ru  Ru33  1  0.000000  0.000000  0.751137  1
