# generated using pymatgen
data_Sm8Lu12Sn13Au3
_symmetry_space_group_name_H-M   'P 1'
_cell_length_a   7.74586300
_cell_length_b   8.33122262
_cell_length_c   15.38326200
_cell_angle_alpha   90.00000000
_cell_angle_beta   90.00000000
_cell_angle_gamma   89.84981476
_symmetry_Int_Tables_number   1
_chemical_formula_structural   Sm8Lu12Sn13Au3
_chemical_formula_sum   'Sm8 Lu12 Sn13 Au3'
_cell_volume   992.71708377
_cell_formula_units_Z   1
loop_
 _symmetry_equiv_pos_site_id
 _symmetry_equiv_pos_as_xyz
  1  'x, y, z'
loop_
 _atom_site_type_symbol
 _atom_site_label
 _atom_site_symmetry_multiplicity
 _atom_site_fract_x
 _atom_site_fract_y
 _atom_site_fract_z
 _atom_site_occupancy
  Sm  Sm0  1  0.506289  0.315527  0.905576  1
  Sm  Sm1  1  0.005745  0.185766  0.594351  1
  Sm  Sm2  1  0.494834  0.683534  0.409965  1
  Sm  Sm3  1  0.993826  0.817465  0.093319  1
  Sm  Sm4  1  0.494834  0.683534  0.090035  1
  Sm  Sm5  1  0.993826  0.817465  0.406681  1
  Sm  Sm6  1  0.506289  0.315527  0.594424  1
  Sm  Sm7  1  0.005745  0.185766  0.905649  1
  Lu  Lu8  1  0.341418  0.828924  0.867375  1
  Lu  Lu9  1  0.838385  0.669285  0.632207  1
  Lu  Lu10  1  0.646183  0.173708  0.372978  1
  Lu  Lu11  1  0.173256  0.335458  0.126448  1
  Lu  Lu12  1  0.646183  0.173708  0.127022  1
  Lu  Lu13  1  0.173256  0.335458  0.373552  1
  Lu  Lu14  1  0.341418  0.828924  0.632625  1
  Lu  Lu15  1  0.838385  0.669285  0.867793  1
  Lu  Lu16  1  0.189534  0.500233  0.750000  1
  Lu  Lu17  1  0.690018  0.999320  0.750000  1
  Lu  Lu18  1  0.809030  0.496917  0.250000  1
  Lu  Lu19  1  0.319535  0.998817  0.250000  1
  Sn  Sn20  1  0.312656  0.036614  0.037183  1
  Sn  Sn21  1  0.819604  0.461581  0.459829  1
  Sn  Sn22  1  0.687832  0.963101  0.540919  1
  Sn  Sn23  1  0.184201  0.537712  0.957576  1
  Sn  Sn24  1  0.687832  0.963101  0.959081  1
  Sn  Sn25  1  0.184201  0.537712  0.542424  1
  Sn  Sn26  1  0.312656  0.036614  0.462817  1
  Sn  Sn27  1  0.819604  0.461581  0.040171  1
  Sn  Sn28  1  0.955812  0.122933  0.250000  1
  Sn  Sn29  1  0.299768  0.135726  0.750000  1
  Sn  Sn30  1  0.800201  0.362797  0.750000  1
  Sn  Sn31  1  0.689424  0.856693  0.250000  1
  Sn  Sn32  1  0.200214  0.638692  0.250000  1
  Au  Au33  1  0.540973  0.625095  0.750000  1
  Au  Au34  1  0.040392  0.873679  0.750000  1
  Au  Au35  1  0.456645  0.371746  0.250000  1
