# generated using pymatgen
data_TaNb5Al4PdRhC2
_symmetry_space_group_name_H-M   'P 1'
_cell_length_a   8.34252215
_cell_length_b   8.34268828
_cell_length_c   8.34252200
_cell_angle_alpha   59.99934291
_cell_angle_beta   60.00131705
_cell_angle_gamma   59.99933898
_symmetry_Int_Tables_number   1
_chemical_formula_structural   TaNb5Al4PdRhC2
_chemical_formula_sum   'Ta2 Nb10 Al8 Pd2 Rh2 C4'
_cell_volume   410.56861204
_cell_formula_units_Z   2
loop_
 _symmetry_equiv_pos_site_id
 _symmetry_equiv_pos_as_xyz
  1  'x, y, z'
loop_
 _atom_site_type_symbol
 _atom_site_label
 _atom_site_symmetry_multiplicity
 _atom_site_fract_x
 _atom_site_fract_y
 _atom_site_fract_z
 _atom_site_occupancy
  Ta  Ta0  1  0.686138  0.316718  0.681086  1
  Ta  Ta1  1  0.933942  0.568914  0.933282  1
  Nb  Nb2  1  0.563848  0.933334  0.568557  1
  Nb  Nb3  1  0.315312  0.684866  0.685214  1
  Nb  Nb4  1  0.682491  0.317353  0.317875  1
  Nb  Nb5  1  0.315740  0.681443  0.316666  1
  Nb  Nb6  1  0.686474  0.681639  0.316622  1
  Nb  Nb7  1  0.315850  0.316106  0.681850  1
  Nb  Nb8  1  0.563806  0.568150  0.933894  1
  Nb  Nb9  1  0.935392  0.564786  0.565134  1
  Nb  Nb10  1  0.567720  0.932125  0.932647  1
  Nb  Nb11  1  0.934736  0.933378  0.568361  1
  Al  Al12  1  0.918599  0.916476  0.915946  1
  Al  Al13  1  0.001021  0.334054  0.333524  1
  Al  Al14  1  0.333104  0.997754  0.336153  1
  Al  Al15  1  0.333302  0.335721  0.997674  1
  Al  Al16  1  0.916697  0.252326  0.914279  1
  Al  Al17  1  0.917012  0.913847  0.252246  1
  Al  Al18  1  0.248955  0.916003  0.915885  1
  Al  Al19  1  0.330841  0.334115  0.333997  1
  Pd  Pd20  1  0.124320  0.126848  0.124143  1
  Pd  Pd21  1  0.625310  0.125857  0.123152  1
  Rh  Rh22  1  0.123897  0.624815  0.123698  1
  Rh  Rh23  1  0.122410  0.126302  0.625185  1
  C  C24  1  0.625809  0.623080  0.625704  1
  C  C25  1  0.124593  0.624296  0.626920  1
  C  C26  1  0.625785  0.125403  0.625705  1
  C  C27  1  0.626892  0.624295  0.124597  1
