# generated using pymatgen
data_Nd3GeBr3
_symmetry_space_group_name_H-M   'P 1'
_cell_length_a   10.47563136
_cell_length_b   10.47563165
_cell_length_c   10.47563200
_cell_angle_alpha   109.47121938
_cell_angle_beta   109.47121995
_cell_angle_gamma   109.47122623
_symmetry_Int_Tables_number   1
_chemical_formula_structural   Nd3GeBr3
_chemical_formula_sum   'Nd12 Ge4 Br12'
_cell_volume   884.95003168
_cell_formula_units_Z   4
loop_
 _symmetry_equiv_pos_site_id
 _symmetry_equiv_pos_as_xyz
  1  'x, y, z'
loop_
 _atom_site_type_symbol
 _atom_site_label
 _atom_site_symmetry_multiplicity
 _atom_site_fract_x
 _atom_site_fract_y
 _atom_site_fract_z
 _atom_site_occupancy
  Nd  Nd0  1  0.261079  0.011079  0.022159  1
  Nd  Nd1  1  0.022159  0.261079  0.011079  1
  Nd  Nd2  1  0.488921  0.750000  0.011079  1
  Nd  Nd3  1  0.750000  0.238921  0.261079  1
  Nd  Nd4  1  0.011079  0.022159  0.261079  1
  Nd  Nd5  1  0.011079  0.488921  0.750000  1
  Nd  Nd6  1  0.238921  0.261079  0.750000  1
  Nd  Nd7  1  0.261079  0.750000  0.238921  1
  Nd  Nd8  1  0.238921  0.477841  0.488921  1
  Nd  Nd9  1  0.477841  0.488921  0.238921  1
  Nd  Nd10  1  0.750000  0.011079  0.488921  1
  Nd  Nd11  1  0.488921  0.238921  0.477841  1
  Ge  Ge12  1  0.000000  0.250000  0.500000  1
  Ge  Ge13  1  0.250000  0.500000  0.000000  1
  Ge  Ge14  1  0.500000  0.000000  0.250000  1
  Ge  Ge15  1  0.250000  0.250000  0.250000  1
  Br  Br16  1  0.753856  0.746144  0.250000  1
  Br  Br17  1  0.503856  0.250000  0.996144  1
  Br  Br18  1  0.250000  0.996144  0.503856  1
  Br  Br19  1  0.507711  0.503856  0.753856  1
  Br  Br20  1  0.996144  0.992289  0.746144  1
  Br  Br21  1  0.746144  0.996144  0.992289  1
  Br  Br22  1  0.503856  0.753856  0.507711  1
  Br  Br23  1  0.753856  0.507711  0.503856  1
  Br  Br24  1  0.996144  0.503856  0.250000  1
  Br  Br25  1  0.992289  0.746144  0.996144  1
  Br  Br26  1  0.250000  0.753856  0.746144  1
  Br  Br27  1  0.746144  0.250000  0.753856  1
