# generated using pymatgen
data_Ho6Er14Si15Os
_symmetry_space_group_name_H-M   'P 1'
_cell_length_a   7.34793025
_cell_length_b   7.70980590
_cell_length_c   14.46759500
_cell_angle_alpha   89.92451033
_cell_angle_beta   90.01505705
_cell_angle_gamma   90.07273010
_symmetry_Int_Tables_number   1
_chemical_formula_structural   Ho6Er14Si15Os
_chemical_formula_sum   'Ho6 Er14 Si15 Os1'
_cell_volume   819.60400326
_cell_formula_units_Z   1
loop_
 _symmetry_equiv_pos_site_id
 _symmetry_equiv_pos_as_xyz
  1  'x, y, z'
loop_
 _atom_site_type_symbol
 _atom_site_label
 _atom_site_symmetry_multiplicity
 _atom_site_fract_x
 _atom_site_fract_y
 _atom_site_fract_z
 _atom_site_occupancy
  Ho  Ho0  1  0.474304  0.316276  0.097144  1
  Ho  Ho1  1  0.974557  0.182343  0.402759  1
  Ho  Ho2  1  0.474807  0.316410  0.403061  1
  Ho  Ho3  1  0.975037  0.182225  0.096955  1
  Ho  Ho4  1  0.521451  0.672257  0.903346  1
  Ho  Ho5  1  0.025031  0.818348  0.596234  1
  Er  Er6  1  0.671467  0.185488  0.625796  1
  Er  Er7  1  0.191260  0.324871  0.873536  1
  Er  Er8  1  0.318949  0.819699  0.124036  1
  Er  Er9  1  0.817656  0.677389  0.376280  1
  Er  Er10  1  0.319436  0.819318  0.376155  1
  Er  Er11  1  0.818047  0.678094  0.123533  1
  Er  Er12  1  0.671140  0.185417  0.874298  1
  Er  Er13  1  0.191998  0.325371  0.626323  1
  Er  Er14  1  0.521768  0.671824  0.597418  1
  Er  Er15  1  0.025978  0.817306  0.902798  1
  Er  Er16  1  0.840842  0.511955  0.750040  1
  Er  Er17  1  0.354190  0.988372  0.749934  1
  Er  Er18  1  0.150813  0.485372  0.250012  1
  Er  Er19  1  0.650503  0.012996  0.250011  1
  Si  Si20  1  0.647908  0.969761  0.460865  1
  Si  Si21  1  0.149995  0.529976  0.039480  1
  Si  Si22  1  0.346512  0.025149  0.961212  1
  Si  Si23  1  0.854345  0.471223  0.539172  1
  Si  Si24  1  0.347996  0.024571  0.539045  1
  Si  Si25  1  0.855435  0.471527  0.960652  1
  Si  Si26  1  0.646823  0.970741  0.039475  1
  Si  Si27  1  0.149428  0.529143  0.460151  1
  Si  Si28  1  0.980126  0.101736  0.750204  1
  Si  Si29  1  0.522765  0.606335  0.250042  1
  Si  Si30  1  0.020028  0.892543  0.249982  1
  Si  Si31  1  0.739784  0.875587  0.750246  1
  Si  Si32  1  0.228907  0.634234  0.750033  1
  Si  Si33  1  0.269168  0.128789  0.250128  1
  Si  Si34  1  0.771251  0.370806  0.249996  1
  Os  Os35  1  0.480290  0.406544  0.749649  1
