# generated using pymatgen
data_Sc6Zn19Pd4Se
_symmetry_space_group_name_H-M   'P 1'
_cell_length_a   8.83111253
_cell_length_b   8.83111125
_cell_length_c   8.83111185
_cell_angle_alpha   59.77356192
_cell_angle_beta   59.77356561
_cell_angle_gamma   59.77356155
_symmetry_Int_Tables_number   1
_chemical_formula_structural   Sc6Zn19Pd4Se
_chemical_formula_sum   'Sc6 Zn19 Pd4 Se1'
_cell_volume   484.49871217
_cell_formula_units_Z   1
loop_
 _symmetry_equiv_pos_site_id
 _symmetry_equiv_pos_as_xyz
  1  'x, y, z'
loop_
 _atom_site_type_symbol
 _atom_site_label
 _atom_site_symmetry_multiplicity
 _atom_site_fract_x
 _atom_site_fract_y
 _atom_site_fract_z
 _atom_site_occupancy
  Sc  Sc0  1  0.714045  0.285295  0.285295  1
  Sc  Sc1  1  0.285955  0.714705  0.714705  1
  Sc  Sc2  1  0.285295  0.714045  0.285295  1
  Sc  Sc3  1  0.714705  0.285955  0.714705  1
  Sc  Sc4  1  0.285295  0.285295  0.714045  1
  Sc  Sc5  1  0.714705  0.714705  0.285955  1
  Zn  Zn6  1  0.121365  0.121365  0.121365  1
  Zn  Zn7  1  0.878635  0.878635  0.878635  1
  Zn  Zn8  1  0.123120  0.123120  0.633821  1
  Zn  Zn9  1  0.123120  0.633821  0.123120  1
  Zn  Zn10  1  0.876880  0.876880  0.366179  1
  Zn  Zn11  1  0.876880  0.366179  0.876880  1
  Zn  Zn12  1  0.633821  0.123120  0.123120  1
  Zn  Zn13  1  0.366179  0.876880  0.876880  1
  Zn  Zn14  1  0.500000  0.000000  0.000000  1
  Zn  Zn15  1  0.000000  0.500000  0.000000  1
  Zn  Zn16  1  0.000000  0.000000  0.500000  1
  Zn  Zn17  1  0.334185  0.334185  0.334185  1
  Zn  Zn18  1  0.665815  0.665815  0.665815  1
  Zn  Zn19  1  0.333966  0.333966  0.996174  1
  Zn  Zn20  1  0.333966  0.996174  0.333966  1
  Zn  Zn21  1  0.666034  0.666034  0.003826  1
  Zn  Zn22  1  0.666034  0.003826  0.666034  1
  Zn  Zn23  1  0.996174  0.333966  0.333966  1
  Zn  Zn24  1  0.003826  0.666034  0.666034  1
  Pd  Pd25  1  0.000000  0.500000  0.500000  1
  Pd  Pd26  1  0.500000  0.000000  0.500000  1
  Pd  Pd27  1  0.500000  0.500000  0.000000  1
  Pd  Pd28  1  0.000000  0.000000  0.000000  1
  Se  Se29  1  0.500000  0.500000  0.500000  1
