# generated using pymatgen
data_Eu3(B3Ru4)2
_symmetry_space_group_name_H-M   'P 1'
_cell_length_a   5.55538063
_cell_length_b   5.61754935
_cell_length_c   9.12183347
_cell_angle_alpha   98.65996640
_cell_angle_beta   107.72868715
_cell_angle_gamma   60.36541723
_symmetry_Int_Tables_number   1
_chemical_formula_structural   Eu3(B3Ru4)2
_chemical_formula_sum   'Eu3 B6 Ru8'
_cell_volume   235.68396888
_cell_formula_units_Z   1
loop_
 _symmetry_equiv_pos_site_id
 _symmetry_equiv_pos_as_xyz
  1  'x, y, z'
loop_
 _atom_site_type_symbol
 _atom_site_label
 _atom_site_symmetry_multiplicity
 _atom_site_fract_x
 _atom_site_fract_y
 _atom_site_fract_z
 _atom_site_occupancy
  Eu  Eu0  1  0.500001  0.000000  0.000000  1
  Eu  Eu1  1  0.682230  0.000000  0.364459  1
  Eu  Eu2  1  0.317771  0.000000  0.635542  1
  B  B3  1  0.829465  0.341069  0.000000  1
  B  B4  1  0.170534  0.658932  0.000000  1
  B  B5  1  0.011736  0.321502  0.344975  1
  B  B6  1  0.333239  0.678499  0.344975  1
  B  B7  1  0.666761  0.321502  0.655025  1
  B  B8  1  0.988263  0.678499  0.655025  1
  Ru  Ru9  1  0.086121  0.500001  0.172246  1
  Ru  Ru10  1  0.586122  0.500001  0.172246  1
  Ru  Ru11  1  0.085981  0.000000  0.171962  1
  Ru  Ru12  1  0.249999  0.500001  0.500000  1
  Ru  Ru13  1  0.750000  0.500001  0.500000  1
  Ru  Ru14  1  0.914019  0.000000  0.828038  1
  Ru  Ru15  1  0.413877  0.500001  0.827754  1
  Ru  Ru16  1  0.913877  0.500001  0.827754  1
