# generated using pymatgen
data_Y3Er5(Si4W3)4
_symmetry_space_group_name_H-M   'P 1'
_cell_length_a   6.75821837
_cell_length_b   6.92576333
_cell_length_c   12.88860492
_cell_angle_alpha   90.05463504
_cell_angle_beta   90.01493955
_cell_angle_gamma   90.02251183
_symmetry_Int_Tables_number   1
_chemical_formula_structural   Y3Er5(Si4W3)4
_chemical_formula_sum   'Y3 Er5 Si16 W12'
_cell_volume   603.26139235
_cell_formula_units_Z   1
loop_
 _symmetry_equiv_pos_site_id
 _symmetry_equiv_pos_as_xyz
  1  'x, y, z'
loop_
 _atom_site_type_symbol
 _atom_site_label
 _atom_site_symmetry_multiplicity
 _atom_site_fract_x
 _atom_site_fract_y
 _atom_site_fract_z
 _atom_site_occupancy
  Y  Y0  1  0.003664  0.832685  0.593231  1
  Y  Y1  1  0.496506  0.332704  0.406959  1
  Y  Y2  1  0.996648  0.167455  0.092759  1
  Er  Er3  1  0.496172  0.332086  0.093384  1
  Er  Er4  1  0.995621  0.167617  0.406433  1
  Er  Er5  1  0.504190  0.667845  0.593741  1
  Er  Er6  1  0.004465  0.832126  0.906355  1
  Er  Er7  1  0.504619  0.668060  0.906728  1
  Si  Si8  1  0.660721  0.041629  0.547254  1
  Si  Si9  1  0.162164  0.459013  0.952821  1
  Si  Si10  1  0.339289  0.957786  0.046752  1
  Si  Si11  1  0.839089  0.541814  0.452983  1
  Si  Si12  1  0.338113  0.957849  0.452869  1
  Si  Si13  1  0.837815  0.542342  0.046625  1
  Si  Si14  1  0.661566  0.041361  0.952837  1
  Si  Si15  1  0.161667  0.457645  0.547071  1
  Si  Si16  1  0.534688  0.371133  0.750095  1
  Si  Si17  1  0.034956  0.129810  0.750542  1
  Si  Si18  1  0.464886  0.629596  0.249669  1
  Si  Si19  1  0.964747  0.870192  0.250114  1
  Si  Si20  1  0.802006  0.634006  0.750355  1
  Si  Si21  1  0.303198  0.865576  0.750476  1
  Si  Si22  1  0.197362  0.366118  0.249896  1
  Si  Si23  1  0.697221  0.133596  0.249731  1
  W  W24  1  0.830865  0.337162  0.625500  1
  W  W25  1  0.331168  0.162985  0.874730  1
  W  W26  1  0.168981  0.662839  0.125098  1
  W  W27  1  0.668638  0.836913  0.374700  1
  W  W28  1  0.168788  0.662877  0.374293  1
  W  W29  1  0.668674  0.836460  0.125346  1
  W  W30  1  0.830469  0.337572  0.874524  1
  W  W31  1  0.331086  0.163105  0.625886  1
  W  W32  1  0.666127  0.999951  0.750327  1
  W  W33  1  0.166220  0.500210  0.750253  1
  W  W34  1  0.333631  0.999669  0.249796  1
  W  W35  1  0.833979  0.500215  0.249868  1
