# generated using pymatgen
data_LaHo5ErCoI12
_symmetry_space_group_name_H-M   'P 1'
_cell_length_a   9.74138089
_cell_length_b   9.73868922
_cell_length_c   9.74033204
_cell_angle_alpha   106.19193931
_cell_angle_beta   106.20832082
_cell_angle_gamma   106.15004673
_symmetry_Int_Tables_number   1
_chemical_formula_structural   LaHo5ErCoI12
_chemical_formula_sum   'La1 Ho5 Er1 Co1 I12'
_cell_volume   786.06856149
_cell_formula_units_Z   1
loop_
 _symmetry_equiv_pos_site_id
 _symmetry_equiv_pos_as_xyz
  1  'x, y, z'
loop_
 _atom_site_type_symbol
 _atom_site_label
 _atom_site_symmetry_multiplicity
 _atom_site_fract_x
 _atom_site_fract_y
 _atom_site_fract_z
 _atom_site_occupancy
  La  La0  1  0.998299  0.998188  0.998419  1
  Ho  Ho1  1  0.515388  0.587021  0.781507  1
  Ho  Ho2  1  0.781467  0.515308  0.587190  1
  Ho  Ho3  1  0.587012  0.781682  0.515376  1
  Ho  Ho4  1  0.482311  0.410421  0.216213  1
  Ho  Ho5  1  0.216388  0.482801  0.410475  1
  Er  Er6  1  0.410940  0.217874  0.482252  1
  Co  Co7  1  0.498904  0.499093  0.498847  1
  I  I8  1  0.276195  0.824304  0.426964  1
  I  I9  1  0.426406  0.275066  0.822694  1
  I  I10  1  0.824167  0.426542  0.276051  1
  I  I11  1  0.720268  0.173484  0.570533  1
  I  I12  1  0.570975  0.721518  0.173871  1
  I  I13  1  0.173568  0.570756  0.721669  1
  I  I14  1  0.047888  0.125358  0.354904  1
  I  I15  1  0.354603  0.046621  0.126342  1
  I  I16  1  0.125436  0.354499  0.046614  1
  I  I17  1  0.950772  0.872139  0.642508  1
  I  I18  1  0.642192  0.950579  0.872159  1
  I  I19  1  0.872192  0.642113  0.950783  1
