# generated using pymatgen
data_Ho17(LuBi4)3
_symmetry_space_group_name_H-M   'P 1'
_cell_length_a   8.21817554
_cell_length_b   9.47210004
_cell_length_c   11.98714074
_cell_angle_alpha   89.99976270
_cell_angle_beta   90.04024574
_cell_angle_gamma   89.98918403
_symmetry_Int_Tables_number   1
_chemical_formula_structural   Ho17(LuBi4)3
_chemical_formula_sum   'Ho17 Lu3 Bi12'
_cell_volume   933.11931579
_cell_formula_units_Z   1
loop_
 _symmetry_equiv_pos_site_id
 _symmetry_equiv_pos_as_xyz
  1  'x, y, z'
loop_
 _atom_site_type_symbol
 _atom_site_label
 _atom_site_symmetry_multiplicity
 _atom_site_fract_x
 _atom_site_fract_y
 _atom_site_fract_z
 _atom_site_occupancy
  Ho  Ho0  1  0.353555  0.749937  0.216374  1
  Ho  Ho1  1  0.853457  0.749874  0.283654  1
  Ho  Ho2  1  0.646112  0.249673  0.783780  1
  Ho  Ho3  1  0.146597  0.249783  0.716489  1
  Ho  Ho4  1  0.808212  0.435652  0.558982  1
  Ho  Ho5  1  0.307867  0.435613  0.940975  1
  Ho  Ho6  1  0.807950  0.064264  0.559091  1
  Ho  Ho7  1  0.692134  0.935608  0.059045  1
  Ho  Ho8  1  0.191964  0.564412  0.440967  1
  Ho  Ho9  1  0.476444  0.249872  0.488873  1
  Ho  Ho10  1  0.976824  0.249922  0.011058  1
  Ho  Ho11  1  0.523009  0.750073  0.511046  1
  Ho  Ho12  1  0.023162  0.749820  0.988987  1
  Ho  Ho13  1  0.314449  0.249841  0.217975  1
  Ho  Ho14  1  0.814439  0.249944  0.281892  1
  Ho  Ho15  1  0.685544  0.749875  0.781984  1
  Ho  Ho16  1  0.185466  0.750094  0.718018  1
  Lu  Lu17  1  0.691829  0.565419  0.059031  1
  Lu  Lu18  1  0.192024  0.934687  0.440952  1
  Lu  Lu19  1  0.308094  0.065372  0.941039  1
  Bi  Bi20  1  0.405288  0.751277  0.957446  1
  Bi  Bi21  1  0.905845  0.750480  0.542311  1
  Bi  Bi22  1  0.594626  0.251312  0.042630  1
  Bi  Bi23  1  0.094897  0.248211  0.457271  1
  Bi  Bi24  1  0.566013  0.996018  0.325559  1
  Bi  Bi25  1  0.066321  0.503819  0.174282  1
  Bi  Bi26  1  0.433667  0.495994  0.674501  1
  Bi  Bi27  1  0.933914  0.003749  0.825722  1
  Bi  Bi28  1  0.433595  0.003876  0.674400  1
  Bi  Bi29  1  0.933821  0.495830  0.825851  1
  Bi  Bi30  1  0.566478  0.503849  0.325546  1
  Bi  Bi31  1  0.066402  0.995849  0.174269  1
