# generated using pymatgen
data_Tb5Dy3Hf11Si16Tc
_symmetry_space_group_name_H-M   'P 1'
_cell_length_a   7.25550748
_cell_length_b   7.25511983
_cell_length_c   13.29169302
_cell_angle_alpha   89.94762545
_cell_angle_beta   90.04679132
_cell_angle_gamma   90.04255023
_symmetry_Int_Tables_number   1
_chemical_formula_structural   Tb5Dy3Hf11Si16Tc
_chemical_formula_sum   'Tb5 Dy3 Hf11 Si16 Tc1'
_cell_volume   699.66836945
_cell_formula_units_Z   1
loop_
 _symmetry_equiv_pos_site_id
 _symmetry_equiv_pos_as_xyz
  1  'x, y, z'
loop_
 _atom_site_type_symbol
 _atom_site_label
 _atom_site_symmetry_multiplicity
 _atom_site_fract_x
 _atom_site_fract_y
 _atom_site_fract_z
 _atom_site_occupancy
  Tb  Tb0  1  0.501210  0.845614  0.033667  1
  Tb  Tb1  1  0.845664  0.501214  0.966366  1
  Tb  Tb2  1  0.495212  0.156578  0.534505  1
  Tb  Tb3  1  0.342597  0.998895  0.787812  1
  Tb  Tb4  1  0.656077  0.004467  0.283006  1
  Dy  Dy5  1  0.999141  0.342756  0.212167  1
  Dy  Dy6  1  0.004345  0.655918  0.716907  1
  Dy  Dy7  1  0.156371  0.495429  0.465394  1
  Hf  Hf8  1  0.825351  0.825104  0.500035  1
  Hf  Hf9  1  0.324189  0.674538  0.248646  1
  Hf  Hf10  1  0.674731  0.324386  0.751362  1
  Hf  Hf11  1  0.148427  0.997187  0.373125  1
  Hf  Hf12  1  0.853303  0.004873  0.877571  1
  Hf  Hf13  1  0.503482  0.648054  0.625055  1
  Hf  Hf14  1  0.349850  0.494064  0.877148  1
  Hf  Hf15  1  0.493952  0.349956  0.122816  1
  Hf  Hf16  1  0.648096  0.503521  0.374946  1
  Hf  Hf17  1  0.997263  0.148415  0.626867  1
  Hf  Hf18  1  0.004888  0.853305  0.122416  1
  Si  Si19  1  0.361686  0.295237  0.316061  1
  Si  Si20  1  0.637276  0.705115  0.818016  1
  Si  Si21  1  0.205086  0.862095  0.567367  1
  Si  Si22  1  0.136638  0.795338  0.932434  1
  Si  Si23  1  0.795591  0.136857  0.067645  1
  Si  Si24  1  0.862587  0.205452  0.432643  1
  Si  Si25  1  0.294821  0.362214  0.683954  1
  Si  Si26  1  0.705238  0.636905  0.181929  1
  Si  Si27  1  0.293534  0.052672  0.181928  1
  Si  Si28  1  0.704320  0.951386  0.685875  1
  Si  Si29  1  0.450076  0.795826  0.434992  1
  Si  Si30  1  0.205088  0.547826  0.064549  1
  Si  Si31  1  0.548032  0.205249  0.935556  1
  Si  Si32  1  0.796295  0.450367  0.564992  1
  Si  Si33  1  0.052525  0.293887  0.818027  1
  Si  Si34  1  0.951735  0.703881  0.314152  1
  Tc  Tc35  1  0.175326  0.175418  0.000068  1
