# generated using pymatgen
data_Dy5Nb3(ReB6)4
_symmetry_space_group_name_H-M   'P 1'
_cell_length_a   3.59371500
_cell_length_b   9.00643718
_cell_length_c   11.37434772
_cell_angle_alpha   89.93909489
_cell_angle_beta   90.00000000
_cell_angle_gamma   90.00000000
_symmetry_Int_Tables_number   1
_chemical_formula_structural   Dy5Nb3(ReB6)4
_chemical_formula_sum   'Dy5 Nb3 Re4 B24'
_cell_volume   368.14839560
_cell_formula_units_Z   1
loop_
 _symmetry_equiv_pos_site_id
 _symmetry_equiv_pos_as_xyz
  1  'x, y, z'
loop_
 _atom_site_type_symbol
 _atom_site_label
 _atom_site_symmetry_multiplicity
 _atom_site_fract_x
 _atom_site_fract_y
 _atom_site_fract_z
 _atom_site_occupancy
  Dy  Dy0  1  0.000000  0.321824  0.414242  1
  Dy  Dy1  1  0.000000  0.677248  0.587445  1
  Dy  Dy2  1  0.000000  0.822026  0.085339  1
  Dy  Dy3  1  0.000000  0.177804  0.913077  1
  Dy  Dy4  1  0.000000  0.945159  0.373857  1
  Nb  Nb5  1  0.000000  0.056698  0.629283  1
  Nb  Nb6  1  0.000000  0.445272  0.124085  1
  Nb  Nb7  1  0.000000  0.556127  0.875411  1
  Re  Re8  1  0.000000  0.634445  0.314321  1
  Re  Re9  1  0.000000  0.358194  0.685492  1
  Re  Re10  1  0.000000  0.147600  0.177900  1
  Re  Re11  1  0.000000  0.857292  0.818100  1
  B  B12  1  0.500000  0.550916  0.432736  1
  B  B13  1  0.500000  0.444552  0.567741  1
  B  B14  1  0.500000  0.055713  0.065242  1
  B  B15  1  0.500000  0.945242  0.933499  1
  B  B16  1  0.500000  0.747156  0.417287  1
  B  B17  1  0.500000  0.246810  0.583397  1
  B  B18  1  0.500000  0.255276  0.079617  1
  B  B19  1  0.500000  0.746122  0.918725  1
  B  B20  1  0.500000  0.792081  0.262467  1
  B  B21  1  0.500000  0.204672  0.737874  1
  B  B22  1  0.500000  0.296851  0.233832  1
  B  B23  1  0.500000  0.703859  0.764413  1
  B  B24  1  0.500000  0.627221  0.181198  1
  B  B25  1  0.500000  0.371949  0.818593  1
  B  B26  1  0.500000  0.133211  0.314633  1
  B  B27  1  0.500000  0.871337  0.683254  1
  B  B28  1  0.500000  0.983964  0.211080  1
  B  B29  1  0.500000  0.018854  0.787723  1
  B  B30  1  0.500000  0.479199  0.285360  1
  B  B31  1  0.500000  0.519754  0.713566  1
  B  B32  1  0.500000  0.598926  0.025573  1
  B  B33  1  0.500000  0.402280  0.972972  1
  B  B34  1  0.500000  0.102804  0.478544  1
  B  B35  1  0.500000  0.901559  0.532123  1
