# generated using pymatgen
data_ErTmFe6(P3Ir2)2
_symmetry_space_group_name_H-M   'P 1'
_cell_length_a   3.78917500
_cell_length_b   10.23950200
_cell_length_c   12.18428300
_cell_angle_alpha   90.00000000
_cell_angle_beta   90.00000000
_cell_angle_gamma   90.00000000
_symmetry_Int_Tables_number   1
_chemical_formula_structural   ErTmFe6(P3Ir2)2
_chemical_formula_sum   'Er2 Tm2 Fe12 P12 Ir8'
_cell_volume   472.74122484
_cell_formula_units_Z   2
loop_
 _symmetry_equiv_pos_site_id
 _symmetry_equiv_pos_as_xyz
  1  'x, y, z'
loop_
 _atom_site_type_symbol
 _atom_site_label
 _atom_site_symmetry_multiplicity
 _atom_site_fract_x
 _atom_site_fract_y
 _atom_site_fract_z
 _atom_site_occupancy
  Er  Er0  1  0.250000  0.580861  0.713213  1
  Er  Er1  1  0.250000  0.919139  0.213213  1
  Tm  Tm2  1  0.750000  0.419132  0.286848  1
  Tm  Tm3  1  0.750000  0.080868  0.786848  1
  Fe  Fe4  1  0.250000  0.223250  0.170526  1
  Fe  Fe5  1  0.250000  0.276750  0.670526  1
  Fe  Fe6  1  0.750000  0.777034  0.829524  1
  Fe  Fe7  1  0.750000  0.722966  0.329524  1
  Fe  Fe8  1  0.250000  0.877506  0.695724  1
  Fe  Fe9  1  0.250000  0.622494  0.195724  1
  Fe  Fe10  1  0.750000  0.122855  0.304345  1
  Fe  Fe11  1  0.750000  0.377145  0.804345  1
  Fe  Fe12  1  0.250000  0.457802  0.937205  1
  Fe  Fe13  1  0.250000  0.042198  0.437205  1
  Fe  Fe14  1  0.750000  0.542073  0.062956  1
  Fe  Fe15  1  0.750000  0.957927  0.562956  1
  P  P16  1  0.250000  0.428471  0.113892  1
  P  P17  1  0.250000  0.071529  0.613892  1
  P  P18  1  0.750000  0.571441  0.886372  1
  P  P19  1  0.750000  0.928559  0.386372  1
  P  P20  1  0.250000  0.272393  0.851825  1
  P  P21  1  0.250000  0.227607  0.351825  1
  P  P22  1  0.750000  0.727367  0.148069  1
  P  P23  1  0.750000  0.772633  0.648069  1
  P  P24  1  0.250000  0.603580  0.374840  1
  P  P25  1  0.250000  0.896420  0.874840  1
  P  P26  1  0.750000  0.396180  0.625060  1
  P  P27  1  0.750000  0.103820  0.125060  1
  Ir  Ir28  1  0.250000  0.709464  0.983943  1
  Ir  Ir29  1  0.250000  0.790536  0.483943  1
  Ir  Ir30  1  0.750000  0.290549  0.016057  1
  Ir  Ir31  1  0.750000  0.209451  0.516057  1
  Ir  Ir32  1  0.250000  0.405555  0.475098  1
  Ir  Ir33  1  0.250000  0.094445  0.975098  1
  Ir  Ir34  1  0.750000  0.594455  0.524502  1
  Ir  Ir35  1  0.750000  0.905545  0.024502  1
