# generated using pymatgen
data_Tc5Ge4
_symmetry_space_group_name_H-M   'P 1'
_cell_length_a   6.98034371
_cell_length_b   6.98034272
_cell_length_c   6.98034323
_cell_angle_alpha   92.82076318
_cell_angle_beta   92.82075814
_cell_angle_gamma   154.36609369
_symmetry_Int_Tables_number   1
_chemical_formula_structural   Tc5Ge4
_chemical_formula_sum   'Tc5 Ge4'
_cell_volume   143.47564848
_cell_formula_units_Z   1
loop_
 _symmetry_equiv_pos_site_id
 _symmetry_equiv_pos_as_xyz
  1  'x, y, z'
loop_
 _atom_site_type_symbol
 _atom_site_label
 _atom_site_symmetry_multiplicity
 _atom_site_fract_x
 _atom_site_fract_y
 _atom_site_fract_z
 _atom_site_occupancy
  Tc  Tc0  1  0.000000  0.000000  0.000000  1
  Tc  Tc1  1  0.699692  0.377251  0.076940  1
  Tc  Tc2  1  0.622751  0.699692  0.322441  1
  Tc  Tc3  1  0.377250  0.300309  0.677559  1
  Tc  Tc4  1  0.300309  0.622750  0.923060  1
  Ge  Ge5  1  0.942532  0.294773  0.237303  1
  Ge  Ge6  1  0.294771  0.057469  0.352241  1
  Ge  Ge7  1  0.705230  0.942532  0.647759  1
  Ge  Ge8  1  0.057469  0.705228  0.762697  1
