# generated using pymatgen
data_Ac3(ZnPt)4
_symmetry_space_group_name_H-M   'P 1'
_cell_length_a   8.62618653
_cell_length_b   8.62618583
_cell_length_c   8.62618526
_cell_angle_alpha   151.28115257
_cell_angle_beta   126.97499547
_cell_angle_gamma   61.41548393
_symmetry_Int_Tables_number   1
_chemical_formula_structural   Ac3(ZnPt)4
_chemical_formula_sum   'Ac3 Zn4 Pt4'
_cell_volume   244.38883411
_cell_formula_units_Z   1
loop_
 _symmetry_equiv_pos_site_id
 _symmetry_equiv_pos_as_xyz
  1  'x, y, z'
loop_
 _atom_site_type_symbol
 _atom_site_label
 _atom_site_symmetry_multiplicity
 _atom_site_fract_x
 _atom_site_fract_y
 _atom_site_fract_z
 _atom_site_occupancy
  Ac  Ac0  1  0.500000  0.000000  0.500000  1
  Ac  Ac1  1  0.871878  0.871878  0.000000  1
  Ac  Ac2  1  0.128122  0.128122  0.000000  1
  Zn  Zn3  1  0.484498  0.672819  0.811679  1
  Zn  Zn4  1  0.861140  0.672819  0.188321  1
  Zn  Zn5  1  0.138860  0.327181  0.811679  1
  Zn  Zn6  1  0.515502  0.327181  0.188321  1
  Pt  Pt7  1  0.283509  0.783509  0.500000  1
  Pt  Pt8  1  0.716491  0.216491  0.500000  1
  Pt  Pt9  1  0.798586  0.500000  0.298586  1
  Pt  Pt10  1  0.201414  0.500000  0.701414  1
