# generated using pymatgen
data_Dy9Er2ThCo4
_symmetry_space_group_name_H-M   'P 1'
_cell_length_a   6.23817235
_cell_length_b   6.91001703
_cell_length_c   9.49667869
_cell_angle_alpha   89.97639532
_cell_angle_beta   89.93650050
_cell_angle_gamma   91.23091915
_symmetry_Int_Tables_number   1
_chemical_formula_structural   Dy9Er2ThCo4
_chemical_formula_sum   'Dy9 Er2 Th1 Co4'
_cell_volume   409.26790903
_cell_formula_units_Z   1
loop_
 _symmetry_equiv_pos_site_id
 _symmetry_equiv_pos_as_xyz
  1  'x, y, z'
loop_
 _atom_site_type_symbol
 _atom_site_label
 _atom_site_symmetry_multiplicity
 _atom_site_fract_x
 _atom_site_fract_y
 _atom_site_fract_z
 _atom_site_occupancy
  Dy  Dy0  1  0.360177  0.956954  0.749912  1
  Dy  Dy1  1  0.855578  0.544412  0.249830  1
  Dy  Dy2  1  0.642059  0.044384  0.250104  1
  Dy  Dy3  1  0.827273  0.824224  0.568911  1
  Dy  Dy4  1  0.175942  0.173342  0.069918  1
  Dy  Dy5  1  0.826878  0.823942  0.930979  1
  Dy  Dy6  1  0.673120  0.324518  0.566651  1
  Dy  Dy7  1  0.323874  0.675115  0.068393  1
  Dy  Dy8  1  0.323425  0.675318  0.431392  1
  Er  Er9  1  0.672733  0.324709  0.932776  1
  Er  Er10  1  0.175507  0.173046  0.430043  1
  Th  Th11  1  0.152381  0.446279  0.750142  1
  Co  Co12  1  0.533549  0.609057  0.750530  1
  Co  Co13  1  0.955739  0.130037  0.749863  1
  Co  Co14  1  0.049018  0.886968  0.250468  1
  Co  Co15  1  0.452750  0.387693  0.250087  1
