# generated using pymatgen
data_Yb3Pr13(TmIr3)4
_symmetry_space_group_name_H-M   'P 1'
_cell_length_a   11.16889127
_cell_length_b   11.26200955
_cell_length_c   6.48845005
_cell_angle_alpha   89.89775526
_cell_angle_beta   90.23360422
_cell_angle_gamma   90.20015453
_symmetry_Int_Tables_number   1
_chemical_formula_structural   Yb3Pr13(TmIr3)4
_chemical_formula_sum   'Yb3 Pr13 Tm4 Ir12'
_cell_volume   816.13119851
_cell_formula_units_Z   1
loop_
 _symmetry_equiv_pos_site_id
 _symmetry_equiv_pos_as_xyz
  1  'x, y, z'
loop_
 _atom_site_type_symbol
 _atom_site_label
 _atom_site_symmetry_multiplicity
 _atom_site_fract_x
 _atom_site_fract_y
 _atom_site_fract_z
 _atom_site_occupancy
  Yb  Yb0  1  0.291373  0.083995  0.381343  1
  Yb  Yb1  1  0.289301  0.916410  0.882154  1
  Yb  Yb2  1  0.709007  0.085005  0.882212  1
  Pr  Pr3  1  0.711407  0.915697  0.384871  1
  Pr  Pr4  1  0.584457  0.793222  0.882031  1
  Pr  Pr5  1  0.585296  0.208883  0.380970  1
  Pr  Pr6  1  0.408760  0.794734  0.382094  1
  Pr  Pr7  1  0.413082  0.205754  0.882292  1
  Pr  Pr8  1  0.212188  0.411028  0.620755  1
  Pr  Pr9  1  0.212474  0.587735  0.121038  1
  Pr  Pr10  1  0.788903  0.411300  0.120036  1
  Pr  Pr11  1  0.787434  0.587963  0.618621  1
  Pr  Pr12  1  0.911994  0.712565  0.122381  1
  Pr  Pr13  1  0.908980  0.285668  0.626400  1
  Pr  Pr14  1  0.090115  0.713955  0.623074  1
  Pr  Pr15  1  0.090982  0.285282  0.125940  1
  Tm  Tm16  1  0.004982  0.001554  0.494554  1
  Tm  Tm17  1  0.999253  0.000554  0.994265  1
  Tm  Tm18  1  0.500129  0.499686  0.991814  1
  Tm  Tm19  1  0.498828  0.500979  0.492223  1
  Ir  Ir20  1  0.856257  0.146944  0.252162  1
  Ir  Ir21  1  0.858565  0.850223  0.745381  1
  Ir  Ir22  1  0.143386  0.150194  0.750812  1
  Ir  Ir23  1  0.143258  0.850018  0.247405  1
  Ir  Ir24  1  0.645515  0.354743  0.745594  1
  Ir  Ir25  1  0.645995  0.648463  0.246320  1
  Ir  Ir26  1  0.354050  0.354850  0.243783  1
  Ir  Ir27  1  0.352134  0.644568  0.744599  1
  Ir  Ir28  1  0.500324  0.999988  0.122456  1
  Ir  Ir29  1  0.500899  0.999571  0.623025  1
  Ir  Ir30  1  0.000430  0.499396  0.884780  1
  Ir  Ir31  1  0.000239  0.499070  0.384612  1
