# generated using pymatgen
data_CsCe2V3O12
_symmetry_space_group_name_H-M   'P 1'
_cell_length_a   10.37497288
_cell_length_b   10.37497243
_cell_length_c   10.37497300
_cell_angle_alpha   55.03444105
_cell_angle_beta   55.03444280
_cell_angle_gamma   55.03443488
_symmetry_Int_Tables_number   1
_chemical_formula_structural   CsCe2V3O12
_chemical_formula_sum   'Cs2 Ce4 V6 O24'
_cell_volume   698.44984257
_cell_formula_units_Z   2
loop_
 _symmetry_equiv_pos_site_id
 _symmetry_equiv_pos_as_xyz
  1  'x, y, z'
loop_
 _atom_site_type_symbol
 _atom_site_label
 _atom_site_symmetry_multiplicity
 _atom_site_fract_x
 _atom_site_fract_y
 _atom_site_fract_z
 _atom_site_occupancy
  Cs  Cs0  1  0.500000  0.500000  0.500000  1
  Cs  Cs1  1  0.000000  0.000000  0.000000  1
  Ce  Ce2  1  0.350545  0.350545  0.350545  1
  Ce  Ce3  1  0.850545  0.850545  0.850545  1
  Ce  Ce4  1  0.649455  0.649455  0.649455  1
  Ce  Ce5  1  0.149455  0.149455  0.149455  1
  V  V6  1  0.961923  0.538077  0.250000  1
  V  V7  1  0.250000  0.961923  0.538077  1
  V  V8  1  0.538077  0.250000  0.961923  1
  V  V9  1  0.750000  0.038077  0.461923  1
  V  V10  1  0.461923  0.750000  0.038077  1
  V  V11  1  0.038077  0.461923  0.750000  1
  O  O12  1  0.137597  0.512671  0.258564  1
  O  O13  1  0.258564  0.137597  0.512671  1
  O  O14  1  0.512671  0.258564  0.137597  1
  O  O15  1  0.758564  0.012671  0.637597  1
  O  O16  1  0.637597  0.758564  0.012671  1
  O  O17  1  0.012671  0.637597  0.758564  1
  O  O18  1  0.862403  0.487329  0.741436  1
  O  O19  1  0.741436  0.862403  0.487329  1
  O  O20  1  0.487329  0.741436  0.862403  1
  O  O21  1  0.241436  0.987329  0.362403  1
  O  O22  1  0.362403  0.241436  0.987329  1
  O  O23  1  0.987329  0.362403  0.241436  1
  O  O24  1  0.212984  0.427957  0.571857  1
  O  O25  1  0.571857  0.212984  0.427957  1
  O  O26  1  0.427957  0.571857  0.212984  1
  O  O27  1  0.071857  0.927957  0.712984  1
  O  O28  1  0.712984  0.071857  0.927957  1
  O  O29  1  0.927957  0.712984  0.071857  1
  O  O30  1  0.787016  0.572043  0.428143  1
  O  O31  1  0.428143  0.787016  0.572043  1
  O  O32  1  0.572043  0.428143  0.787016  1
  O  O33  1  0.928143  0.072043  0.287016  1
  O  O34  1  0.287016  0.928143  0.072043  1
  O  O35  1  0.072043  0.287016  0.928143  1
