# generated using pymatgen
data_Li4PrPu3Si8
_symmetry_space_group_name_H-M   'P 1'
_cell_length_a   3.81517700
_cell_length_b   7.72488482
_cell_length_c   10.31336871
_cell_angle_alpha   90.16604099
_cell_angle_beta   90.00000000
_cell_angle_gamma   90.00000000
_symmetry_Int_Tables_number   1
_chemical_formula_structural   Li4PrPu3Si8
_chemical_formula_sum   'Li4 Pr1 Pu3 Si8'
_cell_volume   303.95229352
_cell_formula_units_Z   1
loop_
 _symmetry_equiv_pos_site_id
 _symmetry_equiv_pos_as_xyz
  1  'x, y, z'
loop_
 _atom_site_type_symbol
 _atom_site_label
 _atom_site_symmetry_multiplicity
 _atom_site_fract_x
 _atom_site_fract_y
 _atom_site_fract_z
 _atom_site_occupancy
  Li  Li0  1  0.250000  0.488172  0.394860  1
  Li  Li1  1  0.250000  0.992031  0.105327  1
  Li  Li2  1  0.750000  0.511152  0.605074  1
  Li  Li3  1  0.750000  0.009970  0.893124  1
  Pr  Pr4  1  0.750000  0.363030  0.136079  1
  Pu  Pu5  1  0.250000  0.133002  0.635980  1
  Pu  Pu6  1  0.250000  0.637659  0.862706  1
  Pu  Pu7  1  0.750000  0.862217  0.365928  1
  Si  Si8  1  0.250000  0.235472  0.925321  1
  Si  Si9  1  0.250000  0.738843  0.568013  1
  Si  Si10  1  0.750000  0.763264  0.066094  1
  Si  Si11  1  0.750000  0.258719  0.436838  1
  Si  Si12  1  0.250000  0.152812  0.324370  1
  Si  Si13  1  0.250000  0.668605  0.183415  1
  Si  Si14  1  0.750000  0.842127  0.681313  1
  Si  Si15  1  0.750000  0.342923  0.815559  1
