# generated using pymatgen
data_ThGa5CuPd
_symmetry_space_group_name_H-M   'P 1'
_cell_length_a   4.32060100
_cell_length_b   4.32060100
_cell_length_c   7.90648900
_cell_angle_alpha   90.00000000
_cell_angle_beta   90.00000000
_cell_angle_gamma   90.00000000
_symmetry_Int_Tables_number   1
_chemical_formula_structural   ThGa5CuPd
_chemical_formula_sum   'Th1 Ga5 Cu1 Pd1'
_cell_volume   147.59511872
_cell_formula_units_Z   1
loop_
 _symmetry_equiv_pos_site_id
 _symmetry_equiv_pos_as_xyz
  1  'x, y, z'
loop_
 _atom_site_type_symbol
 _atom_site_label
 _atom_site_symmetry_multiplicity
 _atom_site_fract_x
 _atom_site_fract_y
 _atom_site_fract_z
 _atom_site_occupancy
  Th  Th0  1  0.000000  0.000000  0.004630  1
  Ga  Ga1  1  0.000000  0.500000  0.673549  1
  Ga  Ga2  1  0.500000  0.500000  0.864035  1
  Ga  Ga3  1  0.500000  0.000000  0.673549  1
  Ga  Ga4  1  0.000000  0.500000  0.313484  1
  Ga  Ga5  1  0.500000  0.000000  0.313484  1
  Cu  Cu6  1  0.500000  0.500000  0.157932  1
  Pd  Pd7  1  0.000000  0.000000  0.499338  1
