# generated using pymatgen
data_YTm9CoRu3
_symmetry_space_group_name_H-M   'P 1'
_cell_length_a   6.23706131
_cell_length_b   7.19186542
_cell_length_c   8.34741512
_cell_angle_alpha   96.69029459
_cell_angle_beta   111.76348849
_cell_angle_gamma   90.41648305
_symmetry_Int_Tables_number   1
_chemical_formula_structural   YTm9CoRu3
_chemical_formula_sum   'Y1 Tm9 Co1 Ru3'
_cell_volume   344.85855108
_cell_formula_units_Z   1
loop_
 _symmetry_equiv_pos_site_id
 _symmetry_equiv_pos_as_xyz
  1  'x, y, z'
loop_
 _atom_site_type_symbol
 _atom_site_label
 _atom_site_symmetry_multiplicity
 _atom_site_fract_x
 _atom_site_fract_y
 _atom_site_fract_z
 _atom_site_occupancy
  Y  Y0  1  0.788270  0.087333  0.813628  1
  Tm  Tm1  1  0.980028  0.415631  0.189879  1
  Tm  Tm2  1  0.209862  0.916511  0.186168  1
  Tm  Tm3  1  0.014341  0.585085  0.814729  1
  Tm  Tm4  1  0.207460  0.187046  0.565752  1
  Tm  Tm5  1  0.644532  0.316576  0.434623  1
  Tm  Tm6  1  0.795267  0.813881  0.435157  1
  Tm  Tm7  1  0.357562  0.680120  0.566420  1
  Tm  Tm8  1  0.420886  0.253811  0.998697  1
  Tm  Tm9  1  0.579420  0.745001  0.998070  1
  Co  Co10  1  0.600500  0.424490  0.775749  1
  Ru  Ru11  1  0.823080  0.075270  0.219420  1
  Ru  Ru12  1  0.397214  0.575434  0.221428  1
  Ru  Ru13  1  0.181579  0.923813  0.780277  1
