# generated using pymatgen
data_KBa3TaO6
_symmetry_space_group_name_H-M   'P 1'
_cell_length_a   7.34525679
_cell_length_b   7.34525634
_cell_length_c   7.34525718
_cell_angle_alpha   89.33414279
_cell_angle_beta   89.33414569
_cell_angle_gamma   89.33414167
_symmetry_Int_Tables_number   1
_chemical_formula_structural   KBa3TaO6
_chemical_formula_sum   'K2 Ba6 Ta2 O12'
_cell_volume   396.21748113
_cell_formula_units_Z   2
loop_
 _symmetry_equiv_pos_site_id
 _symmetry_equiv_pos_as_xyz
  1  'x, y, z'
loop_
 _atom_site_type_symbol
 _atom_site_label
 _atom_site_symmetry_multiplicity
 _atom_site_fract_x
 _atom_site_fract_y
 _atom_site_fract_z
 _atom_site_occupancy
  K  K0  1  0.250000  0.250000  0.250000  1
  K  K1  1  0.750000  0.750000  0.750000  1
  Ba  Ba2  1  0.897233  0.250000  0.602767  1
  Ba  Ba3  1  0.602767  0.897233  0.250000  1
  Ba  Ba4  1  0.750000  0.397233  0.102767  1
  Ba  Ba5  1  0.102767  0.750000  0.397233  1
  Ba  Ba6  1  0.397233  0.102767  0.750000  1
  Ba  Ba7  1  0.250000  0.602767  0.897233  1
  Ta  Ta8  1  0.000000  0.000000  0.000000  1
  Ta  Ta9  1  0.500000  0.500000  0.500000  1
  O  O10  1  0.560709  0.237688  0.430589  1
  O  O11  1  0.430589  0.560709  0.237688  1
  O  O12  1  0.237688  0.430589  0.560709  1
  O  O13  1  0.939291  0.069411  0.262312  1
  O  O14  1  0.262312  0.939291  0.069411  1
  O  O15  1  0.069411  0.262312  0.939291  1
  O  O16  1  0.439291  0.762312  0.569411  1
  O  O17  1  0.569411  0.439291  0.762312  1
  O  O18  1  0.762312  0.569411  0.439291  1
  O  O19  1  0.060709  0.930589  0.737688  1
  O  O20  1  0.930589  0.737688  0.060709  1
  O  O21  1  0.737688  0.060709  0.930589  1
