# generated using pymatgen
data_Nd3Er2P12Ru16Pt3
_symmetry_space_group_name_H-M   'P 1'
_cell_length_a   12.64843500
_cell_length_b   12.64843609
_cell_length_c   4.01229200
_cell_angle_alpha   90.00000000
_cell_angle_beta   90.00000000
_cell_angle_gamma   119.99999976
_symmetry_Int_Tables_number   1
_chemical_formula_structural   Nd3Er2P12Ru16Pt3
_chemical_formula_sum   'Nd3 Er2 P12 Ru16 Pt3'
_cell_volume   555.90014668
_cell_formula_units_Z   1
loop_
 _symmetry_equiv_pos_site_id
 _symmetry_equiv_pos_as_xyz
  1  'x, y, z'
loop_
 _atom_site_type_symbol
 _atom_site_label
 _atom_site_symmetry_multiplicity
 _atom_site_fract_x
 _atom_site_fract_y
 _atom_site_fract_z
 _atom_site_occupancy
  Nd  Nd0  1  0.182897  0.182897  0.500000  1
  Nd  Nd1  1  0.817103  0.000000  0.500000  1
  Nd  Nd2  1  0.000000  0.817103  0.500000  1
  Er  Er3  1  0.333333  0.666667  0.000000  1
  Er  Er4  1  0.666667  0.333333  0.000000  1
  P  P5  1  0.811130  0.811130  0.000000  1
  P  P6  1  0.188870  0.000000  0.000000  1
  P  P7  1  0.000000  0.188870  0.000000  1
  P  P8  1  0.182626  0.482025  0.500000  1
  P  P9  1  0.517975  0.700602  0.500000  1
  P  P10  1  0.299398  0.817374  0.500000  1
  P  P11  1  0.700602  0.517975  0.500000  1
  P  P12  1  0.817374  0.299398  0.500000  1
  P  P13  1  0.482025  0.182626  0.500000  1
  P  P14  1  0.367376  0.367376  0.000000  1
  P  P15  1  0.632624  0.000000  0.000000  1
  P  P16  1  0.000000  0.632624  0.000000  1
  Ru  Ru17  1  0.707547  0.707547  0.500000  1
  Ru  Ru18  1  0.292453  0.000000  0.500000  1
  Ru  Ru19  1  0.000000  0.292453  0.500000  1
  Ru  Ru20  1  0.186028  0.382812  0.000000  1
  Ru  Ru21  1  0.617188  0.803217  0.000000  1
  Ru  Ru22  1  0.196783  0.813972  0.000000  1
  Ru  Ru23  1  0.803217  0.617188  0.000000  1
  Ru  Ru24  1  0.813972  0.196783  0.000000  1
  Ru  Ru25  1  0.382812  0.186028  0.000000  1
  Ru  Ru26  1  0.370730  0.495736  0.500000  1
  Ru  Ru27  1  0.504264  0.874994  0.500000  1
  Ru  Ru28  1  0.125006  0.629270  0.500000  1
  Ru  Ru29  1  0.874994  0.504264  0.500000  1
  Ru  Ru30  1  0.629270  0.125006  0.500000  1
  Ru  Ru31  1  0.495736  0.370730  0.500000  1
  Ru  Ru32  1  0.000000  0.000000  0.000000  1
  Pt  Pt33  1  0.551258  0.551258  0.000000  1
  Pt  Pt34  1  0.448742  0.000000  0.000000  1
  Pt  Pt35  1  0.000000  0.448742  0.000000  1
