# generated using pymatgen
data_Dy2Re7Si4Os
_symmetry_space_group_name_H-M   'P 1'
_cell_length_a   7.27308082
_cell_length_b   7.58214382
_cell_length_c   4.10507800
_cell_angle_alpha   90.00000000
_cell_angle_beta   90.00000000
_cell_angle_gamma   89.57486936
_symmetry_Int_Tables_number   1
_chemical_formula_structural   Dy2Re7Si4Os
_chemical_formula_sum   'Dy2 Re7 Si4 Os1'
_cell_volume   226.37053123
_cell_formula_units_Z   1
loop_
 _symmetry_equiv_pos_site_id
 _symmetry_equiv_pos_as_xyz
  1  'x, y, z'
loop_
 _atom_site_type_symbol
 _atom_site_label
 _atom_site_symmetry_multiplicity
 _atom_site_fract_x
 _atom_site_fract_y
 _atom_site_fract_z
 _atom_site_occupancy
  Dy  Dy0  1  0.498834  0.500534  0.000000  1
  Dy  Dy1  1  0.998034  0.999290  0.500000  1
  Re  Re2  1  0.417336  0.843233  0.500000  1
  Re  Re3  1  0.079822  0.337026  0.000000  1
  Re  Re4  1  0.918623  0.659816  0.000000  1
  Re  Re5  1  0.157735  0.601510  0.500000  1
  Re  Re6  1  0.849627  0.401244  0.500000  1
  Re  Re7  1  0.343577  0.098688  0.000000  1
  Re  Re8  1  0.655977  0.898646  0.000000  1
  Si  Si9  1  0.717450  0.699193  0.500000  1
  Si  Si10  1  0.282632  0.298183  0.500000  1
  Si  Si11  1  0.216630  0.801426  0.000000  1
  Si  Si12  1  0.777972  0.198020  0.000000  1
  Os  Os13  1  0.585752  0.163191  0.500000  1
