# generated using pymatgen
data_Ho7ErCd2IrRu
_symmetry_space_group_name_H-M   'P 1'
_cell_length_a   9.59013945
_cell_length_b   9.59013987
_cell_length_c   9.62940500
_cell_angle_alpha   59.86446475
_cell_angle_beta   59.86446331
_cell_angle_gamma   59.71885381
_symmetry_Int_Tables_number   1
_chemical_formula_structural   Ho7ErCd2IrRu
_chemical_formula_sum   'Ho14 Er2 Cd4 Ir2 Ru2'
_cell_volume   623.61143721
_cell_formula_units_Z   2
loop_
 _symmetry_equiv_pos_site_id
 _symmetry_equiv_pos_as_xyz
  1  'x, y, z'
loop_
 _atom_site_type_symbol
 _atom_site_label
 _atom_site_symmetry_multiplicity
 _atom_site_fract_x
 _atom_site_fract_y
 _atom_site_fract_z
 _atom_site_occupancy
  Ho  Ho0  1  0.597065  0.208815  0.597061  1
  Ho  Ho1  1  0.208815  0.597065  0.597061  1
  Ho  Ho2  1  0.061679  0.438085  0.440141  1
  Ho  Ho3  1  0.438085  0.061679  0.060095  1
  Ho  Ho4  1  0.438085  0.061679  0.440141  1
  Ho  Ho5  1  0.061679  0.438085  0.060095  1
  Ho  Ho6  1  0.438276  0.438276  0.061724  1
  Ho  Ho7  1  0.059592  0.059592  0.440408  1
  Ho  Ho8  1  0.188049  0.810321  0.813174  1
  Ho  Ho9  1  0.810321  0.188049  0.188458  1
  Ho  Ho10  1  0.810321  0.188049  0.813174  1
  Ho  Ho11  1  0.188049  0.810321  0.188458  1
  Ho  Ho12  1  0.811598  0.811598  0.188402  1
  Ho  Ho13  1  0.188404  0.188404  0.811596  1
  Er  Er14  1  0.598103  0.598103  0.597922  1
  Er  Er15  1  0.598103  0.598103  0.205874  1
  Cd  Cd16  1  0.830318  0.830318  0.830662  1
  Cd  Cd17  1  0.830318  0.830318  0.508702  1
  Cd  Cd18  1  0.830447  0.507789  0.830881  1
  Cd  Cd19  1  0.507789  0.830447  0.830881  1
  Ir  Ir20  1  0.394390  0.826529  0.389541  1
  Ir  Ir21  1  0.826529  0.394390  0.389541  1
  Ru  Ru22  1  0.391994  0.391994  0.387530  1
  Ru  Ru23  1  0.391994  0.391994  0.828481  1
