# generated using pymatgen
data_Th2Si3Ge(IrAu)2
_symmetry_space_group_name_H-M   'P 1'
_cell_length_a   4.30202300
_cell_length_b   4.30202300
_cell_length_c   10.20413600
_cell_angle_alpha   90.00000000
_cell_angle_beta   90.00000000
_cell_angle_gamma   90.00000000
_symmetry_Int_Tables_number   1
_chemical_formula_structural   Th2Si3Ge(IrAu)2
_chemical_formula_sum   'Th2 Si3 Ge1 Ir2 Au2'
_cell_volume   188.85204592
_cell_formula_units_Z   1
loop_
 _symmetry_equiv_pos_site_id
 _symmetry_equiv_pos_as_xyz
  1  'x, y, z'
loop_
 _atom_site_type_symbol
 _atom_site_label
 _atom_site_symmetry_multiplicity
 _atom_site_fract_x
 _atom_site_fract_y
 _atom_site_fract_z
 _atom_site_occupancy
  Th  Th0  1  0.000000  0.500000  0.262850  1
  Th  Th1  1  0.500000  0.000000  0.734654  1
  Si  Si2  1  0.000000  0.000000  0.497603  1
  Si  Si3  1  0.500000  0.500000  0.497603  1
  Si  Si4  1  0.500000  0.000000  0.148999  1
  Ge  Ge5  1  0.000000  0.500000  0.850218  1
  Ir  Ir6  1  0.000000  0.500000  0.610364  1
  Ir  Ir7  1  0.500000  0.000000  0.381219  1
  Au  Au8  1  0.000000  0.000000  0.008244  1
  Au  Au9  1  0.500000  0.500000  0.008244  1
