# generated using pymatgen
data_Tb5CeNbO12
_symmetry_space_group_name_H-M   'P 1'
_cell_length_a   6.50689084
_cell_length_b   6.55052236
_cell_length_c   6.56392900
_cell_angle_alpha   98.95330240
_cell_angle_beta   99.00535816
_cell_angle_gamma   98.63252370
_symmetry_Int_Tables_number   1
_chemical_formula_structural   Tb5CeNbO12
_chemical_formula_sum   'Tb5 Ce1 Nb1 O12'
_cell_volume   268.56299696
_cell_formula_units_Z   1
loop_
 _symmetry_equiv_pos_site_id
 _symmetry_equiv_pos_as_xyz
  1  'x, y, z'
loop_
 _atom_site_type_symbol
 _atom_site_label
 _atom_site_symmetry_multiplicity
 _atom_site_fract_x
 _atom_site_fract_y
 _atom_site_fract_z
 _atom_site_occupancy
  Tb  Tb0  1  0.392592  0.858188  0.692265  1
  Tb  Tb1  1  0.694932  0.389243  0.865548  1
  Tb  Tb2  1  0.309273  0.612789  0.142552  1
  Tb  Tb3  1  0.611120  0.138442  0.301064  1
  Tb  Tb4  1  0.856169  0.694168  0.385312  1
  Ce  Ce5  1  0.141247  0.308859  0.605269  1
  Nb  Nb6  1  0.001299  0.996963  0.994795  1
  O  O7  1  0.072666  0.302507  0.960164  1
  O  O8  1  0.041918  0.925490  0.696894  1
  O  O9  1  0.408148  0.564348  0.821765  1
  O  O10  1  0.176980  0.585410  0.434804  1
  O  O11  1  0.695420  0.043049  0.927450  1
  O  O12  1  0.429202  0.182609  0.588363  1
  O  O13  1  0.564419  0.825690  0.414254  1
  O  O14  1  0.303281  0.958631  0.073986  1
  O  O15  1  0.828849  0.408305  0.568993  1
  O  O16  1  0.590278  0.435938  0.180007  1
  O  O17  1  0.956699  0.071678  0.304792  1
  O  O18  1  0.925508  0.697693  0.041725  1
