# generated using pymatgen
data_Tb2Y3Sn4
_symmetry_space_group_name_H-M   'P 1'
_cell_length_a   8.05872400
_cell_length_b   8.20058500
_cell_length_c   15.52363000
_cell_angle_alpha   90.00000000
_cell_angle_beta   90.00000000
_cell_angle_gamma   90.00000000
_symmetry_Int_Tables_number   1
_chemical_formula_structural   Tb2Y3Sn4
_chemical_formula_sum   'Tb8 Y12 Sn16'
_cell_volume   1025.89851099
_cell_formula_units_Z   4
loop_
 _symmetry_equiv_pos_site_id
 _symmetry_equiv_pos_as_xyz
  1  'x, y, z'
loop_
 _atom_site_type_symbol
 _atom_site_label
 _atom_site_symmetry_multiplicity
 _atom_site_fract_x
 _atom_site_fract_y
 _atom_site_fract_z
 _atom_site_occupancy
  Tb  Tb0  1  0.520350  0.319494  0.902262  1
  Tb  Tb1  1  0.020350  0.180506  0.597738  1
  Tb  Tb2  1  0.479650  0.680506  0.402262  1
  Tb  Tb3  1  0.979650  0.819494  0.097738  1
  Tb  Tb4  1  0.479650  0.680506  0.097738  1
  Tb  Tb5  1  0.979650  0.819494  0.402262  1
  Tb  Tb6  1  0.520350  0.319494  0.597738  1
  Tb  Tb7  1  0.020350  0.180506  0.902262  1
  Y  Y8  1  0.367674  0.835500  0.878555  1
  Y  Y9  1  0.867674  0.664500  0.621445  1
  Y  Y10  1  0.632326  0.164500  0.378555  1
  Y  Y11  1  0.132326  0.335500  0.121445  1
  Y  Y12  1  0.632326  0.164500  0.121445  1
  Y  Y13  1  0.132326  0.335500  0.378555  1
  Y  Y14  1  0.367674  0.835500  0.621445  1
  Y  Y15  1  0.867674  0.664500  0.878555  1
  Y  Y16  1  0.198024  0.502226  0.750000  1
  Y  Y17  1  0.698024  0.997774  0.750000  1
  Y  Y18  1  0.801976  0.497774  0.250000  1
  Y  Y19  1  0.301976  0.002226  0.250000  1
  Sn  Sn20  1  0.291846  0.033507  0.042122  1
  Sn  Sn21  1  0.791846  0.466493  0.457878  1
  Sn  Sn22  1  0.708154  0.966493  0.542122  1
  Sn  Sn23  1  0.208154  0.533507  0.957878  1
  Sn  Sn24  1  0.708154  0.966493  0.957878  1
  Sn  Sn25  1  0.208154  0.533507  0.542122  1
  Sn  Sn26  1  0.291846  0.033507  0.457878  1
  Sn  Sn27  1  0.791846  0.466493  0.042122  1
  Sn  Sn28  1  0.565253  0.619072  0.750000  1
  Sn  Sn29  1  0.065253  0.880928  0.750000  1
  Sn  Sn30  1  0.434747  0.380928  0.250000  1
  Sn  Sn31  1  0.934747  0.119072  0.250000  1
  Sn  Sn32  1  0.327729  0.145005  0.750000  1
  Sn  Sn33  1  0.827729  0.354995  0.750000  1
  Sn  Sn34  1  0.672271  0.854995  0.250000  1
  Sn  Sn35  1  0.172271  0.645005  0.250000  1
