# generated using pymatgen
data_HoTm5Bi2Ru
_symmetry_space_group_name_H-M   'P 1'
_cell_length_a   8.25502700
_cell_length_b   8.23495826
_cell_length_c   4.18440100
_cell_angle_alpha   90.00000000
_cell_angle_beta   90.00000000
_cell_angle_gamma   120.08065271
_symmetry_Int_Tables_number   1
_chemical_formula_structural   HoTm5Bi2Ru
_chemical_formula_sum   'Ho1 Tm5 Bi2 Ru1'
_cell_volume   246.14459280
_cell_formula_units_Z   1
loop_
 _symmetry_equiv_pos_site_id
 _symmetry_equiv_pos_as_xyz
  1  'x, y, z'
loop_
 _atom_site_type_symbol
 _atom_site_label
 _atom_site_symmetry_multiplicity
 _atom_site_fract_x
 _atom_site_fract_y
 _atom_site_fract_z
 _atom_site_occupancy
  Ho  Ho0  1  0.612940  0.000000  0.500001  1
  Tm  Tm1  1  0.233052  0.000000  0.000000  1
  Tm  Tm2  1  0.000696  0.233389  0.000000  1
  Tm  Tm3  1  0.767307  0.766611  0.000000  1
  Tm  Tm4  1  0.385762  0.385875  0.500001  1
  Tm  Tm5  1  0.999887  0.614125  0.500001  1
  Bi  Bi6  1  0.666479  0.334165  0.000000  1
  Bi  Bi7  1  0.332314  0.665835  0.000000  1
  Ru  Ru8  1  0.001563  0.000000  0.500001  1
