# generated using pymatgen
data_Pr5Bi2Pb
_symmetry_space_group_name_H-M   'P 1'
_cell_length_a   9.58287973
_cell_length_b   9.58287980
_cell_length_c   6.67476900
_cell_angle_alpha   89.99894408
_cell_angle_beta   89.99894864
_cell_angle_gamma   120.12528211
_symmetry_Int_Tables_number   1
_chemical_formula_structural   Pr5Bi2Pb
_chemical_formula_sum   'Pr10 Bi4 Pb2'
_cell_volume   530.16285965
_cell_formula_units_Z   2
loop_
 _symmetry_equiv_pos_site_id
 _symmetry_equiv_pos_as_xyz
  1  'x, y, z'
loop_
 _atom_site_type_symbol
 _atom_site_label
 _atom_site_symmetry_multiplicity
 _atom_site_fract_x
 _atom_site_fract_y
 _atom_site_fract_z
 _atom_site_occupancy
  Pr  Pr0  1  0.667734  0.333394  0.000596  1
  Pr  Pr1  1  0.333393  0.667734  0.000596  1
  Pr  Pr2  1  0.244970  0.997451  0.250022  1
  Pr  Pr3  1  0.997451  0.244970  0.250022  1
  Pr  Pr4  1  0.754754  0.754753  0.249997  1
  Pr  Pr5  1  0.667731  0.333409  0.499444  1
  Pr  Pr6  1  0.333409  0.667731  0.499444  1
  Pr  Pr7  1  0.754168  0.000410  0.749977  1
  Pr  Pr8  1  0.000410  0.754167  0.749977  1
  Pr  Pr9  1  0.246386  0.246386  0.750013  1
  Bi  Bi10  1  0.388102  0.388102  0.249986  1
  Bi  Bi11  1  0.388398  0.000237  0.749995  1
  Bi  Bi12  1  0.000237  0.388398  0.749995  1
  Bi  Bi13  1  0.612056  0.612056  0.750010  1
  Pb  Pb14  1  0.610913  0.999890  0.249962  1
  Pb  Pb15  1  0.999890  0.610913  0.249962  1
