# generated using pymatgen
data_Hf3Sc15(Re4P)2
_symmetry_space_group_name_H-M   'P 1'
_cell_length_a   8.62734100
_cell_length_b   8.62734121
_cell_length_c   8.56192600
_cell_angle_alpha   90.00000000
_cell_angle_beta   90.00000000
_cell_angle_gamma   119.99999537
_symmetry_Int_Tables_number   1
_chemical_formula_structural   Hf3Sc15(Re4P)2
_chemical_formula_sum   'Hf3 Sc15 Re8 P2'
_cell_volume   551.89449287
_cell_formula_units_Z   1
loop_
 _symmetry_equiv_pos_site_id
 _symmetry_equiv_pos_as_xyz
  1  'x, y, z'
loop_
 _atom_site_type_symbol
 _atom_site_label
 _atom_site_symmetry_multiplicity
 _atom_site_fract_x
 _atom_site_fract_y
 _atom_site_fract_z
 _atom_site_occupancy
  Hf  Hf0  1  0.195866  0.804134  0.452522  1
  Hf  Hf1  1  0.195866  0.391734  0.452522  1
  Hf  Hf2  1  0.608266  0.804134  0.452522  1
  Sc  Sc3  1  0.803053  0.196947  0.549683  1
  Sc  Sc4  1  0.803053  0.606104  0.549683  1
  Sc  Sc5  1  0.393896  0.196947  0.549683  1
  Sc  Sc6  1  0.803488  0.196512  0.949792  1
  Sc  Sc7  1  0.803488  0.606974  0.949792  1
  Sc  Sc8  1  0.393026  0.196512  0.949792  1
  Sc  Sc9  1  0.197446  0.802554  0.048901  1
  Sc  Sc10  1  0.197446  0.394894  0.048901  1
  Sc  Sc11  1  0.605106  0.802554  0.048901  1
  Sc  Sc12  1  0.537584  0.462416  0.250219  1
  Sc  Sc13  1  0.537584  0.075168  0.250219  1
  Sc  Sc14  1  0.924832  0.462416  0.250219  1
  Sc  Sc15  1  0.460755  0.539245  0.747131  1
  Sc  Sc16  1  0.460755  0.921511  0.747131  1
  Sc  Sc17  1  0.078489  0.539245  0.747131  1
  Re  Re18  1  0.891461  0.108539  0.251548  1
  Re  Re19  1  0.891461  0.782921  0.251548  1
  Re  Re20  1  0.217079  0.108539  0.251548  1
  Re  Re21  1  0.107991  0.892009  0.748262  1
  Re  Re22  1  0.107991  0.215981  0.748262  1
  Re  Re23  1  0.784019  0.892009  0.748262  1
  Re  Re24  1  0.000000  0.000000  0.499712  1
  Re  Re25  1  0.000000  0.000000  0.003407  1
  P  P26  1  0.333333  0.666667  0.252913  1
  P  P27  1  0.666667  0.333333  0.749792  1
