# generated using pymatgen
data_Tb3Tm7(In2Bi)2
_symmetry_space_group_name_H-M   'P 1'
_cell_length_a   6.55417000
_cell_length_b   8.97204448
_cell_length_c   8.98450922
_cell_angle_alpha   119.92000555
_cell_angle_beta   90.00000431
_cell_angle_gamma   89.99959787
_symmetry_Int_Tables_number   1
_chemical_formula_structural   Tb3Tm7(In2Bi)2
_chemical_formula_sum   'Tb3 Tm7 In4 Bi2'
_cell_volume   457.91368290
_cell_formula_units_Z   1
loop_
 _symmetry_equiv_pos_site_id
 _symmetry_equiv_pos_as_xyz
  1  'x, y, z'
loop_
 _atom_site_type_symbol
 _atom_site_label
 _atom_site_symmetry_multiplicity
 _atom_site_fract_x
 _atom_site_fract_y
 _atom_site_fract_z
 _atom_site_occupancy
  Tb  Tb0  1  0.749998  0.228843  0.991204  1
  Tb  Tb1  1  0.749996  0.770714  0.761665  1
  Tb  Tb2  1  0.249999  0.764845  0.000759  1
  Tm  Tm3  1  0.492944  0.328431  0.666978  1
  Tm  Tm4  1  0.492923  0.670983  0.338438  1
  Tm  Tm5  1  0.007073  0.670977  0.338432  1
  Tm  Tm6  1  0.007051  0.328432  0.666981  1
  Tm  Tm7  1  0.749998  0.000193  0.240102  1
  Tm  Tm8  1  0.249998  0.235539  0.235940  1
  Tm  Tm9  1  0.249998  0.000285  0.762492  1
  In  In10  1  0.749999  0.000141  0.595084  1
  In  In11  1  0.250029  0.397158  0.003028  1
  In  In12  1  0.249999  0.602450  0.604633  1
  In  In13  1  0.249996  0.000836  0.398443  1
  Bi  Bi14  1  0.749999  0.604228  0.000003  1
  Bi  Bi15  1  0.749997  0.395945  0.395819  1
