# generated using pymatgen
data_Ac4BiTe3
_symmetry_space_group_name_H-M   'P 1'
_cell_length_a   8.26991559
_cell_length_b   8.26991564
_cell_length_c   8.26991407
_cell_angle_alpha   131.75624122
_cell_angle_beta   131.75624209
_cell_angle_gamma   70.61428586
_symmetry_Int_Tables_number   1
_chemical_formula_structural   Ac4BiTe3
_chemical_formula_sum   'Ac4 Bi1 Te3'
_cell_volume   308.35631606
_cell_formula_units_Z   1
loop_
 _symmetry_equiv_pos_site_id
 _symmetry_equiv_pos_as_xyz
  1  'x, y, z'
loop_
 _atom_site_type_symbol
 _atom_site_label
 _atom_site_symmetry_multiplicity
 _atom_site_fract_x
 _atom_site_fract_y
 _atom_site_fract_z
 _atom_site_occupancy
  Ac  Ac0  1  0.252178  0.252178  0.000000  1
  Ac  Ac1  1  0.747822  0.747822  0.000000  1
  Ac  Ac2  1  0.500000  0.000000  0.500000  1
  Ac  Ac3  1  0.000000  0.500000  0.500000  1
  Bi  Bi4  1  0.500000  0.500000  0.000000  1
  Te  Te5  1  0.000000  0.000000  0.000000  1
  Te  Te6  1  0.750001  0.250000  0.500000  1
  Te  Te7  1  0.250000  0.750001  0.500000  1
