# generated using pymatgen
data_Yb3(TmGe2)2
_symmetry_space_group_name_H-M   'P 1'
_cell_length_a   7.33726800
_cell_length_b   7.89196600
_cell_length_c   15.10604900
_cell_angle_alpha   90.00000000
_cell_angle_beta   90.00000000
_cell_angle_gamma   90.00000000
_symmetry_Int_Tables_number   1
_chemical_formula_structural   Yb3(TmGe2)2
_chemical_formula_sum   'Yb12 Tm8 Ge16'
_cell_volume   874.72286098
_cell_formula_units_Z   4
loop_
 _symmetry_equiv_pos_site_id
 _symmetry_equiv_pos_as_xyz
  1  'x, y, z'
loop_
 _atom_site_type_symbol
 _atom_site_label
 _atom_site_symmetry_multiplicity
 _atom_site_fract_x
 _atom_site_fract_y
 _atom_site_fract_z
 _atom_site_occupancy
  Yb  Yb0  1  0.981229  0.813055  0.405598  1
  Yb  Yb1  1  0.481229  0.686945  0.094402  1
  Yb  Yb2  1  0.518771  0.313055  0.594402  1
  Yb  Yb3  1  0.018771  0.186945  0.905598  1
  Yb  Yb4  1  0.018771  0.186945  0.594402  1
  Yb  Yb5  1  0.518771  0.313055  0.905598  1
  Yb  Yb6  1  0.481229  0.686945  0.405598  1
  Yb  Yb7  1  0.981229  0.813055  0.094402  1
  Yb  Yb8  1  0.342390  0.021093  0.750000  1
  Yb  Yb9  1  0.842390  0.478907  0.750000  1
  Yb  Yb10  1  0.157610  0.521093  0.250000  1
  Yb  Yb11  1  0.657610  0.978907  0.250000  1
  Tm  Tm12  1  0.317999  0.171501  0.121485  1
  Tm  Tm13  1  0.817999  0.328499  0.378515  1
  Tm  Tm14  1  0.182001  0.671501  0.878515  1
  Tm  Tm15  1  0.682001  0.828499  0.621485  1
  Tm  Tm16  1  0.317999  0.171501  0.378515  1
  Tm  Tm17  1  0.817999  0.328499  0.121485  1
  Tm  Tm18  1  0.182001  0.671501  0.621485  1
  Tm  Tm19  1  0.682001  0.828499  0.878515  1
  Ge  Ge20  1  0.843866  0.534306  0.540094  1
  Ge  Ge21  1  0.343866  0.965694  0.959906  1
  Ge  Ge22  1  0.656134  0.034306  0.459906  1
  Ge  Ge23  1  0.156134  0.465694  0.040094  1
  Ge  Ge24  1  0.156134  0.465694  0.459906  1
  Ge  Ge25  1  0.656134  0.034306  0.040094  1
  Ge  Ge26  1  0.343866  0.965694  0.540094  1
  Ge  Ge27  1  0.843866  0.534306  0.959906  1
  Ge  Ge28  1  0.977235  0.874380  0.750000  1
  Ge  Ge29  1  0.477235  0.625620  0.750000  1
  Ge  Ge30  1  0.522765  0.374380  0.250000  1
  Ge  Ge31  1  0.022765  0.125620  0.250000  1
  Ge  Ge32  1  0.237031  0.386772  0.750000  1
  Ge  Ge33  1  0.737031  0.113228  0.750000  1
  Ge  Ge34  1  0.262969  0.886772  0.250000  1
  Ge  Ge35  1  0.762969  0.613228  0.250000  1
