# generated using pymatgen
data_TbHo4(In2Au)2
_symmetry_space_group_name_H-M   'P 1'
_cell_length_a   3.66804100
_cell_length_b   8.21626500
_cell_length_c   18.45696300
_cell_angle_alpha   90.00000000
_cell_angle_beta   90.00000000
_cell_angle_gamma   90.00000000
_symmetry_Int_Tables_number   1
_chemical_formula_structural   TbHo4(In2Au)2
_chemical_formula_sum   'Tb2 Ho8 In8 Au4'
_cell_volume   556.24851065
_cell_formula_units_Z   2
loop_
 _symmetry_equiv_pos_site_id
 _symmetry_equiv_pos_as_xyz
  1  'x, y, z'
loop_
 _atom_site_type_symbol
 _atom_site_label
 _atom_site_symmetry_multiplicity
 _atom_site_fract_x
 _atom_site_fract_y
 _atom_site_fract_z
 _atom_site_occupancy
  Tb  Tb0  1  0.000000  0.500000  0.500000  1
  Tb  Tb1  1  0.000000  0.000000  0.000000  1
  Ho  Ho2  1  0.000000  0.737594  0.281178  1
  Ho  Ho3  1  0.000000  0.262406  0.718822  1
  Ho  Ho4  1  0.000000  0.762406  0.781178  1
  Ho  Ho5  1  0.000000  0.237594  0.218822  1
  Ho  Ho6  1  0.000000  0.618643  0.080321  1
  Ho  Ho7  1  0.000000  0.381357  0.919679  1
  Ho  Ho8  1  0.000000  0.881357  0.580321  1
  Ho  Ho9  1  0.000000  0.118643  0.419679  1
  In  In10  1  0.500000  0.710969  0.932510  1
  In  In11  1  0.500000  0.289031  0.067490  1
  In  In12  1  0.500000  0.789031  0.432510  1
  In  In13  1  0.500000  0.210969  0.567490  1
  In  In14  1  0.500000  0.580440  0.647543  1
  In  In15  1  0.500000  0.419560  0.352457  1
  In  In16  1  0.500000  0.919560  0.147543  1
  In  In17  1  0.500000  0.080440  0.852457  1
  Au  Au18  1  0.500000  0.525904  0.196579  1
  Au  Au19  1  0.500000  0.474096  0.803421  1
  Au  Au20  1  0.500000  0.974096  0.696579  1
  Au  Au21  1  0.500000  0.025904  0.303421  1
