# generated using pymatgen
data_TbHo2Cd3Hg2Au
_symmetry_space_group_name_H-M   'P 1'
_cell_length_a   8.11577102
_cell_length_b   8.12617891
_cell_length_c   3.77435800
_cell_angle_alpha   90.00000000
_cell_angle_beta   90.00000000
_cell_angle_gamma   119.96660398
_symmetry_Int_Tables_number   1
_chemical_formula_structural   TbHo2Cd3Hg2Au
_chemical_formula_sum   'Tb1 Ho2 Cd3 Hg2 Au1'
_cell_volume   215.64328484
_cell_formula_units_Z   1
loop_
 _symmetry_equiv_pos_site_id
 _symmetry_equiv_pos_as_xyz
  1  'x, y, z'
loop_
 _atom_site_type_symbol
 _atom_site_label
 _atom_site_symmetry_multiplicity
 _atom_site_fract_x
 _atom_site_fract_y
 _atom_site_fract_z
 _atom_site_occupancy
  Tb  Tb0  1  0.607152  0.014640  0.000000  1
  Ho  Ho1  1  0.985109  0.592340  0.000000  1
  Ho  Ho2  1  0.407711  0.392766  0.000000  1
  Cd  Cd3  1  0.275078  0.998894  0.500000  1
  Cd  Cd4  1  0.001588  0.276959  0.500000  1
  Cd  Cd5  1  0.723496  0.724243  0.500000  1
  Hg  Hg6  1  0.332716  0.665912  0.500000  1
  Hg  Hg7  1  0.000266  0.999951  0.000000  1
  Au  Au8  1  0.666881  0.334297  0.500000  1
