# generated using pymatgen
data_Dy7Y3NiAg3
_symmetry_space_group_name_H-M   'P 1'
_cell_length_a   9.51629000
_cell_length_b   9.51628960
_cell_length_c   9.59126300
_cell_angle_alpha   90.00000000
_cell_angle_beta   90.00000000
_cell_angle_gamma   119.99999445
_symmetry_Int_Tables_number   1
_chemical_formula_structural   Dy7Y3NiAg3
_chemical_formula_sum   'Dy14 Y6 Ni2 Ag6'
_cell_volume   752.21462664
_cell_formula_units_Z   2
loop_
 _symmetry_equiv_pos_site_id
 _symmetry_equiv_pos_as_xyz
  1  'x, y, z'
loop_
 _atom_site_type_symbol
 _atom_site_label
 _atom_site_symmetry_multiplicity
 _atom_site_fract_x
 _atom_site_fract_y
 _atom_site_fract_z
 _atom_site_occupancy
  Dy  Dy0  1  0.000000  0.000000  0.500000  1
  Dy  Dy1  1  0.000000  0.000000  0.000000  1
  Dy  Dy2  1  0.209986  0.790014  0.439134  1
  Dy  Dy3  1  0.209986  0.419974  0.439134  1
  Dy  Dy4  1  0.580026  0.790014  0.439134  1
  Dy  Dy5  1  0.790014  0.209986  0.560866  1
  Dy  Dy6  1  0.790014  0.580026  0.560866  1
  Dy  Dy7  1  0.419974  0.209986  0.560866  1
  Dy  Dy8  1  0.790014  0.209986  0.939134  1
  Dy  Dy9  1  0.790014  0.580026  0.939134  1
  Dy  Dy10  1  0.419974  0.209986  0.939134  1
  Dy  Dy11  1  0.209986  0.790014  0.060866  1
  Dy  Dy12  1  0.209986  0.419974  0.060866  1
  Dy  Dy13  1  0.580026  0.790014  0.060866  1
  Y  Y14  1  0.543747  0.456253  0.250000  1
  Y  Y15  1  0.543747  0.087494  0.250000  1
  Y  Y16  1  0.912506  0.456253  0.250000  1
  Y  Y17  1  0.456253  0.543747  0.750000  1
  Y  Y18  1  0.456253  0.912506  0.750000  1
  Y  Y19  1  0.087494  0.543747  0.750000  1
  Ni  Ni20  1  0.333333  0.666667  0.250000  1
  Ni  Ni21  1  0.666667  0.333333  0.750000  1
  Ag  Ag22  1  0.884214  0.115786  0.250000  1
  Ag  Ag23  1  0.884214  0.768430  0.250000  1
  Ag  Ag24  1  0.231570  0.115786  0.250000  1
  Ag  Ag25  1  0.115786  0.884214  0.750000  1
  Ag  Ag26  1  0.115786  0.231570  0.750000  1
  Ag  Ag27  1  0.768430  0.884214  0.750000  1
