# generated using pymatgen
data_Sr4PrU7N16
_symmetry_space_group_name_H-M   'P 1'
_cell_length_a   10.18778938
_cell_length_b   3.54026600
_cell_length_c   11.98291849
_cell_angle_alpha   90.00000000
_cell_angle_beta   89.32926716
_cell_angle_gamma   90.00000000
_symmetry_Int_Tables_number   1
_chemical_formula_structural   Sr4PrU7N16
_chemical_formula_sum   'Sr4 Pr1 U7 N16'
_cell_volume   432.16411117
_cell_formula_units_Z   1
loop_
 _symmetry_equiv_pos_site_id
 _symmetry_equiv_pos_as_xyz
  1  'x, y, z'
loop_
 _atom_site_type_symbol
 _atom_site_label
 _atom_site_symmetry_multiplicity
 _atom_site_fract_x
 _atom_site_fract_y
 _atom_site_fract_z
 _atom_site_occupancy
  Sr  Sr0  1  0.755759  0.500001  0.141997  1
  Sr  Sr1  1  0.251013  0.500001  0.352720  1
  Sr  Sr2  1  0.749041  0.000000  0.648405  1
  Sr  Sr3  1  0.253540  0.000000  0.849863  1
  Pr  Pr4  1  0.091444  0.500001  0.106883  1
  U  U5  1  0.425704  0.000000  0.115984  1
  U  U6  1  0.922467  0.000000  0.391005  1
  U  U7  1  0.578340  0.500001  0.386064  1
  U  U8  1  0.423232  0.000000  0.613559  1
  U  U9  1  0.075189  0.500001  0.613221  1
  U  U10  1  0.573385  0.500001  0.889003  1
  U  U11  1  0.925118  0.000000  0.885681  1
  N  N12  1  0.603949  0.000000  0.009317  1
  N  N13  1  0.919830  0.000000  0.055580  1
  N  N14  1  0.239499  0.000000  0.184085  1
  N  N15  1  0.493754  0.500001  0.215823  1
  N  N16  1  0.973332  0.500001  0.294220  1
  N  N17  1  0.708399  0.000000  0.341287  1
  N  N18  1  0.444995  0.000000  0.426181  1
  N  N19  1  0.113120  0.000000  0.496666  1
  N  N20  1  0.885953  0.500001  0.511046  1
  N  N21  1  0.557343  0.500001  0.574655  1
  N  N22  1  0.290358  0.500001  0.663673  1
  N  N23  1  0.006486  0.000000  0.710592  1
  N  N24  1  0.514575  0.000000  0.786086  1
  N  N25  1  0.786528  0.500001  0.839179  1
  N  N26  1  0.056025  0.500001  0.904214  1
  N  N27  1  0.381636  0.500001  0.993021  1
