# generated using pymatgen
data_Ta2B2MoWC2
_symmetry_space_group_name_H-M   'P 1'
_cell_length_a   8.93921420
_cell_length_b   8.93921485
_cell_length_c   3.13566600
_cell_angle_alpha   90.00000000
_cell_angle_beta   90.00000000
_cell_angle_gamma   159.61045934
_symmetry_Int_Tables_number   1
_chemical_formula_structural   Ta2B2MoWC2
_chemical_formula_sum   'Ta2 B2 Mo1 W1 C2'
_cell_volume   87.29871182
_cell_formula_units_Z   1
loop_
 _symmetry_equiv_pos_site_id
 _symmetry_equiv_pos_as_xyz
  1  'x, y, z'
loop_
 _atom_site_type_symbol
 _atom_site_label
 _atom_site_symmetry_multiplicity
 _atom_site_fract_x
 _atom_site_fract_y
 _atom_site_fract_z
 _atom_site_occupancy
  Ta  Ta0  1  0.316466  0.683535  0.250000  1
  Ta  Ta1  1  0.683089  0.316911  0.750000  1
  B  B2  1  0.529923  0.470077  0.750000  1
  B  B3  1  0.470073  0.529927  0.250000  1
  Mo  Mo4  1  0.931362  0.068638  0.750000  1
  W  W5  1  0.069047  0.930953  0.250000  1
  C  C6  1  0.809222  0.190778  0.750000  1
  C  C7  1  0.190820  0.809180  0.250000  1
