# generated using pymatgen
data_Y2Tm9Lu5(In3Pt)2
_symmetry_space_group_name_H-M   'P 1'
_cell_length_a   10.33147500
_cell_length_b   10.33147678
_cell_length_c   6.98378800
_cell_angle_alpha   90.00000000
_cell_angle_beta   90.00000000
_cell_angle_gamma   120.00000390
_symmetry_Int_Tables_number   1
_chemical_formula_structural   Y2Tm9Lu5(In3Pt)2
_chemical_formula_sum   'Y2 Tm9 Lu5 In6 Pt2'
_cell_volume   645.57454115
_cell_formula_units_Z   1
loop_
 _symmetry_equiv_pos_site_id
 _symmetry_equiv_pos_as_xyz
  1  'x, y, z'
loop_
 _atom_site_type_symbol
 _atom_site_label
 _atom_site_symmetry_multiplicity
 _atom_site_fract_x
 _atom_site_fract_y
 _atom_site_fract_z
 _atom_site_occupancy
  Y  Y0  1  0.000000  0.000000  0.499886  1
  Y  Y1  1  0.000000  0.000000  0.997943  1
  Tm  Tm2  1  0.467043  0.532957  0.477968  1
  Tm  Tm3  1  0.065914  0.532957  0.477968  1
  Tm  Tm4  1  0.467043  0.934086  0.477968  1
  Tm  Tm5  1  0.532721  0.467279  0.977317  1
  Tm  Tm6  1  0.934558  0.467279  0.977317  1
  Tm  Tm7  1  0.532721  0.065442  0.977317  1
  Tm  Tm8  1  0.823906  0.176094  0.276527  1
  Tm  Tm9  1  0.352188  0.176094  0.276527  1
  Tm  Tm10  1  0.823906  0.647812  0.276527  1
  Lu  Lu11  1  0.176461  0.823539  0.776474  1
  Lu  Lu12  1  0.647076  0.823539  0.776474  1
  Lu  Lu13  1  0.176461  0.352924  0.776474  1
  Lu  Lu14  1  0.333333  0.666667  0.100401  1
  Lu  Lu15  1  0.666667  0.333333  0.600390  1
  In  In16  1  0.163456  0.836544  0.233467  1
  In  In17  1  0.673087  0.836544  0.233467  1
  In  In18  1  0.163456  0.326913  0.233467  1
  In  In19  1  0.837111  0.162889  0.734672  1
  In  In20  1  0.325778  0.162889  0.734672  1
  In  In21  1  0.837111  0.674222  0.734672  1
  Pt  Pt22  1  0.333333  0.666667  0.708762  1
  Pt  Pt23  1  0.666667  0.333333  0.207895  1
