# generated using pymatgen
data_DyEr9In8(CoNi)2
_symmetry_space_group_name_H-M   'P 1'
_cell_length_a   3.55264900
_cell_length_b   7.97284377
_cell_length_c   17.82108854
_cell_angle_alpha   90.22310313
_cell_angle_beta   90.00000000
_cell_angle_gamma   90.00000000
_symmetry_Int_Tables_number   1
_chemical_formula_structural   DyEr9In8(CoNi)2
_chemical_formula_sum   'Dy1 Er9 In8 Co2 Ni2'
_cell_volume   504.77343524
_cell_formula_units_Z   1
loop_
 _symmetry_equiv_pos_site_id
 _symmetry_equiv_pos_as_xyz
  1  'x, y, z'
loop_
 _atom_site_type_symbol
 _atom_site_label
 _atom_site_symmetry_multiplicity
 _atom_site_fract_x
 _atom_site_fract_y
 _atom_site_fract_z
 _atom_site_occupancy
  Dy  Dy0  1  0.500000  0.616552  0.410183  1
  Er  Er1  1  0.500000  0.383845  0.590077  1
  Er  Er2  1  0.500000  0.883593  0.909879  1
  Er  Er3  1  0.500000  0.115776  0.089939  1
  Er  Er4  1  0.500000  0.760818  0.722602  1
  Er  Er5  1  0.500000  0.246757  0.779053  1
  Er  Er6  1  0.500000  0.498759  0.999709  1
  Er  Er7  1  0.500000  0.739891  0.222077  1
  Er  Er8  1  0.500000  0.253497  0.278372  1
  Er  Er9  1  0.500000  0.000586  0.500194  1
  In  In10  1  0.000000  0.794772  0.067462  1
  In  In11  1  0.000000  0.930206  0.347853  1
  In  In12  1  0.000000  0.069354  0.651966  1
  In  In13  1  0.000000  0.571446  0.847781  1
  In  In14  1  0.000000  0.705489  0.568556  1
  In  In15  1  0.000000  0.202839  0.931499  1
  In  In16  1  0.000000  0.294899  0.431151  1
  In  In17  1  0.000000  0.429973  0.150967  1
  Co  Co18  1  0.000000  0.980017  0.804699  1
  Co  Co19  1  0.000000  0.519818  0.303925  1
  Ni  Ni20  1  0.000000  0.481919  0.695980  1
  Ni  Ni21  1  0.000000  0.019194  0.196075  1
