# generated using pymatgen
data_TmCu2AgPt2
_symmetry_space_group_name_H-M   'P 1'
_cell_length_a   5.16922024
_cell_length_b   5.16922030
_cell_length_c   5.48368500
_cell_angle_alpha   57.96637006
_cell_angle_beta   57.96636962
_cell_angle_gamma   57.99956411
_symmetry_Int_Tables_number   1
_chemical_formula_structural   TmCu2AgPt2
_chemical_formula_sum   'Tm1 Cu2 Ag1 Pt2'
_cell_volume   98.80371487
_cell_formula_units_Z   1
loop_
 _symmetry_equiv_pos_site_id
 _symmetry_equiv_pos_as_xyz
  1  'x, y, z'
loop_
 _atom_site_type_symbol
 _atom_site_label
 _atom_site_symmetry_multiplicity
 _atom_site_fract_x
 _atom_site_fract_y
 _atom_site_fract_z
 _atom_site_occupancy
  Tm  Tm0  1  0.255369  0.255369  0.244631  1
  Cu  Cu1  1  0.620286  0.121164  0.629275  1
  Cu  Cu2  1  0.121164  0.620286  0.629275  1
  Ag  Ag3  1  0.006856  0.006856  0.993144  1
  Pt  Pt4  1  0.623162  0.623162  0.626728  1
  Pt  Pt5  1  0.623162  0.623162  0.126948  1
