# generated using pymatgen
data_Gd2Co9P7W3
_symmetry_space_group_name_H-M   'P 1'
_cell_length_a   9.08282000
_cell_length_b   9.08958922
_cell_length_c   3.72310700
_cell_angle_alpha   90.00000000
_cell_angle_beta   90.00000000
_cell_angle_gamma   120.03231052
_symmetry_Int_Tables_number   1
_chemical_formula_structural   Gd2Co9P7W3
_chemical_formula_sum   'Gd2 Co9 P7 W3'
_cell_volume   266.10903696
_cell_formula_units_Z   1
loop_
 _symmetry_equiv_pos_site_id
 _symmetry_equiv_pos_as_xyz
  1  'x, y, z'
loop_
 _atom_site_type_symbol
 _atom_site_label
 _atom_site_symmetry_multiplicity
 _atom_site_fract_x
 _atom_site_fract_y
 _atom_site_fract_z
 _atom_site_occupancy
  Gd  Gd0  1  0.333065  0.666555  0.000000  1
  Gd  Gd1  1  0.666855  0.333393  0.500000  1
  Co  Co2  1  0.435694  0.385034  0.000000  1
  Co  Co3  1  0.615163  0.050864  0.000000  1
  Co  Co4  1  0.949177  0.564261  0.000000  1
  Co  Co5  1  0.368581  0.937613  0.500000  1
  Co  Co6  1  0.062183  0.430875  0.500000  1
  Co  Co7  1  0.568957  0.631534  0.500000  1
  Co  Co8  1  0.279001  0.158458  0.500000  1
  Co  Co9  1  0.841702  0.120314  0.500000  1
  Co  Co10  1  0.879488  0.721149  0.500000  1
  P  P11  1  0.000085  0.999933  0.500000  1
  P  P12  1  0.303429  0.413526  0.500000  1
  P  P13  1  0.586417  0.889966  0.500000  1
  P  P14  1  0.109909  0.696443  0.500000  1
  P  P15  1  0.410777  0.118821  0.000000  1
  P  P16  1  0.881477  0.292000  0.000000  1
  P  P17  1  0.707953  0.589363  0.000000  1
  W  W18  1  0.122672  0.902653  0.000000  1
  W  W19  1  0.097398  0.219881  0.000000  1
  W  W20  1  0.780018  0.877361  0.000000  1
