# generated using pymatgen
data_GaReTc5As13
_symmetry_space_group_name_H-M   'P 1'
_cell_length_a   7.62626306
_cell_length_b   7.62626388
_cell_length_c   7.62626305
_cell_angle_alpha   110.11774517
_cell_angle_beta   108.20742973
_cell_angle_gamma   110.09583373
_symmetry_Int_Tables_number   1
_chemical_formula_structural   GaReTc5As13
_chemical_formula_sum   'Ga1 Re1 Tc5 As13'
_cell_volume   341.31501789
_cell_formula_units_Z   1
loop_
 _symmetry_equiv_pos_site_id
 _symmetry_equiv_pos_as_xyz
  1  'x, y, z'
loop_
 _atom_site_type_symbol
 _atom_site_label
 _atom_site_symmetry_multiplicity
 _atom_site_fract_x
 _atom_site_fract_y
 _atom_site_fract_z
 _atom_site_occupancy
  Ga  Ga0  1  0.749832  0.500000  0.249832  1
  Re  Re1  1  0.658309  0.000000  0.658309  1
  Tc  Tc2  1  0.342223  0.000000  0.342223  1
  Tc  Tc3  1  0.005898  0.336927  0.342826  1
  Tc  Tc4  1  0.005898  0.663073  0.668971  1
  Tc  Tc5  1  0.330722  0.337106  0.993615  1
  Tc  Tc6  1  0.656509  0.662894  0.993615  1
  As  As7  1  0.500412  0.747403  0.247816  1
  As  As8  1  0.500412  0.252597  0.753010  1
  As  As9  1  0.752110  0.252432  0.499678  1
  As  As10  1  0.247247  0.747568  0.499678  1
  As  As11  1  0.249327  0.500000  0.749327  1
  As  As12  1  0.997627  0.994155  0.327891  1
  As  As13  1  0.671742  0.005581  0.003025  1
  As  As14  1  0.997627  0.669737  0.003472  1
  As  As15  1  0.333736  0.330263  0.327891  1
  As  As16  1  0.997445  0.331284  0.003025  1
  As  As17  1  0.671742  0.668716  0.666161  1
  As  As18  1  0.333736  0.005845  0.003472  1
  As  As19  1  0.997445  0.994419  0.666161  1
