# generated using pymatgen
data_YTm2Cr(Co4P3)2
_symmetry_space_group_name_H-M   'P 1'
_cell_length_a   3.67806400
_cell_length_b   10.51237100
_cell_length_c   12.14279600
_cell_angle_alpha   90.00000000
_cell_angle_beta   90.00000000
_cell_angle_gamma   90.00000000
_symmetry_Int_Tables_number   1
_chemical_formula_structural   YTm2Cr(Co4P3)2
_chemical_formula_sum   'Y2 Tm4 Cr2 Co16 P12'
_cell_volume   469.50331205
_cell_formula_units_Z   2
loop_
 _symmetry_equiv_pos_site_id
 _symmetry_equiv_pos_as_xyz
  1  'x, y, z'
loop_
 _atom_site_type_symbol
 _atom_site_label
 _atom_site_symmetry_multiplicity
 _atom_site_fract_x
 _atom_site_fract_y
 _atom_site_fract_z
 _atom_site_occupancy
  Y  Y0  1  0.000000  0.500000  0.523273  1
  Y  Y1  1  0.500000  0.000000  0.476727  1
  Tm  Tm2  1  0.500000  0.818478  0.204111  1
  Tm  Tm3  1  0.500000  0.181522  0.204111  1
  Tm  Tm4  1  0.000000  0.681522  0.795889  1
  Tm  Tm5  1  0.000000  0.318478  0.795889  1
  Cr  Cr6  1  0.500000  0.500000  0.156535  1
  Cr  Cr7  1  0.000000  0.000000  0.843465  1
  Co  Co8  1  0.500000  0.500000  0.703222  1
  Co  Co9  1  0.000000  0.000000  0.296778  1
  Co  Co10  1  0.000000  0.500000  0.987294  1
  Co  Co11  1  0.500000  0.000000  0.012706  1
  Co  Co12  1  0.500000  0.332445  0.992277  1
  Co  Co13  1  0.500000  0.667555  0.992277  1
  Co  Co14  1  0.000000  0.167555  0.007723  1
  Co  Co15  1  0.000000  0.832445  0.007723  1
  Co  Co16  1  0.500000  0.295794  0.430404  1
  Co  Co17  1  0.500000  0.704206  0.430404  1
  Co  Co18  1  0.000000  0.204206  0.569596  1
  Co  Co19  1  0.000000  0.795794  0.569596  1
  Co  Co20  1  0.500000  0.878573  0.709060  1
  Co  Co21  1  0.500000  0.121427  0.709060  1
  Co  Co22  1  0.000000  0.621427  0.290940  1
  Co  Co23  1  0.000000  0.378573  0.290940  1
  P  P24  1  0.500000  0.500000  0.881667  1
  P  P25  1  0.000000  0.000000  0.118333  1
  P  P26  1  0.500000  0.500000  0.344142  1
  P  P27  1  0.000000  0.000000  0.655858  1
  P  P28  1  0.500000  0.311502  0.617351  1
  P  P29  1  0.500000  0.688498  0.617351  1
  P  P30  1  0.000000  0.188498  0.382649  1
  P  P31  1  0.000000  0.811502  0.382649  1
  P  P32  1  0.500000  0.847217  0.891441  1
  P  P33  1  0.500000  0.152783  0.891441  1
  P  P34  1  0.000000  0.652783  0.108559  1
  P  P35  1  0.000000  0.347217  0.108559  1
