# generated using pymatgen
data_Tb5Tm11(HgRh)4
_symmetry_space_group_name_H-M   'P 1'
_cell_length_a   9.53670972
_cell_length_b   9.53088910
_cell_length_c   9.53088891
_cell_angle_alpha   59.90968681
_cell_angle_beta   59.80142062
_cell_angle_gamma   59.80141474
_symmetry_Int_Tables_number   1
_chemical_formula_structural   Tb5Tm11(HgRh)4
_chemical_formula_sum   'Tb5 Tm11 Hg4 Rh4'
_cell_volume   610.30196972
_cell_formula_units_Z   1
loop_
 _symmetry_equiv_pos_site_id
 _symmetry_equiv_pos_as_xyz
  1  'x, y, z'
loop_
 _atom_site_type_symbol
 _atom_site_label
 _atom_site_symmetry_multiplicity
 _atom_site_fract_x
 _atom_site_fract_y
 _atom_site_fract_z
 _atom_site_occupancy
  Tb  Tb0  1  0.064047  0.063878  0.436068  1
  Tb  Tb1  1  0.437408  0.062146  0.436571  1
  Tb  Tb2  1  0.064047  0.436068  0.063878  1
  Tb  Tb3  1  0.055131  0.648096  0.648096  1
  Tb  Tb4  1  0.437408  0.436571  0.062146  1
  Tm  Tm5  1  0.648449  0.054146  0.647089  1
  Tm  Tm6  1  0.187641  0.813307  0.187277  1
  Tm  Tm7  1  0.187641  0.187277  0.813307  1
  Tm  Tm8  1  0.811212  0.812003  0.189305  1
  Tm  Tm9  1  0.440383  0.060186  0.060186  1
  Tm  Tm10  1  0.812589  0.187703  0.187703  1
  Tm  Tm11  1  0.060765  0.438796  0.438796  1
  Tm  Tm12  1  0.811212  0.189305  0.812003  1
  Tm  Tm13  1  0.188449  0.812995  0.812995  1
  Tm  Tm14  1  0.648449  0.647089  0.054146  1
  Tm  Tm15  1  0.648265  0.649592  0.649592  1
  Hg  Hg16  1  0.415688  0.416202  0.416202  1
  Hg  Hg17  1  0.753171  0.416242  0.416242  1
  Hg  Hg18  1  0.417306  0.753150  0.413904  1
  Hg  Hg19  1  0.417306  0.413904  0.753150  1
  Rh  Rh20  1  0.855325  0.856624  0.428140  1
  Rh  Rh21  1  0.853114  0.859474  0.859474  1
  Rh  Rh22  1  0.429669  0.857106  0.857106  1
  Rh  Rh23  1  0.855325  0.428140  0.856624  1
