# generated using pymatgen
data_Y7ErRe3B24Ir
_symmetry_space_group_name_H-M   'P 1'
_cell_length_a   3.67655700
_cell_length_b   9.18017280
_cell_length_c   11.56755307
_cell_angle_alpha   90.14462018
_cell_angle_beta   90.00000000
_cell_angle_gamma   90.00000000
_symmetry_Int_Tables_number   1
_chemical_formula_structural   Y7ErRe3B24Ir
_chemical_formula_sum   'Y7 Er1 Re3 B24 Ir1'
_cell_volume   390.42019733
_cell_formula_units_Z   1
loop_
 _symmetry_equiv_pos_site_id
 _symmetry_equiv_pos_as_xyz
  1  'x, y, z'
loop_
 _atom_site_type_symbol
 _atom_site_label
 _atom_site_symmetry_multiplicity
 _atom_site_fract_x
 _atom_site_fract_y
 _atom_site_fract_z
 _atom_site_occupancy
  Y  Y0  1  0.000000  0.318462  0.415678  1
  Y  Y1  1  0.000000  0.678306  0.591558  1
  Y  Y2  1  0.000000  0.826958  0.081203  1
  Y  Y3  1  0.000000  0.177530  0.912539  1
  Y  Y4  1  0.000000  0.943957  0.370552  1
  Y  Y5  1  0.000000  0.056062  0.629114  1
  Y  Y6  1  0.000000  0.441139  0.127786  1
  Er  Er7  1  0.000000  0.557023  0.871314  1
  Re  Re8  1  0.000000  0.363593  0.678151  1
  Re  Re9  1  0.000000  0.138245  0.179527  1
  Re  Re10  1  0.000000  0.860946  0.821053  1
  B  B11  1  0.500000  0.553652  0.433671  1
  B  B12  1  0.500000  0.446940  0.567122  1
  B  B13  1  0.500000  0.053278  0.066598  1
  B  B14  1  0.500000  0.946687  0.932423  1
  B  B15  1  0.500000  0.748520  0.419914  1
  B  B16  1  0.500000  0.251409  0.581385  1
  B  B17  1  0.500000  0.248617  0.081242  1
  B  B18  1  0.500000  0.751259  0.918641  1
  B  B19  1  0.500000  0.790664  0.265239  1
  B  B20  1  0.500000  0.209288  0.734147  1
  B  B21  1  0.500000  0.291315  0.234800  1
  B  B22  1  0.500000  0.707812  0.766391  1
  B  B23  1  0.500000  0.631718  0.184443  1
  B  B24  1  0.500000  0.370168  0.814158  1
  B  B25  1  0.500000  0.130994  0.314484  1
  B  B26  1  0.500000  0.868028  0.685984  1
  B  B27  1  0.500000  0.983268  0.211829  1
  B  B28  1  0.500000  0.016861  0.787279  1
  B  B29  1  0.500000  0.482981  0.287926  1
  B  B30  1  0.500000  0.518371  0.712931  1
  B  B31  1  0.500000  0.603828  0.028712  1
  B  B32  1  0.500000  0.397922  0.971170  1
  B  B33  1  0.500000  0.102933  0.470929  1
  B  B34  1  0.500000  0.894155  0.528660  1
  Ir  Ir35  1  0.000000  0.637114  0.321441  1
