# generated using pymatgen
data_Tb3Nb(P3Rh4)2
_symmetry_space_group_name_H-M   'P 1'
_cell_length_a   3.94705600
_cell_length_b   11.18721300
_cell_length_c   12.87719100
_cell_angle_alpha   90.00000000
_cell_angle_beta   90.00000000
_cell_angle_gamma   90.00000000
_symmetry_Int_Tables_number   1
_chemical_formula_structural   Tb3Nb(P3Rh4)2
_chemical_formula_sum   'Tb6 Nb2 P12 Rh16'
_cell_volume   568.61240802
_cell_formula_units_Z   2
loop_
 _symmetry_equiv_pos_site_id
 _symmetry_equiv_pos_as_xyz
  1  'x, y, z'
loop_
 _atom_site_type_symbol
 _atom_site_label
 _atom_site_symmetry_multiplicity
 _atom_site_fract_x
 _atom_site_fract_y
 _atom_site_fract_z
 _atom_site_occupancy
  Tb  Tb0  1  0.000000  0.500000  0.522187  1
  Tb  Tb1  1  0.500000  0.000000  0.477813  1
  Tb  Tb2  1  0.500000  0.818311  0.202384  1
  Tb  Tb3  1  0.500000  0.181689  0.202384  1
  Tb  Tb4  1  0.000000  0.681689  0.797616  1
  Tb  Tb5  1  0.000000  0.318311  0.797616  1
  Nb  Nb6  1  0.500000  0.500000  0.158095  1
  Nb  Nb7  1  0.000000  0.000000  0.841905  1
  P  P8  1  0.500000  0.500000  0.876772  1
  P  P9  1  0.000000  0.000000  0.123228  1
  P  P10  1  0.500000  0.500000  0.351002  1
  P  P11  1  0.000000  0.000000  0.648998  1
  P  P12  1  0.500000  0.313729  0.616625  1
  P  P13  1  0.500000  0.686271  0.616625  1
  P  P14  1  0.000000  0.186271  0.383375  1
  P  P15  1  0.000000  0.813729  0.383375  1
  P  P16  1  0.500000  0.845146  0.888036  1
  P  P17  1  0.500000  0.154854  0.888036  1
  P  P18  1  0.000000  0.654854  0.111964  1
  P  P19  1  0.000000  0.345146  0.111964  1
  Rh  Rh20  1  0.500000  0.500000  0.698663  1
  Rh  Rh21  1  0.000000  0.000000  0.301337  1
  Rh  Rh22  1  0.000000  0.500000  0.986717  1
  Rh  Rh23  1  0.500000  0.000000  0.013283  1
  Rh  Rh24  1  0.500000  0.331878  0.986304  1
  Rh  Rh25  1  0.500000  0.668122  0.986304  1
  Rh  Rh26  1  0.000000  0.168122  0.013696  1
  Rh  Rh27  1  0.000000  0.831878  0.013696  1
  Rh  Rh28  1  0.500000  0.293409  0.432048  1
  Rh  Rh29  1  0.500000  0.706591  0.432048  1
  Rh  Rh30  1  0.000000  0.206591  0.567952  1
  Rh  Rh31  1  0.000000  0.793409  0.567952  1
  Rh  Rh32  1  0.500000  0.874122  0.706909  1
  Rh  Rh33  1  0.500000  0.125878  0.706909  1
  Rh  Rh34  1  0.000000  0.625878  0.293091  1
  Rh  Rh35  1  0.000000  0.374122  0.293091  1
