# generated using pymatgen
data_Nd10Al9Si9Ge2
_symmetry_space_group_name_H-M   'P 1'
_cell_length_a   4.24273833
_cell_length_b   4.26267449
_cell_length_c   36.36374811
_cell_angle_alpha   86.63989230
_cell_angle_beta   86.65560135
_cell_angle_gamma   89.99999837
_symmetry_Int_Tables_number   1
_chemical_formula_structural   Nd10Al9Si9Ge2
_chemical_formula_sum   'Nd10 Al9 Si9 Ge2'
_cell_volume   655.40082101
_cell_formula_units_Z   1
loop_
 _symmetry_equiv_pos_site_id
 _symmetry_equiv_pos_as_xyz
  1  'x, y, z'
loop_
 _atom_site_type_symbol
 _atom_site_label
 _atom_site_symmetry_multiplicity
 _atom_site_fract_x
 _atom_site_fract_y
 _atom_site_fract_z
 _atom_site_occupancy
  Nd  Nd0  1  0.950695  0.450695  0.098610  1
  Nd  Nd1  1  0.351206  0.851206  0.297589  1
  Nd  Nd2  1  0.751492  0.251492  0.497015  1
  Nd  Nd3  1  0.149320  0.649320  0.701358  1
  Nd  Nd4  1  0.546952  0.046952  0.906095  1
  Nd  Nd5  1  0.999867  0.999867  0.000267  1
  Nd  Nd6  1  0.400871  0.400871  0.198256  1
  Nd  Nd7  1  0.801448  0.801448  0.397105  1
  Nd  Nd8  1  0.201128  0.201128  0.597746  1
  Nd  Nd9  1  0.598740  0.598740  0.802519  1
  Al  Al10  1  0.467080  0.967080  0.065841  1
  Al  Al11  1  0.867948  0.367948  0.264103  1
  Al  Al12  1  0.268318  0.768318  0.463364  1
  Al  Al13  1  0.666609  0.166609  0.666783  1
  Al  Al14  1  0.064484  0.564484  0.871032  1
  Al  Al15  1  0.917323  0.917323  0.165353  1
  Al  Al16  1  0.318095  0.318095  0.363809  1
  Al  Al17  1  0.718344  0.718344  0.563310  1
  Al  Al18  1  0.116137  0.116137  0.767726  1
  Si  Si19  1  0.515674  0.515674  0.968651  1
  Si  Si20  1  0.433768  0.933768  0.132462  1
  Si  Si21  1  0.834722  0.334722  0.330556  1
  Si  Si22  1  0.234828  0.734828  0.530347  1
  Si  Si23  1  0.632879  0.132879  0.734241  1
  Si  Si24  1  0.031067  0.531067  0.937867  1
  Si  Si25  1  0.483151  0.483151  0.033698  1
  Si  Si26  1  0.884045  0.884045  0.231909  1
  Si  Si27  1  0.284781  0.284781  0.430437  1
  Ge  Ge28  1  0.684300  0.684300  0.631398  1
  Ge  Ge29  1  0.081923  0.081923  0.836153  1
