# generated using pymatgen
data_Na4PuHfCl12
_symmetry_space_group_name_H-M   'P 1'
_cell_length_a   6.82586500
_cell_length_b   6.82586569
_cell_length_c   12.85784200
_cell_angle_alpha   90.00000000
_cell_angle_beta   90.00000000
_cell_angle_gamma   120.00000151
_symmetry_Int_Tables_number   1
_chemical_formula_structural   Na4PuHfCl12
_chemical_formula_sum   'Na4 Pu1 Hf1 Cl12'
_cell_volume   518.81693424
_cell_formula_units_Z   1
loop_
 _symmetry_equiv_pos_site_id
 _symmetry_equiv_pos_as_xyz
  1  'x, y, z'
loop_
 _atom_site_type_symbol
 _atom_site_label
 _atom_site_symmetry_multiplicity
 _atom_site_fract_x
 _atom_site_fract_y
 _atom_site_fract_z
 _atom_site_occupancy
  Na  Na0  1  0.000000  0.000000  0.750000  1
  Na  Na1  1  0.666667  0.333333  0.750000  1
  Na  Na2  1  0.333333  0.666667  0.250000  1
  Na  Na3  1  0.000000  0.000000  0.250000  1
  Pu  Pu4  1  0.666667  0.333333  0.250000  1
  Hf  Hf5  1  0.333333  0.666667  0.750000  1
  Cl  Cl6  1  0.038352  0.371549  0.638954  1
  Cl  Cl7  1  0.333199  0.961648  0.638954  1
  Cl  Cl8  1  0.628451  0.666801  0.638954  1
  Cl  Cl9  1  0.628451  0.961648  0.861046  1
  Cl  Cl10  1  0.333199  0.371549  0.861046  1
  Cl  Cl11  1  0.038352  0.666801  0.861046  1
  Cl  Cl12  1  0.978956  0.333064  0.134408  1
  Cl  Cl13  1  0.354107  0.021044  0.134408  1
  Cl  Cl14  1  0.666936  0.645893  0.134408  1
  Cl  Cl15  1  0.666936  0.021044  0.365592  1
  Cl  Cl16  1  0.354107  0.333064  0.365592  1
  Cl  Cl17  1  0.978956  0.645893  0.365592  1
