# generated using pymatgen
data_UNb(TeBr9)2
_symmetry_space_group_name_H-M   'P 1'
_cell_length_a   12.65013900
_cell_length_b   7.40119892
_cell_length_c   10.66119915
_cell_angle_alpha   76.21817765
_cell_angle_beta   90.00000000
_cell_angle_gamma   90.00000000
_symmetry_Int_Tables_number   1
_chemical_formula_structural   UNb(TeBr9)2
_chemical_formula_sum   'U1 Nb1 Te2 Br18'
_cell_volume   969.43017717
_cell_formula_units_Z   1
loop_
 _symmetry_equiv_pos_site_id
 _symmetry_equiv_pos_as_xyz
  1  'x, y, z'
loop_
 _atom_site_type_symbol
 _atom_site_label
 _atom_site_symmetry_multiplicity
 _atom_site_fract_x
 _atom_site_fract_y
 _atom_site_fract_z
 _atom_site_occupancy
  U  U0  1  0.250000  0.647710  0.847911  1
  Nb  Nb1  1  0.750000  0.353695  0.146553  1
  Te  Te2  1  0.250000  0.759461  0.462890  1
  Te  Te3  1  0.750000  0.243324  0.527384  1
  Br  Br4  1  0.609946  0.444971  0.309450  1
  Br  Br5  1  0.101681  0.548498  0.685420  1
  Br  Br6  1  0.398319  0.548498  0.685420  1
  Br  Br7  1  0.890054  0.444971  0.309450  1
  Br  Br8  1  0.750000  0.676958  0.019050  1
  Br  Br9  1  0.250000  0.305464  0.996424  1
  Br  Br10  1  0.750000  0.507274  0.644381  1
  Br  Br11  1  0.250000  0.494381  0.350356  1
  Br  Br12  1  0.750000  0.026349  0.320166  1
  Br  Br13  1  0.250000  0.991399  0.673888  1
  Br  Br14  1  0.895094  0.244181  0.030812  1
  Br  Br15  1  0.402189  0.757952  0.983186  1
  Br  Br16  1  0.097811  0.757952  0.983186  1
  Br  Br17  1  0.604906  0.244181  0.030812  1
  Br  Br18  1  0.899992  0.057053  0.658866  1
  Br  Br19  1  0.400654  0.944338  0.337766  1
  Br  Br20  1  0.099346  0.944338  0.337766  1
  Br  Br21  1  0.600008  0.057053  0.658866  1
