# generated using pymatgen
data_TbTh3(Al3Ir)6
_symmetry_space_group_name_H-M   'P 1'
_cell_length_a   7.65256263
_cell_length_b   7.65788345
_cell_length_c   9.50678700
_cell_angle_alpha   90.00000000
_cell_angle_beta   90.00000000
_cell_angle_gamma   119.55771385
_symmetry_Int_Tables_number   1
_chemical_formula_structural   TbTh3(Al3Ir)6
_chemical_formula_sum   'Tb1 Th3 Al18 Ir6'
_cell_volume   484.61671376
_cell_formula_units_Z   1
loop_
 _symmetry_equiv_pos_site_id
 _symmetry_equiv_pos_as_xyz
  1  'x, y, z'
loop_
 _atom_site_type_symbol
 _atom_site_label
 _atom_site_symmetry_multiplicity
 _atom_site_fract_x
 _atom_site_fract_y
 _atom_site_fract_z
 _atom_site_occupancy
  Tb  Tb0  1  0.329307  0.005666  0.750000  1
  Th  Th1  1  0.995220  0.670875  0.250000  1
  Th  Th2  1  0.003878  0.329542  0.750000  1
  Th  Th3  1  0.669855  0.994698  0.250000  1
  Al  Al4  1  0.134374  0.132252  0.250000  1
  Al  Al5  1  0.870771  0.869493  0.750000  1
  Al  Al6  1  0.005732  0.335443  0.074185  1
  Al  Al7  1  0.999946  0.669420  0.923102  1
  Al  Al8  1  0.999946  0.669420  0.576898  1
  Al  Al9  1  0.334980  0.004450  0.431019  1
  Al  Al10  1  0.005732  0.335443  0.425815  1
  Al  Al11  1  0.660270  0.995370  0.576893  1
  Al  Al12  1  0.660270  0.995370  0.923107  1
  Al  Al13  1  0.334980  0.004450  0.068981  1
  Al  Al14  1  0.336332  0.333009  0.552762  1
  Al  Al15  1  0.663085  0.663047  0.453440  1
  Al  Al16  1  0.663085  0.663047  0.046560  1
  Al  Al17  1  0.336332  0.333009  0.947238  1
  Al  Al18  1  0.340802  0.543997  0.250000  1
  Al  Al19  1  0.657355  0.450803  0.750000  1
  Al  Al20  1  0.543846  0.338706  0.250000  1
  Al  Al21  1  0.453786  0.662044  0.750000  1
  Ir  Ir22  1  0.674105  0.328601  0.000476  1
  Ir  Ir23  1  0.327348  0.671442  0.000573  1
  Ir  Ir24  1  0.327348  0.671442  0.499427  1
  Ir  Ir25  1  0.674105  0.328601  0.499524  1
  Ir  Ir26  1  0.998606  0.000181  0.000761  1
  Ir  Ir27  1  0.998606  0.000181  0.499239  1
