# generated using pymatgen
data_Pr20Si15P
_symmetry_space_group_name_H-M   'P 1'
_cell_length_a   7.91513963
_cell_length_b   7.91950590
_cell_length_c   15.36783350
_cell_angle_alpha   89.88461255
_cell_angle_beta   89.86273621
_cell_angle_gamma   90.11262042
_symmetry_Int_Tables_number   1
_chemical_formula_structural   Pr20Si15P
_chemical_formula_sum   'Pr20 Si15 P1'
_cell_volume   963.31061070
_cell_formula_units_Z   1
loop_
 _symmetry_equiv_pos_site_id
 _symmetry_equiv_pos_as_xyz
  1  'x, y, z'
loop_
 _atom_site_type_symbol
 _atom_site_label
 _atom_site_symmetry_multiplicity
 _atom_site_fract_x
 _atom_site_fract_y
 _atom_site_fract_z
 _atom_site_occupancy
  Pr  Pr0  1  0.311287  0.310189  0.999897  1
  Pr  Pr1  1  0.189041  0.809465  0.250007  1
  Pr  Pr2  1  0.808287  0.190652  0.749804  1
  Pr  Pr3  1  0.689399  0.689200  0.499629  1
  Pr  Pr4  1  0.380606  0.009073  0.444883  1
  Pr  Pr5  1  0.488364  0.878946  0.697608  1
  Pr  Pr6  1  0.511628  0.122495  0.197179  1
  Pr  Pr7  1  0.877291  0.488124  0.302472  1
  Pr  Pr8  1  0.123513  0.508037  0.802222  1
  Pr  Pr9  1  0.623107  0.988532  0.946662  1
  Pr  Pr10  1  0.010296  0.376425  0.553588  1
  Pr  Pr11  1  0.988770  0.621284  0.052376  1
  Pr  Pr12  1  0.129277  0.984762  0.874721  1
  Pr  Pr13  1  0.518587  0.627534  0.125838  1
  Pr  Pr14  1  0.476937  0.368108  0.627521  1
  Pr  Pr15  1  0.627236  0.517971  0.872720  1
  Pr  Pr16  1  0.371675  0.480623  0.374731  1
  Pr  Pr17  1  0.873546  0.018551  0.377057  1
  Pr  Pr18  1  0.981860  0.127737  0.123519  1
  Pr  Pr19  1  0.022235  0.877682  0.624555  1
  Si  Si20  1  0.331052  0.696721  0.951279  1
  Si  Si21  1  0.668453  0.304368  0.453430  1
  Si  Si22  1  0.697169  0.332549  0.047641  1
  Si  Si23  1  0.303188  0.667584  0.549027  1
  Si  Si24  1  0.803600  0.832655  0.202202  1
  Si  Si25  1  0.168182  0.196391  0.297360  1
  Si  Si26  1  0.834202  0.803380  0.797302  1
  Si  Si27  1  0.287496  0.921027  0.058931  1
  Si  Si28  1  0.578264  0.787988  0.309295  1
  Si  Si29  1  0.424956  0.210691  0.811412  1
  Si  Si30  1  0.788990  0.579485  0.689219  1
  Si  Si31  1  0.211681  0.422552  0.190635  1
  Si  Si32  1  0.709710  0.076701  0.560062  1
  Si  Si33  1  0.922635  0.288317  0.940080  1
  Si  Si34  1  0.077766  0.711059  0.441553  1
  P  P35  1  0.189715  0.173141  0.703584  1
