# generated using pymatgen
data_Tb4Y(GeB4)2
_symmetry_space_group_name_H-M   'P 1'
_cell_length_a   7.28137200
_cell_length_b   7.28137200
_cell_length_c   8.19503500
_cell_angle_alpha   90.00000000
_cell_angle_beta   90.00000000
_cell_angle_gamma   90.00000000
_symmetry_Int_Tables_number   1
_chemical_formula_structural   Tb4Y(GeB4)2
_chemical_formula_sum   'Tb8 Y2 Ge4 B16'
_cell_volume   434.48746501
_cell_formula_units_Z   2
loop_
 _symmetry_equiv_pos_site_id
 _symmetry_equiv_pos_as_xyz
  1  'x, y, z'
loop_
 _atom_site_type_symbol
 _atom_site_label
 _atom_site_symmetry_multiplicity
 _atom_site_fract_x
 _atom_site_fract_y
 _atom_site_fract_z
 _atom_site_occupancy
  Tb  Tb0  1  0.680345  0.180345  0.221443  1
  Tb  Tb1  1  0.319655  0.819655  0.778557  1
  Tb  Tb2  1  0.319655  0.819655  0.221443  1
  Tb  Tb3  1  0.819655  0.680345  0.221443  1
  Tb  Tb4  1  0.819655  0.680345  0.778557  1
  Tb  Tb5  1  0.680345  0.180345  0.778557  1
  Tb  Tb6  1  0.180345  0.319655  0.778557  1
  Tb  Tb7  1  0.180345  0.319655  0.221443  1
  Y  Y8  1  0.000000  0.000000  0.500000  1
  Y  Y9  1  0.500000  0.500000  0.500000  1
  Ge  Ge10  1  0.119710  0.619710  0.500000  1
  Ge  Ge11  1  0.880290  0.380290  0.500000  1
  Ge  Ge12  1  0.380290  0.119710  0.500000  1
  Ge  Ge13  1  0.619710  0.880290  0.500000  1
  B  B14  1  0.172018  0.039167  0.000000  1
  B  B15  1  0.827982  0.960833  0.000000  1
  B  B16  1  0.960833  0.172018  0.000000  1
  B  B17  1  0.327982  0.539167  0.000000  1
  B  B18  1  0.039167  0.827982  0.000000  1
  B  B19  1  0.672018  0.460833  0.000000  1
  B  B20  1  0.539167  0.672018  0.000000  1
  B  B21  1  0.460833  0.327982  0.000000  1
  B  B22  1  0.090415  0.590415  0.000000  1
  B  B23  1  0.909585  0.409585  0.000000  1
  B  B24  1  0.409585  0.090415  0.000000  1
  B  B25  1  0.590415  0.909585  0.000000  1
  B  B26  1  0.000000  0.000000  0.160698  1
  B  B27  1  0.000000  0.000000  0.839302  1
  B  B28  1  0.500000  0.500000  0.839302  1
  B  B29  1  0.500000  0.500000  0.160698  1
