# generated using pymatgen
data_Tb20Ir3(RhAu2)3
_symmetry_space_group_name_H-M   'P 1'
_cell_length_a   11.32724013
_cell_length_b   11.25358904
_cell_length_c   6.33590152
_cell_angle_alpha   90.10369987
_cell_angle_beta   89.79273314
_cell_angle_gamma   90.04848079
_symmetry_Int_Tables_number   1
_chemical_formula_structural   Tb20Ir3(RhAu2)3
_chemical_formula_sum   'Tb20 Ir3 Rh3 Au6'
_cell_volume   807.64381468
_cell_formula_units_Z   1
loop_
 _symmetry_equiv_pos_site_id
 _symmetry_equiv_pos_as_xyz
  1  'x, y, z'
loop_
 _atom_site_type_symbol
 _atom_site_label
 _atom_site_symmetry_multiplicity
 _atom_site_fract_x
 _atom_site_fract_y
 _atom_site_fract_z
 _atom_site_occupancy
  Tb  Tb0  1  0.297640  0.092337  0.360877  1
  Tb  Tb1  1  0.298141  0.906730  0.860830  1
  Tb  Tb2  1  0.697781  0.084937  0.850239  1
  Tb  Tb3  1  0.697851  0.916277  0.350598  1
  Tb  Tb4  1  0.576007  0.789462  0.856274  1
  Tb  Tb5  1  0.575064  0.210614  0.356670  1
  Tb  Tb6  1  0.409622  0.791719  0.371162  1
  Tb  Tb7  1  0.408792  0.207903  0.870915  1
  Tb  Tb8  1  0.215596  0.417505  0.625345  1
  Tb  Tb9  1  0.214601  0.582853  0.129558  1
  Tb  Tb10  1  0.799150  0.414944  0.146871  1
  Tb  Tb11  1  0.799715  0.584424  0.643155  1
  Tb  Tb12  1  0.920380  0.701374  0.149145  1
  Tb  Tb13  1  0.921460  0.300010  0.645289  1
  Tb  Tb14  1  0.096780  0.698064  0.641023  1
  Tb  Tb15  1  0.097113  0.300930  0.144669  1
  Tb  Tb16  1  0.997723  0.997906  0.499689  1
  Tb  Tb17  1  0.998119  0.002098  0.999690  1
  Tb  Tb18  1  0.492282  0.497798  0.999506  1
  Tb  Tb19  1  0.493196  0.502418  0.499494  1
  Ir  Ir20  1  0.347873  0.343751  0.248608  1
  Ir  Ir21  1  0.346617  0.654537  0.748656  1
  Ir  Ir22  1  0.001012  0.499565  0.397484  1
  Rh  Rh23  1  0.497957  0.998281  0.101641  1
  Rh  Rh24  1  0.497904  0.001372  0.602118  1
  Rh  Rh25  1  0.000008  0.500736  0.902080  1
  Au  Au26  1  0.838584  0.154063  0.251519  1
  Au  Au27  1  0.839686  0.844731  0.750291  1
  Au  Au28  1  0.154526  0.156987  0.748240  1
  Au  Au29  1  0.155819  0.844445  0.249193  1
  Au  Au30  1  0.657067  0.346669  0.749237  1
  Au  Au31  1  0.655934  0.654559  0.249934  1
