# generated using pymatgen
data_Ac2TbPa3N8
_symmetry_space_group_name_H-M   'P 1'
_cell_length_a   7.18887633
_cell_length_b   7.18889075
_cell_length_c   7.09598080
_cell_angle_alpha   120.42938408
_cell_angle_beta   90.00719617
_cell_angle_gamma   119.99638943
_symmetry_Int_Tables_number   1
_chemical_formula_structural   Ac2TbPa3N8
_chemical_formula_sum   'Ac2 Tb1 Pa3 N8'
_cell_volume   257.61254914
_cell_formula_units_Z   1
loop_
 _symmetry_equiv_pos_site_id
 _symmetry_equiv_pos_as_xyz
  1  'x, y, z'
loop_
 _atom_site_type_symbol
 _atom_site_label
 _atom_site_symmetry_multiplicity
 _atom_site_fract_x
 _atom_site_fract_y
 _atom_site_fract_z
 _atom_site_occupancy
  Ac  Ac0  1  0.995888  0.991781  0.987673  1
  Ac  Ac1  1  0.754111  0.508217  0.262328  1
  Tb  Tb2  1  0.374998  0.749996  0.124995  1
  Pa  Pa3  1  0.375000  0.750002  0.625002  1
  Pa  Pa4  1  0.375001  0.250003  0.625002  1
  Pa  Pa5  1  0.875003  0.250001  0.625000  1
  N  N6  1  0.613689  0.227428  0.412268  1
  N  N7  1  0.184840  0.798580  0.412270  1
  N  N8  1  0.613744  0.798588  0.412329  1
  N  N9  1  0.144824  0.289706  0.434529  1
  N  N10  1  0.605178  0.210298  0.815472  1
  N  N11  1  0.136254  0.701410  0.837668  1
  N  N12  1  0.136310  0.272571  0.837731  1
  N  N13  1  0.565160  0.701417  0.837730  1
