# generated using pymatgen
data_Li3Tm3Al12(Si3Ru2)4
_symmetry_space_group_name_H-M   'P 1'
_cell_length_a   8.54274465
_cell_length_b   8.54473352
_cell_length_c   9.22577600
_cell_angle_alpha   90.00000000
_cell_angle_beta   90.00000000
_cell_angle_gamma   120.08275108
_symmetry_Int_Tables_number   1
_chemical_formula_structural   Li3Tm3Al12(Si3Ru2)4
_chemical_formula_sum   'Li3 Tm3 Al12 Si12 Ru8'
_cell_volume   582.72914965
_cell_formula_units_Z   1
loop_
 _symmetry_equiv_pos_site_id
 _symmetry_equiv_pos_as_xyz
  1  'x, y, z'
loop_
 _atom_site_type_symbol
 _atom_site_label
 _atom_site_symmetry_multiplicity
 _atom_site_fract_x
 _atom_site_fract_y
 _atom_site_fract_z
 _atom_site_occupancy
  Li  Li0  1  0.801581  0.216100  0.750000  1
  Li  Li1  1  0.212481  0.790583  0.250000  1
  Li  Li2  1  0.411287  0.212960  0.750000  1
  Tm  Tm3  1  0.621077  0.810741  0.250000  1
  Tm  Tm4  1  0.812873  0.625709  0.750000  1
  Tm  Tm5  1  0.183958  0.370108  0.250000  1
  Al  Al6  1  0.829588  0.169030  0.427701  1
  Al  Al7  1  0.167807  0.837261  0.579727  1
  Al  Al8  1  0.331150  0.162922  0.427742  1
  Al  Al9  1  0.167807  0.837261  0.920273  1
  Al  Al10  1  0.664199  0.836176  0.588434  1
  Al  Al11  1  0.829588  0.169030  0.072299  1
  Al  Al12  1  0.835293  0.664057  0.415864  1
  Al  Al13  1  0.664199  0.836176  0.911566  1
  Al  Al14  1  0.163013  0.327530  0.586443  1
  Al  Al15  1  0.331150  0.162922  0.072258  1
  Al  Al16  1  0.163013  0.327530  0.913557  1
  Al  Al17  1  0.835293  0.664057  0.084136  1
  Si  Si18  1  0.662634  0.329282  0.939643  1
  Si  Si19  1  0.328791  0.665389  0.052555  1
  Si  Si20  1  0.328791  0.665389  0.447445  1
  Si  Si21  1  0.662634  0.329282  0.560357  1
  Si  Si22  1  0.434663  0.554979  0.750000  1
  Si  Si23  1  0.558084  0.430944  0.250000  1
  Si  Si24  1  0.125413  0.562821  0.750000  1
  Si  Si25  1  0.883071  0.441353  0.250000  1
  Si  Si26  1  0.442199  0.894826  0.750000  1
  Si  Si27  1  0.553462  0.119623  0.250000  1
  Si  Si28  1  0.004973  0.014006  0.750000  1
  Si  Si29  1  0.009531  0.982008  0.250000  1
  Ru  Ru30  1  0.499353  0.500167  0.000696  1
  Ru  Ru31  1  0.000091  0.500078  0.998589  1
  Ru  Ru32  1  0.499353  0.500167  0.499304  1
  Ru  Ru33  1  0.498090  0.997991  0.001774  1
  Ru  Ru34  1  0.000091  0.500078  0.501411  1
  Ru  Ru35  1  0.498090  0.997991  0.498226  1
  Ru  Ru36  1  0.992664  0.996737  0.001851  1
  Ru  Ru37  1  0.992664  0.996737  0.498149  1
