# generated using pymatgen
data_EuHoSn5Pt3
_symmetry_space_group_name_H-M   'P 1'
_cell_length_a   13.77008928
_cell_length_b   13.77008890
_cell_length_c   7.43608600
_cell_angle_alpha   90.00000000
_cell_angle_beta   90.00000000
_cell_angle_gamma   161.40365373
_symmetry_Int_Tables_number   1
_chemical_formula_structural   EuHoSn5Pt3
_chemical_formula_sum   'Eu2 Ho2 Sn10 Pt6'
_cell_volume   449.64615526
_cell_formula_units_Z   2
loop_
 _symmetry_equiv_pos_site_id
 _symmetry_equiv_pos_as_xyz
  1  'x, y, z'
loop_
 _atom_site_type_symbol
 _atom_site_label
 _atom_site_symmetry_multiplicity
 _atom_site_fract_x
 _atom_site_fract_y
 _atom_site_fract_z
 _atom_site_occupancy
  Eu  Eu0  1  0.173910  0.826090  0.747149  1
  Eu  Eu1  1  0.826090  0.173910  0.247149  1
  Ho  Ho2  1  0.477223  0.522777  0.764192  1
  Ho  Ho3  1  0.522777  0.477223  0.264192  1
  Sn  Sn4  1  0.881396  0.118604  0.765027  1
  Sn  Sn5  1  0.118604  0.881396  0.265027  1
  Sn  Sn6  1  0.701752  0.298248  0.450330  1
  Sn  Sn7  1  0.298248  0.701752  0.950330  1
  Sn  Sn8  1  0.597308  0.402692  0.888047  1
  Sn  Sn9  1  0.402692  0.597308  0.388047  1
  Sn  Sn10  1  0.953425  0.046575  0.108329  1
  Sn  Sn11  1  0.046575  0.953425  0.608329  1
  Sn  Sn12  1  0.288712  0.711288  0.519941  1
  Sn  Sn13  1  0.711288  0.288712  0.019941  1
  Pt  Pt14  1  0.048160  0.951840  0.987546  1
  Pt  Pt15  1  0.951840  0.048160  0.487546  1
  Pt  Pt16  1  0.779506  0.220494  0.729857  1
  Pt  Pt17  1  0.220494  0.779506  0.229857  1
  Pt  Pt18  1  0.398630  0.601370  0.011583  1
  Pt  Pt19  1  0.601370  0.398630  0.511583  1
