# generated using pymatgen
data_DyAgAuO4
_symmetry_space_group_name_H-M   'P 1'
_cell_length_a   6.53338697
_cell_length_b   6.53338736
_cell_length_c   6.67955400
_cell_angle_alpha   126.63102869
_cell_angle_beta   124.86914226
_cell_angle_gamma   78.78436169
_symmetry_Int_Tables_number   1
_chemical_formula_structural   DyAgAuO4
_chemical_formula_sum   'Dy2 Ag2 Au2 O8'
_cell_volume   183.01251107
_cell_formula_units_Z   2
loop_
 _symmetry_equiv_pos_site_id
 _symmetry_equiv_pos_as_xyz
  1  'x, y, z'
loop_
 _atom_site_type_symbol
 _atom_site_label
 _atom_site_symmetry_multiplicity
 _atom_site_fract_x
 _atom_site_fract_y
 _atom_site_fract_z
 _atom_site_occupancy
  Dy  Dy0  1  0.749904  0.249904  0.500000  1
  Dy  Dy1  1  0.000096  0.000096  0.000000  1
  Ag  Ag2  1  0.375000  0.625000  0.250000  1
  Ag  Ag3  1  0.375000  0.125000  0.750000  1
  Au  Au4  1  0.375000  0.625000  0.750000  1
  Au  Au5  1  0.875000  0.625000  0.250000  1
  O  O6  1  0.126678  0.593168  0.828291  1
  O  O7  1  0.764876  0.298388  0.171709  1
  O  O8  1  0.365786  0.008478  0.993903  1
  O  O9  1  0.735424  0.878118  0.493903  1
  O  O10  1  0.014576  0.371882  0.006097  1
  O  O11  1  0.384214  0.241522  0.506097  1
  O  O12  1  0.985124  0.951612  0.328291  1
  O  O13  1  0.623322  0.656832  0.671709  1
