# generated using pymatgen
data_Tb10TlSb5
_symmetry_space_group_name_H-M   'P 1'
_cell_length_a   6.40457900
_cell_length_b   9.06633940
_cell_length_c   9.04379200
_cell_angle_alpha   120.08251019
_cell_angle_beta   90.00003578
_cell_angle_gamma   89.99992519
_symmetry_Int_Tables_number   1
_chemical_formula_structural   Tb10TlSb5
_chemical_formula_sum   'Tb10 Tl1 Sb5'
_cell_volume   454.40392286
_cell_formula_units_Z   1
loop_
 _symmetry_equiv_pos_site_id
 _symmetry_equiv_pos_as_xyz
  1  'x, y, z'
loop_
 _atom_site_type_symbol
 _atom_site_label
 _atom_site_symmetry_multiplicity
 _atom_site_fract_x
 _atom_site_fract_y
 _atom_site_fract_z
 _atom_site_occupancy
  Tb  Tb0  1  0.498250  0.334374  0.668111  1
  Tb  Tb1  1  0.498250  0.666263  0.331889  1
  Tb  Tb2  1  0.001748  0.666263  0.331890  1
  Tb  Tb3  1  0.001748  0.334373  0.668110  1
  Tb  Tb4  1  0.750003  0.243950  0.000000  1
  Tb  Tb5  1  0.750001  0.753803  0.756981  1
  Tb  Tb6  1  0.750001  0.996821  0.243019  1
  Tb  Tb7  1  0.249999  0.756997  0.000000  1
  Tb  Tb8  1  0.249999  0.247042  0.244989  1
  Tb  Tb9  1  0.249999  0.002054  0.755011  1
  Tl  Tl10  1  0.750006  0.607377  0.000000  1
  Sb  Sb11  1  0.750000  0.388629  0.389410  1
  Sb  Sb12  1  0.750000  0.999217  0.610590  1
  Sb  Sb13  1  0.250000  0.390020  0.000000  1
  Sb  Sb14  1  0.250000  0.611891  0.610969  1
  Sb  Sb15  1  0.250000  0.000924  0.389031  1
