# generated using pymatgen
data_Tm7Rh3
_symmetry_space_group_name_H-M   'P 1'
_cell_length_a   9.63867900
_cell_length_b   9.63867799
_cell_length_c   6.14093300
_cell_angle_alpha   90.00000000
_cell_angle_beta   90.00000000
_cell_angle_gamma   120.00000002
_symmetry_Int_Tables_number   1
_chemical_formula_structural   Tm7Rh3
_chemical_formula_sum   'Tm14 Rh6'
_cell_volume   494.08307758
_cell_formula_units_Z   2
loop_
 _symmetry_equiv_pos_site_id
 _symmetry_equiv_pos_as_xyz
  1  'x, y, z'
loop_
 _atom_site_type_symbol
 _atom_site_label
 _atom_site_symmetry_multiplicity
 _atom_site_fract_x
 _atom_site_fract_y
 _atom_site_fract_z
 _atom_site_occupancy
  Tm  Tm0  1  0.333333  0.666667  0.453812  1
  Tm  Tm1  1  0.666667  0.333333  0.953812  1
  Tm  Tm2  1  0.123771  0.876229  0.253293  1
  Tm  Tm3  1  0.752458  0.876229  0.253293  1
  Tm  Tm4  1  0.123771  0.247542  0.253293  1
  Tm  Tm5  1  0.876229  0.123771  0.753293  1
  Tm  Tm6  1  0.247542  0.123771  0.753293  1
  Tm  Tm7  1  0.876229  0.752458  0.753293  1
  Tm  Tm8  1  0.540920  0.459080  0.447886  1
  Tm  Tm9  1  0.918161  0.459080  0.447886  1
  Tm  Tm10  1  0.540920  0.081839  0.447886  1
  Tm  Tm11  1  0.459080  0.540920  0.947886  1
  Tm  Tm12  1  0.081839  0.540920  0.947886  1
  Tm  Tm13  1  0.459080  0.918161  0.947886  1
  Rh  Rh14  1  0.809923  0.190077  0.181473  1
  Rh  Rh15  1  0.380152  0.190077  0.181473  1
  Rh  Rh16  1  0.809923  0.619848  0.181473  1
  Rh  Rh17  1  0.190077  0.809923  0.681473  1
  Rh  Rh18  1  0.619848  0.809923  0.681473  1
  Rh  Rh19  1  0.190077  0.380152  0.681473  1
