# generated using pymatgen
data_TbDy4Cr2O12
_symmetry_space_group_name_H-M   'P 1'
_cell_length_a   6.77675347
_cell_length_b   6.77675294
_cell_length_c   7.25988701
_cell_angle_alpha   74.46792181
_cell_angle_beta   74.46793511
_cell_angle_gamma   50.78304088
_symmetry_Int_Tables_number   1
_chemical_formula_structural   TbDy4Cr2O12
_chemical_formula_sum   'Tb1 Dy4 Cr2 O12'
_cell_volume   246.70033239
_cell_formula_units_Z   1
loop_
 _symmetry_equiv_pos_site_id
 _symmetry_equiv_pos_as_xyz
  1  'x, y, z'
loop_
 _atom_site_type_symbol
 _atom_site_label
 _atom_site_symmetry_multiplicity
 _atom_site_fract_x
 _atom_site_fract_y
 _atom_site_fract_z
 _atom_site_occupancy
  Tb  Tb0  1  0.000000  0.000000  0.500000  1
  Dy  Dy1  1  0.305780  0.305780  0.357609  1
  Dy  Dy2  1  0.694220  0.694220  0.642391  1
  Dy  Dy3  1  0.309324  0.309324  0.831764  1
  Dy  Dy4  1  0.690676  0.690676  0.168236  1
  Cr  Cr5  1  0.757536  0.242464  0.000000  1
  Cr  Cr6  1  0.242464  0.757536  0.000000  1
  O  O7  1  0.898411  0.421275  0.920502  1
  O  O8  1  0.421275  0.898411  0.920502  1
  O  O9  1  0.101589  0.578725  0.079498  1
  O  O10  1  0.578725  0.101589  0.079498  1
  O  O11  1  0.096239  0.596097  0.576716  1
  O  O12  1  0.596097  0.096239  0.576716  1
  O  O13  1  0.903761  0.403903  0.423284  1
  O  O14  1  0.403903  0.903761  0.423284  1
  O  O15  1  0.000675  0.000675  0.823538  1
  O  O16  1  0.999325  0.999325  0.176462  1
  O  O17  1  0.499719  0.499719  0.818974  1
  O  O18  1  0.500281  0.500281  0.181026  1
