# generated using pymatgen
data_Nd6DyErIn8
_symmetry_space_group_name_H-M   'P 1'
_cell_length_a   6.69729300
_cell_length_b   6.69729359
_cell_length_c   10.19647000
_cell_angle_alpha   90.00000000
_cell_angle_beta   90.00000000
_cell_angle_gamma   98.36503897
_symmetry_Int_Tables_number   1
_chemical_formula_structural   Nd6DyErIn8
_chemical_formula_sum   'Nd6 Dy1 Er1 In8'
_cell_volume   452.48417507
_cell_formula_units_Z   1
loop_
 _symmetry_equiv_pos_site_id
 _symmetry_equiv_pos_as_xyz
  1  'x, y, z'
loop_
 _atom_site_type_symbol
 _atom_site_label
 _atom_site_symmetry_multiplicity
 _atom_site_fract_x
 _atom_site_fract_y
 _atom_site_fract_z
 _atom_site_occupancy
  Nd  Nd0  1  0.533846  0.533846  0.250000  1
  Nd  Nd1  1  0.466625  0.466625  0.750000  1
  Nd  Nd2  1  0.246064  0.753940  0.499910  1
  Nd  Nd3  1  0.246064  0.753940  0.000090  1
  Nd  Nd4  1  0.753940  0.246064  0.499910  1
  Nd  Nd5  1  0.753940  0.246064  0.000090  1
  Dy  Dy6  1  0.022879  0.022878  0.750000  1
  Er  Er7  1  0.977291  0.977290  0.250000  1
  In  In8  1  0.249728  0.249728  0.022721  1
  In  In9  1  0.750036  0.750036  0.978091  1
  In  In10  1  0.249728  0.249728  0.477279  1
  In  In11  1  0.750036  0.750036  0.521909  1
  In  In12  1  0.478922  0.024185  0.250000  1
  In  In13  1  0.975709  0.521010  0.750000  1
  In  In14  1  0.521010  0.975709  0.750000  1
  In  In15  1  0.024185  0.478922  0.250000  1
