# generated using pymatgen
data_Cs3RbYbBr6
_symmetry_space_group_name_H-M   'P 1'
_cell_length_a   9.81477240
_cell_length_b   9.81477265
_cell_length_c   9.81477247
_cell_angle_alpha   90.49152226
_cell_angle_beta   90.49152371
_cell_angle_gamma   90.49152388
_symmetry_Int_Tables_number   1
_chemical_formula_structural   Cs3RbYbBr6
_chemical_formula_sum   'Cs6 Rb2 Yb2 Br12'
_cell_volume   945.34970376
_cell_formula_units_Z   2
loop_
 _symmetry_equiv_pos_site_id
 _symmetry_equiv_pos_as_xyz
  1  'x, y, z'
loop_
 _atom_site_type_symbol
 _atom_site_label
 _atom_site_symmetry_multiplicity
 _atom_site_fract_x
 _atom_site_fract_y
 _atom_site_fract_z
 _atom_site_occupancy
  Cs  Cs0  1  0.871890  0.628110  0.250000  1
  Cs  Cs1  1  0.628110  0.250000  0.871890  1
  Cs  Cs2  1  0.250000  0.871890  0.628110  1
  Cs  Cs3  1  0.128110  0.371890  0.750000  1
  Cs  Cs4  1  0.371890  0.750000  0.128110  1
  Cs  Cs5  1  0.750000  0.128110  0.371890  1
  Rb  Rb6  1  0.250000  0.250000  0.250000  1
  Rb  Rb7  1  0.750000  0.750000  0.750000  1
  Yb  Yb8  1  0.000000  0.000000  0.000000  1
  Yb  Yb9  1  0.500000  0.500000  0.500000  1
  Br  Br10  1  0.216394  0.551797  0.427735  1
  Br  Br11  1  0.051797  0.716394  0.927735  1
  Br  Br12  1  0.927735  0.051797  0.716394  1
  Br  Br13  1  0.783606  0.448203  0.572265  1
  Br  Br14  1  0.716394  0.927735  0.051797  1
  Br  Br15  1  0.448203  0.572265  0.783606  1
  Br  Br16  1  0.572265  0.783606  0.448203  1
  Br  Br17  1  0.551797  0.427735  0.216394  1
  Br  Br18  1  0.072265  0.948203  0.283606  1
  Br  Br19  1  0.948203  0.283606  0.072265  1
  Br  Br20  1  0.283606  0.072265  0.948203  1
  Br  Br21  1  0.427735  0.216394  0.551797  1
