# generated using pymatgen
data_Er12GaCo2Si2Pb
_symmetry_space_group_name_H-M   'P 1'
_cell_length_a   8.35856013
_cell_length_b   8.35855884
_cell_length_c   8.35855862
_cell_angle_alpha   104.37245889
_cell_angle_beta   110.54067442
_cell_angle_gamma   113.63467060
_symmetry_Int_Tables_number   1
_chemical_formula_structural   Er12GaCo2Si2Pb
_chemical_formula_sum   'Er12 Ga1 Co2 Si2 Pb1'
_cell_volume   446.54672552
_cell_formula_units_Z   1
loop_
 _symmetry_equiv_pos_site_id
 _symmetry_equiv_pos_as_xyz
  1  'x, y, z'
loop_
 _atom_site_type_symbol
 _atom_site_label
 _atom_site_symmetry_multiplicity
 _atom_site_fract_x
 _atom_site_fract_y
 _atom_site_fract_z
 _atom_site_occupancy
  Er  Er0  1  0.698677  0.266100  0.964776  1
  Er  Er1  1  0.301323  0.733900  0.035224  1
  Er  Er2  1  0.698677  0.733900  0.432578  1
  Er  Er3  1  0.301323  0.266100  0.567422  1
  Er  Er4  1  0.811419  0.115150  0.303731  1
  Er  Er5  1  0.811419  0.507689  0.696269  1
  Er  Er6  1  0.188581  0.884850  0.696269  1
  Er  Er7  1  0.188581  0.492311  0.303731  1
  Er  Er8  1  0.599066  0.782453  0.816612  1
  Er  Er9  1  0.965841  0.782453  0.183388  1
  Er  Er10  1  0.034159  0.217547  0.816612  1
  Er  Er11  1  0.400934  0.217547  0.183388  1
  Ga  Ga12  1  0.500000  0.500000  0.000000  1
  Co  Co13  1  0.000000  0.107699  0.107699  1
  Co  Co14  1  0.000000  0.892301  0.892301  1
  Si  Si15  1  0.866655  0.500000  0.366655  1
  Si  Si16  1  0.133345  0.500000  0.633345  1
  Pb  Pb17  1  0.500000  0.000000  0.500000  1
