# generated using pymatgen
data_Ta4ZnCo(P2O7)6
_symmetry_space_group_name_H-M   'P 1'
_cell_length_a   8.06589208
_cell_length_b   6.63664692
_cell_length_c   16.95264424
_cell_angle_alpha   67.34328391
_cell_angle_beta   89.97451728
_cell_angle_gamma   90.02699982
_symmetry_Int_Tables_number   1
_chemical_formula_structural   Ta4ZnCo(P2O7)6
_chemical_formula_sum   'Ta4 Zn1 Co1 P12 O42'
_cell_volume   837.45180329
_cell_formula_units_Z   1
loop_
 _symmetry_equiv_pos_site_id
 _symmetry_equiv_pos_as_xyz
  1  'x, y, z'
loop_
 _atom_site_type_symbol
 _atom_site_label
 _atom_site_symmetry_multiplicity
 _atom_site_fract_x
 _atom_site_fract_y
 _atom_site_fract_z
 _atom_site_occupancy
  Ta  Ta0  1  0.979726  0.700520  0.833473  1
  Ta  Ta1  1  0.020274  0.299480  0.166527  1
  Ta  Ta2  1  0.479463  0.299220  0.666791  1
  Ta  Ta3  1  0.520537  0.700780  0.333209  1
  Zn  Zn4  1  0.500000  0.000000  0.000000  1
  Co  Co5  1  0.000000  0.000000  0.500000  1
  P  P6  1  0.396593  0.820725  0.838531  1
  P  P7  1  0.603407  0.179275  0.161469  1
  P  P8  1  0.896155  0.178102  0.661911  1
  P  P9  1  0.103845  0.821898  0.338089  1
  P  P10  1  0.107782  0.548823  0.667024  1
  P  P11  1  0.892218  0.451177  0.332976  1
  P  P12  1  0.607809  0.450526  0.833319  1
  P  P13  1  0.392191  0.549474  0.166681  1
  P  P14  1  0.885174  0.795616  0.015938  1
  P  P15  1  0.114826  0.204384  0.984062  1
  P  P16  1  0.385694  0.204410  0.484206  1
  P  P17  1  0.614306  0.795590  0.515794  1
  O  O18  1  0.781971  0.828784  0.544518  1
  O  O19  1  0.218029  0.171216  0.455482  1
  O  O20  1  0.282208  0.171605  0.954960  1
  O  O21  1  0.717792  0.828395  0.045040  1
  O  O22  1  0.393217  0.233187  0.570900  1
  O  O23  1  0.606783  0.766813  0.429100  1
  O  O24  1  0.892609  0.766589  0.929280  1
  O  O25  1  0.107391  0.233411  0.070720  1
  O  O26  1  0.447347  0.598217  0.828139  1
  O  O27  1  0.552653  0.401783  0.171861  1
  O  O28  1  0.947777  0.399543  0.672971  1
  O  O29  1  0.052223  0.600457  0.327029  1
  O  O30  1  0.258153  0.390308  0.691660  1
  O  O31  1  0.741847  0.609692  0.308340  1
  O  O32  1  0.758459  0.608777  0.808640  1
  O  O33  1  0.241541  0.391223  0.191360  1
  O  O34  1  0.427152  0.000644  0.747675  1
  O  O35  1  0.572848  0.999356  0.252325  1
  O  O36  1  0.925746  0.997879  0.752702  1
  O  O37  1  0.074254  0.002121  0.247298  1
  O  O38  1  0.205862  0.794630  0.851751  1
  O  O39  1  0.794138  0.205370  0.148249  1
  O  O40  1  0.705736  0.206301  0.648477  1
  O  O41  1  0.294264  0.793699  0.351523  1
  O  O42  1  0.128413  0.728855  0.582248  1
  O  O43  1  0.871587  0.271145  0.417752  1
  O  O44  1  0.629529  0.269484  0.917823  1
  O  O45  1  0.370471  0.730516  0.082177  1
  O  O46  1  0.076254  0.624350  0.741598  1
  O  O47  1  0.923746  0.375650  0.258402  1
  O  O48  1  0.575232  0.375872  0.758624  1
  O  O49  1  0.424768  0.624128  0.241376  1
  O  O50  1  0.490842  0.854864  0.907223  1
  O  O51  1  0.509158  0.145136  0.092777  1
  O  O52  1  0.989529  0.142377  0.593324  1
  O  O53  1  0.010471  0.857623  0.406676  1
  O  O54  1  0.977630  0.600733  0.083616  1
  O  O55  1  0.022370  0.399267  0.916384  1
  O  O56  1  0.478112  0.399243  0.416414  1
  O  O57  1  0.521888  0.600757  0.583586  1
  O  O58  1  0.500000  0.000000  0.500000  1
  O  O59  1  0.000000  0.000000  0.000000  1
