# generated using pymatgen
data_CeYP7Ru12
_symmetry_space_group_name_H-M   'P 1'
_cell_length_a   9.44703200
_cell_length_b   9.44703139
_cell_length_c   3.95707900
_cell_angle_alpha   90.00000000
_cell_angle_beta   90.00000000
_cell_angle_gamma   120.00000213
_symmetry_Int_Tables_number   1
_chemical_formula_structural   CeYP7Ru12
_chemical_formula_sum   'Ce1 Y1 P7 Ru12'
_cell_volume   305.84126972
_cell_formula_units_Z   1
loop_
 _symmetry_equiv_pos_site_id
 _symmetry_equiv_pos_as_xyz
  1  'x, y, z'
loop_
 _atom_site_type_symbol
 _atom_site_label
 _atom_site_symmetry_multiplicity
 _atom_site_fract_x
 _atom_site_fract_y
 _atom_site_fract_z
 _atom_site_occupancy
  Ce  Ce0  1  0.333333  0.666667  0.000000  1
  Y  Y1  1  0.666667  0.333333  0.500000  1
  P  P2  1  0.604140  0.717086  0.500000  1
  P  P3  1  0.000000  0.000000  0.000000  1
  P  P4  1  0.282914  0.887054  0.500000  1
  P  P5  1  0.112946  0.395860  0.500000  1
  P  P6  1  0.886462  0.573506  0.000000  1
  P  P7  1  0.426494  0.312956  0.000000  1
  P  P8  1  0.687044  0.113538  0.000000  1
  Ru  Ru9  1  0.555914  0.947958  0.500000  1
  Ru  Ru10  1  0.392045  0.444086  0.500000  1
  Ru  Ru11  1  0.913197  0.120199  0.500000  1
  Ru  Ru12  1  0.207002  0.086803  0.500000  1
  Ru  Ru13  1  0.879801  0.792998  0.500000  1
  Ru  Ru14  1  0.727572  0.891404  0.000000  1
  Ru  Ru15  1  0.108596  0.836167  0.000000  1
  Ru  Ru16  1  0.163833  0.272428  0.000000  1
  Ru  Ru17  1  0.423951  0.068379  0.000000  1
  Ru  Ru18  1  0.931621  0.355573  0.000000  1
  Ru  Ru19  1  0.644427  0.576049  0.000000  1
  Ru  Ru20  1  0.052042  0.607955  0.500000  1
