# generated using pymatgen
data_LaTh3Al6(Ga2Ir)6
_symmetry_space_group_name_H-M   'P 1'
_cell_length_a   7.69175319
_cell_length_b   7.69547132
_cell_length_c   9.55424029
_cell_angle_alpha   90.14416239
_cell_angle_beta   89.91867261
_cell_angle_gamma   119.68502301
_symmetry_Int_Tables_number   1
_chemical_formula_structural   LaTh3Al6(Ga2Ir)6
_chemical_formula_sum   'La1 Th3 Al6 Ga12 Ir6'
_cell_volume   491.31005816
_cell_formula_units_Z   1
loop_
 _symmetry_equiv_pos_site_id
 _symmetry_equiv_pos_as_xyz
  1  'x, y, z'
loop_
 _atom_site_type_symbol
 _atom_site_label
 _atom_site_symmetry_multiplicity
 _atom_site_fract_x
 _atom_site_fract_y
 _atom_site_fract_z
 _atom_site_occupancy
  La  La0  1  0.328523  0.001323  0.744788  1
  Th  Th1  1  0.998296  0.668648  0.252076  1
  Th  Th2  1  0.000886  0.332337  0.747986  1
  Th  Th3  1  0.671566  0.998172  0.256271  1
  Al  Al4  1  0.661921  0.994679  0.928425  1
  Al  Al5  1  0.336787  0.005402  0.069264  1
  Al  Al6  1  0.335110  0.334272  0.551107  1
  Al  Al7  1  0.664116  0.663881  0.451408  1
  Al  Al8  1  0.665045  0.664667  0.051363  1
  Al  Al9  1  0.334291  0.334097  0.946412  1
  Ga  Ga10  1  0.136205  0.131161  0.248831  1
  Ga  Ga11  1  0.866985  0.870082  0.750703  1
  Ga  Ga12  1  0.002464  0.333237  0.077023  1
  Ga  Ga13  1  0.999345  0.668646  0.922324  1
  Ga  Ga14  1  0.995949  0.666628  0.579271  1
  Ga  Ga15  1  0.334964  0.004295  0.421258  1
  Ga  Ga16  1  0.006583  0.335639  0.421115  1
  Ga  Ga17  1  0.663001  0.996022  0.582442  1
  Ga  Ga18  1  0.348679  0.546565  0.249541  1
  Ga  Ga19  1  0.651815  0.450973  0.750119  1
  Ga  Ga20  1  0.545621  0.344783  0.248629  1
  Ga  Ga21  1  0.453392  0.654789  0.751124  1
  Ir  Ir22  1  0.669781  0.326922  0.000210  1
  Ir  Ir23  1  0.331863  0.673357  0.002601  1
  Ir  Ir24  1  0.329798  0.667719  0.498840  1
  Ir  Ir25  1  0.672733  0.332522  0.497595  1
  Ir  Ir26  1  0.997359  0.999589  0.001807  1
  Ir  Ir27  1  0.996927  0.999591  0.497466  1
