# generated using pymatgen
data_Tb3Dy5Hf10(ZrSi8)2
_symmetry_space_group_name_H-M   'P 1'
_cell_length_a   7.29251710
_cell_length_b   7.29211817
_cell_length_c   13.40386004
_cell_angle_alpha   89.99125880
_cell_angle_beta   90.00106929
_cell_angle_gamma   89.97705645
_symmetry_Int_Tables_number   1
_chemical_formula_structural   Tb3Dy5Hf10(ZrSi8)2
_chemical_formula_sum   'Tb3 Dy5 Hf10 Zr2 Si16'
_cell_volume   712.78901554
_cell_formula_units_Z   1
loop_
 _symmetry_equiv_pos_site_id
 _symmetry_equiv_pos_as_xyz
  1  'x, y, z'
loop_
 _atom_site_type_symbol
 _atom_site_label
 _atom_site_symmetry_multiplicity
 _atom_site_fract_x
 _atom_site_fract_y
 _atom_site_fract_z
 _atom_site_occupancy
  Tb  Tb0  1  0.496322  0.156194  0.534951  1
  Tb  Tb1  1  0.343761  0.996228  0.784977  1
  Tb  Tb2  1  0.656278  0.003713  0.284882  1
  Dy  Dy3  1  0.996476  0.343966  0.215023  1
  Dy  Dy4  1  0.003524  0.656059  0.715024  1
  Dy  Dy5  1  0.155962  0.496545  0.464955  1
  Dy  Dy6  1  0.503513  0.843913  0.035017  1
  Dy  Dy7  1  0.843999  0.503506  0.965029  1
  Hf  Hf8  1  0.325312  0.674486  0.249984  1
  Hf  Hf9  1  0.674694  0.325532  0.750039  1
  Hf  Hf10  1  0.149219  0.995374  0.374406  1
  Hf  Hf11  1  0.850762  0.004493  0.874487  1
  Hf  Hf12  1  0.504319  0.649625  0.624337  1
  Hf  Hf13  1  0.350386  0.495758  0.875701  1
  Hf  Hf14  1  0.495690  0.350484  0.124316  1
  Hf  Hf15  1  0.649666  0.504301  0.375645  1
  Hf  Hf16  1  0.995423  0.149242  0.625561  1
  Hf  Hf17  1  0.004503  0.850735  0.125519  1
  Zr  Zr18  1  0.174313  0.174411  0.000024  1
  Zr  Zr19  1  0.825778  0.825535  0.500022  1
  Si  Si20  1  0.363069  0.295281  0.317057  1
  Si  Si21  1  0.636942  0.704785  0.817109  1
  Si  Si22  1  0.205952  0.863068  0.567178  1
  Si  Si23  1  0.136608  0.793739  0.932886  1
  Si  Si24  1  0.793928  0.136797  0.067187  1
  Si  Si25  1  0.863574  0.206316  0.432833  1
  Si  Si26  1  0.294929  0.363560  0.682968  1
  Si  Si27  1  0.704942  0.636602  0.182837  1
  Si  Si28  1  0.295558  0.048201  0.186309  1
  Si  Si29  1  0.704560  0.951650  0.686409  1
  Si  Si30  1  0.450105  0.794687  0.435504  1
  Si  Si31  1  0.204950  0.549678  0.064517  1
  Si  Si32  1  0.549843  0.205104  0.935565  1
  Si  Si33  1  0.795152  0.450417  0.564508  1
  Si  Si34  1  0.048033  0.295900  0.813616  1
  Si  Si35  1  0.951954  0.704116  0.313616  1
