# generated using pymatgen
data_Tb2Eu2As7Ir8
_symmetry_space_group_name_H-M   'P 1'
_cell_length_a   4.11306100
_cell_length_b   13.23749127
_cell_length_c   13.67650309
_cell_angle_alpha   98.54688106
_cell_angle_beta   90.00000000
_cell_angle_gamma   90.00000000
_symmetry_Int_Tables_number   1
_chemical_formula_structural   Tb2Eu2As7Ir8
_chemical_formula_sum   'Tb4 Eu4 As14 Ir16'
_cell_volume   736.36969363
_cell_formula_units_Z   2
loop_
 _symmetry_equiv_pos_site_id
 _symmetry_equiv_pos_as_xyz
  1  'x, y, z'
loop_
 _atom_site_type_symbol
 _atom_site_label
 _atom_site_symmetry_multiplicity
 _atom_site_fract_x
 _atom_site_fract_y
 _atom_site_fract_z
 _atom_site_occupancy
  Tb  Tb0  1  0.750000  0.206441  0.558121  1
  Tb  Tb1  1  0.250000  0.793559  0.441879  1
  Tb  Tb2  1  0.750000  0.520567  0.708569  1
  Tb  Tb3  1  0.250000  0.479433  0.291431  1
  Eu  Eu4  1  0.750000  0.285361  0.896070  1
  Eu  Eu5  1  0.250000  0.714639  0.103930  1
  Eu  Eu6  1  0.750000  0.102234  0.210877  1
  Eu  Eu7  1  0.250000  0.897766  0.789123  1
  As  As8  1  0.750000  0.744200  0.917674  1
  As  As9  1  0.250000  0.255800  0.082326  1
  As  As10  1  0.750000  0.904849  0.586586  1
  As  As11  1  0.250000  0.095151  0.413414  1
  As  As12  1  0.750000  0.529554  0.128858  1
  As  As13  1  0.250000  0.470446  0.871142  1
  As  As14  1  0.750000  0.842278  0.280472  1
  As  As15  1  0.250000  0.157722  0.719528  1
  As  As16  1  0.750000  0.607455  0.432861  1
  As  As17  1  0.250000  0.392545  0.567139  1
  As  As18  1  0.750000  0.312660  0.313149  1
  As  As19  1  0.250000  0.687340  0.686851  1
  As  As20  1  0.750000  0.057649  0.898100  1
  As  As21  1  0.250000  0.942351  0.101900  1
  Ir  Ir22  1  0.750000  0.345644  0.142045  1
  Ir  Ir23  1  0.250000  0.654356  0.857955  1
  Ir  Ir24  1  0.750000  0.722177  0.595684  1
  Ir  Ir25  1  0.250000  0.277823  0.404316  1
  Ir  Ir26  1  0.750000  0.920700  0.001945  1
  Ir  Ir27  1  0.250000  0.079300  0.998055  1
  Ir  Ir28  1  0.750000  0.425050  0.476527  1
  Ir  Ir29  1  0.250000  0.574950  0.523473  1
  Ir  Ir30  1  0.750000  0.059670  0.719473  1
  Ir  Ir31  1  0.250000  0.940330  0.280527  1
  Ir  Ir32  1  0.750000  0.552165  0.950497  1
  Ir  Ir33  1  0.250000  0.447835  0.049503  1
  Ir  Ir34  1  0.750000  0.660124  0.271741  1
  Ir  Ir35  1  0.250000  0.339876  0.728259  1
  Ir  Ir36  1  0.750000  0.985334  0.426260  1
  Ir  Ir37  1  0.250000  0.014666  0.573740  1
