# generated using pymatgen
data_ErFeCoO5
_symmetry_space_group_name_H-M   'P 1'
_cell_length_a   5.76221800
_cell_length_b   7.23761900
_cell_length_c   8.47276500
_cell_angle_alpha   90.00000000
_cell_angle_beta   90.00000000
_cell_angle_gamma   90.00000000
_symmetry_Int_Tables_number   1
_chemical_formula_structural   ErFeCoO5
_chemical_formula_sum   'Er4 Fe4 Co4 O20'
_cell_volume   353.35444852
_cell_formula_units_Z   4
loop_
 _symmetry_equiv_pos_site_id
 _symmetry_equiv_pos_as_xyz
  1  'x, y, z'
loop_
 _atom_site_type_symbol
 _atom_site_label
 _atom_site_symmetry_multiplicity
 _atom_site_fract_x
 _atom_site_fract_y
 _atom_site_fract_z
 _atom_site_occupancy
  Er  Er0  1  0.500000  0.366119  0.330775  1
  Er  Er1  1  0.500000  0.633881  0.669225  1
  Er  Er2  1  0.500000  0.133881  0.830775  1
  Er  Er3  1  0.500000  0.866119  0.169225  1
  Fe  Fe4  1  0.000000  0.109015  0.147745  1
  Fe  Fe5  1  0.000000  0.890985  0.852255  1
  Fe  Fe6  1  0.000000  0.390985  0.647745  1
  Fe  Fe7  1  0.000000  0.609015  0.352255  1
  Co  Co8  1  0.251035  0.000000  0.500000  1
  Co  Co9  1  0.748965  0.000000  0.500000  1
  Co  Co10  1  0.748965  0.500000  0.000000  1
  Co  Co11  1  0.251035  0.500000  0.000000  1
  O  O12  1  0.236316  0.000000  0.000000  1
  O  O13  1  0.763684  0.000000  0.000000  1
  O  O14  1  0.763684  0.500000  0.500000  1
  O  O15  1  0.236316  0.500000  0.500000  1
  O  O16  1  0.000000  0.354097  0.069861  1
  O  O17  1  0.000000  0.645903  0.930139  1
  O  O18  1  0.000000  0.145903  0.569861  1
  O  O19  1  0.000000  0.854097  0.430139  1
  O  O20  1  0.261360  0.107371  0.297692  1
  O  O21  1  0.738640  0.892629  0.702308  1
  O  O22  1  0.261360  0.892629  0.702308  1
  O  O23  1  0.738640  0.392629  0.797692  1
  O  O24  1  0.738640  0.107371  0.297692  1
  O  O25  1  0.261360  0.607371  0.202308  1
  O  O26  1  0.738640  0.607371  0.202308  1
  O  O27  1  0.261360  0.392629  0.797692  1
  O  O28  1  0.500000  0.340623  0.057543  1
  O  O29  1  0.500000  0.659377  0.942457  1
  O  O30  1  0.500000  0.159377  0.557543  1
  O  O31  1  0.500000  0.840623  0.442457  1
