# generated using pymatgen
data_DyErGa2(SiIr2)2
_symmetry_space_group_name_H-M   'P 1'
_cell_length_a   4.09924000
_cell_length_b   4.09924000
_cell_length_c   10.35883900
_cell_angle_alpha   90.00000000
_cell_angle_beta   90.00000000
_cell_angle_gamma   90.00000000
_symmetry_Int_Tables_number   1
_chemical_formula_structural   DyErGa2(SiIr2)2
_chemical_formula_sum   'Dy1 Er1 Ga2 Si2 Ir4'
_cell_volume   174.06753329
_cell_formula_units_Z   1
loop_
 _symmetry_equiv_pos_site_id
 _symmetry_equiv_pos_as_xyz
  1  'x, y, z'
loop_
 _atom_site_type_symbol
 _atom_site_label
 _atom_site_symmetry_multiplicity
 _atom_site_fract_x
 _atom_site_fract_y
 _atom_site_fract_z
 _atom_site_occupancy
  Dy  Dy0  1  0.500000  0.000000  0.753700  1
  Er  Er1  1  0.000000  0.500000  0.246159  1
  Ga  Ga2  1  0.000000  0.000000  0.499815  1
  Ga  Ga3  1  0.500000  0.500000  0.499815  1
  Si  Si4  1  0.000000  0.500000  0.875497  1
  Si  Si5  1  0.500000  0.000000  0.124710  1
  Ir  Ir6  1  0.000000  0.000000  0.000296  1
  Ir  Ir7  1  0.500000  0.500000  0.000296  1
  Ir  Ir8  1  0.000000  0.500000  0.648449  1
  Ir  Ir9  1  0.500000  0.000000  0.351262  1
