# generated using pymatgen
data_Tb3Dy(Tc3Ge4)2
_symmetry_space_group_name_H-M   'P 1'
_cell_length_a   8.31312732
_cell_length_b   5.69614126
_cell_length_c   7.02093550
_cell_angle_alpha   76.33703549
_cell_angle_beta   90.01749303
_cell_angle_gamma   89.97844255
_symmetry_Int_Tables_number   1
_chemical_formula_structural   Tb3Dy(Tc3Ge4)2
_chemical_formula_sum   'Tb3 Dy1 Tc6 Ge8'
_cell_volume   323.05256936
_cell_formula_units_Z   1
loop_
 _symmetry_equiv_pos_site_id
 _symmetry_equiv_pos_as_xyz
  1  'x, y, z'
loop_
 _atom_site_type_symbol
 _atom_site_label
 _atom_site_symmetry_multiplicity
 _atom_site_fract_x
 _atom_site_fract_y
 _atom_site_fract_z
 _atom_site_occupancy
  Tb  Tb0  1  0.555746  0.076498  0.245231  1
  Tb  Tb1  1  0.055729  0.423593  0.754677  1
  Tb  Tb2  1  0.444198  0.923496  0.754776  1
  Dy  Dy3  1  0.944342  0.576672  0.244921  1
  Tc  Tc4  1  0.204953  0.112182  0.115788  1
  Tc  Tc5  1  0.704980  0.387881  0.884344  1
  Tc  Tc6  1  0.795218  0.887619  0.884513  1
  Tc  Tc7  1  0.294837  0.612062  0.115801  1
  Tc  Tc8  1  0.999971  0.000123  0.499741  1
  Tc  Tc9  1  0.499950  0.499997  0.500031  1
  Ge  Ge10  1  0.901607  0.120353  0.126718  1
  Ge  Ge11  1  0.401632  0.379729  0.873476  1
  Ge  Ge12  1  0.098341  0.879394  0.873728  1
  Ge  Ge13  1  0.598600  0.620283  0.126620  1
  Ge  Ge14  1  0.747622  0.222346  0.578354  1
  Ge  Ge15  1  0.247424  0.278108  0.421501  1
  Ge  Ge16  1  0.252325  0.777713  0.421479  1
  Ge  Ge17  1  0.752525  0.721953  0.578302  1
