# generated using pymatgen
data_Nd8Tm12Sn15Pb
_symmetry_space_group_name_H-M   'P 1'
_cell_length_a   8.23592286
_cell_length_b   8.23562486
_cell_length_c   14.96710100
_cell_angle_alpha   89.74261555
_cell_angle_beta   90.05548060
_cell_angle_gamma   90.22921371
_symmetry_Int_Tables_number   1
_chemical_formula_structural   Nd8Tm12Sn15Pb
_chemical_formula_sum   'Nd8 Tm12 Sn15 Pb1'
_cell_volume   1015.16926790
_cell_formula_units_Z   1
loop_
 _symmetry_equiv_pos_site_id
 _symmetry_equiv_pos_as_xyz
  1  'x, y, z'
loop_
 _atom_site_type_symbol
 _atom_site_label
 _atom_site_symmetry_multiplicity
 _atom_site_fract_x
 _atom_site_fract_y
 _atom_site_fract_z
 _atom_site_occupancy
  Nd  Nd0  1  0.654505  0.005995  0.467949  1
  Nd  Nd1  1  0.347329  0.992926  0.968692  1
  Nd  Nd2  1  0.005262  0.655064  0.531751  1
  Nd  Nd3  1  0.504902  0.845324  0.217834  1
  Nd  Nd4  1  0.496713  0.153995  0.717209  1
  Nd  Nd5  1  0.844974  0.506527  0.781923  1
  Nd  Nd6  1  0.154251  0.494428  0.282125  1
  Nd  Nd7  1  0.992946  0.346531  0.033319  1
  Tm  Tm8  1  0.498661  0.335592  0.119708  1
  Tm  Tm9  1  0.000016  0.164867  0.629139  1
  Tm  Tm10  1  0.833403  0.998647  0.870676  1
  Tm  Tm11  1  0.165188  0.999780  0.370108  1
  Tm  Tm12  1  0.500935  0.665418  0.619877  1
  Tm  Tm13  1  0.336103  0.500899  0.879930  1
  Tm  Tm14  1  0.665516  0.499700  0.380065  1
  Tm  Tm15  1  0.998845  0.835723  0.129631  1
  Tm  Tm16  1  0.331928  0.331333  0.499793  1
  Tm  Tm17  1  0.169651  0.828492  0.749389  1
  Tm  Tm18  1  0.830911  0.168756  0.250088  1
  Tm  Tm19  1  0.668314  0.668585  0.000318  1
  Sn  Sn20  1  0.291411  0.966615  0.568110  1
  Sn  Sn21  1  0.707620  0.034202  0.068092  1
  Sn  Sn22  1  0.967172  0.290800  0.431933  1
  Sn  Sn23  1  0.467052  0.208481  0.317811  1
  Sn  Sn24  1  0.533672  0.791745  0.818278  1
  Sn  Sn25  1  0.208717  0.467941  0.681011  1
  Sn  Sn26  1  0.790795  0.533184  0.181953  1
  Sn  Sn27  1  0.033531  0.708447  0.932007  1
  Sn  Sn28  1  0.802090  0.867254  0.671906  1
  Sn  Sn29  1  0.198598  0.131890  0.171110  1
  Sn  Sn30  1  0.867151  0.801601  0.328711  1
  Sn  Sn31  1  0.368671  0.698787  0.420796  1
  Sn  Sn32  1  0.632012  0.300544  0.921190  1
  Sn  Sn33  1  0.699706  0.368888  0.579157  1
  Sn  Sn34  1  0.299455  0.632598  0.078542  1
  Pb  Pb35  1  0.131996  0.198445  0.829869  1
