# generated using pymatgen
data_Dy15HoIn4(IrPd)2
_symmetry_space_group_name_H-M   'P 1'
_cell_length_a   9.66967314
_cell_length_b   9.65700412
_cell_length_c   9.65700300
_cell_angle_alpha   59.85946351
_cell_angle_beta   59.95658904
_cell_angle_gamma   59.95658996
_symmetry_Int_Tables_number   1
_chemical_formula_structural   Dy15HoIn4(IrPd)2
_chemical_formula_sum   'Dy15 Ho1 In4 Ir2 Pd2'
_cell_volume   636.55146194
_cell_formula_units_Z   1
loop_
 _symmetry_equiv_pos_site_id
 _symmetry_equiv_pos_as_xyz
  1  'x, y, z'
loop_
 _atom_site_type_symbol
 _atom_site_label
 _atom_site_symmetry_multiplicity
 _atom_site_fract_x
 _atom_site_fract_y
 _atom_site_fract_z
 _atom_site_occupancy
  Dy  Dy0  1  0.694393  0.685813  0.310014  1
  Dy  Dy1  1  0.309615  0.685864  0.310230  1
  Dy  Dy2  1  0.934562  0.940241  0.562971  1
  Dy  Dy3  1  0.147587  0.152424  0.551638  1
  Dy  Dy4  1  0.561604  0.940983  0.561968  1
  Dy  Dy5  1  0.145096  0.151080  0.151081  1
  Dy  Dy6  1  0.309614  0.310230  0.685864  1
  Dy  Dy7  1  0.939311  0.560412  0.560411  1
  Dy  Dy8  1  0.561605  0.561968  0.940983  1
  Dy  Dy9  1  0.563732  0.936361  0.936360  1
  Dy  Dy10  1  0.934561  0.562967  0.940245  1
  Dy  Dy11  1  0.147585  0.551638  0.152427  1
  Dy  Dy12  1  0.308558  0.691353  0.691354  1
  Dy  Dy13  1  0.694395  0.310016  0.685810  1
  Dy  Dy14  1  0.555378  0.149909  0.149904  1
  Ho  Ho15  1  0.689702  0.310335  0.310339  1
  In  In16  1  0.917370  0.917376  0.248139  1
  In  In17  1  0.248647  0.917189  0.917188  1
  In  In18  1  0.917372  0.248137  0.917375  1
  In  In19  1  0.916711  0.916710  0.916708  1
  Ir  Ir20  1  0.358800  0.356676  0.356676  1
  Ir  Ir21  1  0.927579  0.357051  0.357053  1
  Pd  Pd22  1  0.358112  0.356855  0.928408  1
  Pd  Pd23  1  0.358110  0.928413  0.356856  1
