# generated using pymatgen
data_Ac3La2Zn2Ru3
_symmetry_space_group_name_H-M   'P 1'
_cell_length_a   8.73802247
_cell_length_b   8.73802156
_cell_length_c   8.73802200
_cell_angle_alpha   109.47121470
_cell_angle_beta   109.47121259
_cell_angle_gamma   109.47122751
_symmetry_Int_Tables_number   1
_chemical_formula_structural   Ac3La2Zn2Ru3
_chemical_formula_sum   'Ac6 La4 Zn4 Ru6'
_cell_volume   513.59117224
_cell_formula_units_Z   2
loop_
 _symmetry_equiv_pos_site_id
 _symmetry_equiv_pos_as_xyz
  1  'x, y, z'
loop_
 _atom_site_type_symbol
 _atom_site_label
 _atom_site_symmetry_multiplicity
 _atom_site_fract_x
 _atom_site_fract_y
 _atom_site_fract_z
 _atom_site_occupancy
  Ac  Ac0  1  0.250000  0.688131  0.438131  1
  Ac  Ac1  1  0.750000  0.811869  0.061869  1
  Ac  Ac2  1  0.438131  0.250000  0.688131  1
  Ac  Ac3  1  0.688131  0.438131  0.250000  1
  Ac  Ac4  1  0.061869  0.750000  0.811869  1
  Ac  Ac5  1  0.811869  0.061869  0.750000  1
  La  La6  1  0.218162  0.218162  0.218162  1
  La  La7  1  0.500000  0.000000  0.281838  1
  La  La8  1  0.281838  0.500000  0.000000  1
  La  La9  1  0.000000  0.281838  0.500000  1
  Zn  Zn10  1  0.584757  0.584757  0.584757  1
  Zn  Zn11  1  0.500000  0.000000  0.915243  1
  Zn  Zn12  1  0.915243  0.500000  0.000000  1
  Zn  Zn13  1  0.000000  0.915243  0.500000  1
  Ru  Ru14  1  0.250000  0.130878  0.880878  1
  Ru  Ru15  1  0.750000  0.369122  0.619122  1
  Ru  Ru16  1  0.880877  0.250000  0.130878  1
  Ru  Ru17  1  0.130878  0.880877  0.250000  1
  Ru  Ru18  1  0.619122  0.750000  0.369122  1
  Ru  Ru19  1  0.369122  0.619122  0.750000  1
