# generated using pymatgen
data_La2Tb9Pr5(HgIr)4
_symmetry_space_group_name_H-M   'P 1'
_cell_length_a   9.78566112
_cell_length_b   9.79991199
_cell_length_c   9.79609205
_cell_angle_alpha   60.09847502
_cell_angle_beta   60.15504196
_cell_angle_gamma   60.15569430
_symmetry_Int_Tables_number   1
_chemical_formula_structural   La2Tb9Pr5(HgIr)4
_chemical_formula_sum   'La2 Tb9 Pr5 Hg4 Ir4'
_cell_volume   666.33066388
_cell_formula_units_Z   1
loop_
 _symmetry_equiv_pos_site_id
 _symmetry_equiv_pos_as_xyz
  1  'x, y, z'
loop_
 _atom_site_type_symbol
 _atom_site_label
 _atom_site_symmetry_multiplicity
 _atom_site_fract_x
 _atom_site_fract_y
 _atom_site_fract_z
 _atom_site_occupancy
  La  La0  1  0.349038  0.348574  0.350764  1
  La  La1  1  0.348831  0.350877  0.951040  1
  Tb  Tb2  1  0.349349  0.947333  0.352668  1
  Tb  Tb3  1  0.946268  0.350903  0.351938  1
  Tb  Tb4  1  0.813595  0.187666  0.187060  1
  Tb  Tb5  1  0.186250  0.813735  0.811721  1
  Tb  Tb6  1  0.186580  0.812662  0.189260  1
  Tb  Tb7  1  0.813404  0.187997  0.810638  1
  Tb  Tb8  1  0.185307  0.187926  0.812791  1
  Tb  Tb9  1  0.811553  0.810985  0.188550  1
  Tb  Tb10  1  0.942667  0.558701  0.556584  1
  Pr  Pr11  1  0.557866  0.941417  0.941600  1
  Pr  Pr12  1  0.563146  0.938933  0.558426  1
  Pr  Pr13  1  0.941104  0.559133  0.938049  1
  Pr  Pr14  1  0.564154  0.561685  0.935960  1
  Pr  Pr15  1  0.942565  0.940114  0.557559  1
  Hg  Hg16  1  0.588017  0.583611  0.578795  1
  Hg  Hg17  1  0.584292  0.584912  0.251693  1
  Hg  Hg18  1  0.586287  0.251068  0.581883  1
  Hg  Hg19  1  0.248182  0.586220  0.581310  1
  Ir  Ir20  1  0.139070  0.138928  0.145641  1
  Ir  Ir21  1  0.138409  0.141857  0.576477  1
  Ir  Ir22  1  0.135555  0.578270  0.146394  1
  Ir  Ir23  1  0.578509  0.136489  0.143199  1
