# generated using pymatgen
data_Zr5Co16Tc3(As3P)3
_symmetry_space_group_name_H-M   'P 1'
_cell_length_a   12.20975500
_cell_length_b   12.20975611
_cell_length_c   3.73663900
_cell_angle_alpha   90.00000000
_cell_angle_beta   90.00000000
_cell_angle_gamma   119.99999970
_symmetry_Int_Tables_number   1
_chemical_formula_structural   Zr5Co16Tc3(As3P)3
_chemical_formula_sum   'Zr5 Co16 Tc3 As9 P3'
_cell_volume   482.42045499
_cell_formula_units_Z   1
loop_
 _symmetry_equiv_pos_site_id
 _symmetry_equiv_pos_as_xyz
  1  'x, y, z'
loop_
 _atom_site_type_symbol
 _atom_site_label
 _atom_site_symmetry_multiplicity
 _atom_site_fract_x
 _atom_site_fract_y
 _atom_site_fract_z
 _atom_site_occupancy
  Zr  Zr0  1  0.666667  0.333333  0.000000  1
  Zr  Zr1  1  0.333333  0.666667  0.000000  1
  Zr  Zr2  1  0.828203  0.828203  0.500000  1
  Zr  Zr3  1  0.171797  0.000000  0.500000  1
  Zr  Zr4  1  0.000000  0.171797  0.500000  1
  Co  Co5  1  0.193037  0.365152  0.000000  1
  Co  Co6  1  0.172115  0.806963  0.000000  1
  Co  Co7  1  0.827885  0.634848  0.000000  1
  Co  Co8  1  0.806963  0.172115  0.000000  1
  Co  Co9  1  0.365152  0.193037  0.000000  1
  Co  Co10  1  0.126262  0.480104  0.500000  1
  Co  Co11  1  0.353842  0.873738  0.500000  1
  Co  Co12  1  0.519896  0.646158  0.500000  1
  Co  Co13  1  0.646158  0.519896  0.500000  1
  Co  Co14  1  0.873738  0.353842  0.500000  1
  Co  Co15  1  0.480104  0.126262  0.500000  1
  Co  Co16  1  0.000000  0.000000  0.000000  1
  Co  Co17  1  0.726769  0.000000  0.500000  1
  Co  Co18  1  0.000000  0.726769  0.500000  1
  Co  Co19  1  0.634848  0.827885  0.000000  1
  Co  Co20  1  0.273231  0.273231  0.500000  1
  Tc  Tc21  1  0.444642  0.444642  0.000000  1
  Tc  Tc22  1  0.555358  0.000000  0.000000  1
  Tc  Tc23  1  0.000000  0.555358  0.000000  1
  As  As24  1  0.644528  0.644528  0.000000  1
  As  As25  1  0.355472  0.000000  0.000000  1
  As  As26  1  0.000000  0.355472  0.000000  1
  As  As27  1  0.481164  0.315622  0.500000  1
  As  As28  1  0.684378  0.165544  0.500000  1
  As  As29  1  0.834456  0.518836  0.500000  1
  As  As30  1  0.518836  0.834456  0.500000  1
  As  As31  1  0.165544  0.684378  0.500000  1
  As  As32  1  0.315622  0.481164  0.500000  1
  P  P33  1  0.826129  0.000000  0.000000  1
  P  P34  1  0.000000  0.826129  0.000000  1
  P  P35  1  0.173871  0.173871  0.000000  1
