# generated using pymatgen
data_TbPrTh2(Al8Pt3)3
_symmetry_space_group_name_H-M   'P 1'
_cell_length_a   7.60368486
_cell_length_b   7.61778466
_cell_length_c   13.24289922
_cell_angle_alpha   84.50122326
_cell_angle_beta   78.95661870
_cell_angle_gamma   59.94803190
_symmetry_Int_Tables_number   1
_chemical_formula_structural   TbPrTh2(Al8Pt3)3
_chemical_formula_sum   'Tb1 Pr1 Th2 Al24 Pt9'
_cell_volume   651.66046018
_cell_formula_units_Z   1
loop_
 _symmetry_equiv_pos_site_id
 _symmetry_equiv_pos_as_xyz
  1  'x, y, z'
loop_
 _atom_site_type_symbol
 _atom_site_label
 _atom_site_symmetry_multiplicity
 _atom_site_fract_x
 _atom_site_fract_y
 _atom_site_fract_z
 _atom_site_occupancy
  Tb  Tb0  1  0.266257  0.501520  0.193250  1
  Pr  Pr1  1  0.732991  0.498243  0.808821  1
  Th  Th2  1  0.395235  0.168008  0.806247  1
  Th  Th3  1  0.604672  0.832057  0.193910  1
  Al  Al4  1  0.687413  0.832995  0.945780  1
  Al  Al5  1  0.312350  0.169226  0.056062  1
  Al  Al6  1  0.145995  0.832898  0.560779  1
  Al  Al7  1  0.854335  0.166780  0.438362  1
  Al  Al8  1  0.481287  0.167145  0.557140  1
  Al  Al9  1  0.518767  0.832978  0.442077  1
  Al  Al10  1  0.212584  0.168717  0.333591  1
  Al  Al11  1  0.788229  0.832113  0.664547  1
  Al  Al12  1  0.438109  0.510417  0.664845  1
  Al  Al13  1  0.561392  0.489761  0.333437  1
  Al  Al14  1  0.109775  0.158785  0.663109  1
  Al  Al15  1  0.891809  0.840140  0.335005  1
  Al  Al16  1  0.348892  0.502542  0.947625  1
  Al  Al17  1  0.647588  0.497698  0.055748  1
  Al  Al18  1  0.014112  0.165420  0.956331  1
  Al  Al19  1  0.986972  0.832679  0.045931  1
  Al  Al20  1  0.186435  0.500034  0.440640  1
  Al  Al21  1  0.814142  0.500007  0.558156  1
  Al  Al22  1  0.734802  0.166879  0.183925  1
  Al  Al23  1  0.262823  0.835593  0.816178  1
  Al  Al24  1  0.062364  0.633925  0.814532  1
  Al  Al25  1  0.940582  0.365600  0.185503  1
  Al  Al26  1  0.859900  0.037748  0.815534  1
  Al  Al27  1  0.139617  0.959500  0.184472  1
  Pt  Pt28  1  0.122791  0.491883  0.637219  1
  Pt  Pt29  1  0.878886  0.508388  0.361530  1
  Pt  Pt30  1  0.656576  0.170744  0.000512  1
  Pt  Pt31  1  0.342482  0.829470  0.000858  1
  Pt  Pt32  1  0.537867  0.165931  0.361311  1
  Pt  Pt33  1  0.461146  0.835305  0.637485  1
  Pt  Pt34  1  0.779301  0.173466  0.636440  1
  Pt  Pt35  1  0.221498  0.825070  0.362268  1
  Pt  Pt36  1  0.000025  0.500333  0.000841  1
