# generated using pymatgen
data_Ho20SiOs4Au7
_symmetry_space_group_name_H-M   'P 1'
_cell_length_a   7.56805538
_cell_length_b   9.09020889
_cell_length_c   11.83957000
_cell_angle_alpha   90.25984924
_cell_angle_beta   89.96538657
_cell_angle_gamma   89.89465697
_symmetry_Int_Tables_number   1
_chemical_formula_structural   Ho20SiOs4Au7
_chemical_formula_sum   'Ho20 Si1 Os4 Au7'
_cell_volume   814.49573158
_cell_formula_units_Z   1
loop_
 _symmetry_equiv_pos_site_id
 _symmetry_equiv_pos_as_xyz
  1  'x, y, z'
loop_
 _atom_site_type_symbol
 _atom_site_label
 _atom_site_symmetry_multiplicity
 _atom_site_fract_x
 _atom_site_fract_y
 _atom_site_fract_z
 _atom_site_occupancy
  Ho  Ho0  1  0.839654  0.753735  0.777448  1
  Ho  Ho1  1  0.162570  0.249561  0.221551  1
  Ho  Ho2  1  0.333997  0.244350  0.720046  1
  Ho  Ho3  1  0.663666  0.750460  0.278908  1
  Ho  Ho4  1  0.360192  0.755337  0.691450  1
  Ho  Ho5  1  0.641532  0.249508  0.310316  1
  Ho  Ho6  1  0.859711  0.243128  0.808371  1
  Ho  Ho7  1  0.142624  0.750230  0.190129  1
  Ho  Ho8  1  0.960841  0.756679  0.497902  1
  Ho  Ho9  1  0.043339  0.246694  0.502986  1
  Ho  Ho10  1  0.453594  0.249869  0.002526  1
  Ho  Ho11  1  0.543739  0.748113  0.996717  1
  Ho  Ho12  1  0.678227  0.030096  0.584400  1
  Ho  Ho13  1  0.325124  0.970804  0.421719  1
  Ho  Ho14  1  0.171452  0.968419  0.916061  1
  Ho  Ho15  1  0.324703  0.531615  0.417307  1
  Ho  Ho16  1  0.821986  0.030564  0.080998  1
  Ho  Ho17  1  0.676655  0.470298  0.582879  1
  Ho  Ho18  1  0.824653  0.468722  0.083619  1
  Ho  Ho19  1  0.171994  0.529065  0.915053  1
  Si  Si20  1  0.062863  0.994901  0.665453  1
  Os  Os21  1  0.570737  0.751661  0.504241  1
  Os  Os22  1  0.430777  0.251958  0.495967  1
  Os  Os23  1  0.067505  0.249079  0.996269  1
  Os  Os24  1  0.929023  0.748836  0.004380  1
  Au  Au25  1  0.565627  0.491079  0.833172  1
  Au  Au26  1  0.434883  0.507620  0.164665  1
  Au  Au27  1  0.067228  0.508438  0.662790  1
  Au  Au28  1  0.434258  0.992532  0.164604  1
  Au  Au29  1  0.934860  0.492540  0.339694  1
  Au  Au30  1  0.565948  0.006154  0.837670  1
  Au  Au31  1  0.936039  0.007955  0.330705  1
