# generated using pymatgen
data_Dy3Y12Tm(CdPt)4
_symmetry_space_group_name_H-M   'P 1'
_cell_length_a   9.73001347
_cell_length_b   9.71920588
_cell_length_c   9.71926600
_cell_angle_alpha   59.99979904
_cell_angle_beta   60.03672161
_cell_angle_gamma   60.03673199
_symmetry_Int_Tables_number   1
_chemical_formula_structural   Dy3Y12Tm(CdPt)4
_chemical_formula_sum   'Dy3 Y12 Tm1 Cd4 Pt4'
_cell_volume   650.28374536
_cell_formula_units_Z   1
loop_
 _symmetry_equiv_pos_site_id
 _symmetry_equiv_pos_as_xyz
  1  'x, y, z'
loop_
 _atom_site_type_symbol
 _atom_site_label
 _atom_site_symmetry_multiplicity
 _atom_site_fract_x
 _atom_site_fract_y
 _atom_site_fract_z
 _atom_site_occupancy
  Dy  Dy0  1  0.352094  0.352198  0.352191  1
  Dy  Dy1  1  0.352091  0.352197  0.943517  1
  Dy  Dy2  1  0.352095  0.943515  0.352194  1
  Y  Y3  1  0.810436  0.189788  0.189789  1
  Y  Y4  1  0.189479  0.810626  0.810630  1
  Y  Y5  1  0.189480  0.810627  0.189265  1
  Y  Y6  1  0.810436  0.189787  0.809990  1
  Y  Y7  1  0.189479  0.189266  0.810628  1
  Y  Y8  1  0.810437  0.809990  0.189783  1
  Y  Y9  1  0.935362  0.564465  0.564468  1
  Y  Y10  1  0.564761  0.935197  0.935196  1
  Y  Y11  1  0.564760  0.935196  0.564850  1
  Y  Y12  1  0.935358  0.564464  0.935708  1
  Y  Y13  1  0.564760  0.564847  0.935198  1
  Y  Y14  1  0.935359  0.935704  0.564470  1
  Tm  Tm15  1  0.944998  0.351669  0.351663  1
  Cd  Cd16  1  0.582709  0.581589  0.581591  1
  Cd  Cd17  1  0.582710  0.581591  0.254110  1
  Cd  Cd18  1  0.582708  0.254113  0.581591  1
  Cd  Cd19  1  0.253987  0.582004  0.582005  1
  Pt  Pt20  1  0.142612  0.144985  0.144988  1
  Pt  Pt21  1  0.142612  0.144988  0.567414  1
  Pt  Pt22  1  0.142612  0.567419  0.144985  1
  Pt  Pt23  1  0.568668  0.143778  0.143777  1
