# generated using pymatgen
data_Ac3Tb(SnPd)4
_symmetry_space_group_name_H-M   'P 1'
_cell_length_a   4.85726100
_cell_length_b   7.82844813
_cell_length_c   8.11970503
_cell_angle_alpha   89.98465148
_cell_angle_beta   90.00000000
_cell_angle_gamma   90.00000000
_symmetry_Int_Tables_number   1
_chemical_formula_structural   Ac3Tb(SnPd)4
_chemical_formula_sum   'Ac3 Tb1 Sn4 Pd4'
_cell_volume   308.75027687
_cell_formula_units_Z   1
loop_
 _symmetry_equiv_pos_site_id
 _symmetry_equiv_pos_as_xyz
  1  'x, y, z'
loop_
 _atom_site_type_symbol
 _atom_site_label
 _atom_site_symmetry_multiplicity
 _atom_site_fract_x
 _atom_site_fract_y
 _atom_site_fract_z
 _atom_site_occupancy
  Ac  Ac0  1  0.750000  0.014509  0.204228  1
  Ac  Ac1  1  0.250000  0.982087  0.791203  1
  Ac  Ac2  1  0.750000  0.512541  0.304317  1
  Tb  Tb3  1  0.250000  0.482484  0.709951  1
  Sn  Sn4  1  0.750000  0.196755  0.593967  1
  Sn  Sn5  1  0.250000  0.804928  0.414483  1
  Sn  Sn6  1  0.750000  0.673882  0.904145  1
  Sn  Sn7  1  0.250000  0.314856  0.079432  1
  Pd  Pd8  1  0.750000  0.792398  0.582803  1
  Pd  Pd9  1  0.250000  0.216285  0.427472  1
  Pd  Pd10  1  0.750000  0.313344  0.911860  1
  Pd  Pd11  1  0.250000  0.695930  0.076141  1
