# generated using pymatgen
data_Y15Tm3(LuBi6)2
_symmetry_space_group_name_H-M   'P 1'
_cell_length_a   8.24007879
_cell_length_b   9.51709486
_cell_length_c   12.05958515
_cell_angle_alpha   90.00265471
_cell_angle_beta   90.05579452
_cell_angle_gamma   90.02144016
_symmetry_Int_Tables_number   1
_chemical_formula_structural   Y15Tm3(LuBi6)2
_chemical_formula_sum   'Y15 Tm3 Lu2 Bi12'
_cell_volume   945.73158592
_cell_formula_units_Z   1
loop_
 _symmetry_equiv_pos_site_id
 _symmetry_equiv_pos_as_xyz
  1  'x, y, z'
loop_
 _atom_site_type_symbol
 _atom_site_label
 _atom_site_symmetry_multiplicity
 _atom_site_fract_x
 _atom_site_fract_y
 _atom_site_fract_z
 _atom_site_occupancy
  Y  Y0  1  0.186367  0.749918  0.719143  1
  Y  Y1  1  0.686434  0.749947  0.781047  1
  Y  Y2  1  0.813693  0.250105  0.280781  1
  Y  Y3  1  0.313590  0.250457  0.218683  1
  Y  Y4  1  0.806158  0.062759  0.559954  1
  Y  Y5  1  0.693558  0.936948  0.059536  1
  Y  Y6  1  0.194048  0.562821  0.440169  1
  Y  Y7  1  0.693948  0.562652  0.059704  1
  Y  Y8  1  0.193955  0.937142  0.440125  1
  Y  Y9  1  0.306044  0.063128  0.940363  1
  Y  Y10  1  0.806127  0.437318  0.559856  1
  Y  Y11  1  0.354780  0.750250  0.215606  1
  Y  Y12  1  0.854460  0.750088  0.284295  1
  Y  Y13  1  0.644822  0.250671  0.784829  1
  Y  Y14  1  0.146264  0.250837  0.715946  1
  Tm  Tm15  1  0.974869  0.250523  0.011034  1
  Tm  Tm16  1  0.474011  0.250060  0.488882  1
  Tm  Tm17  1  0.305940  0.434816  0.940209  1
  Lu  Lu18  1  0.025961  0.749924  0.989016  1
  Lu  Lu19  1  0.525635  0.750159  0.511064  1
  Bi  Bi20  1  0.433985  0.003452  0.672429  1
  Bi  Bi21  1  0.934469  0.496841  0.827875  1
  Bi  Bi22  1  0.566145  0.503897  0.327502  1
  Bi  Bi23  1  0.066325  0.996276  0.172292  1
  Bi  Bi24  1  0.566280  0.996319  0.327592  1
  Bi  Bi25  1  0.066311  0.504082  0.172086  1
  Bi  Bi26  1  0.433811  0.496835  0.672553  1
  Bi  Bi27  1  0.934048  0.003590  0.827801  1
  Bi  Bi28  1  0.406964  0.747823  0.957882  1
  Bi  Bi29  1  0.907926  0.749974  0.541706  1
  Bi  Bi30  1  0.591488  0.250441  0.041673  1
  Bi  Bi31  1  0.091585  0.249948  0.458365  1
