# generated using pymatgen
data_Lu4Ta5ReSi8
_symmetry_space_group_name_H-M   'P 1'
_cell_length_a   6.94549048
_cell_length_b   6.94200127
_cell_length_c   12.83803938
_cell_angle_alpha   89.84917967
_cell_angle_beta   90.28672200
_cell_angle_gamma   90.04616554
_symmetry_Int_Tables_number   1
_chemical_formula_structural   Lu4Ta5ReSi8
_chemical_formula_sum   'Lu8 Ta10 Re2 Si16'
_cell_volume   618.98373046
_cell_formula_units_Z   2
loop_
 _symmetry_equiv_pos_site_id
 _symmetry_equiv_pos_as_xyz
  1  'x, y, z'
loop_
 _atom_site_type_symbol
 _atom_site_label
 _atom_site_symmetry_multiplicity
 _atom_site_fract_x
 _atom_site_fract_y
 _atom_site_fract_z
 _atom_site_occupancy
  Lu  Lu0  1  0.003047  0.661254  0.029136  1
  Lu  Lu1  1  0.000380  0.338117  0.532762  1
  Lu  Lu2  1  0.339714  0.998605  0.467539  1
  Lu  Lu3  1  0.162427  0.498771  0.782550  1
  Lu  Lu4  1  0.838791  0.500559  0.279766  1
  Lu  Lu5  1  0.499620  0.161568  0.217512  1
  Lu  Lu6  1  0.501234  0.839901  0.719941  1
  Lu  Lu7  1  0.659581  0.000343  0.970081  1
  Ta  Ta8  1  0.668510  0.667555  0.499483  1
  Ta  Ta9  1  0.164937  0.829609  0.249286  1
  Ta  Ta10  1  0.331182  0.332467  0.000323  1
  Ta  Ta11  1  0.995690  0.845073  0.627109  1
  Ta  Ta12  1  0.003440  0.156691  0.125695  1
  Ta  Ta13  1  0.842082  0.990176  0.372155  1
  Ta  Ta14  1  0.344586  0.504341  0.376265  1
  Ta  Ta15  1  0.655878  0.495891  0.876479  1
  Ta  Ta16  1  0.505493  0.342881  0.625105  1
  Ta  Ta17  1  0.830807  0.167107  0.750843  1
  Re  Re18  1  0.489978  0.662067  0.121875  1
  Re  Re19  1  0.164044  0.002296  0.875380  1
  Si  Si20  1  0.042051  0.701254  0.436819  1
  Si  Si21  1  0.634086  0.293632  0.430498  1
  Si  Si22  1  0.369043  0.707952  0.930353  1
  Si  Si23  1  0.205385  0.130976  0.682993  1
  Si  Si24  1  0.295377  0.633446  0.570140  1
  Si  Si25  1  0.701563  0.376190  0.069221  1
  Si  Si26  1  0.789643  0.865343  0.178171  1
  Si  Si27  1  0.130858  0.205329  0.318712  1
  Si  Si28  1  0.961326  0.289946  0.936217  1
  Si  Si29  1  0.702735  0.041111  0.563496  1
  Si  Si30  1  0.206236  0.461089  0.186476  1
  Si  Si31  1  0.797232  0.542201  0.686938  1
  Si  Si32  1  0.456385  0.202373  0.815214  1
  Si  Si33  1  0.537793  0.795623  0.311322  1
  Si  Si34  1  0.294955  0.958857  0.063614  1
  Si  Si35  1  0.873912  0.799405  0.820528  1
