# generated using pymatgen
data_Ac2TaReN6
_symmetry_space_group_name_H-M   'P 1'
_cell_length_a   5.76365879
_cell_length_b   5.76368984
_cell_length_c   5.76248912
_cell_angle_alpha   59.99328294
_cell_angle_beta   59.99324074
_cell_angle_gamma   89.99996946
_symmetry_Int_Tables_number   1
_chemical_formula_structural   Ac2TaReN6
_chemical_formula_sum   'Ac2 Ta1 Re1 N6'
_cell_volume   135.33359347
_cell_formula_units_Z   1
loop_
 _symmetry_equiv_pos_site_id
 _symmetry_equiv_pos_as_xyz
  1  'x, y, z'
loop_
 _atom_site_type_symbol
 _atom_site_label
 _atom_site_symmetry_multiplicity
 _atom_site_fract_x
 _atom_site_fract_y
 _atom_site_fract_z
 _atom_site_occupancy
  Ac  Ac0  1  0.250003  0.750005  0.499996  1
  Ac  Ac1  1  0.750001  0.250000  0.500001  1
  Ta  Ta2  1  0.999999  0.000001  0.000001  1
  Re  Re3  1  0.500004  0.499982  0.000003  1
  N  N4  1  0.254859  0.254863  0.000000  1
  N  N5  1  0.745140  0.254864  0.999999  1
  N  N6  1  0.254858  0.745141  0.999999  1
  N  N7  1  0.745138  0.745140  0.000001  1
  N  N8  1  0.254807  0.254810  0.490383  1
  N  N9  1  0.745194  0.745196  0.509612  1
