# generated using pymatgen
data_EuTcF6
_symmetry_space_group_name_H-M   'P 1'
_cell_length_a   6.12764814
_cell_length_b   6.12764841
_cell_length_c   6.12764900
_cell_angle_alpha   60.00000219
_cell_angle_beta   60.00000078
_cell_angle_gamma   59.99999881
_symmetry_Int_Tables_number   1
_chemical_formula_structural   EuTcF6
_chemical_formula_sum   'Eu1 Tc1 F6'
_cell_volume   162.69213046
_cell_formula_units_Z   1
loop_
 _symmetry_equiv_pos_site_id
 _symmetry_equiv_pos_as_xyz
  1  'x, y, z'
loop_
 _atom_site_type_symbol
 _atom_site_label
 _atom_site_symmetry_multiplicity
 _atom_site_fract_x
 _atom_site_fract_y
 _atom_site_fract_z
 _atom_site_occupancy
  Eu  Eu0  1  0.499999  0.499999  0.499999  1
  Tc  Tc1  1  0.000000  0.000000  0.000000  1
  F  F2  1  0.771029  0.228970  0.228970  1
  F  F3  1  0.228970  0.771029  0.228970  1
  F  F4  1  0.771029  0.771029  0.228970  1
  F  F5  1  0.228970  0.228970  0.771029  1
  F  F6  1  0.771029  0.228970  0.771029  1
  F  F7  1  0.228970  0.771029  0.771029  1
