# generated using pymatgen
data_Cs2MoF5
_symmetry_space_group_name_H-M   'P 1'
_cell_length_a   6.29442200
_cell_length_b   8.23389400
_cell_length_c   13.07003200
_cell_angle_alpha   90.00000000
_cell_angle_beta   90.00000000
_cell_angle_gamma   90.00000000
_symmetry_Int_Tables_number   1
_chemical_formula_structural   Cs2MoF5
_chemical_formula_sum   'Cs8 Mo4 F20'
_cell_volume   677.38843674
_cell_formula_units_Z   4
loop_
 _symmetry_equiv_pos_site_id
 _symmetry_equiv_pos_as_xyz
  1  'x, y, z'
loop_
 _atom_site_type_symbol
 _atom_site_label
 _atom_site_symmetry_multiplicity
 _atom_site_fract_x
 _atom_site_fract_y
 _atom_site_fract_z
 _atom_site_occupancy
  Cs  Cs0  1  0.250000  0.493124  0.273047  1
  Cs  Cs1  1  0.750000  0.506876  0.726953  1
  Cs  Cs2  1  0.250000  0.993124  0.226953  1
  Cs  Cs3  1  0.750000  0.006876  0.773047  1
  Cs  Cs4  1  0.250000  0.146254  0.583586  1
  Cs  Cs5  1  0.750000  0.853746  0.416414  1
  Cs  Cs6  1  0.250000  0.646254  0.916414  1
  Cs  Cs7  1  0.750000  0.353746  0.083586  1
  Mo  Mo8  1  0.250000  0.655808  0.560385  1
  Mo  Mo9  1  0.750000  0.344192  0.439615  1
  Mo  Mo10  1  0.250000  0.155808  0.939615  1
  Mo  Mo11  1  0.750000  0.844192  0.060385  1
  F  F12  1  0.511012  0.195989  0.383848  1
  F  F13  1  0.011012  0.804011  0.616152  1
  F  F14  1  0.988988  0.695989  0.116152  1
  F  F15  1  0.488988  0.304011  0.883848  1
  F  F16  1  0.488988  0.804011  0.616152  1
  F  F17  1  0.988988  0.195989  0.383848  1
  F  F18  1  0.011012  0.304011  0.883848  1
  F  F19  1  0.511012  0.695989  0.116152  1
  F  F20  1  0.250000  0.784516  0.420332  1
  F  F21  1  0.750000  0.215484  0.579668  1
  F  F22  1  0.250000  0.284516  0.079668  1
  F  F23  1  0.750000  0.715484  0.920332  1
  F  F24  1  0.500000  0.500000  0.500000  1
  F  F25  1  0.000000  0.500000  0.500000  1
  F  F26  1  0.000000  0.000000  0.000000  1
  F  F27  1  0.500000  0.000000  0.000000  1
  F  F28  1  0.750000  0.985826  0.192089  1
  F  F29  1  0.250000  0.014174  0.807911  1
  F  F30  1  0.750000  0.485826  0.307911  1
  F  F31  1  0.250000  0.514174  0.692089  1
