# generated using pymatgen
data_Y3ErAlPd
_symmetry_space_group_name_H-M   'P 1'
_cell_length_a   9.57943966
_cell_length_b   9.57943996
_cell_length_c   9.57944000
_cell_angle_alpha   59.99999985
_cell_angle_beta   59.99999882
_cell_angle_gamma   60.00000024
_symmetry_Int_Tables_number   1
_chemical_formula_structural   Y3ErAlPd
_chemical_formula_sum   'Y12 Er4 Al4 Pd4'
_cell_volume   621.59189919
_cell_formula_units_Z   4
loop_
 _symmetry_equiv_pos_site_id
 _symmetry_equiv_pos_as_xyz
  1  'x, y, z'
loop_
 _atom_site_type_symbol
 _atom_site_label
 _atom_site_symmetry_multiplicity
 _atom_site_fract_x
 _atom_site_fract_y
 _atom_site_fract_z
 _atom_site_occupancy
  Y  Y0  1  0.806535  0.193465  0.193465  1
  Y  Y1  1  0.193465  0.806535  0.806535  1
  Y  Y2  1  0.193465  0.806535  0.193465  1
  Y  Y3  1  0.806535  0.193465  0.806535  1
  Y  Y4  1  0.193465  0.193465  0.806535  1
  Y  Y5  1  0.806535  0.806535  0.193465  1
  Y  Y6  1  0.934864  0.565136  0.565136  1
  Y  Y7  1  0.565136  0.934864  0.934864  1
  Y  Y8  1  0.565136  0.934864  0.565136  1
  Y  Y9  1  0.934864  0.565136  0.934864  1
  Y  Y10  1  0.565136  0.565136  0.934864  1
  Y  Y11  1  0.934864  0.934864  0.565136  1
  Er  Er12  1  0.355970  0.355970  0.355970  1
  Er  Er13  1  0.355970  0.355970  0.932089  1
  Er  Er14  1  0.355970  0.932089  0.355970  1
  Er  Er15  1  0.932089  0.355970  0.355970  1
  Al  Al16  1  0.577953  0.577953  0.577953  1
  Al  Al17  1  0.577953  0.577953  0.266143  1
  Al  Al18  1  0.577953  0.266143  0.577953  1
  Al  Al19  1  0.266143  0.577953  0.577953  1
  Pd  Pd20  1  0.146272  0.146272  0.146272  1
  Pd  Pd21  1  0.146272  0.146272  0.561183  1
  Pd  Pd22  1  0.146272  0.561183  0.146272  1
  Pd  Pd23  1  0.561183  0.146272  0.146272  1
