# generated using pymatgen
data_Ca3Nd17Si15P
_symmetry_space_group_name_H-M   'P 1'
_cell_length_a   7.92531406
_cell_length_b   7.92677939
_cell_length_c   15.22254900
_cell_angle_alpha   90.03105204
_cell_angle_beta   89.83451732
_cell_angle_gamma   89.86749010
_symmetry_Int_Tables_number   1
_chemical_formula_structural   Ca3Nd17Si15P
_chemical_formula_sum   'Ca3 Nd17 Si15 P1'
_cell_volume   956.30757323
_cell_formula_units_Z   1
loop_
 _symmetry_equiv_pos_site_id
 _symmetry_equiv_pos_as_xyz
  1  'x, y, z'
loop_
 _atom_site_type_symbol
 _atom_site_label
 _atom_site_symmetry_multiplicity
 _atom_site_fract_x
 _atom_site_fract_y
 _atom_site_fract_z
 _atom_site_occupancy
  Ca  Ca0  1  0.310328  0.309977  0.000593  1
  Ca  Ca1  1  0.189419  0.808676  0.250217  1
  Ca  Ca2  1  0.809994  0.190721  0.749357  1
  Nd  Nd3  1  0.690981  0.691237  0.499630  1
  Nd  Nd4  1  0.382013  0.008801  0.444549  1
  Nd  Nd5  1  0.490673  0.877805  0.697638  1
  Nd  Nd6  1  0.509865  0.119366  0.196095  1
  Nd  Nd7  1  0.876379  0.490228  0.302474  1
  Nd  Nd8  1  0.121306  0.508776  0.803893  1
  Nd  Nd9  1  0.621413  0.988980  0.946786  1
  Nd  Nd10  1  0.010186  0.378021  0.553121  1
  Nd  Nd11  1  0.989110  0.620642  0.052337  1
  Nd  Nd12  1  0.128259  0.985336  0.874593  1
  Nd  Nd13  1  0.516105  0.627163  0.125505  1
  Nd  Nd14  1  0.476778  0.371891  0.627275  1
  Nd  Nd15  1  0.626192  0.516049  0.873028  1
  Nd  Nd16  1  0.373614  0.479584  0.374722  1
  Nd  Nd17  1  0.873677  0.019025  0.376506  1
  Nd  Nd18  1  0.983240  0.125925  0.123563  1
  Nd  Nd19  1  0.021978  0.877211  0.624950  1
  Si  Si20  1  0.330414  0.698055  0.950860  1
  Si  Si21  1  0.669951  0.306695  0.453720  1
  Si  Si22  1  0.698296  0.331758  0.048441  1
  Si  Si23  1  0.305257  0.669772  0.548516  1
  Si  Si24  1  0.800094  0.833760  0.199689  1
  Si  Si25  1  0.165815  0.200196  0.298775  1
  Si  Si26  1  0.835769  0.799889  0.799697  1
  Si  Si27  1  0.286559  0.919362  0.058963  1
  Si  Si28  1  0.581408  0.787547  0.309995  1
  Si  Si29  1  0.420237  0.212067  0.811408  1
  Si  Si30  1  0.788993  0.582163  0.688713  1
  Si  Si31  1  0.212709  0.418806  0.189463  1
  Si  Si32  1  0.708896  0.076270  0.560504  1
  Si  Si33  1  0.919943  0.287519  0.939957  1
  Si  Si34  1  0.076167  0.710082  0.441114  1
  P  P35  1  0.197980  0.170641  0.703357  1
