# generated using pymatgen
data_Ho3Sc3Bi2Os
_symmetry_space_group_name_H-M   'P 1'
_cell_length_a   7.94458100
_cell_length_b   7.94458078
_cell_length_c   4.23605500
_cell_angle_alpha   90.00000000
_cell_angle_beta   90.00000000
_cell_angle_gamma   119.99999676
_symmetry_Int_Tables_number   1
_chemical_formula_structural   Ho3Sc3Bi2Os
_chemical_formula_sum   'Ho3 Sc3 Bi2 Os1'
_cell_volume   231.54436625
_cell_formula_units_Z   1
loop_
 _symmetry_equiv_pos_site_id
 _symmetry_equiv_pos_as_xyz
  1  'x, y, z'
loop_
 _atom_site_type_symbol
 _atom_site_label
 _atom_site_symmetry_multiplicity
 _atom_site_fract_x
 _atom_site_fract_y
 _atom_site_fract_z
 _atom_site_occupancy
  Ho  Ho0  1  0.000000  0.614611  0.500000  1
  Ho  Ho1  1  0.385389  0.385389  0.500000  1
  Ho  Ho2  1  0.614611  0.000000  0.500000  1
  Sc  Sc3  1  0.222972  0.000000  0.000000  1
  Sc  Sc4  1  0.777028  0.777028  0.000000  1
  Sc  Sc5  1  0.000000  0.222972  0.000000  1
  Bi  Bi6  1  0.333333  0.666667  0.000000  1
  Bi  Bi7  1  0.666667  0.333333  0.000000  1
  Os  Os8  1  0.000000  0.000000  0.500000  1
