# generated using pymatgen
data_Dy8Ho4Ga2Ni3Os
_symmetry_space_group_name_H-M   'P 1'
_cell_length_a   8.32981308
_cell_length_b   8.32976139
_cell_length_c   8.33020475
_cell_angle_alpha   112.72132677
_cell_angle_beta   109.55269413
_cell_angle_gamma   106.20278835
_symmetry_Int_Tables_number   1
_chemical_formula_structural   Dy8Ho4Ga2Ni3Os
_chemical_formula_sum   'Dy8 Ho4 Ga2 Ni3 Os1'
_cell_volume   443.51473279
_cell_formula_units_Z   1
loop_
 _symmetry_equiv_pos_site_id
 _symmetry_equiv_pos_as_xyz
  1  'x, y, z'
loop_
 _atom_site_type_symbol
 _atom_site_label
 _atom_site_symmetry_multiplicity
 _atom_site_fract_x
 _atom_site_fract_y
 _atom_site_fract_z
 _atom_site_occupancy
  Dy  Dy0  1  0.438773  0.246225  0.192524  1
  Dy  Dy1  1  0.571147  0.765667  0.805517  1
  Dy  Dy2  1  0.039857  0.234379  0.805518  1
  Dy  Dy3  1  0.946288  0.753752  0.192515  1
  Dy  Dy4  1  0.184713  0.276880  0.461598  1
  Dy  Dy5  1  0.825392  0.721418  0.546810  1
  Dy  Dy6  1  0.184752  0.723082  0.907837  1
  Dy  Dy7  1  0.825352  0.278571  0.103919  1
  Ho  Ho8  1  0.325612  0.638099  0.308537  1
  Ho  Ho9  1  0.670446  0.361907  0.687543  1
  Ho  Ho10  1  0.325624  0.017091  0.687527  1
  Ho  Ho11  1  0.670433  0.982913  0.308545  1
  Ga  Ga12  1  0.496435  0.500011  0.996445  1
  Ga  Ga13  1  0.009423  0.000006  0.009420  1
  Ni  Ni14  1  0.652926  0.000007  0.652923  1
  Ni  Ni15  1  0.117685  0.617592  0.500084  1
  Ni  Ni16  1  0.882505  0.382394  0.500097  1
  Os  Os17  1  0.332634  0.000007  0.332640  1
