# generated using pymatgen
data_Ti8Al14Fe4AsPt3
_symmetry_space_group_name_H-M   'P 1'
_cell_length_a   8.60266643
_cell_length_b   8.56359208
_cell_length_c   8.60201404
_cell_angle_alpha   120.00615807
_cell_angle_beta   120.15935510
_cell_angle_gamma   89.99363891
_symmetry_Int_Tables_number   1
_chemical_formula_structural   Ti8Al14Fe4AsPt3
_chemical_formula_sum   'Ti8 Al14 Fe4 As1 Pt3'
_cell_volume   447.00012838
_cell_formula_units_Z   1
loop_
 _symmetry_equiv_pos_site_id
 _symmetry_equiv_pos_as_xyz
  1  'x, y, z'
loop_
 _atom_site_type_symbol
 _atom_site_label
 _atom_site_symmetry_multiplicity
 _atom_site_fract_x
 _atom_site_fract_y
 _atom_site_fract_z
 _atom_site_occupancy
  Ti  Ti0  1  0.803106  0.291977  0.081113  1
  Ti  Ti1  1  0.211004  0.292224  0.488828  1
  Ti  Ti2  1  0.206774  0.698122  0.492314  1
  Ti  Ti3  1  0.202796  0.713152  0.917242  1
  Ti  Ti4  1  0.795708  0.712948  0.510430  1
  Ti  Ti5  1  0.789658  0.295176  0.505859  1
  Ti  Ti6  1  0.384581  0.117932  0.733377  1
  Ti  Ti7  1  0.376100  0.643926  0.268035  1
  Al  Al8  1  0.162546  0.335391  0.172325  1
  Al  Al9  1  0.156689  0.985633  0.829096  1
  Al  Al10  1  0.153987  0.344969  0.825549  1
  Al  Al11  1  0.519500  0.345248  0.191362  1
  Al  Al12  1  0.836563  0.661045  0.824076  1
  Al  Al13  1  0.844651  0.017626  0.173398  1
  Al  Al14  1  0.843824  0.655224  0.171597  1
  Al  Al15  1  0.483938  0.655476  0.811866  1
  Al  Al16  1  0.378487  0.122701  0.269801  1
  Al  Al17  1  0.852552  0.122253  0.743674  1
  Al  Al18  1  0.615457  0.882955  0.267984  1
  Al  Al19  1  0.623081  0.355080  0.731942  1
  Al  Al20  1  0.624287  0.876684  0.733293  1
  Al  Al21  1  0.143350  0.876297  0.252326  1
  Fe  Fe22  1  0.496530  0.501778  0.497514  1
  Fe  Fe23  1  0.002053  0.499746  0.002531  1
  Fe  Fe24  1  0.000774  0.000482  0.999952  1
  Fe  Fe25  1  0.495024  0.999153  0.503861  1
  As  As26  1  0.998054  0.497306  0.499326  1
  Pt  Pt27  1  0.999097  0.999502  0.499661  1
  Pt  Pt28  1  0.500175  0.999820  0.001077  1
  Pt  Pt29  1  0.499648  0.500175  0.000592  1
