# generated using pymatgen
data_TbYGa6(NiAg)2
_symmetry_space_group_name_H-M   'P 1'
_cell_length_a   4.08782570
_cell_length_b   6.53415900
_cell_length_c   8.07654901
_cell_angle_alpha   90.00000000
_cell_angle_beta   104.38305381
_cell_angle_gamma   90.00000000
_symmetry_Int_Tables_number   1
_chemical_formula_structural   TbYGa6(NiAg)2
_chemical_formula_sum   'Tb1 Y1 Ga6 Ni2 Ag2'
_cell_volume   208.96703266
_cell_formula_units_Z   1
loop_
 _symmetry_equiv_pos_site_id
 _symmetry_equiv_pos_as_xyz
  1  'x, y, z'
loop_
 _atom_site_type_symbol
 _atom_site_label
 _atom_site_symmetry_multiplicity
 _atom_site_fract_x
 _atom_site_fract_y
 _atom_site_fract_z
 _atom_site_occupancy
  Tb  Tb0  1  0.126689  0.250000  0.251243  1
  Y  Y1  1  0.873646  0.750000  0.749334  1
  Ga  Ga2  1  0.070495  0.750000  0.139762  1
  Ga  Ga3  1  0.929537  0.250000  0.860311  1
  Ga  Ga4  1  0.686238  0.550002  0.370715  1
  Ga  Ga5  1  0.313724  0.450155  0.629232  1
  Ga  Ga6  1  0.686238  0.949998  0.370715  1
  Ga  Ga7  1  0.313724  0.049845  0.629232  1
  Ni  Ni8  1  0.223447  0.750000  0.446252  1
  Ni  Ni9  1  0.776396  0.250000  0.553542  1
  Ag  Ag10  1  0.499934  0.499892  0.999830  1
  Ag  Ag11  1  0.499934  0.000108  0.999830  1
