# generated using pymatgen
data_KGd(SeO4)2
_symmetry_space_group_name_H-M   'P 1'
_cell_length_a   5.40582842
_cell_length_b   5.40582823
_cell_length_c   8.44950156
_cell_angle_alpha   88.11635345
_cell_angle_beta   88.11635348
_cell_angle_gamma   65.47387875
_symmetry_Int_Tables_number   1
_chemical_formula_structural   KGd(SeO4)2
_chemical_formula_sum   'K1 Gd1 Se2 O8'
_cell_volume   224.46900220
_cell_formula_units_Z   1
loop_
 _symmetry_equiv_pos_site_id
 _symmetry_equiv_pos_as_xyz
  1  'x, y, z'
loop_
 _atom_site_type_symbol
 _atom_site_label
 _atom_site_symmetry_multiplicity
 _atom_site_fract_x
 _atom_site_fract_y
 _atom_site_fract_z
 _atom_site_occupancy
  K  K0  1  0.000000  0.000000  0.500000  1
  Gd  Gd1  1  0.000000  0.000000  0.000000  1
  Se  Se2  1  0.367154  0.367154  0.776408  1
  Se  Se3  1  0.632846  0.632846  0.223592  1
  O  O4  1  0.296032  0.296032  0.601053  1
  O  O5  1  0.703968  0.703968  0.398947  1
  O  O6  1  0.707012  0.239147  0.798320  1
  O  O7  1  0.292988  0.760853  0.201680  1
  O  O8  1  0.760853  0.292988  0.201680  1
  O  O9  1  0.239147  0.707012  0.798320  1
  O  O10  1  0.243477  0.243477  0.929232  1
  O  O11  1  0.756523  0.756523  0.070768  1
