# generated using pymatgen
data_Ta4Be2SiNi4P
_symmetry_space_group_name_H-M   'P 1'
_cell_length_a   3.55314100
_cell_length_b   6.09122904
_cell_length_c   7.00984058
_cell_angle_alpha   89.91717941
_cell_angle_beta   90.00000000
_cell_angle_gamma   90.00000000
_symmetry_Int_Tables_number   1
_chemical_formula_structural   Ta4Be2SiNi4P
_chemical_formula_sum   'Ta4 Be2 Si1 Ni4 P1'
_cell_volume   151.71379069
_cell_formula_units_Z   1
loop_
 _symmetry_equiv_pos_site_id
 _symmetry_equiv_pos_as_xyz
  1  'x, y, z'
loop_
 _atom_site_type_symbol
 _atom_site_label
 _atom_site_symmetry_multiplicity
 _atom_site_fract_x
 _atom_site_fract_y
 _atom_site_fract_z
 _atom_site_occupancy
  Ta  Ta0  1  0.250000  0.520103  0.170961  1
  Ta  Ta1  1  0.750000  0.480742  0.832650  1
  Ta  Ta2  1  0.750000  0.967669  0.685029  1
  Ta  Ta3  1  0.250000  0.028333  0.313080  1
  Be  Be4  1  0.250000  0.772470  0.883268  1
  Be  Be5  1  0.750000  0.228351  0.118161  1
  Si  Si6  1  0.250000  0.270082  0.625811  1
  Ni  Ni7  1  0.250000  0.649281  0.564317  1
  Ni  Ni8  1  0.750000  0.353457  0.432883  1
  Ni  Ni9  1  0.750000  0.859963  0.055902  1
  Ni  Ni10  1  0.250000  0.139834  0.945589  1
  P  P11  1  0.750000  0.729716  0.372350  1
