# generated using pymatgen
data_HoPa3Co3NiSn2
_symmetry_space_group_name_H-M   'P 1'
_cell_length_a   7.37652910
_cell_length_b   7.37652986
_cell_length_c   3.53635300
_cell_angle_alpha   90.00000000
_cell_angle_beta   90.00000000
_cell_angle_gamma   92.27519930
_symmetry_Int_Tables_number   1
_chemical_formula_structural   HoPa3Co3NiSn2
_chemical_formula_sum   'Ho1 Pa3 Co3 Ni1 Sn2'
_cell_volume   192.27254450
_cell_formula_units_Z   1
loop_
 _symmetry_equiv_pos_site_id
 _symmetry_equiv_pos_as_xyz
  1  'x, y, z'
loop_
 _atom_site_type_symbol
 _atom_site_label
 _atom_site_symmetry_multiplicity
 _atom_site_fract_x
 _atom_site_fract_y
 _atom_site_fract_z
 _atom_site_occupancy
  Ho  Ho0  1  0.829045  0.670955  0.500000  1
  Pa  Pa1  1  0.672510  0.179965  0.500000  1
  Pa  Pa2  1  0.320035  0.827490  0.500000  1
  Pa  Pa3  1  0.170099  0.329901  0.500000  1
  Co  Co4  1  0.877736  0.348567  0.000000  1
  Co  Co5  1  0.151433  0.622264  0.000000  1
  Co  Co6  1  0.366655  0.133345  0.000000  1
  Ni  Ni7  1  0.613105  0.886895  0.000000  1
  Sn  Sn8  1  0.505141  0.505760  0.000000  1
  Sn  Sn9  1  0.994240  0.994859  0.000000  1
