# generated using pymatgen
data_Ho2ErTh11Ru6
_symmetry_space_group_name_H-M   'P 1'
_cell_length_a   9.81683031
_cell_length_b   9.87438264
_cell_length_c   6.39114409
_cell_angle_alpha   90.13903025
_cell_angle_beta   89.94224826
_cell_angle_gamma   120.30441595
_symmetry_Int_Tables_number   1
_chemical_formula_structural   Ho2ErTh11Ru6
_chemical_formula_sum   'Ho2 Er1 Th11 Ru6'
_cell_volume   534.87068757
_cell_formula_units_Z   1
loop_
 _symmetry_equiv_pos_site_id
 _symmetry_equiv_pos_as_xyz
  1  'x, y, z'
loop_
 _atom_site_type_symbol
 _atom_site_label
 _atom_site_symmetry_multiplicity
 _atom_site_fract_x
 _atom_site_fract_y
 _atom_site_fract_z
 _atom_site_occupancy
  Ho  Ho0  1  0.460191  0.536033  0.296024  1
  Ho  Ho1  1  0.073380  0.535535  0.301864  1
  Er  Er2  1  0.925757  0.462582  0.801132  1
  Th  Th3  1  0.249326  0.126383  0.510667  1
  Th  Th4  1  0.542726  0.083817  0.795720  1
  Th  Th5  1  0.747549  0.873762  0.012068  1
  Th  Th6  1  0.666581  0.333232  0.277889  1
  Th  Th7  1  0.125098  0.870060  0.009456  1
  Th  Th8  1  0.459101  0.916469  0.295887  1
  Th  Th9  1  0.539845  0.464155  0.798518  1
  Th  Th10  1  0.876312  0.129284  0.511856  1
  Th  Th11  1  0.123908  0.252288  0.013944  1
  Th  Th12  1  0.874305  0.747900  0.509165  1
  Th  Th13  1  0.333920  0.665961  0.774460  1
  Ru  Ru14  1  0.812105  0.630308  0.047590  1
  Ru  Ru15  1  0.815280  0.183207  0.045301  1
  Ru  Ru16  1  0.631882  0.815328  0.544624  1
  Ru  Ru17  1  0.370746  0.188502  0.041833  1
  Ru  Ru18  1  0.184079  0.366515  0.552118  1
  Ru  Ru19  1  0.187911  0.818680  0.543885  1
