# generated using pymatgen
data_Y2Er2Ga16CoRh2
_symmetry_space_group_name_H-M   'P 1'
_cell_length_a   6.10623300
_cell_length_b   6.09188600
_cell_length_c   11.15482500
_cell_angle_alpha   90.00000000
_cell_angle_beta   90.00000000
_cell_angle_gamma   90.00000000
_symmetry_Int_Tables_number   1
_chemical_formula_structural   Y2Er2Ga16CoRh2
_chemical_formula_sum   'Y2 Er2 Ga16 Co1 Rh2'
_cell_volume   414.94248252
_cell_formula_units_Z   1
loop_
 _symmetry_equiv_pos_site_id
 _symmetry_equiv_pos_as_xyz
  1  'x, y, z'
loop_
 _atom_site_type_symbol
 _atom_site_label
 _atom_site_symmetry_multiplicity
 _atom_site_fract_x
 _atom_site_fract_y
 _atom_site_fract_z
 _atom_site_occupancy
  Y  Y0  1  0.500000  0.000000  0.803653  1
  Y  Y1  1  0.500000  0.000000  0.196347  1
  Er  Er2  1  0.000000  0.500000  0.807739  1
  Er  Er3  1  0.000000  0.500000  0.192261  1
  Ga  Ga4  1  0.243078  0.256458  0.616971  1
  Ga  Ga5  1  0.756922  0.743542  0.616971  1
  Ga  Ga6  1  0.756922  0.256458  0.616971  1
  Ga  Ga7  1  0.243078  0.743542  0.616971  1
  Ga  Ga8  1  0.756922  0.743542  0.383029  1
  Ga  Ga9  1  0.243078  0.256458  0.383029  1
  Ga  Ga10  1  0.243078  0.743542  0.383029  1
  Ga  Ga11  1  0.756922  0.256458  0.383029  1
  Ga  Ga12  1  0.287600  0.287031  0.000000  1
  Ga  Ga13  1  0.712400  0.712969  0.000000  1
  Ga  Ga14  1  0.712400  0.287031  0.000000  1
  Ga  Ga15  1  0.287600  0.712969  0.000000  1
  Ga  Ga16  1  0.500000  0.500000  0.802327  1
  Ga  Ga17  1  0.500000  0.500000  0.197673  1
  Ga  Ga18  1  0.000000  0.000000  0.774222  1
  Ga  Ga19  1  0.000000  0.000000  0.225778  1
  Co  Co20  1  0.000000  0.500000  0.500000  1
  Rh  Rh21  1  0.500000  0.000000  0.500000  1
  Rh  Rh22  1  0.000000  0.000000  0.000000  1
