# generated using pymatgen
data_Lu6Al13Mo3Os7
_symmetry_space_group_name_H-M   'P 1'
_cell_length_a   8.92751788
_cell_length_b   8.92751825
_cell_length_c   8.92751800
_cell_angle_alpha   59.62532305
_cell_angle_beta   59.62532167
_cell_angle_gamma   59.62531140
_symmetry_Int_Tables_number   1
_chemical_formula_structural   Lu6Al13Mo3Os7
_chemical_formula_sum   'Lu6 Al13 Mo3 Os7'
_cell_volume   498.84252530
_cell_formula_units_Z   1
loop_
 _symmetry_equiv_pos_site_id
 _symmetry_equiv_pos_as_xyz
  1  'x, y, z'
loop_
 _atom_site_type_symbol
 _atom_site_label
 _atom_site_symmetry_multiplicity
 _atom_site_fract_x
 _atom_site_fract_y
 _atom_site_fract_z
 _atom_site_occupancy
  Lu  Lu0  1  0.707559  0.707559  0.287025  1
  Lu  Lu1  1  0.292749  0.708644  0.292749  1
  Lu  Lu2  1  0.708644  0.292749  0.292749  1
  Lu  Lu3  1  0.292749  0.292749  0.708644  1
  Lu  Lu4  1  0.707559  0.287025  0.707559  1
  Lu  Lu5  1  0.287025  0.707559  0.707559  1
  Al  Al6  1  0.880631  0.880631  0.880631  1
  Al  Al7  1  0.120652  0.120652  0.639201  1
  Al  Al8  1  0.120652  0.639201  0.120652  1
  Al  Al9  1  0.639201  0.120652  0.120652  1
  Al  Al10  1  0.122447  0.122447  0.122447  1
  Al  Al11  1  0.668483  0.668483  0.998494  1
  Al  Al12  1  0.668483  0.998494  0.668483  1
  Al  Al13  1  0.998494  0.668483  0.668483  1
  Al  Al14  1  0.662648  0.662648  0.662648  1
  Al  Al15  1  0.332156  0.332156  0.006001  1
  Al  Al16  1  0.332156  0.006001  0.332156  1
  Al  Al17  1  0.006001  0.332156  0.332156  1
  Al  Al18  1  0.332834  0.332834  0.332834  1
  Mo  Mo19  1  0.877348  0.877348  0.362361  1
  Mo  Mo20  1  0.877348  0.362361  0.877348  1
  Mo  Mo21  1  0.362361  0.877348  0.877348  1
  Os  Os22  1  0.004993  0.004993  0.004993  1
  Os  Os23  1  0.998374  0.998374  0.496718  1
  Os  Os24  1  0.503589  0.996191  0.503589  1
  Os  Os25  1  0.996191  0.503589  0.503589  1
  Os  Os26  1  0.503589  0.503589  0.996191  1
  Os  Os27  1  0.998374  0.496718  0.998374  1
  Os  Os28  1  0.496718  0.998374  0.998374  1
