# generated using pymatgen
data_Dy3Sn3HgRu2
_symmetry_space_group_name_H-M   'P 1'
_cell_length_a   7.73531400
_cell_length_b   7.73531623
_cell_length_c   3.91136300
_cell_angle_alpha   90.00000000
_cell_angle_beta   90.00000000
_cell_angle_gamma   119.99999048
_symmetry_Int_Tables_number   1
_chemical_formula_structural   Dy3Sn3HgRu2
_chemical_formula_sum   'Dy3 Sn3 Hg1 Ru2'
_cell_volume   202.68183004
_cell_formula_units_Z   1
loop_
 _symmetry_equiv_pos_site_id
 _symmetry_equiv_pos_as_xyz
  1  'x, y, z'
loop_
 _atom_site_type_symbol
 _atom_site_label
 _atom_site_symmetry_multiplicity
 _atom_site_fract_x
 _atom_site_fract_y
 _atom_site_fract_z
 _atom_site_occupancy
  Dy  Dy0  1  0.390199  0.415975  0.500000  1
  Dy  Dy1  1  0.584025  0.974224  0.500000  1
  Dy  Dy2  1  0.025776  0.609801  0.500000  1
  Sn  Sn3  1  0.739397  0.750849  0.000000  1
  Sn  Sn4  1  0.249151  0.988548  0.000000  1
  Sn  Sn5  1  0.011452  0.260603  0.000000  1
  Hg  Hg6  1  0.666667  0.333333  0.000000  1
  Ru  Ru7  1  0.333333  0.666667  0.000000  1
  Ru  Ru8  1  0.000000  0.000000  0.500000  1
