# generated using pymatgen
data_Nd5YCd23Sb
_symmetry_space_group_name_H-M   'P 1'
_cell_length_a   10.11877599
_cell_length_b   10.11877592
_cell_length_c   10.06410000
_cell_angle_alpha   60.17858304
_cell_angle_beta   60.17858327
_cell_angle_gamma   59.64283300
_symmetry_Int_Tables_number   1
_chemical_formula_structural   Nd5YCd23Sb
_chemical_formula_sum   'Nd5 Y1 Cd23 Sb1'
_cell_volume   728.60253567
_cell_formula_units_Z   1
loop_
 _symmetry_equiv_pos_site_id
 _symmetry_equiv_pos_as_xyz
  1  'x, y, z'
loop_
 _atom_site_type_symbol
 _atom_site_label
 _atom_site_symmetry_multiplicity
 _atom_site_fract_x
 _atom_site_fract_y
 _atom_site_fract_z
 _atom_site_occupancy
  Nd  Nd0  1  0.218738  0.781477  0.218523  1
  Nd  Nd1  1  0.781477  0.218738  0.218523  1
  Nd  Nd2  1  0.213879  0.213879  0.786121  1
  Nd  Nd3  1  0.781477  0.218738  0.781262  1
  Nd  Nd4  1  0.218738  0.781477  0.781262  1
  Y  Y5  1  0.785731  0.785731  0.214269  1
  Cd  Cd6  1  0.837630  0.837630  0.486386  1
  Cd  Cd7  1  0.834182  0.491835  0.836992  1
  Cd  Cd8  1  0.491835  0.834182  0.836992  1
  Cd  Cd9  1  0.837630  0.837630  0.838355  1
  Cd  Cd10  1  0.163008  0.163008  0.508165  1
  Cd  Cd11  1  0.161645  0.513614  0.162370  1
  Cd  Cd12  1  0.513614  0.161645  0.162370  1
  Cd  Cd13  1  0.163008  0.163008  0.165818  1
  Cd  Cd14  1  0.625955  0.625955  0.130801  1
  Cd  Cd15  1  0.622753  0.127303  0.624973  1
  Cd  Cd16  1  0.127303  0.622753  0.624973  1
  Cd  Cd17  1  0.625955  0.625955  0.617290  1
  Cd  Cd18  1  0.375027  0.375027  0.872697  1
  Cd  Cd19  1  0.382710  0.869199  0.374045  1
  Cd  Cd20  1  0.869199  0.382710  0.374045  1
  Cd  Cd21  1  0.375027  0.375027  0.377247  1
  Cd  Cd22  1  0.999392  0.999392  0.500608  1
  Cd  Cd23  1  0.500115  0.999654  0.499885  1
  Cd  Cd24  1  0.999654  0.500115  0.499885  1
  Cd  Cd25  1  0.499392  0.499392  0.000608  1
  Cd  Cd26  1  0.999654  0.500115  0.000346  1
  Cd  Cd27  1  0.500115  0.999654  0.000346  1
  Cd  Cd28  1  0.498263  0.498263  0.501737  1
  Sb  Sb29  1  0.996897  0.996897  0.003103  1
