# generated using pymatgen
data_TbEr2Th(Al3Ir)6
_symmetry_space_group_name_H-M   'P 1'
_cell_length_a   7.57552787
_cell_length_b   7.58450747
_cell_length_c   9.47179000
_cell_angle_alpha   90.00000000
_cell_angle_beta   90.00000000
_cell_angle_gamma   119.41962995
_symmetry_Int_Tables_number   1
_chemical_formula_structural   TbEr2Th(Al3Ir)6
_chemical_formula_sum   'Tb1 Er2 Th1 Al18 Ir6'
_cell_volume   474.03807124
_cell_formula_units_Z   1
loop_
 _symmetry_equiv_pos_site_id
 _symmetry_equiv_pos_as_xyz
  1  'x, y, z'
loop_
 _atom_site_type_symbol
 _atom_site_label
 _atom_site_symmetry_multiplicity
 _atom_site_fract_x
 _atom_site_fract_y
 _atom_site_fract_z
 _atom_site_occupancy
  Tb  Tb0  1  0.672339  0.994741  0.250000  1
  Er  Er1  1  0.003971  0.328588  0.750000  1
  Er  Er2  1  0.327496  0.004424  0.750000  1
  Th  Th3  1  0.995048  0.671318  0.250000  1
  Al  Al4  1  0.132200  0.133670  0.250000  1
  Al  Al5  1  0.871900  0.874053  0.750000  1
  Al  Al6  1  0.001748  0.331256  0.071607  1
  Al  Al7  1  0.999585  0.664348  0.917778  1
  Al  Al8  1  0.999585  0.664348  0.582222  1
  Al  Al9  1  0.339733  0.005263  0.428453  1
  Al  Al10  1  0.001748  0.331256  0.428393  1
  Al  Al11  1  0.664660  0.000734  0.577204  1
  Al  Al12  1  0.664660  0.000734  0.922796  1
  Al  Al13  1  0.339733  0.005263  0.071547  1
  Al  Al14  1  0.331938  0.332009  0.556669  1
  Al  Al15  1  0.662913  0.666152  0.455781  1
  Al  Al16  1  0.662913  0.666152  0.044219  1
  Al  Al17  1  0.331938  0.332009  0.943331  1
  Al  Al18  1  0.344142  0.548104  0.250000  1
  Al  Al19  1  0.657923  0.448496  0.750000  1
  Al  Al20  1  0.544315  0.337372  0.250000  1
  Al  Al21  1  0.449197  0.660361  0.750000  1
  Ir  Ir22  1  0.673141  0.329445  0.999817  1
  Ir  Ir23  1  0.326391  0.671457  0.999882  1
  Ir  Ir24  1  0.326391  0.671457  0.500118  1
  Ir  Ir25  1  0.673141  0.329445  0.500183  1
  Ir  Ir26  1  0.000624  0.998772  0.000055  1
  Ir  Ir27  1  0.000624  0.998772  0.499945  1
