# generated using pymatgen
data_Y8Tm2(InSb)3
_symmetry_space_group_name_H-M   'P 1'
_cell_length_a   6.51212600
_cell_length_b   8.96659769
_cell_length_c   8.96649501
_cell_angle_alpha   120.00038183
_cell_angle_beta   89.99975060
_cell_angle_gamma   90.00049878
_symmetry_Int_Tables_number   1
_chemical_formula_structural   Y8Tm2(InSb)3
_chemical_formula_sum   'Y8 Tm2 In3 Sb3'
_cell_volume   453.42154348
_cell_formula_units_Z   1
loop_
 _symmetry_equiv_pos_site_id
 _symmetry_equiv_pos_as_xyz
  1  'x, y, z'
loop_
 _atom_site_type_symbol
 _atom_site_label
 _atom_site_symmetry_multiplicity
 _atom_site_fract_x
 _atom_site_fract_y
 _atom_site_fract_z
 _atom_site_occupancy
  Y  Y0  1  0.997242  0.666661  0.333331  1
  Y  Y1  1  0.997242  0.333329  0.666669  1
  Y  Y2  1  0.749655  0.240415  0.000000  1
  Y  Y3  1  0.749654  0.759605  0.759593  1
  Y  Y4  1  0.749654  0.000012  0.240407  1
  Y  Y5  1  0.250368  0.760439  0.000000  1
  Y  Y6  1  0.250367  0.239534  0.239542  1
  Y  Y7  1  0.250367  0.999991  0.760458  1
  Tm  Tm8  1  0.503179  0.333329  0.666669  1
  Tm  Tm9  1  0.503179  0.666661  0.333331  1
  In  In10  1  0.748817  0.605312  0.000000  1
  In  In11  1  0.748820  0.394733  0.394726  1
  In  In12  1  0.748820  0.000005  0.605274  1
  Sb  Sb13  1  0.250878  0.394869  0.000000  1
  Sb  Sb14  1  0.250880  0.605111  0.605120  1
  Sb  Sb15  1  0.250880  0.999993  0.394880  1
