# generated using pymatgen
data_Zr10NiSn(Bi2Pb)2
_symmetry_space_group_name_H-M   'P 1'
_cell_length_a   8.88077795
_cell_length_b   8.88077719
_cell_length_c   5.98672938
_cell_angle_alpha   89.99688650
_cell_angle_beta   89.99689139
_cell_angle_gamma   119.87837007
_symmetry_Int_Tables_number   1
_chemical_formula_structural   Zr10NiSn(Bi2Pb)2
_chemical_formula_sum   'Zr10 Ni1 Sn1 Bi4 Pb2'
_cell_volume   409.40507297
_cell_formula_units_Z   1
loop_
 _symmetry_equiv_pos_site_id
 _symmetry_equiv_pos_as_xyz
  1  'x, y, z'
loop_
 _atom_site_type_symbol
 _atom_site_label
 _atom_site_symmetry_multiplicity
 _atom_site_fract_x
 _atom_site_fract_y
 _atom_site_fract_z
 _atom_site_occupancy
  Zr  Zr0  1  0.666752  0.333278  0.001043  1
  Zr  Zr1  1  0.333278  0.666752  0.001043  1
  Zr  Zr2  1  0.333038  0.666750  0.497972  1
  Zr  Zr3  1  0.666750  0.333038  0.497972  1
  Zr  Zr4  1  0.735723  0.735723  0.770843  1
  Zr  Zr5  1  0.262935  0.000200  0.771044  1
  Zr  Zr6  1  0.000200  0.262935  0.771044  1
  Zr  Zr7  1  0.268384  0.268384  0.228413  1
  Zr  Zr8  1  0.732166  0.000511  0.227992  1
  Zr  Zr9  1  0.000511  0.732166  0.227992  1
  Ni  Ni10  1  0.002143  0.002143  0.009879  1
  Sn  Sn11  1  0.000048  0.000048  0.494749  1
  Bi  Bi12  1  0.388073  0.388073  0.744061  1
  Bi  Bi13  1  0.610098  0.000476  0.744641  1
  Bi  Bi14  1  0.000476  0.610098  0.744641  1
  Bi  Bi15  1  0.613822  0.613822  0.255114  1
  Pb  Pb16  1  0.385559  0.000042  0.255778  1
  Pb  Pb17  1  0.000042  0.385559  0.255778  1
