# generated using pymatgen
data_Ho7LuSc12Si15Sn
_symmetry_space_group_name_H-M   'P 1'
_cell_length_a   7.11101932
_cell_length_b   7.39579811
_cell_length_c   14.03763407
_cell_angle_alpha   89.96781455
_cell_angle_beta   89.58175781
_cell_angle_gamma   89.98061086
_symmetry_Int_Tables_number   1
_chemical_formula_structural   Ho7LuSc12Si15Sn
_chemical_formula_sum   'Ho7 Lu1 Sc12 Si15 Sn1'
_cell_volume   738.24269636
_cell_formula_units_Z   1
loop_
 _symmetry_equiv_pos_site_id
 _symmetry_equiv_pos_as_xyz
  1  'x, y, z'
loop_
 _atom_site_type_symbol
 _atom_site_label
 _atom_site_symmetry_multiplicity
 _atom_site_fract_x
 _atom_site_fract_y
 _atom_site_fract_z
 _atom_site_occupancy
  Ho  Ho0  1  0.989393  0.824751  0.905218  1
  Ho  Ho1  1  0.489416  0.675825  0.905015  1
  Ho  Ho2  1  0.990263  0.830375  0.598402  1
  Ho  Ho3  1  0.509669  0.323537  0.096535  1
  Ho  Ho4  1  0.004471  0.169581  0.399314  1
  Ho  Ho5  1  0.512254  0.320224  0.398805  1
  Ho  Ho6  1  0.502291  0.684555  0.600087  1
  Lu  Lu7  1  0.010285  0.176697  0.096900  1
  Sc  Sc8  1  0.164771  0.502040  0.755335  1
  Sc  Sc9  1  0.834651  0.497593  0.248585  1
  Sc  Sc10  1  0.335705  0.003797  0.248813  1
  Sc  Sc11  1  0.666330  0.997977  0.752375  1
  Sc  Sc12  1  0.345427  0.162185  0.630837  1
  Sc  Sc13  1  0.663000  0.825044  0.371958  1
  Sc  Sc14  1  0.161949  0.683530  0.368826  1
  Sc  Sc15  1  0.666541  0.823516  0.123565  1
  Sc  Sc16  1  0.824374  0.323348  0.626692  1
  Sc  Sc17  1  0.331972  0.176011  0.876013  1
  Sc  Sc18  1  0.833664  0.322211  0.876038  1
  Sc  Sc19  1  0.166343  0.677420  0.125180  1
  Si  Si20  1  0.037241  0.117991  0.751404  1
  Si  Si21  1  0.961640  0.887016  0.246337  1
  Si  Si22  1  0.463454  0.615356  0.248046  1
  Si  Si23  1  0.535092  0.385613  0.752719  1
  Si  Si24  1  0.288271  0.869724  0.752767  1
  Si  Si25  1  0.711729  0.127576  0.246504  1
  Si  Si26  1  0.209546  0.371513  0.248276  1
  Si  Si27  1  0.791031  0.628164  0.752035  1
  Si  Si28  1  0.829265  0.539099  0.458693  1
  Si  Si29  1  0.337290  0.963684  0.460136  1
  Si  Si30  1  0.841372  0.533247  0.039854  1
  Si  Si31  1  0.663947  0.037409  0.537553  1
  Si  Si32  1  0.157761  0.463285  0.962432  1
  Si  Si33  1  0.658521  0.035356  0.961078  1
  Si  Si34  1  0.337830  0.966063  0.039972  1
  Sn  Sn35  1  0.173243  0.458691  0.537698  1
