# generated using pymatgen
data_Tb4Ho4Re3TcB24
_symmetry_space_group_name_H-M   'P 1'
_cell_length_a   3.68579400
_cell_length_b   9.17513607
_cell_length_c   11.56926100
_cell_angle_alpha   90.02643573
_cell_angle_beta   90.00000000
_cell_angle_gamma   90.00000000
_symmetry_Int_Tables_number   1
_chemical_formula_structural   Tb4Ho4Re3TcB24
_chemical_formula_sum   'Tb4 Ho4 Re3 Tc1 B24'
_cell_volume   391.24531045
_cell_formula_units_Z   1
loop_
 _symmetry_equiv_pos_site_id
 _symmetry_equiv_pos_as_xyz
  1  'x, y, z'
loop_
 _atom_site_type_symbol
 _atom_site_label
 _atom_site_symmetry_multiplicity
 _atom_site_fract_x
 _atom_site_fract_y
 _atom_site_fract_z
 _atom_site_occupancy
  Tb  Tb0  1  0.000000  0.323829  0.413800  1
  Tb  Tb1  1  0.000000  0.676443  0.586010  1
  Tb  Tb2  1  0.000000  0.823610  0.086096  1
  Tb  Tb3  1  0.000000  0.176654  0.913884  1
  Ho  Ho4  1  0.000000  0.942110  0.369698  1
  Ho  Ho5  1  0.000000  0.056832  0.629810  1
  Ho  Ho6  1  0.000000  0.443693  0.130705  1
  Ho  Ho7  1  0.000000  0.556811  0.870166  1
  Re  Re8  1  0.000000  0.361222  0.679393  1
  Re  Re9  1  0.000000  0.138905  0.179560  1
  Re  Re10  1  0.000000  0.861159  0.820506  1
  Tc  Tc11  1  0.000000  0.638958  0.320461  1
  B  B12  1  0.500000  0.553702  0.432453  1
  B  B13  1  0.500000  0.446506  0.567269  1
  B  B14  1  0.500000  0.053617  0.067323  1
  B  B15  1  0.500000  0.946513  0.932636  1
  B  B16  1  0.500000  0.748886  0.418202  1
  B  B17  1  0.500000  0.250715  0.581591  1
  B  B18  1  0.500000  0.249467  0.081690  1
  B  B19  1  0.500000  0.750768  0.918356  1
  B  B20  1  0.500000  0.791722  0.265626  1
  B  B21  1  0.500000  0.207910  0.734235  1
  B  B22  1  0.500000  0.292093  0.234455  1
  B  B23  1  0.500000  0.707886  0.765693  1
  B  B24  1  0.500000  0.630896  0.185924  1
  B  B25  1  0.500000  0.369316  0.814220  1
  B  B26  1  0.500000  0.130548  0.314314  1
  B  B27  1  0.500000  0.869257  0.685685  1
  B  B28  1  0.500000  0.982491  0.212034  1
  B  B29  1  0.500000  0.017420  0.787827  1
  B  B30  1  0.500000  0.482906  0.288063  1
  B  B31  1  0.500000  0.517430  0.712148  1
  B  B32  1  0.500000  0.599922  0.028040  1
  B  B33  1  0.500000  0.400279  0.972350  1
  B  B34  1  0.500000  0.099481  0.471950  1
  B  B35  1  0.500000  0.900046  0.527829  1
