# generated using pymatgen
data_Dy3In4CoIr
_symmetry_space_group_name_H-M   'P 1'
_cell_length_a   7.94242400
_cell_length_b   7.94242368
_cell_length_c   3.69132700
_cell_angle_alpha   90.00000000
_cell_angle_beta   90.00000000
_cell_angle_gamma   120.00000968
_symmetry_Int_Tables_number   1
_chemical_formula_structural   Dy3In4CoIr
_chemical_formula_sum   'Dy3 In4 Co1 Ir1'
_cell_volume   201.65975098
_cell_formula_units_Z   1
loop_
 _symmetry_equiv_pos_site_id
 _symmetry_equiv_pos_as_xyz
  1  'x, y, z'
loop_
 _atom_site_type_symbol
 _atom_site_label
 _atom_site_symmetry_multiplicity
 _atom_site_fract_x
 _atom_site_fract_y
 _atom_site_fract_z
 _atom_site_occupancy
  Dy  Dy0  1  0.044039  0.297876  0.500000  1
  Dy  Dy1  1  0.702124  0.746162  0.500000  1
  Dy  Dy2  1  0.253838  0.955961  0.500000  1
  In  In3  1  0.662560  0.081722  0.000000  1
  In  In4  1  0.918278  0.580839  0.000000  1
  In  In5  1  0.419161  0.337440  0.000000  1
  In  In6  1  0.333333  0.666667  0.000000  1
  Co  Co7  1  0.666667  0.333333  0.500000  1
  Ir  Ir8  1  0.000000  0.000000  0.000000  1
