# generated using pymatgen
data_Tb3Y5(CoAg)2
_symmetry_space_group_name_H-M   'P 1'
_cell_length_a   9.44978040
_cell_length_b   9.46071762
_cell_length_c   9.46071831
_cell_angle_alpha   59.92354378
_cell_angle_beta   60.03823664
_cell_angle_gamma   60.03823735
_symmetry_Int_Tables_number   1
_chemical_formula_structural   Tb3Y5(CoAg)2
_chemical_formula_sum   'Tb6 Y10 Co4 Ag4'
_cell_volume   598.07246676
_cell_formula_units_Z   2
loop_
 _symmetry_equiv_pos_site_id
 _symmetry_equiv_pos_as_xyz
  1  'x, y, z'
loop_
 _atom_site_type_symbol
 _atom_site_label
 _atom_site_symmetry_multiplicity
 _atom_site_fract_x
 _atom_site_fract_y
 _atom_site_fract_z
 _atom_site_occupancy
  Tb  Tb0  1  0.348070  0.348305  0.348305  1
  Tb  Tb1  1  0.348305  0.348070  0.955320  1
  Tb  Tb2  1  0.348305  0.955320  0.348070  1
  Tb  Tb3  1  0.955320  0.348305  0.348305  1
  Tb  Tb4  1  0.811693  0.188307  0.188307  1
  Tb  Tb5  1  0.188307  0.811693  0.811693  1
  Y  Y6  1  0.188411  0.811589  0.188411  1
  Y  Y7  1  0.811589  0.188411  0.811589  1
  Y  Y8  1  0.188411  0.188411  0.811589  1
  Y  Y9  1  0.811589  0.811589  0.188411  1
  Y  Y10  1  0.937562  0.562438  0.562438  1
  Y  Y11  1  0.562438  0.937562  0.937562  1
  Y  Y12  1  0.562431  0.937569  0.562431  1
  Y  Y13  1  0.937569  0.562431  0.937569  1
  Y  Y14  1  0.562431  0.562431  0.937569  1
  Y  Y15  1  0.937569  0.937569  0.562431  1
  Co  Co16  1  0.140367  0.142276  0.142276  1
  Co  Co17  1  0.142276  0.140367  0.575082  1
  Co  Co18  1  0.142276  0.575082  0.140367  1
  Co  Co19  1  0.575082  0.142276  0.142276  1
  Ag  Ag20  1  0.581324  0.581212  0.581212  1
  Ag  Ag21  1  0.581212  0.581324  0.256252  1
  Ag  Ag22  1  0.581212  0.256252  0.581324  1
  Ag  Ag23  1  0.256252  0.581212  0.581212  1
