# generated using pymatgen
data_ScNbB2(MoC)2
_symmetry_space_group_name_H-M   'P 1'
_cell_length_a   8.96743832
_cell_length_b   8.96743825
_cell_length_c   3.17766500
_cell_angle_alpha   90.00000000
_cell_angle_beta   90.00000000
_cell_angle_gamma   159.43633035
_symmetry_Int_Tables_number   1
_chemical_formula_structural   ScNbB2(MoC)2
_chemical_formula_sum   'Sc1 Nb1 B2 Mo2 C2'
_cell_volume   89.75503269
_cell_formula_units_Z   1
loop_
 _symmetry_equiv_pos_site_id
 _symmetry_equiv_pos_as_xyz
  1  'x, y, z'
loop_
 _atom_site_type_symbol
 _atom_site_label
 _atom_site_symmetry_multiplicity
 _atom_site_fract_x
 _atom_site_fract_y
 _atom_site_fract_z
 _atom_site_occupancy
  Sc  Sc0  1  0.686416  0.313584  0.750000  1
  Nb  Nb1  1  0.309152  0.690849  0.250000  1
  B  B2  1  0.530205  0.469795  0.750000  1
  B  B3  1  0.471515  0.528485  0.250000  1
  Mo  Mo4  1  0.068980  0.931020  0.250000  1
  Mo  Mo5  1  0.931614  0.068386  0.750000  1
  C  C6  1  0.814459  0.185541  0.750000  1
  C  C7  1  0.187661  0.812339  0.250000  1
