# generated using pymatgen
data_DyY3Al18Ir5Pt
_symmetry_space_group_name_H-M   'P 1'
_cell_length_a   7.56670237
_cell_length_b   7.56694507
_cell_length_c   9.46763407
_cell_angle_alpha   89.97196387
_cell_angle_beta   89.97303529
_cell_angle_gamma   119.61224743
_symmetry_Int_Tables_number   1
_chemical_formula_structural   DyY3Al18Ir5Pt
_chemical_formula_sum   'Dy1 Y3 Al18 Ir5 Pt1'
_cell_volume   471.28411574
_cell_formula_units_Z   1
loop_
 _symmetry_equiv_pos_site_id
 _symmetry_equiv_pos_as_xyz
  1  'x, y, z'
loop_
 _atom_site_type_symbol
 _atom_site_label
 _atom_site_symmetry_multiplicity
 _atom_site_fract_x
 _atom_site_fract_y
 _atom_site_fract_z
 _atom_site_occupancy
  Dy  Dy0  1  0.329379  0.005192  0.249348  1
  Y  Y1  1  0.994670  0.670532  0.750662  1
  Y  Y2  1  0.004955  0.329320  0.249502  1
  Y  Y3  1  0.670669  0.995055  0.750506  1
  Al  Al4  1  0.128117  0.127328  0.750425  1
  Al  Al5  1  0.872727  0.871905  0.249571  1
  Al  Al6  1  0.004293  0.335272  0.576189  1
  Al  Al7  1  0.002248  0.668450  0.423732  1
  Al  Al8  1  0.999949  0.665070  0.074420  1
  Al  Al9  1  0.334992  0.000107  0.925676  1
  Al  Al10  1  0.000659  0.334563  0.925188  1
  Al  Al11  1  0.665375  0.999336  0.074823  1
  Al  Al12  1  0.664678  0.995702  0.423790  1
  Al  Al13  1  0.331595  0.997801  0.576185  1
  Al  Al14  1  0.333155  0.333059  0.051920  1
  Al  Al15  1  0.666905  0.666828  0.948107  1
  Al  Al16  1  0.666269  0.669405  0.554878  1
  Al  Al17  1  0.330584  0.333700  0.445083  1
  Al  Al18  1  0.340257  0.549188  0.750327  1
  Al  Al19  1  0.660088  0.453232  0.247462  1
  Al  Al20  1  0.546687  0.339805  0.752536  1
  Al  Al21  1  0.450814  0.659795  0.249675  1
  Ir  Ir22  1  0.328148  0.671818  0.499981  1
  Ir  Ir23  1  0.328336  0.671620  0.000021  1
  Ir  Ir24  1  0.671977  0.328120  0.000036  1
  Ir  Ir25  1  0.999891  0.000188  0.499973  1
  Ir  Ir26  1  0.000261  0.999832  0.000020  1
  Pt  Pt27  1  0.672320  0.327777  0.499966  1
