# generated using pymatgen
data_Th14(TcRh)3
_symmetry_space_group_name_H-M   'P 1'
_cell_length_a   10.00733500
_cell_length_b   10.00733496
_cell_length_c   6.29732800
_cell_angle_alpha   90.00000000
_cell_angle_beta   90.00000000
_cell_angle_gamma   120.00000344
_symmetry_Int_Tables_number   1
_chemical_formula_structural   Th14(TcRh)3
_chemical_formula_sum   'Th14 Tc3 Rh3'
_cell_volume   546.16492463
_cell_formula_units_Z   1
loop_
 _symmetry_equiv_pos_site_id
 _symmetry_equiv_pos_as_xyz
  1  'x, y, z'
loop_
 _atom_site_type_symbol
 _atom_site_label
 _atom_site_symmetry_multiplicity
 _atom_site_fract_x
 _atom_site_fract_y
 _atom_site_fract_z
 _atom_site_occupancy
  Th  Th0  1  0.666667  0.333333  0.575491  1
  Th  Th1  1  0.333333  0.666667  0.033440  1
  Th  Th2  1  0.875290  0.750580  0.755357  1
  Th  Th3  1  0.249420  0.124710  0.755357  1
  Th  Th4  1  0.875290  0.124710  0.755357  1
  Th  Th5  1  0.126648  0.253296  0.252108  1
  Th  Th6  1  0.746704  0.873352  0.252108  1
  Th  Th7  1  0.126648  0.873352  0.252108  1
  Th  Th8  1  0.458065  0.916131  0.542802  1
  Th  Th9  1  0.083869  0.541935  0.542802  1
  Th  Th10  1  0.458065  0.541935  0.542802  1
  Th  Th11  1  0.538781  0.077561  0.040797  1
  Th  Th12  1  0.922439  0.461219  0.040797  1
  Th  Th13  1  0.538781  0.461219  0.040797  1
  Tc  Tc14  1  0.183941  0.367882  0.797471  1
  Tc  Tc15  1  0.632118  0.816059  0.797471  1
  Tc  Tc16  1  0.183941  0.816059  0.797471  1
  Rh  Rh17  1  0.811309  0.622617  0.302656  1
  Rh  Rh18  1  0.377383  0.188691  0.302656  1
  Rh  Rh19  1  0.811309  0.188691  0.302656  1
