# generated using pymatgen
data_Mo2Ir5Os
_symmetry_space_group_name_H-M   'P 1'
_cell_length_a   5.54602811
_cell_length_b   5.54602710
_cell_length_c   4.42558000
_cell_angle_alpha   90.00000000
_cell_angle_beta   90.00000000
_cell_angle_gamma   120.30083396
_symmetry_Int_Tables_number   1
_chemical_formula_structural   Mo2Ir5Os
_chemical_formula_sum   'Mo2 Ir5 Os1'
_cell_volume   117.52773391
_cell_formula_units_Z   1
loop_
 _symmetry_equiv_pos_site_id
 _symmetry_equiv_pos_as_xyz
  1  'x, y, z'
loop_
 _atom_site_type_symbol
 _atom_site_label
 _atom_site_symmetry_multiplicity
 _atom_site_fract_x
 _atom_site_fract_y
 _atom_site_fract_z
 _atom_site_occupancy
  Mo  Mo0  1  0.332922  0.667079  0.749999  1
  Mo  Mo1  1  0.667595  0.332406  0.250001  1
  Ir  Ir2  1  0.165816  0.332583  0.250001  1
  Ir  Ir3  1  0.667417  0.834184  0.250001  1
  Ir  Ir4  1  0.166825  0.833175  0.250001  1
  Ir  Ir5  1  0.833594  0.667927  0.749999  1
  Ir  Ir6  1  0.332073  0.166406  0.749999  1
  Os  Os7  1  0.833758  0.166240  0.749999  1
