# generated using pymatgen
data_LaAl5Ag6
_symmetry_space_group_name_H-M   'P 1'
_cell_length_a   11.12227512
_cell_length_b   8.73347694
_cell_length_c   8.59161287
_cell_angle_alpha   80.08889604
_cell_angle_beta   50.55379343
_cell_angle_gamma   49.55854146
_symmetry_Int_Tables_number   1
_chemical_formula_structural   LaAl5Ag6
_chemical_formula_sum   'La2 Al10 Ag12'
_cell_volume   447.71449192
_cell_formula_units_Z   2
loop_
 _symmetry_equiv_pos_site_id
 _symmetry_equiv_pos_as_xyz
  1  'x, y, z'
loop_
 _atom_site_type_symbol
 _atom_site_label
 _atom_site_symmetry_multiplicity
 _atom_site_fract_x
 _atom_site_fract_y
 _atom_site_fract_z
 _atom_site_occupancy
  La  La0  1  0.999637  0.001884  0.999985  1
  La  La1  1  0.250363  0.248116  0.250015  1
  Al  Al2  1  0.496837  0.502159  0.503718  1
  Al  Al3  1  0.753163  0.747841  0.746282  1
  Al  Al4  1  0.764563  0.066237  0.813366  1
  Al  Al5  1  0.812671  0.354609  0.764263  1
  Al  Al6  1  0.068116  0.764764  0.354294  1
  Al  Al7  1  0.353648  0.813727  0.068644  1
  Al  Al8  1  0.485437  0.183763  0.436634  1
  Al  Al9  1  0.437329  0.895391  0.485737  1
  Al  Al10  1  0.181884  0.485236  0.895706  1
  Al  Al11  1  0.896352  0.436273  0.181356  1
  Ag  Ag12  1  0.625000  0.125000  0.625000  1
  Ag  Ag13  1  0.625000  0.625000  0.625000  1
  Ag  Ag14  1  0.125000  0.625000  0.625000  1
  Ag  Ag15  1  0.625000  0.625000  0.125000  1
  Ag  Ag16  1  0.507660  0.399495  0.173308  1
  Ag  Ag17  1  0.173992  0.919437  0.506734  1
  Ag  Ag18  1  0.398717  0.508225  0.919054  1
  Ag  Ag19  1  0.918439  0.174194  0.399667  1
  Ag  Ag20  1  0.742340  0.850505  0.076692  1
  Ag  Ag21  1  0.076008  0.330563  0.743266  1
  Ag  Ag22  1  0.851283  0.741775  0.330946  1
  Ag  Ag23  1  0.331561  0.075806  0.850333  1
