# generated using pymatgen
data_Er13Tm7(Cd3Ni)2
_symmetry_space_group_name_H-M   'P 1'
_cell_length_a   9.49819902
_cell_length_b   9.49721248
_cell_length_c   9.69311900
_cell_angle_alpha   90.00038150
_cell_angle_beta   90.00094343
_cell_angle_gamma   119.99619087
_symmetry_Int_Tables_number   1
_chemical_formula_structural   Er13Tm7(Cd3Ni)2
_chemical_formula_sum   'Er13 Tm7 Cd6 Ni2'
_cell_volume   757.26566198
_cell_formula_units_Z   1
loop_
 _symmetry_equiv_pos_site_id
 _symmetry_equiv_pos_as_xyz
  1  'x, y, z'
loop_
 _atom_site_type_symbol
 _atom_site_label
 _atom_site_symmetry_multiplicity
 _atom_site_fract_x
 _atom_site_fract_y
 _atom_site_fract_z
 _atom_site_occupancy
  Er  Er0  1  0.543249  0.456859  0.250125  1
  Er  Er1  1  0.543246  0.086396  0.250128  1
  Er  Er2  1  0.913564  0.456785  0.250223  1
  Er  Er3  1  0.456768  0.543277  0.749820  1
  Er  Er4  1  0.456765  0.913492  0.749815  1
  Er  Er5  1  0.086452  0.543226  0.749793  1
  Er  Er6  1  0.422201  0.211100  0.561447  1
  Er  Er7  1  0.788970  0.211012  0.938500  1
  Er  Er8  1  0.788969  0.577963  0.938504  1
  Er  Er9  1  0.421996  0.211003  0.938613  1
  Er  Er10  1  0.211019  0.788956  0.061525  1
  Er  Er11  1  0.211043  0.422070  0.061525  1
  Er  Er12  1  0.577955  0.788971  0.061530  1
  Tm  Tm13  1  0.999894  0.999948  0.499988  1
  Tm  Tm14  1  0.000007  0.000004  0.999971  1
  Tm  Tm15  1  0.211107  0.788799  0.438535  1
  Tm  Tm16  1  0.211109  0.422312  0.438535  1
  Tm  Tm17  1  0.577701  0.788849  0.438535  1
  Tm  Tm18  1  0.788963  0.211134  0.561412  1
  Tm  Tm19  1  0.788962  0.577828  0.561415  1
  Cd  Cd20  1  0.885669  0.114317  0.250091  1
  Cd  Cd21  1  0.885684  0.771359  0.250083  1
  Cd  Cd22  1  0.228617  0.114303  0.250015  1
  Cd  Cd23  1  0.114312  0.885650  0.749918  1
  Cd  Cd24  1  0.114305  0.228656  0.749922  1
  Cd  Cd25  1  0.771375  0.885683  0.749930  1
  Ni  Ni26  1  0.333333  0.666668  0.250333  1
  Ni  Ni27  1  0.666766  0.333382  0.749770  1
