# generated using pymatgen
data_Ho10ZnGa3Bi2
_symmetry_space_group_name_H-M   'P 1'
_cell_length_a   8.58221951
_cell_length_b   8.58222083
_cell_length_c   8.66764083
_cell_angle_alpha   123.58068277
_cell_angle_beta   123.58068336
_cell_angle_gamma   83.26763112
_symmetry_Int_Tables_number   1
_chemical_formula_structural   Ho10ZnGa3Bi2
_chemical_formula_sum   'Ho10 Zn1 Ga3 Bi2'
_cell_volume   426.41041851
_cell_formula_units_Z   1
loop_
 _symmetry_equiv_pos_site_id
 _symmetry_equiv_pos_as_xyz
  1  'x, y, z'
loop_
 _atom_site_type_symbol
 _atom_site_label
 _atom_site_symmetry_multiplicity
 _atom_site_fract_x
 _atom_site_fract_y
 _atom_site_fract_z
 _atom_site_occupancy
  Ho  Ho0  1  0.998551  0.999219  0.997770  1
  Ho  Ho1  1  0.500781  0.501449  0.002230  1
  Ho  Ho2  1  0.794616  0.294967  0.801488  1
  Ho  Ho3  1  0.205033  0.705384  0.198512  1
  Ho  Ho4  1  0.493128  0.993479  0.198512  1
  Ho  Ho5  1  0.291163  0.484461  0.500000  1
  Ho  Ho6  1  0.015539  0.208837  0.500000  1
  Ho  Ho7  1  0.506521  0.006872  0.801488  1
  Ho  Ho8  1  0.707078  0.512567  0.500000  1
  Ho  Ho9  1  0.987433  0.792922  0.500000  1
  Zn  Zn10  1  0.358326  0.141674  0.500000  1
  Ga  Ga11  1  0.152175  0.652875  0.805049  1
  Ga  Ga12  1  0.847125  0.347825  0.194951  1
  Ga  Ga13  1  0.643900  0.856100  0.500000  1
  Bi  Bi14  1  0.249315  0.250685  0.000000  1
  Bi  Bi15  1  0.749315  0.750685  0.000000  1
