# generated using pymatgen
data_Lu8Si12IrPt3
_symmetry_space_group_name_H-M   'P 1'
_cell_length_a   8.15004700
_cell_length_b   8.15004611
_cell_length_c   7.85943900
_cell_angle_alpha   90.00000000
_cell_angle_beta   90.00000000
_cell_angle_gamma   119.99999957
_symmetry_Int_Tables_number   1
_chemical_formula_structural   Lu8Si12IrPt3
_chemical_formula_sum   'Lu8 Si12 Ir1 Pt3'
_cell_volume   452.10817500
_cell_formula_units_Z   1
loop_
 _symmetry_equiv_pos_site_id
 _symmetry_equiv_pos_as_xyz
  1  'x, y, z'
loop_
 _atom_site_type_symbol
 _atom_site_label
 _atom_site_symmetry_multiplicity
 _atom_site_fract_x
 _atom_site_fract_y
 _atom_site_fract_z
 _atom_site_occupancy
  Lu  Lu0  1  0.982013  0.491007  0.247653  1
  Lu  Lu1  1  0.508993  0.491007  0.247653  1
  Lu  Lu2  1  0.488170  0.976340  0.752039  1
  Lu  Lu3  1  0.023660  0.511830  0.752039  1
  Lu  Lu4  1  0.488170  0.511830  0.752039  1
  Lu  Lu5  1  0.508993  0.017987  0.247653  1
  Lu  Lu6  1  0.000000  0.000000  0.750787  1
  Lu  Lu7  1  0.000000  0.000000  0.250775  1
  Si  Si8  1  0.165091  0.834909  0.500394  1
  Si  Si9  1  0.165091  0.330180  0.500394  1
  Si  Si10  1  0.669820  0.834909  0.500394  1
  Si  Si11  1  0.328932  0.164466  0.998957  1
  Si  Si12  1  0.834837  0.669675  0.500499  1
  Si  Si13  1  0.835534  0.164466  0.998957  1
  Si  Si14  1  0.835534  0.671068  0.998957  1
  Si  Si15  1  0.166838  0.333674  0.001838  1
  Si  Si16  1  0.666326  0.833162  0.001838  1
  Si  Si17  1  0.330325  0.165163  0.500499  1
  Si  Si18  1  0.834837  0.165163  0.500499  1
  Si  Si19  1  0.166838  0.833162  0.001838  1
  Ir  Ir20  1  0.333333  0.666667  0.033832  1
  Pt  Pt21  1  0.666667  0.333333  0.966264  1
  Pt  Pt22  1  0.666667  0.333333  0.535249  1
  Pt  Pt23  1  0.333333  0.666667  0.458954  1
