# generated using pymatgen
data_SmTmAl20(FeRh)2
_symmetry_space_group_name_H-M   'P 1'
_cell_length_a   6.80042953
_cell_length_b   6.80042959
_cell_length_c   9.08332356
_cell_angle_alpha   90.24819426
_cell_angle_beta   90.24819096
_cell_angle_gamma   97.20565459
_symmetry_Int_Tables_number   1
_chemical_formula_structural   SmTmAl20(FeRh)2
_chemical_formula_sum   'Sm1 Tm1 Al20 Fe2 Rh2'
_cell_volume   416.73946297
_cell_formula_units_Z   1
loop_
 _symmetry_equiv_pos_site_id
 _symmetry_equiv_pos_as_xyz
  1  'x, y, z'
loop_
 _atom_site_type_symbol
 _atom_site_label
 _atom_site_symmetry_multiplicity
 _atom_site_fract_x
 _atom_site_fract_y
 _atom_site_fract_z
 _atom_site_occupancy
  Sm  Sm0  1  0.873591  0.126409  0.750000  1
  Tm  Tm1  1  0.128407  0.871593  0.250000  1
  Al  Al2  1  0.619646  0.372563  0.548113  1
  Al  Al3  1  0.379394  0.627287  0.449616  1
  Al  Al4  1  0.372713  0.620606  0.050384  1
  Al  Al5  1  0.627437  0.380354  0.951887  1
  Al  Al6  1  0.228089  0.219970  0.494010  1
  Al  Al7  1  0.770678  0.777870  0.501727  1
  Al  Al8  1  0.780030  0.771911  0.005990  1
  Al  Al9  1  0.222130  0.229322  0.998273  1
  Al  Al10  1  0.849069  0.160579  0.101320  1
  Al  Al11  1  0.153474  0.839175  0.901072  1
  Al  Al12  1  0.160825  0.846526  0.598928  1
  Al  Al13  1  0.839421  0.150931  0.398680  1
  Al  Al14  1  0.860720  0.589637  0.754541  1
  Al  Al15  1  0.140427  0.414938  0.246686  1
  Al  Al16  1  0.410363  0.139280  0.745459  1
  Al  Al17  1  0.585062  0.859573  0.253314  1
  Al  Al18  1  0.223313  0.480973  0.754873  1
  Al  Al19  1  0.778279  0.520126  0.245594  1
  Al  Al20  1  0.519027  0.776687  0.745127  1
  Al  Al21  1  0.479874  0.221721  0.254406  1
  Fe  Fe22  1  0.000132  0.501899  0.002670  1
  Fe  Fe23  1  0.498101  0.999868  0.497330  1
  Rh  Rh24  1  0.999628  0.499830  0.499655  1
  Rh  Rh25  1  0.500170  0.000372  0.000345  1
