# generated using pymatgen
data_Rb4Na2EuDySb4
_symmetry_space_group_name_H-M   'P 1'
_cell_length_a   11.51110502
_cell_length_b   11.51110438
_cell_length_c   7.59152400
_cell_angle_alpha   90.00000000
_cell_angle_beta   90.00000000
_cell_angle_gamma   97.81013635
_symmetry_Int_Tables_number   1
_chemical_formula_structural   Rb4Na2EuDySb4
_chemical_formula_sum   'Rb8 Na4 Eu2 Dy2 Sb8'
_cell_volume   996.58783151
_cell_formula_units_Z   2
loop_
 _symmetry_equiv_pos_site_id
 _symmetry_equiv_pos_as_xyz
  1  'x, y, z'
loop_
 _atom_site_type_symbol
 _atom_site_label
 _atom_site_symmetry_multiplicity
 _atom_site_fract_x
 _atom_site_fract_y
 _atom_site_fract_z
 _atom_site_occupancy
  Rb  Rb0  1  0.068886  0.431114  0.250000  1
  Rb  Rb1  1  0.431114  0.068886  0.750000  1
  Rb  Rb2  1  0.928339  0.571661  0.750000  1
  Rb  Rb3  1  0.571661  0.928339  0.250000  1
  Rb  Rb4  1  0.677666  0.323507  0.215814  1
  Rb  Rb5  1  0.822334  0.176493  0.715814  1
  Rb  Rb6  1  0.323507  0.677666  0.784186  1
  Rb  Rb7  1  0.176493  0.822334  0.284186  1
  Na  Na8  1  0.382917  0.382917  0.000000  1
  Na  Na9  1  0.117083  0.117083  0.500000  1
  Na  Na10  1  0.620011  0.620011  0.000000  1
  Na  Na11  1  0.879989  0.879989  0.500000  1
  Eu  Eu12  1  0.129202  0.129202  0.000000  1
  Eu  Eu13  1  0.370798  0.370798  0.500000  1
  Dy  Dy14  1  0.868476  0.868476  0.000000  1
  Dy  Dy15  1  0.631524  0.631524  0.500000  1
  Sb  Sb16  1  0.843930  0.656069  0.250000  1
  Sb  Sb17  1  0.656069  0.843930  0.750000  1
  Sb  Sb18  1  0.147487  0.352512  0.750000  1
  Sb  Sb19  1  0.352512  0.147487  0.250000  1
  Sb  Sb20  1  0.891059  0.093024  0.220309  1
  Sb  Sb21  1  0.608941  0.406976  0.720309  1
  Sb  Sb22  1  0.093024  0.891059  0.779691  1
  Sb  Sb23  1  0.406976  0.608941  0.279691  1
