# generated using pymatgen
data_Sm4BeCo(SiI)2
_symmetry_space_group_name_H-M   'P 1'
_cell_length_a   4.03782100
_cell_length_b   4.03782026
_cell_length_c   17.13433900
_cell_angle_alpha   90.00000000
_cell_angle_beta   90.00000000
_cell_angle_gamma   119.99999784
_symmetry_Int_Tables_number   1
_chemical_formula_structural   Sm4BeCo(SiI)2
_chemical_formula_sum   'Sm4 Be1 Co1 Si2 I2'
_cell_volume   241.93129036
_cell_formula_units_Z   1
loop_
 _symmetry_equiv_pos_site_id
 _symmetry_equiv_pos_as_xyz
  1  'x, y, z'
loop_
 _atom_site_type_symbol
 _atom_site_label
 _atom_site_symmetry_multiplicity
 _atom_site_fract_x
 _atom_site_fract_y
 _atom_site_fract_z
 _atom_site_occupancy
  Sm  Sm0  1  0.000000  0.000000  0.105447  1
  Sm  Sm1  1  0.000000  0.000000  0.896296  1
  Sm  Sm2  1  0.000000  0.000000  0.611971  1
  Sm  Sm3  1  0.000000  0.000000  0.386571  1
  Be  Be4  1  0.333333  0.666667  0.503290  1
  Co  Co5  1  0.333333  0.666667  0.996769  1
  Si  Si6  1  0.666667  0.333333  0.497360  1
  Si  Si7  1  0.666667  0.333333  0.002492  1
  I  I8  1  0.333333  0.666667  0.251285  1
  I  I9  1  0.666667  0.333333  0.748521  1
