# generated using pymatgen
data_Ho17Tm3(InGa2)4
_symmetry_space_group_name_H-M   'P 1'
_cell_length_a   7.69588500
_cell_length_b   7.69588500
_cell_length_c   14.26920600
_cell_angle_alpha   90.00000000
_cell_angle_beta   90.00000000
_cell_angle_gamma   90.00000000
_symmetry_Int_Tables_number   1
_chemical_formula_structural   Ho17Tm3(InGa2)4
_chemical_formula_sum   'Ho17 Tm3 In4 Ga8'
_cell_volume   845.11721151
_cell_formula_units_Z   1
loop_
 _symmetry_equiv_pos_site_id
 _symmetry_equiv_pos_as_xyz
  1  'x, y, z'
loop_
 _atom_site_type_symbol
 _atom_site_label
 _atom_site_symmetry_multiplicity
 _atom_site_fract_x
 _atom_site_fract_y
 _atom_site_fract_z
 _atom_site_occupancy
  Ho  Ho0  1  0.500000  0.000000  0.740407  1
  Ho  Ho1  1  0.673401  0.660861  0.606399  1
  Ho  Ho2  1  0.673033  0.338770  0.106424  1
  Ho  Ho3  1  0.826922  0.838775  0.393533  1
  Ho  Ho4  1  0.173015  0.838655  0.893648  1
  Ho  Ho5  1  0.326599  0.339139  0.606399  1
  Ho  Ho6  1  0.326967  0.661230  0.106424  1
  Ho  Ho7  1  0.173078  0.161225  0.393533  1
  Ho  Ho8  1  0.826985  0.161345  0.893648  1
  Ho  Ho9  1  0.661225  0.326922  0.393533  1
  Ho  Ho10  1  0.338655  0.326985  0.893648  1
  Ho  Ho11  1  0.160861  0.826599  0.606399  1
  Ho  Ho12  1  0.838770  0.826967  0.106424  1
  Ho  Ho13  1  0.338775  0.673078  0.393533  1
  Ho  Ho14  1  0.661345  0.673015  0.893648  1
  Ho  Ho15  1  0.839139  0.173401  0.606399  1
  Ho  Ho16  1  0.161230  0.173033  0.106424  1
  Tm  Tm17  1  0.000000  0.500000  0.758932  1
  Tm  Tm18  1  0.000000  0.500000  0.258882  1
  Tm  Tm19  1  0.500000  0.000000  0.241187  1
  In  In20  1  0.000000  0.500000  0.496315  1
  In  In21  1  0.000000  0.500000  0.996278  1
  In  In22  1  0.500000  0.000000  0.503484  1
  In  In23  1  0.500000  0.000000  0.004112  1
  Ga  Ga24  1  0.875672  0.874910  0.750068  1
  Ga  Ga25  1  0.875137  0.124918  0.250028  1
  Ga  Ga26  1  0.624918  0.624863  0.250028  1
  Ga  Ga27  1  0.374910  0.624328  0.750068  1
  Ga  Ga28  1  0.124328  0.125090  0.750068  1
  Ga  Ga29  1  0.124863  0.875082  0.250028  1
  Ga  Ga30  1  0.375082  0.375137  0.250028  1
  Ga  Ga31  1  0.625090  0.375672  0.750068  1
