# generated using pymatgen
data_CaEr(BIr)8
_symmetry_space_group_name_H-M   'P 1'
_cell_length_a   7.63011100
_cell_length_b   7.63011100
_cell_length_c   4.00241000
_cell_angle_alpha   90.00000000
_cell_angle_beta   90.00000000
_cell_angle_gamma   90.00000000
_symmetry_Int_Tables_number   1
_chemical_formula_structural   CaEr(BIr)8
_chemical_formula_sum   'Ca1 Er1 B8 Ir8'
_cell_volume   233.01468230
_cell_formula_units_Z   1
loop_
 _symmetry_equiv_pos_site_id
 _symmetry_equiv_pos_as_xyz
  1  'x, y, z'
loop_
 _atom_site_type_symbol
 _atom_site_label
 _atom_site_symmetry_multiplicity
 _atom_site_fract_x
 _atom_site_fract_y
 _atom_site_fract_z
 _atom_site_occupancy
  Ca  Ca0  1  0.500000  0.500000  0.500000  1
  Er  Er1  1  0.000000  0.000000  0.000000  1
  B  B2  1  0.342479  0.778852  0.888921  1
  B  B3  1  0.657521  0.221148  0.888921  1
  B  B4  1  0.778852  0.657521  0.111079  1
  B  B5  1  0.221148  0.342479  0.111079  1
  B  B6  1  0.278111  0.157569  0.388187  1
  B  B7  1  0.721889  0.842431  0.388187  1
  B  B8  1  0.842431  0.278111  0.611813  1
  B  B9  1  0.157569  0.721889  0.611813  1
  Ir  Ir10  1  0.388971  0.155149  0.887836  1
  Ir  Ir11  1  0.611029  0.844851  0.887836  1
  Ir  Ir12  1  0.844851  0.388971  0.112164  1
  Ir  Ir13  1  0.155149  0.611029  0.112164  1
  Ir  Ir14  1  0.339892  0.889784  0.385864  1
  Ir  Ir15  1  0.660108  0.110216  0.385864  1
  Ir  Ir16  1  0.889784  0.660108  0.614136  1
  Ir  Ir17  1  0.110216  0.339892  0.614136  1
