# generated using pymatgen
data_ThMoN3
_symmetry_space_group_name_H-M   'P 1'
_cell_length_a   5.58441900
_cell_length_b   5.68300600
_cell_length_c   7.99145700
_cell_angle_alpha   90.00000000
_cell_angle_beta   90.00000000
_cell_angle_gamma   90.00000000
_symmetry_Int_Tables_number   1
_chemical_formula_structural   ThMoN3
_chemical_formula_sum   'Th4 Mo4 N12'
_cell_volume   253.61917037
_cell_formula_units_Z   4
loop_
 _symmetry_equiv_pos_site_id
 _symmetry_equiv_pos_as_xyz
  1  'x, y, z'
loop_
 _atom_site_type_symbol
 _atom_site_label
 _atom_site_symmetry_multiplicity
 _atom_site_fract_x
 _atom_site_fract_y
 _atom_site_fract_z
 _atom_site_occupancy
  Th  Th0  1  0.503312  0.547210  0.250000  1
  Th  Th1  1  0.996688  0.047210  0.250000  1
  Th  Th2  1  0.496688  0.452790  0.750000  1
  Th  Th3  1  0.003312  0.952790  0.750000  1
  Mo  Mo4  1  0.000000  0.500000  0.000000  1
  Mo  Mo5  1  0.500000  0.000000  0.500000  1
  Mo  Mo6  1  0.000000  0.500000  0.500000  1
  Mo  Mo7  1  0.500000  0.000000  0.000000  1
  N  N8  1  0.424247  0.981981  0.250000  1
  N  N9  1  0.075753  0.481981  0.250000  1
  N  N10  1  0.575753  0.018019  0.750000  1
  N  N11  1  0.924247  0.518019  0.750000  1
  N  N12  1  0.799857  0.798781  0.038976  1
  N  N13  1  0.700143  0.298781  0.461024  1
  N  N14  1  0.200143  0.201219  0.538976  1
  N  N15  1  0.299857  0.701219  0.961024  1
  N  N16  1  0.200143  0.201219  0.961024  1
  N  N17  1  0.299857  0.701219  0.538976  1
  N  N18  1  0.799857  0.798781  0.461024  1
  N  N19  1  0.700143  0.298781  0.038976  1
