# generated using pymatgen
data_K2Ba2USe6
_symmetry_space_group_name_H-M   'P 1'
_cell_length_a   9.02095443
_cell_length_b   9.05237215
_cell_length_c   9.02095548
_cell_angle_alpha   88.74639600
_cell_angle_beta   88.79251760
_cell_angle_gamma   88.74639774
_symmetry_Int_Tables_number   1
_chemical_formula_structural   K2Ba2USe6
_chemical_formula_sum   'K4 Ba4 U2 Se12'
_cell_volume   736.15167374
_cell_formula_units_Z   2
loop_
 _symmetry_equiv_pos_site_id
 _symmetry_equiv_pos_as_xyz
  1  'x, y, z'
loop_
 _atom_site_type_symbol
 _atom_site_label
 _atom_site_symmetry_multiplicity
 _atom_site_fract_x
 _atom_site_fract_y
 _atom_site_fract_z
 _atom_site_occupancy
  K  K0  1  0.878283  0.622179  0.251151  1
  K  K1  1  0.248849  0.877821  0.621717  1
  K  K2  1  0.247677  0.250000  0.252323  1
  K  K3  1  0.750857  0.750000  0.749143  1
  Ba  Ba4  1  0.620741  0.250000  0.879259  1
  Ba  Ba5  1  0.750954  0.120973  0.377168  1
  Ba  Ba6  1  0.378330  0.750000  0.121670  1
  Ba  Ba7  1  0.122832  0.379027  0.749046  1
  U  U8  1  0.503188  0.502778  0.500663  1
  U  U9  1  0.999337  0.997222  0.996812  1
  Se  Se10  1  0.218834  0.562077  0.429643  1
  Se  Se11  1  0.432749  0.216789  0.564780  1
  Se  Se12  1  0.563393  0.425582  0.214063  1
  Se  Se13  1  0.923940  0.067502  0.711857  1
  Se  Se14  1  0.708041  0.935179  0.061739  1
  Se  Se15  1  0.064306  0.712818  0.930231  1
  Se  Se16  1  0.788143  0.432498  0.576060  1
  Se  Se17  1  0.569769  0.787182  0.435694  1
  Se  Se18  1  0.438261  0.564821  0.791959  1
  Se  Se19  1  0.070357  0.937923  0.281166  1
  Se  Se20  1  0.285937  0.074418  0.936607  1
  Se  Se21  1  0.935220  0.283211  0.067251  1
