# generated using pymatgen
data_Sr3BiRhO6
_symmetry_space_group_name_H-M   'P 1'
_cell_length_a   6.92055322
_cell_length_b   6.92055260
_cell_length_c   6.92055322
_cell_angle_alpha   90.55825179
_cell_angle_beta   90.55824817
_cell_angle_gamma   90.55825365
_symmetry_Int_Tables_number   1
_chemical_formula_structural   Sr3BiRhO6
_chemical_formula_sum   'Sr6 Bi2 Rh2 O12'
_cell_volume   331.40583306
_cell_formula_units_Z   2
loop_
 _symmetry_equiv_pos_site_id
 _symmetry_equiv_pos_as_xyz
  1  'x, y, z'
loop_
 _atom_site_type_symbol
 _atom_site_label
 _atom_site_symmetry_multiplicity
 _atom_site_fract_x
 _atom_site_fract_y
 _atom_site_fract_z
 _atom_site_occupancy
  Sr  Sr0  1  0.250000  0.881535  0.618465  1
  Sr  Sr1  1  0.881535  0.618465  0.250000  1
  Sr  Sr2  1  0.750000  0.118465  0.381535  1
  Sr  Sr3  1  0.381535  0.750000  0.118465  1
  Sr  Sr4  1  0.118465  0.381535  0.750000  1
  Sr  Sr5  1  0.618465  0.250000  0.881535  1
  Bi  Bi6  1  0.750000  0.750000  0.750000  1
  Bi  Bi7  1  0.250000  0.250000  0.250000  1
  Rh  Rh8  1  0.500000  0.500000  0.500000  1
  Rh  Rh9  1  0.000000  0.000000  0.000000  1
  O  O10  1  0.583213  0.788476  0.446881  1
  O  O11  1  0.446881  0.583213  0.788476  1
  O  O12  1  0.788476  0.446881  0.583213  1
  O  O13  1  0.916787  0.053119  0.711524  1
  O  O14  1  0.711524  0.916787  0.053119  1
  O  O15  1  0.053119  0.711524  0.916787  1
  O  O16  1  0.416787  0.211524  0.553119  1
  O  O17  1  0.553119  0.416787  0.211524  1
  O  O18  1  0.211524  0.553119  0.416787  1
  O  O19  1  0.083213  0.946881  0.288476  1
  O  O20  1  0.946881  0.288476  0.083213  1
  O  O21  1  0.288476  0.083213  0.946881  1
