# generated using pymatgen
data_Hf6Ta4AlSi5N2
_symmetry_space_group_name_H-M   'P 1'
_cell_length_a   7.76807579
_cell_length_b   7.76807751
_cell_length_c   5.41007300
_cell_angle_alpha   90.00000000
_cell_angle_beta   90.00000000
_cell_angle_gamma   119.90293519
_symmetry_Int_Tables_number   1
_chemical_formula_structural   Hf6Ta4AlSi5N2
_chemical_formula_sum   'Hf6 Ta4 Al1 Si5 N2'
_cell_volume   282.99887539
_cell_formula_units_Z   1
loop_
 _symmetry_equiv_pos_site_id
 _symmetry_equiv_pos_as_xyz
  1  'x, y, z'
loop_
 _atom_site_type_symbol
 _atom_site_label
 _atom_site_symmetry_multiplicity
 _atom_site_fract_x
 _atom_site_fract_y
 _atom_site_fract_z
 _atom_site_occupancy
  Hf  Hf0  1  0.236817  0.000586  0.250000  1
  Hf  Hf1  1  0.000586  0.236817  0.250000  1
  Hf  Hf2  1  0.765373  0.765373  0.250000  1
  Hf  Hf3  1  0.764900  0.003100  0.750000  1
  Hf  Hf4  1  0.003100  0.764900  0.750000  1
  Hf  Hf5  1  0.233326  0.233326  0.750000  1
  Ta  Ta6  1  0.667919  0.329444  0.000349  1
  Ta  Ta7  1  0.329444  0.667919  0.000349  1
  Ta  Ta8  1  0.667919  0.329444  0.499651  1
  Ta  Ta9  1  0.329444  0.667919  0.499651  1
  Al  Al10  1  0.590066  0.590066  0.750000  1
  Si  Si11  1  0.591115  0.997708  0.250000  1
  Si  Si12  1  0.997708  0.591115  0.250000  1
  Si  Si13  1  0.411746  0.411746  0.250000  1
  Si  Si14  1  0.408014  0.000605  0.750000  1
  Si  Si15  1  0.000605  0.408014  0.750000  1
  N  N16  1  0.000959  0.000959  0.000492  1
  N  N17  1  0.000959  0.000959  0.499508  1
