# generated using pymatgen
data_Y4Ga18Ir5Ru
_symmetry_space_group_name_H-M   'P 1'
_cell_length_a   7.55550662
_cell_length_b   7.55550688
_cell_length_c   9.56020511
_cell_angle_alpha   89.96523074
_cell_angle_beta   89.96523191
_cell_angle_gamma   119.83961924
_symmetry_Int_Tables_number   1
_chemical_formula_structural   Y4Ga18Ir5Ru
_chemical_formula_sum   'Y4 Ga18 Ir5 Ru1'
_cell_volume   473.39570954
_cell_formula_units_Z   1
loop_
 _symmetry_equiv_pos_site_id
 _symmetry_equiv_pos_as_xyz
  1  'x, y, z'
loop_
 _atom_site_type_symbol
 _atom_site_label
 _atom_site_symmetry_multiplicity
 _atom_site_fract_x
 _atom_site_fract_y
 _atom_site_fract_z
 _atom_site_occupancy
  Y  Y0  1  0.997911  0.669989  0.249214  1
  Y  Y1  1  0.002033  0.330664  0.751205  1
  Y  Y2  1  0.669336  0.997967  0.248795  1
  Y  Y3  1  0.330011  0.002089  0.750786  1
  Ga  Ga4  1  0.129521  0.130065  0.249366  1
  Ga  Ga5  1  0.869935  0.870479  0.750634  1
  Ga  Ga6  1  0.000538  0.335115  0.079193  1
  Ga  Ga7  1  0.998884  0.665537  0.920282  1
  Ga  Ga8  1  0.997210  0.662785  0.578975  1
  Ga  Ga9  1  0.337215  0.002790  0.421025  1
  Ga  Ga10  1  0.998155  0.334467  0.421089  1
  Ga  Ga11  1  0.665533  0.001845  0.578911  1
  Ga  Ga12  1  0.664885  0.999462  0.920807  1
  Ga  Ga13  1  0.334463  0.001116  0.079718  1
  Ga  Ga14  1  0.335925  0.333195  0.563060  1
  Ga  Ga15  1  0.666805  0.664075  0.436940  1
  Ga  Ga16  1  0.666620  0.666822  0.063965  1
  Ga  Ga17  1  0.333178  0.333380  0.936035  1
  Ga  Ga18  1  0.338100  0.545904  0.249462  1
  Ga  Ga19  1  0.661673  0.451699  0.748960  1
  Ga  Ga20  1  0.548301  0.338327  0.251040  1
  Ga  Ga21  1  0.454096  0.661900  0.750538  1
  Ir  Ir22  1  0.671844  0.328156  0.000000  1
  Ir  Ir23  1  0.327646  0.672354  0.000000  1
  Ir  Ir24  1  0.328242  0.671758  0.500000  1
  Ir  Ir25  1  0.999837  0.000163  0.000000  1
  Ir  Ir26  1  0.000109  0.999891  0.500000  1
  Ru  Ru27  1  0.671993  0.328007  0.500000  1
