# generated using pymatgen
data_BaMgBiH
_symmetry_space_group_name_H-M   'P 1'
_cell_length_a   4.66947400
_cell_length_b   4.66947400
_cell_length_c   10.02577200
_cell_angle_alpha   90.00000000
_cell_angle_beta   90.00000000
_cell_angle_gamma   90.00000000
_symmetry_Int_Tables_number   1
_chemical_formula_structural   BaMgBiH
_chemical_formula_sum   'Ba2 Mg2 Bi2 H2'
_cell_volume   218.60180673
_cell_formula_units_Z   2
loop_
 _symmetry_equiv_pos_site_id
 _symmetry_equiv_pos_as_xyz
  1  'x, y, z'
loop_
 _atom_site_type_symbol
 _atom_site_label
 _atom_site_symmetry_multiplicity
 _atom_site_fract_x
 _atom_site_fract_y
 _atom_site_fract_z
 _atom_site_occupancy
  Ba  Ba0  1  0.000000  0.500000  0.861855  1
  Ba  Ba1  1  0.500000  0.000000  0.138145  1
  Mg  Mg2  1  0.000000  0.000000  0.500000  1
  Mg  Mg3  1  0.500000  0.500000  0.500000  1
  Bi  Bi4  1  0.000000  0.500000  0.314442  1
  Bi  Bi5  1  0.500000  0.000000  0.685558  1
  H  H6  1  0.000000  0.000000  0.000000  1
  H  H7  1  0.500000  0.500000  0.000000  1
