# generated using pymatgen
data_Pr3UF12
_symmetry_space_group_name_H-M   'P 1'
_cell_length_a   4.54792918
_cell_length_b   6.88375128
_cell_length_c   7.29162700
_cell_angle_alpha   90.00000000
_cell_angle_beta   90.00000000
_cell_angle_gamma   90.06081250
_symmetry_Int_Tables_number   1
_chemical_formula_structural   Pr3UF12
_chemical_formula_sum   'Pr3 U1 F12'
_cell_volume   228.27747658
_cell_formula_units_Z   1
loop_
 _symmetry_equiv_pos_site_id
 _symmetry_equiv_pos_as_xyz
  1  'x, y, z'
loop_
 _atom_site_type_symbol
 _atom_site_label
 _atom_site_symmetry_multiplicity
 _atom_site_fract_x
 _atom_site_fract_y
 _atom_site_fract_z
 _atom_site_occupancy
  Pr  Pr0  1  0.934976  0.632771  0.750000  1
  Pr  Pr1  1  0.433952  0.866986  0.250000  1
  Pr  Pr2  1  0.561959  0.132075  0.750000  1
  U  U3  1  0.056607  0.366737  0.250000  1
  F  F4  1  0.390320  0.163064  0.435367  1
  F  F5  1  0.888118  0.335921  0.566708  1
  F  F6  1  0.113355  0.664066  0.063189  1
  F  F7  1  0.611603  0.836854  0.935264  1
  F  F8  1  0.582044  0.523374  0.250000  1
  F  F9  1  0.074894  0.981137  0.750000  1
  F  F10  1  0.924728  0.015102  0.250000  1
  F  F11  1  0.424051  0.482009  0.750000  1
  F  F12  1  0.390320  0.163064  0.064633  1
  F  F13  1  0.888118  0.335921  0.933292  1
  F  F14  1  0.113355  0.664066  0.436811  1
  F  F15  1  0.611603  0.836854  0.564736  1
