# generated using pymatgen
data_Pu(PO3)4
_symmetry_space_group_name_H-M   'P 1'
_cell_length_a   8.36504985
_cell_length_b   8.37132856
_cell_length_c   8.73099505
_cell_angle_alpha   117.60912450
_cell_angle_beta   117.46465732
_cell_angle_gamma   90.35651643
_symmetry_Int_Tables_number   1
_chemical_formula_structural   Pu(PO3)4
_chemical_formula_sum   'Pu2 P8 O24'
_cell_volume   461.52556539
_cell_formula_units_Z   2
loop_
 _symmetry_equiv_pos_site_id
 _symmetry_equiv_pos_as_xyz
  1  'x, y, z'
loop_
 _atom_site_type_symbol
 _atom_site_label
 _atom_site_symmetry_multiplicity
 _atom_site_fract_x
 _atom_site_fract_y
 _atom_site_fract_z
 _atom_site_occupancy
  Pu  Pu0  1  0.724562  0.716468  0.941417  1
  Pu  Pu1  1  0.275438  0.283532  0.058583  1
  P  P2  1  0.239543  0.770284  0.286633  1
  P  P3  1  0.527202  0.995946  0.265579  1
  P  P4  1  0.762661  0.525511  0.270798  1
  P  P5  1  0.760457  0.229716  0.713367  1
  P  P6  1  0.001963  0.769772  0.721611  1
  P  P7  1  0.998037  0.230228  0.278389  1
  P  P8  1  0.472798  0.004054  0.734421  1
  P  P9  1  0.237339  0.474489  0.729202  1
  O  O10  1  0.716836  0.088911  0.486930  1
  O  O11  1  0.450501  0.149273  0.242379  1
  O  O12  1  0.283164  0.911089  0.513070  1
  O  O13  1  0.091741  0.290403  0.512074  1
  O  O14  1  0.047476  0.763986  0.143163  1
  O  O15  1  0.133240  0.960934  0.843772  1
  O  O16  1  0.123378  0.626073  0.737477  1
  O  O17  1  0.569504  0.857895  0.114116  1
  O  O18  1  0.866760  0.039066  0.156228  1
  O  O19  1  0.549499  0.850727  0.757621  1
  O  O20  1  0.908259  0.709597  0.487926  1
  O  O21  1  0.853067  0.739078  0.762554  1
  O  O22  1  0.952524  0.236014  0.856837  1
  O  O23  1  0.876622  0.373927  0.262523  1
  O  O24  1  0.590120  0.469539  0.267395  1
  O  O25  1  0.605900  0.124549  0.717794  1
  O  O26  1  0.146933  0.260922  0.237446  1
  O  O27  1  0.725435  0.413634  0.737300  1
  O  O28  1  0.394100  0.875451  0.282206  1
  O  O29  1  0.257602  0.431724  0.885411  1
  O  O30  1  0.274565  0.586366  0.262700  1
  O  O31  1  0.742398  0.568276  0.114589  1
  O  O32  1  0.430496  0.142105  0.885884  1
  O  O33  1  0.409880  0.530461  0.732605  1
