# generated using pymatgen
data_Er4Al16Zn2FePd5
_symmetry_space_group_name_H-M   'P 1'
_cell_length_a   7.53618947
_cell_length_b   7.53618977
_cell_length_c   9.46925115
_cell_angle_alpha   89.98977759
_cell_angle_beta   89.98978422
_cell_angle_gamma   118.89824648
_symmetry_Int_Tables_number   1
_chemical_formula_structural   Er4Al16Zn2FePd5
_chemical_formula_sum   'Er4 Al16 Zn2 Fe1 Pd5'
_cell_volume   470.83109128
_cell_formula_units_Z   1
loop_
 _symmetry_equiv_pos_site_id
 _symmetry_equiv_pos_as_xyz
  1  'x, y, z'
loop_
 _atom_site_type_symbol
 _atom_site_label
 _atom_site_symmetry_multiplicity
 _atom_site_fract_x
 _atom_site_fract_y
 _atom_site_fract_z
 _atom_site_occupancy
  Er  Er0  1  0.997013  0.677449  0.248470  1
  Er  Er1  1  0.006912  0.325491  0.751406  1
  Er  Er2  1  0.674509  0.993088  0.248594  1
  Er  Er3  1  0.322551  0.002987  0.751530  1
  Al  Al4  1  0.988738  0.333890  0.075773  1
  Al  Al5  1  0.988493  0.654400  0.923517  1
  Al  Al6  1  0.995187  0.665031  0.581062  1
  Al  Al7  1  0.334969  0.004813  0.418938  1
  Al  Al8  1  0.002253  0.334589  0.420458  1
  Al  Al9  1  0.665411  0.997747  0.579542  1
  Al  Al10  1  0.666110  0.011262  0.924227  1
  Al  Al11  1  0.345600  0.011507  0.076483  1
  Al  Al12  1  0.333777  0.333709  0.557258  1
  Al  Al13  1  0.666291  0.666223  0.442742  1
  Al  Al14  1  0.668661  0.659332  0.048703  1
  Al  Al15  1  0.340668  0.331339  0.951297  1
  Al  Al16  1  0.338772  0.545178  0.248297  1
  Al  Al17  1  0.658741  0.444486  0.759610  1
  Al  Al18  1  0.555514  0.341259  0.240390  1
  Al  Al19  1  0.454822  0.661228  0.751703  1
  Zn  Zn20  1  0.140387  0.142361  0.248668  1
  Zn  Zn21  1  0.857639  0.859613  0.751332  1
  Fe  Fe22  1  0.671669  0.328331  0.000000  1
  Pd  Pd23  1  0.326189  0.673811  0.000000  1
  Pd  Pd24  1  0.326687  0.673313  0.500000  1
  Pd  Pd25  1  0.672291  0.327709  0.500000  1
  Pd  Pd26  1  0.000201  0.999799  0.000000  1
  Pd  Pd27  1  0.999948  0.000052  0.500000  1
