# generated using pymatgen
data_LiTm2Lu4Co17P12
_symmetry_space_group_name_H-M   'P 1'
_cell_length_a   3.68046600
_cell_length_b   10.50121600
_cell_length_c   12.11118800
_cell_angle_alpha   90.00000000
_cell_angle_beta   90.00000000
_cell_angle_gamma   90.00000000
_symmetry_Int_Tables_number   1
_chemical_formula_structural   LiTm2Lu4Co17P12
_chemical_formula_sum   'Li1 Tm2 Lu4 Co17 P12'
_cell_volume   468.08976734
_cell_formula_units_Z   1
loop_
 _symmetry_equiv_pos_site_id
 _symmetry_equiv_pos_as_xyz
  1  'x, y, z'
loop_
 _atom_site_type_symbol
 _atom_site_label
 _atom_site_symmetry_multiplicity
 _atom_site_fract_x
 _atom_site_fract_y
 _atom_site_fract_z
 _atom_site_occupancy
  Li  Li0  1  0.500000  0.500000  0.152198  1
  Tm  Tm1  1  0.000000  0.500000  0.523334  1
  Tm  Tm2  1  0.500000  0.000000  0.477355  1
  Lu  Lu3  1  0.500000  0.820162  0.206611  1
  Lu  Lu4  1  0.500000  0.179838  0.206611  1
  Lu  Lu5  1  0.000000  0.681482  0.794376  1
  Lu  Lu6  1  0.000000  0.318518  0.794376  1
  Co  Co7  1  0.000000  0.000000  0.839532  1
  Co  Co8  1  0.500000  0.500000  0.704662  1
  Co  Co9  1  0.000000  0.000000  0.296394  1
  Co  Co10  1  0.000000  0.500000  0.986147  1
  Co  Co11  1  0.500000  0.000000  0.012184  1
  Co  Co12  1  0.500000  0.330567  0.994812  1
  Co  Co13  1  0.500000  0.669433  0.994812  1
  Co  Co14  1  0.000000  0.165092  0.003373  1
  Co  Co15  1  0.000000  0.834908  0.003373  1
  Co  Co16  1  0.500000  0.296444  0.432234  1
  Co  Co17  1  0.500000  0.703556  0.432234  1
  Co  Co18  1  0.000000  0.202376  0.570277  1
  Co  Co19  1  0.000000  0.797624  0.570277  1
  Co  Co20  1  0.500000  0.878652  0.708868  1
  Co  Co21  1  0.500000  0.121348  0.708868  1
  Co  Co22  1  0.000000  0.623286  0.292928  1
  Co  Co23  1  0.000000  0.376714  0.292928  1
  P  P24  1  0.500000  0.500000  0.883630  1
  P  P25  1  0.000000  0.000000  0.117703  1
  P  P26  1  0.500000  0.500000  0.346762  1
  P  P27  1  0.000000  0.000000  0.654190  1
  P  P28  1  0.500000  0.311594  0.617930  1
  P  P29  1  0.500000  0.688406  0.617930  1
  P  P30  1  0.000000  0.188220  0.384120  1
  P  P31  1  0.000000  0.811780  0.384120  1
  P  P32  1  0.500000  0.846844  0.890499  1
  P  P33  1  0.500000  0.153156  0.890499  1
  P  P34  1  0.000000  0.658348  0.106928  1
  P  P35  1  0.000000  0.341652  0.106928  1
