# generated using pymatgen
data_Li2NiH6Pt
_symmetry_space_group_name_H-M   'P 1'
_cell_length_a   4.79237929
_cell_length_b   4.79237958
_cell_length_c   4.79237900
_cell_angle_alpha   120.00000288
_cell_angle_beta   120.00000493
_cell_angle_gamma   59.99998283
_symmetry_Int_Tables_number   1
_chemical_formula_structural   Li2NiH6Pt
_chemical_formula_sum   'Li2 Ni1 H6 Pt1'
_cell_volume   77.82846559
_cell_formula_units_Z   1
loop_
 _symmetry_equiv_pos_site_id
 _symmetry_equiv_pos_as_xyz
  1  'x, y, z'
loop_
 _atom_site_type_symbol
 _atom_site_label
 _atom_site_symmetry_multiplicity
 _atom_site_fract_x
 _atom_site_fract_y
 _atom_site_fract_z
 _atom_site_occupancy
  Li  Li0  1  0.750001  0.750001  0.249999  1
  Li  Li1  1  0.249999  0.249999  0.749998  1
  Ni  Ni2  1  0.000000  0.000000  0.000000  1
  H  H3  1  0.243299  0.243299  0.243300  1
  H  H4  1  0.756701  0.243300  0.243300  1
  H  H5  1  0.243300  0.756701  0.243300  1
  H  H6  1  0.756701  0.756701  0.756701  1
  H  H7  1  0.756701  0.243301  0.756701  1
  H  H8  1  0.243301  0.756701  0.756701  1
  Pt  Pt9  1  0.500002  0.500002  0.500001  1
