# generated using pymatgen
data_PmFeGe2Pt
_symmetry_space_group_name_H-M   'P 1'
_cell_length_a   5.90130919
_cell_length_b   5.90130958
_cell_length_c   5.90130890
_cell_angle_alpha   137.63375319
_cell_angle_beta   137.63375303
_cell_angle_gamma   61.46438269
_symmetry_Int_Tables_number   1
_chemical_formula_structural   PmFeGe2Pt
_chemical_formula_sum   'Pm1 Fe1 Ge2 Pt1'
_cell_volume   92.26562839
_cell_formula_units_Z   1
loop_
 _symmetry_equiv_pos_site_id
 _symmetry_equiv_pos_as_xyz
  1  'x, y, z'
loop_
 _atom_site_type_symbol
 _atom_site_label
 _atom_site_symmetry_multiplicity
 _atom_site_fract_x
 _atom_site_fract_y
 _atom_site_fract_z
 _atom_site_occupancy
  Pm  Pm0  1  0.000000  0.000000  0.000000  1
  Fe  Fe1  1  0.750000  0.250000  0.500000  1
  Ge  Ge2  1  0.374014  0.374014  0.000000  1
  Ge  Ge3  1  0.625985  0.625985  0.000000  1
  Pt  Pt4  1  0.250000  0.750000  0.500000  1
