# generated using pymatgen
data_Li2La2Zn19Ni
_symmetry_space_group_name_H-M   'P 1'
_cell_length_a   8.33460928
_cell_length_b   8.33089158
_cell_length_c   8.33089200
_cell_angle_alpha   99.03810089
_cell_angle_beta   99.71269217
_cell_angle_gamma   132.36298413
_symmetry_Int_Tables_number   1
_chemical_formula_structural   Li2La2Zn19Ni
_chemical_formula_sum   'Li2 La2 Zn19 Ni1'
_cell_volume   391.08894894
_cell_formula_units_Z   1
loop_
 _symmetry_equiv_pos_site_id
 _symmetry_equiv_pos_as_xyz
  1  'x, y, z'
loop_
 _atom_site_type_symbol
 _atom_site_label
 _atom_site_symmetry_multiplicity
 _atom_site_fract_x
 _atom_site_fract_y
 _atom_site_fract_z
 _atom_site_occupancy
  Li  Li0  1  0.761379  0.255192  0.506186  1
  Li  Li1  1  0.488621  0.494808  0.993814  1
  La  La2  1  0.001171  0.999358  0.001812  1
  La  La3  1  0.248829  0.750642  0.498188  1
  Zn  Zn4  1  0.625000  0.875000  0.250000  1
  Zn  Zn5  1  0.625000  0.375000  0.750000  1
  Zn  Zn6  1  0.625000  0.375000  0.250000  1
  Zn  Zn7  1  0.185891  0.507804  0.072706  1
  Zn  Zn8  1  0.185891  0.113185  0.678086  1
  Zn  Zn9  1  0.770277  0.943031  0.589608  1
  Zn  Zn10  1  0.770277  0.180669  0.827248  1
  Zn  Zn11  1  0.426446  0.513459  0.330107  1
  Zn  Zn12  1  0.426446  0.096336  0.912986  1
  Zn  Zn13  1  0.350415  0.934314  0.172416  1
  Zn  Zn14  1  0.350415  0.178000  0.416102  1
  Zn  Zn15  1  0.064109  0.242196  0.427294  1
  Zn  Zn16  1  0.064109  0.636815  0.821914  1
  Zn  Zn17  1  0.479723  0.806969  0.910392  1
  Zn  Zn18  1  0.479723  0.569331  0.672752  1
  Zn  Zn19  1  0.823554  0.236541  0.169893  1
  Zn  Zn20  1  0.823554  0.653664  0.587014  1
  Zn  Zn21  1  0.899585  0.815686  0.327584  1
  Zn  Zn22  1  0.899585  0.572000  0.083898  1
  Ni  Ni23  1  0.125000  0.375000  0.750000  1
