# generated using pymatgen
data_LuPa3(SnRh2)2
_symmetry_space_group_name_H-M   'P 1'
_cell_length_a   7.64571729
_cell_length_b   7.64571735
_cell_length_c   3.63234400
_cell_angle_alpha   90.00000000
_cell_angle_beta   90.00000000
_cell_angle_gamma   91.61870883
_symmetry_Int_Tables_number   1
_chemical_formula_structural   LuPa3(SnRh2)2
_chemical_formula_sum   'Lu1 Pa3 Sn2 Rh4'
_cell_volume   212.25117536
_cell_formula_units_Z   1
loop_
 _symmetry_equiv_pos_site_id
 _symmetry_equiv_pos_as_xyz
  1  'x, y, z'
loop_
 _atom_site_type_symbol
 _atom_site_label
 _atom_site_symmetry_multiplicity
 _atom_site_fract_x
 _atom_site_fract_y
 _atom_site_fract_z
 _atom_site_occupancy
  Lu  Lu0  1  0.327651  0.172349  0.500000  1
  Pa  Pa1  1  0.667390  0.832610  0.500000  1
  Pa  Pa2  1  0.173326  0.669747  0.500000  1
  Pa  Pa3  1  0.830253  0.326674  0.500000  1
  Sn  Sn4  1  0.009835  0.003595  0.000000  1
  Sn  Sn5  1  0.496405  0.490165  0.000000  1
  Rh  Rh6  1  0.645962  0.127323  0.000000  1
  Rh  Rh7  1  0.858804  0.641196  0.000000  1
  Rh  Rh8  1  0.372677  0.854038  0.000000  1
  Rh  Rh9  1  0.117696  0.382304  0.000000  1
