# generated using pymatgen
data_TbNd19Si15Br
_symmetry_space_group_name_H-M   'P 1'
_cell_length_a   7.83398170
_cell_length_b   7.92890301
_cell_length_c   15.22417576
_cell_angle_alpha   89.53498311
_cell_angle_beta   84.89841093
_cell_angle_gamma   89.70667808
_symmetry_Int_Tables_number   1
_chemical_formula_structural   TbNd19Si15Br
_chemical_formula_sum   'Tb1 Nd19 Si15 Br1'
_cell_volume   941.86157450
_cell_formula_units_Z   1
loop_
 _symmetry_equiv_pos_site_id
 _symmetry_equiv_pos_as_xyz
  1  'x, y, z'
loop_
 _atom_site_type_symbol
 _atom_site_label
 _atom_site_symmetry_multiplicity
 _atom_site_fract_x
 _atom_site_fract_y
 _atom_site_fract_z
 _atom_site_occupancy
  Tb  Tb0  1  0.172464  0.509811  0.747417  1
  Nd  Nd1  1  0.870704  0.331497  0.620433  1
  Nd  Nd2  1  0.468770  0.689351  0.895325  1
  Nd  Nd3  1  0.967776  0.812960  0.896493  1
  Nd  Nd4  1  0.177293  0.677011  0.120502  1
  Nd  Nd5  1  0.677239  0.816885  0.121012  1
  Nd  Nd6  1  0.323739  0.180554  0.879971  1
  Nd  Nd7  1  0.140324  0.666784  0.384513  1
  Nd  Nd8  1  0.033244  0.186704  0.103193  1
  Nd  Nd9  1  0.367137  0.169549  0.616331  1
  Nd  Nd10  1  0.831143  0.491495  0.243411  1
  Nd  Nd11  1  0.329236  0.003692  0.251682  1
  Nd  Nd12  1  0.477886  0.309771  0.394607  1
  Nd  Nd13  1  0.824285  0.321573  0.878741  1
  Nd  Nd14  1  0.019582  0.832235  0.607459  1
  Nd  Nd15  1  0.499608  0.690874  0.608205  1
  Nd  Nd16  1  0.991037  0.167077  0.394783  1
  Nd  Nd17  1  0.629567  0.842428  0.382871  1
  Nd  Nd18  1  0.669997  0.995944  0.746108  1
  Nd  Nd19  1  0.533053  0.309267  0.103067  1
  Si  Si20  1  0.449417  0.601521  0.252929  1
  Si  Si21  1  0.218695  0.375657  0.249714  1
  Si  Si22  1  0.548791  0.399766  0.750872  1
  Si  Si23  1  0.638058  0.025223  0.957755  1
  Si  Si24  1  0.050560  0.108181  0.752348  1
  Si  Si25  1  0.782412  0.623043  0.751521  1
  Si  Si26  1  0.719239  0.120626  0.248859  1
  Si  Si27  1  0.286663  0.971865  0.454896  1
  Si  Si28  1  0.949156  0.893337  0.250105  1
  Si  Si29  1  0.365211  0.972290  0.042248  1
  Si  Si30  1  0.718957  0.028359  0.542746  1
  Si  Si31  1  0.137923  0.476174  0.955394  1
  Si  Si32  1  0.211937  0.480304  0.549503  1
  Si  Si33  1  0.864873  0.523625  0.041557  1
  Si  Si34  1  0.278468  0.877833  0.752551  1
  Br  Br35  1  0.775558  0.516734  0.450880  1
