# generated using pymatgen
data_MgV2(CoO4)2
_symmetry_space_group_name_H-M   'P 1'
_cell_length_a   8.52406000
_cell_length_b   5.39338616
_cell_length_c   9.03336962
_cell_angle_alpha   61.32502885
_cell_angle_beta   90.00000000
_cell_angle_gamma   90.00000000
_symmetry_Int_Tables_number   1
_chemical_formula_structural   MgV2(CoO4)2
_chemical_formula_sum   'Mg2 V4 Co4 O16'
_cell_volume   364.36241841
_cell_formula_units_Z   2
loop_
 _symmetry_equiv_pos_site_id
 _symmetry_equiv_pos_as_xyz
  1  'x, y, z'
loop_
 _atom_site_type_symbol
 _atom_site_label
 _atom_site_symmetry_multiplicity
 _atom_site_fract_x
 _atom_site_fract_y
 _atom_site_fract_z
 _atom_site_occupancy
  Mg  Mg0  1  0.000000  0.000000  0.000000  1
  Mg  Mg1  1  0.500000  0.000000  0.500000  1
  V  V2  1  0.697836  0.646044  0.306732  1
  V  V3  1  0.302164  0.353956  0.693268  1
  V  V4  1  0.197836  0.353956  0.193268  1
  V  V5  1  0.802164  0.646044  0.806732  1
  Co  Co6  1  0.360779  0.990981  0.106360  1
  Co  Co7  1  0.639221  0.009019  0.893640  1
  Co  Co8  1  0.860779  0.009019  0.393640  1
  Co  Co9  1  0.139221  0.990981  0.606360  1
  O  O10  1  0.635274  0.723729  0.460665  1
  O  O11  1  0.364726  0.276271  0.539335  1
  O  O12  1  0.135274  0.276271  0.039335  1
  O  O13  1  0.864726  0.723729  0.960665  1
  O  O14  1  0.567167  0.795396  0.135814  1
  O  O15  1  0.432833  0.204604  0.864186  1
  O  O16  1  0.067167  0.204604  0.364186  1
  O  O17  1  0.932833  0.795396  0.635814  1
  O  O18  1  0.877221  0.830095  0.243023  1
  O  O19  1  0.122779  0.169905  0.756977  1
  O  O20  1  0.377221  0.169905  0.256977  1
  O  O21  1  0.622779  0.830095  0.743023  1
  O  O22  1  0.699308  0.277549  0.385091  1
  O  O23  1  0.300692  0.722451  0.614909  1
  O  O24  1  0.199308  0.722451  0.114909  1
  O  O25  1  0.800692  0.277549  0.885091  1
