# generated using pymatgen
data_K8TaNbFe6(PO4)12
_symmetry_space_group_name_H-M   'P 1'
_cell_length_a   10.06044800
_cell_length_b   10.06015629
_cell_length_c   10.06192900
_cell_angle_alpha   89.60980512
_cell_angle_beta   90.00000000
_cell_angle_gamma   90.00000000
_symmetry_Int_Tables_number   1
_chemical_formula_structural   K8TaNbFe6(PO4)12
_chemical_formula_sum   'K8 Ta1 Nb1 Fe6 P12 O48'
_cell_volume   1018.34099113
_cell_formula_units_Z   1
loop_
 _symmetry_equiv_pos_site_id
 _symmetry_equiv_pos_as_xyz
  1  'x, y, z'
loop_
 _atom_site_type_symbol
 _atom_site_label
 _atom_site_symmetry_multiplicity
 _atom_site_fract_x
 _atom_site_fract_y
 _atom_site_fract_z
 _atom_site_occupancy
  K  K0  1  0.937202  0.192434  0.926698  1
  K  K1  1  0.202913  0.045192  0.303401  1
  K  K2  1  0.703334  0.954772  0.696191  1
  K  K3  1  0.436248  0.806725  0.073021  1
  K  K4  1  0.066290  0.673872  0.557918  1
  K  K5  1  0.796637  0.548500  0.211931  1
  K  K6  1  0.296755  0.451544  0.788121  1
  K  K7  1  0.566161  0.326338  0.442554  1
  Ta  Ta8  1  0.587613  0.165061  0.088585  1
  Nb  Nb9  1  0.087510  0.834724  0.911321  1
  Fe  Fe10  1  0.355390  0.106877  0.640972  1
  Fe  Fe11  1  0.854867  0.893362  0.358861  1
  Fe  Fe12  1  0.414151  0.661030  0.414544  1
  Fe  Fe13  1  0.644679  0.604372  0.851675  1
  Fe  Fe14  1  0.144834  0.395275  0.148650  1
  Fe  Fe15  1  0.913484  0.338725  0.584738  1
  P  P16  1  0.877488  0.208167  0.274822  1
  P  P17  1  0.271338  0.127015  0.958660  1
  P  P18  1  0.041229  0.025828  0.622647  1
  P  P19  1  0.540935  0.974894  0.376704  1
  P  P20  1  0.770106  0.873271  0.041640  1
  P  P21  1  0.378176  0.791988  0.724234  1
  P  P22  1  0.125615  0.708428  0.232494  1
  P  P23  1  0.727167  0.623920  0.541136  1
  P  P24  1  0.957870  0.517376  0.875542  1
  P  P25  1  0.458341  0.481668  0.124661  1
  P  P26  1  0.227046  0.376213  0.459062  1
  P  P27  1  0.625990  0.291046  0.768405  1
  O  O28  1  0.642394  0.246975  0.919637  1
  O  O29  1  0.201017  0.222882  0.051732  1
  O  O30  1  0.741623  0.223724  0.192860  1
  O  O31  1  0.524761  0.199199  0.701857  1
  O  O32  1  0.266776  0.172710  0.813536  1
  O  O33  1  0.996741  0.167606  0.652125  1
  O  O34  1  0.418535  0.102070  0.003975  1
  O  O35  1  0.922305  0.061980  0.266684  1
  O  O36  1  0.526085  0.055254  0.239851  1
  O  O37  1  0.450033  0.050364  0.472334  1
  O  O38  1  0.187290  0.016264  0.577983  1
  O  O39  1  0.696965  0.010560  0.023384  1
  O  O40  1  0.200097  0.989341  0.977991  1
  O  O41  1  0.686858  0.983907  0.421849  1
  O  O42  1  0.950261  0.950135  0.527225  1
  O  O43  1  0.025879  0.946294  0.759832  1
  O  O44  1  0.422811  0.938181  0.733127  1
  O  O45  1  0.916670  0.899991  0.996439  1
  O  O46  1  0.496354  0.833240  0.346592  1
  O  O47  1  0.765742  0.827322  0.186692  1
  O  O48  1  0.024227  0.800549  0.298388  1
  O  O49  1  0.241964  0.775957  0.805683  1
  O  O50  1  0.700313  0.777356  0.948265  1
  O  O51  1  0.141886  0.752070  0.081176  1
  O  O52  1  0.346634  0.748082  0.582854  1
  O  O53  1  0.798990  0.727279  0.451914  1
  O  O54  1  0.261855  0.730307  0.296583  1
  O  O55  1  0.473750  0.700528  0.800535  1
  O  O56  1  0.734259  0.671727  0.687898  1
  O  O57  1  0.000255  0.669321  0.857232  1
  O  O58  1  0.581484  0.602491  0.499027  1
  O  O59  1  0.077154  0.563354  0.235243  1
  O  O60  1  0.481998  0.547189  0.259618  1
  O  O61  1  0.550356  0.547808  0.022523  1
  O  O62  1  0.812581  0.515482  0.923602  1
  O  O63  1  0.302037  0.509058  0.479208  1
  O  O64  1  0.802006  0.491039  0.520877  1
  O  O65  1  0.313028  0.483688  0.076727  1
  O  O66  1  0.050470  0.452218  0.977725  1
  O  O67  1  0.981648  0.451825  0.740699  1
  O  O68  1  0.577245  0.435999  0.765670  1
  O  O69  1  0.081296  0.397734  0.500895  1
  O  O70  1  0.501613  0.330081  0.142698  1
  O  O71  1  0.234245  0.328037  0.312416  1
  O  O72  1  0.973554  0.299322  0.198876  1
  O  O73  1  0.762237  0.269375  0.704227  1
  O  O74  1  0.298898  0.272986  0.548503  1
  O  O75  1  0.845449  0.252523  0.416046  1
