# generated using pymatgen
data_Er12Th4Mg3HgRu3Rh
_symmetry_space_group_name_H-M   'P 1'
_cell_length_a   9.68589013
_cell_length_b   9.70696638
_cell_length_c   9.70696600
_cell_angle_alpha   60.00000131
_cell_angle_beta   59.92799450
_cell_angle_gamma   59.92799779
_symmetry_Int_Tables_number   1
_chemical_formula_structural   Er12Th4Mg3HgRu3Rh
_chemical_formula_sum   'Er12 Th4 Mg3 Hg1 Ru3 Rh1'
_cell_volume   644.64120443
_cell_formula_units_Z   1
loop_
 _symmetry_equiv_pos_site_id
 _symmetry_equiv_pos_as_xyz
  1  'x, y, z'
loop_
 _atom_site_type_symbol
 _atom_site_label
 _atom_site_symmetry_multiplicity
 _atom_site_fract_x
 _atom_site_fract_y
 _atom_site_fract_z
 _atom_site_occupancy
  Er  Er0  1  0.815978  0.185951  0.185951  1
  Er  Er1  1  0.185407  0.813653  0.813653  1
  Er  Er2  1  0.184631  0.814832  0.185830  1
  Er  Er3  1  0.814975  0.186498  0.811225  1
  Er  Er4  1  0.184631  0.185830  0.814832  1
  Er  Er5  1  0.814975  0.811225  0.186498  1
  Er  Er6  1  0.930342  0.565496  0.565496  1
  Er  Er7  1  0.562902  0.934741  0.934741  1
  Er  Er8  1  0.562454  0.931965  0.567087  1
  Er  Er9  1  0.932709  0.565975  0.935017  1
  Er  Er10  1  0.562454  0.567087  0.931965  1
  Er  Er11  1  0.932709  0.935017  0.565975  1
  Th  Th12  1  0.346319  0.349280  0.349280  1
  Th  Th13  1  0.347658  0.350700  0.952749  1
  Th  Th14  1  0.347658  0.952749  0.350700  1
  Th  Th15  1  0.957035  0.348453  0.348453  1
  Mg  Mg16  1  0.580465  0.580611  0.260201  1
  Mg  Mg17  1  0.580465  0.260201  0.580611  1
  Mg  Mg18  1  0.259056  0.580936  0.580936  1
  Hg  Hg19  1  0.583592  0.583773  0.583773  1
  Ru  Ru20  1  0.146796  0.142572  0.142572  1
  Ru  Ru21  1  0.146861  0.143107  0.566983  1
  Ru  Ru22  1  0.146861  0.566983  0.143107  1
  Rh  Rh23  1  0.573064  0.142362  0.142362  1
