# generated using pymatgen
data_K3LuIr2O9
_symmetry_space_group_name_H-M   'P 1'
_cell_length_a   5.94142000
_cell_length_b   5.94179496
_cell_length_c   14.41958300
_cell_angle_alpha   90.00000000
_cell_angle_beta   90.00000000
_cell_angle_gamma   119.99593790
_symmetry_Int_Tables_number   1
_chemical_formula_structural   K3LuIr2O9
_chemical_formula_sum   'K6 Lu2 Ir4 O18'
_cell_volume   440.86845303
_cell_formula_units_Z   2
loop_
 _symmetry_equiv_pos_site_id
 _symmetry_equiv_pos_as_xyz
  1  'x, y, z'
loop_
 _atom_site_type_symbol
 _atom_site_label
 _atom_site_symmetry_multiplicity
 _atom_site_fract_x
 _atom_site_fract_y
 _atom_site_fract_z
 _atom_site_occupancy
  K  K0  1  0.666636  0.333298  0.100641  1
  K  K1  1  0.000024  0.999980  0.250000  1
  K  K2  1  0.666636  0.333298  0.399359  1
  K  K3  1  0.333327  0.666703  0.601290  1
  K  K4  1  0.000046  0.000032  0.750000  1
  K  K5  1  0.333327  0.666703  0.898710  1
  Lu  Lu6  1  0.000052  0.999983  0.998836  1
  Lu  Lu7  1  0.000052  0.999983  0.501164  1
  Ir  Ir8  1  0.333317  0.666638  0.152808  1
  Ir  Ir9  1  0.333317  0.666638  0.347192  1
  Ir  Ir10  1  0.666681  0.333372  0.653754  1
  Ir  Ir11  1  0.666681  0.333372  0.846246  1
  O  O12  1  0.176297  0.352515  0.083448  1
  O  O13  1  0.176195  0.823766  0.083438  1
  O  O14  1  0.647469  0.823682  0.083432  1
  O  O15  1  0.052019  0.525933  0.250000  1
  O  O16  1  0.473880  0.525832  0.250000  1
  O  O17  1  0.473924  0.947957  0.250000  1
  O  O18  1  0.176195  0.823766  0.416562  1
  O  O19  1  0.647469  0.823682  0.416568  1
  O  O20  1  0.176297  0.352515  0.416552  1
  O  O21  1  0.823352  0.646644  0.582986  1
  O  O22  1  0.353338  0.176677  0.582972  1
  O  O23  1  0.823331  0.176730  0.582993  1
  O  O24  1  0.526046  0.052040  0.750000  1
  O  O25  1  0.526087  0.474155  0.750000  1
  O  O26  1  0.947985  0.474056  0.750000  1
  O  O27  1  0.353338  0.176677  0.917028  1
  O  O28  1  0.823331  0.176730  0.917007  1
  O  O29  1  0.823352  0.646644  0.917014  1
