# generated using pymatgen
data_CaNd2(YSi2)2
_symmetry_space_group_name_H-M   'P 1'
_cell_length_a   7.81425100
_cell_length_b   7.81425100
_cell_length_c   14.34283300
_cell_angle_alpha   90.00000000
_cell_angle_beta   90.00000000
_cell_angle_gamma   90.00000000
_symmetry_Int_Tables_number   1
_chemical_formula_structural   CaNd2(YSi2)2
_chemical_formula_sum   'Ca4 Nd8 Y8 Si16'
_cell_volume   875.80950814
_cell_formula_units_Z   4
loop_
 _symmetry_equiv_pos_site_id
 _symmetry_equiv_pos_as_xyz
  1  'x, y, z'
loop_
 _atom_site_type_symbol
 _atom_site_label
 _atom_site_symmetry_multiplicity
 _atom_site_fract_x
 _atom_site_fract_y
 _atom_site_fract_z
 _atom_site_occupancy
  Ca  Ca0  1  0.312518  0.312518  0.500000  1
  Ca  Ca1  1  0.187482  0.812518  0.750000  1
  Ca  Ca2  1  0.812518  0.187482  0.250000  1
  Ca  Ca3  1  0.687482  0.687482  0.000000  1
  Nd  Nd4  1  0.635942  0.990385  0.457566  1
  Nd  Nd5  1  0.364058  0.009615  0.957566  1
  Nd  Nd6  1  0.990385  0.635942  0.542434  1
  Nd  Nd7  1  0.490385  0.864058  0.207566  1
  Nd  Nd8  1  0.509615  0.135942  0.707566  1
  Nd  Nd9  1  0.864058  0.490385  0.792434  1
  Nd  Nd10  1  0.135942  0.509615  0.292434  1
  Nd  Nd11  1  0.009615  0.364058  0.042434  1
  Y  Y12  1  0.492605  0.367987  0.123813  1
  Y  Y13  1  0.992605  0.132013  0.626187  1
  Y  Y14  1  0.867987  0.007395  0.873813  1
  Y  Y15  1  0.132013  0.992605  0.373813  1
  Y  Y16  1  0.507395  0.632013  0.623813  1
  Y  Y17  1  0.367987  0.492605  0.876187  1
  Y  Y18  1  0.632013  0.507395  0.376187  1
  Y  Y19  1  0.007395  0.867987  0.126187  1
  Si  Si20  1  0.288378  0.924442  0.558762  1
  Si  Si21  1  0.711622  0.075558  0.058762  1
  Si  Si22  1  0.924442  0.288378  0.441238  1
  Si  Si23  1  0.424442  0.211622  0.308762  1
  Si  Si24  1  0.575558  0.788378  0.808762  1
  Si  Si25  1  0.211622  0.424442  0.691238  1
  Si  Si26  1  0.788378  0.575558  0.191238  1
  Si  Si27  1  0.075558  0.711622  0.941238  1
  Si  Si28  1  0.790854  0.844801  0.687612  1
  Si  Si29  1  0.209146  0.155199  0.187612  1
  Si  Si30  1  0.844801  0.790854  0.312388  1
  Si  Si31  1  0.344801  0.709146  0.437612  1
  Si  Si32  1  0.655199  0.290854  0.937612  1
  Si  Si33  1  0.709146  0.344801  0.562388  1
  Si  Si34  1  0.290854  0.655199  0.062388  1
  Si  Si35  1  0.155199  0.209146  0.812388  1
