# generated using pymatgen
data_Nd4Al16Si2Ir5Pd
_symmetry_space_group_name_H-M   'P 1'
_cell_length_a   7.61300374
_cell_length_b   7.61300467
_cell_length_c   9.47622630
_cell_angle_alpha   89.98838968
_cell_angle_beta   89.98838513
_cell_angle_gamma   119.62597297
_symmetry_Int_Tables_number   1
_chemical_formula_structural   Nd4Al16Si2Ir5Pd
_chemical_formula_sum   'Nd4 Al16 Si2 Ir5 Pd1'
_cell_volume   477.42228051
_cell_formula_units_Z   1
loop_
 _symmetry_equiv_pos_site_id
 _symmetry_equiv_pos_as_xyz
  1  'x, y, z'
loop_
 _atom_site_type_symbol
 _atom_site_label
 _atom_site_symmetry_multiplicity
 _atom_site_fract_x
 _atom_site_fract_y
 _atom_site_fract_z
 _atom_site_occupancy
  Nd  Nd0  1  0.993334  0.672960  0.250180  1
  Nd  Nd1  1  0.004650  0.325767  0.749890  1
  Nd  Nd2  1  0.674233  0.995350  0.250110  1
  Nd  Nd3  1  0.327040  0.006666  0.749820  1
  Al  Al4  1  0.007095  0.336319  0.076191  1
  Al  Al5  1  0.000480  0.667405  0.924461  1
  Al  Al6  1  0.998590  0.663443  0.573105  1
  Al  Al7  1  0.336557  0.001410  0.426895  1
  Al  Al8  1  0.001716  0.336353  0.426166  1
  Al  Al9  1  0.663647  0.998284  0.573834  1
  Al  Al10  1  0.663681  0.992905  0.923809  1
  Al  Al11  1  0.332595  0.999520  0.075539  1
  Al  Al12  1  0.335552  0.335627  0.550220  1
  Al  Al13  1  0.664373  0.664448  0.449780  1
  Al  Al14  1  0.663012  0.666168  0.054944  1
  Al  Al15  1  0.333832  0.336988  0.945056  1
  Al  Al16  1  0.336899  0.547589  0.250593  1
  Al  Al17  1  0.664618  0.455859  0.747280  1
  Al  Al18  1  0.544141  0.335382  0.252720  1
  Al  Al19  1  0.452411  0.663101  0.749407  1
  Si  Si20  1  0.130665  0.129719  0.250708  1
  Si  Si21  1  0.870281  0.869335  0.749292  1
  Ir  Ir22  1  0.329088  0.670912  0.000000  1
  Ir  Ir23  1  0.329411  0.670589  0.500000  1
  Ir  Ir24  1  0.670761  0.329239  0.500000  1
  Ir  Ir25  1  0.999902  0.000098  0.000000  1
  Ir  Ir26  1  0.000041  0.999959  0.500000  1
  Pd  Pd27  1  0.671399  0.328601  0.000000  1
