# generated using pymatgen
data_Yb7SiBiPd24
_symmetry_space_group_name_H-M   'P 1'
_cell_length_a   8.28974935
_cell_length_b   8.28974869
_cell_length_c   8.28974900
_cell_angle_alpha   89.98343970
_cell_angle_beta   90.01656029
_cell_angle_gamma   90.01655817
_symmetry_Int_Tables_number   1
_chemical_formula_structural   Yb7SiBiPd24
_chemical_formula_sum   'Yb7 Si1 Bi1 Pd24'
_cell_volume   569.67097260
_cell_formula_units_Z   1
loop_
 _symmetry_equiv_pos_site_id
 _symmetry_equiv_pos_as_xyz
  1  'x, y, z'
loop_
 _atom_site_type_symbol
 _atom_site_label
 _atom_site_symmetry_multiplicity
 _atom_site_fract_x
 _atom_site_fract_y
 _atom_site_fract_z
 _atom_site_occupancy
  Yb  Yb0  1  0.252127  0.253049  0.253049  1
  Yb  Yb1  1  0.747358  0.747892  0.747892  1
  Yb  Yb2  1  0.746951  0.747873  0.253049  1
  Yb  Yb3  1  0.746951  0.253049  0.747873  1
  Yb  Yb4  1  0.252108  0.252642  0.747892  1
  Yb  Yb5  1  0.252108  0.747892  0.252642  1
  Yb  Yb6  1  0.253034  0.746966  0.746966  1
  Si  Si7  1  0.003582  0.996418  0.996418  1
  Bi  Bi8  1  0.744678  0.255322  0.255322  1
  Pd  Pd9  1  0.257731  0.499550  0.000835  1
  Pd  Pd10  1  0.742169  0.500101  0.000220  1
  Pd  Pd11  1  0.999780  0.257831  0.500101  1
  Pd  Pd12  1  0.499899  0.257831  0.000220  1
  Pd  Pd13  1  0.999165  0.742269  0.499550  1
  Pd  Pd14  1  0.500450  0.742269  0.000835  1
  Pd  Pd15  1  0.499899  0.000220  0.257831  1
  Pd  Pd16  1  0.257731  0.000835  0.499550  1
  Pd  Pd17  1  0.500450  0.000835  0.742269  1
  Pd  Pd18  1  0.742169  0.000220  0.500101  1
  Pd  Pd19  1  0.999780  0.500101  0.257831  1
  Pd  Pd20  1  0.999165  0.499550  0.742269  1
  Pd  Pd21  1  0.252381  0.499153  0.499153  1
  Pd  Pd22  1  0.747541  0.500365  0.500365  1
  Pd  Pd23  1  0.499635  0.252459  0.500365  1
  Pd  Pd24  1  0.500847  0.747619  0.499153  1
  Pd  Pd25  1  0.499635  0.500365  0.252459  1
  Pd  Pd26  1  0.500847  0.499153  0.747619  1
  Pd  Pd27  1  0.282780  0.000593  0.000593  1
  Pd  Pd28  1  0.720698  0.000230  0.000230  1
  Pd  Pd29  1  0.999770  0.279302  0.000230  1
  Pd  Pd30  1  0.999407  0.717220  0.000593  1
  Pd  Pd31  1  0.999770  0.000230  0.279302  1
  Pd  Pd32  1  0.999407  0.000593  0.717220  1
