# generated using pymatgen
data_BaNaFe2(NiAs2)2
_symmetry_space_group_name_H-M   'P 1'
_cell_length_a   7.00730400
_cell_length_b   6.90850643
_cell_length_c   5.51157800
_cell_angle_alpha   90.00000000
_cell_angle_beta   90.00000000
_cell_angle_gamma   134.19584751
_symmetry_Int_Tables_number   1
_chemical_formula_structural   BaNaFe2(NiAs2)2
_chemical_formula_sum   'Ba1 Na1 Fe2 Ni2 As4'
_cell_volume   191.29635523
_cell_formula_units_Z   1
loop_
 _symmetry_equiv_pos_site_id
 _symmetry_equiv_pos_as_xyz
  1  'x, y, z'
loop_
 _atom_site_type_symbol
 _atom_site_label
 _atom_site_symmetry_multiplicity
 _atom_site_fract_x
 _atom_site_fract_y
 _atom_site_fract_z
 _atom_site_occupancy
  Ba  Ba0  1  0.500000  0.500000  0.500000  1
  Na  Na1  1  0.000000  0.000000  0.000000  1
  Fe  Fe2  1  0.000000  0.500000  0.246480  1
  Fe  Fe3  1  0.000000  0.500000  0.753520  1
  Ni  Ni4  1  0.500000  0.000000  0.749518  1
  Ni  Ni5  1  0.500000  0.000000  0.250482  1
  As  As6  1  0.340081  0.632746  0.000000  1
  As  As7  1  0.859592  0.157141  0.500000  1
  As  As8  1  0.140408  0.842859  0.500000  1
  As  As9  1  0.659919  0.367254  0.000000  1
