# generated using pymatgen
data_Tb6Ho10Cd4Ir3Pd
_symmetry_space_group_name_H-M   'P 1'
_cell_length_a   9.62864506
_cell_length_b   9.62864637
_cell_length_c   9.62864503
_cell_angle_alpha   60.16851601
_cell_angle_beta   60.16851349
_cell_angle_gamma   60.16852220
_symmetry_Int_Tables_number   1
_chemical_formula_structural   Tb6Ho10Cd4Ir3Pd
_chemical_formula_sum   'Tb6 Ho10 Cd4 Ir3 Pd1'
_cell_volume   633.62890136
_cell_formula_units_Z   1
loop_
 _symmetry_equiv_pos_site_id
 _symmetry_equiv_pos_as_xyz
  1  'x, y, z'
loop_
 _atom_site_type_symbol
 _atom_site_label
 _atom_site_symmetry_multiplicity
 _atom_site_fract_x
 _atom_site_fract_y
 _atom_site_fract_z
 _atom_site_occupancy
  Tb  Tb0  1  0.188715  0.812682  0.812682  1
  Tb  Tb1  1  0.814191  0.187734  0.187734  1
  Tb  Tb2  1  0.812682  0.188715  0.812682  1
  Tb  Tb3  1  0.187734  0.814191  0.187734  1
  Tb  Tb4  1  0.812682  0.812682  0.188715  1
  Tb  Tb5  1  0.187734  0.187734  0.814191  1
  Ho  Ho6  1  0.597361  0.597361  0.597361  1
  Ho  Ho7  1  0.603491  0.603491  0.198299  1
  Ho  Ho8  1  0.603491  0.198299  0.603491  1
  Ho  Ho9  1  0.198299  0.603491  0.603491  1
  Ho  Ho10  1  0.055239  0.439836  0.439836  1
  Ho  Ho11  1  0.437510  0.061096  0.061096  1
  Ho  Ho12  1  0.439836  0.055239  0.439836  1
  Ho  Ho13  1  0.061096  0.437510  0.061096  1
  Ho  Ho14  1  0.439836  0.439836  0.055239  1
  Ho  Ho15  1  0.061096  0.061096  0.437510  1
  Cd  Cd16  1  0.830697  0.830697  0.830697  1
  Cd  Cd17  1  0.830415  0.830415  0.507028  1
  Cd  Cd18  1  0.830415  0.507028  0.830415  1
  Cd  Cd19  1  0.507028  0.830415  0.830415  1
  Ir  Ir20  1  0.391702  0.391702  0.823913  1
  Ir  Ir21  1  0.391702  0.823913  0.391702  1
  Ir  Ir22  1  0.823913  0.391702  0.391702  1
  Pd  Pd23  1  0.393137  0.393137  0.393137  1
