# generated using pymatgen
data_Tb4Re5Ru3
_symmetry_space_group_name_H-M   'P 1'
_cell_length_a   5.34949289
_cell_length_b   5.21025062
_cell_length_c   9.19387300
_cell_angle_alpha   90.00000000
_cell_angle_beta   90.00000000
_cell_angle_gamma   119.14265425
_symmetry_Int_Tables_number   1
_chemical_formula_structural   Tb4Re5Ru3
_chemical_formula_sum   'Tb4 Re5 Ru3'
_cell_volume   223.81431081
_cell_formula_units_Z   1
loop_
 _symmetry_equiv_pos_site_id
 _symmetry_equiv_pos_as_xyz
  1  'x, y, z'
loop_
 _atom_site_type_symbol
 _atom_site_label
 _atom_site_symmetry_multiplicity
 _atom_site_fract_x
 _atom_site_fract_y
 _atom_site_fract_z
 _atom_site_occupancy
  Tb  Tb0  1  0.330326  0.665163  0.437307  1
  Tb  Tb1  1  0.671440  0.335719  0.564071  1
  Tb  Tb2  1  0.671440  0.335719  0.935929  1
  Tb  Tb3  1  0.330326  0.665163  0.062693  1
  Re  Re4  1  0.828925  0.168972  0.250000  1
  Re  Re5  1  0.828925  0.659953  0.250000  1
  Re  Re6  1  0.343183  0.171591  0.250000  1
  Re  Re7  1  0.162350  0.827235  0.750000  1
  Re  Re8  1  0.162350  0.335115  0.750000  1
  Ru  Ru9  1  0.012115  0.006057  0.501812  1
  Ru  Ru10  1  0.012115  0.006057  0.998188  1
  Ru  Ru11  1  0.646507  0.823253  0.750000  1
