# generated using pymatgen
data_Tm8Nb12Si9Ge7
_symmetry_space_group_name_H-M   'P 1'
_cell_length_a   6.87836472
_cell_length_b   7.06288358
_cell_length_c   13.50825871
_cell_angle_alpha   89.89154990
_cell_angle_beta   89.94059534
_cell_angle_gamma   89.97369138
_symmetry_Int_Tables_number   1
_chemical_formula_structural   Tm8Nb12Si9Ge7
_chemical_formula_sum   'Tm8 Nb12 Si9 Ge7'
_cell_volume   656.24432480
_cell_formula_units_Z   1
loop_
 _symmetry_equiv_pos_site_id
 _symmetry_equiv_pos_as_xyz
  1  'x, y, z'
loop_
 _atom_site_type_symbol
 _atom_site_label
 _atom_site_symmetry_multiplicity
 _atom_site_fract_x
 _atom_site_fract_y
 _atom_site_fract_z
 _atom_site_occupancy
  Tm  Tm0  1  0.003608  0.172476  0.096751  1
  Tm  Tm1  1  0.000401  0.826792  0.903495  1
  Tm  Tm2  1  0.498713  0.675374  0.902931  1
  Tm  Tm3  1  0.999938  0.824786  0.597563  1
  Tm  Tm4  1  0.500170  0.324278  0.097315  1
  Tm  Tm5  1  0.999815  0.175152  0.402146  1
  Tm  Tm6  1  0.499981  0.325274  0.401930  1
  Tm  Tm7  1  0.499809  0.674687  0.597893  1
  Nb  Nb8  1  0.161584  0.491535  0.750297  1
  Nb  Nb9  1  0.837977  0.508426  0.249792  1
  Nb  Nb10  1  0.337991  0.992566  0.248222  1
  Nb  Nb11  1  0.661809  0.008077  0.750076  1
  Nb  Nb12  1  0.338925  0.171681  0.628614  1
  Nb  Nb13  1  0.660856  0.828172  0.371333  1
  Nb  Nb14  1  0.161098  0.672083  0.371381  1
  Nb  Nb15  1  0.660248  0.827998  0.127766  1
  Nb  Nb16  1  0.837926  0.328318  0.628543  1
  Nb  Nb17  1  0.336531  0.169625  0.873469  1
  Nb  Nb18  1  0.838295  0.327352  0.872091  1
  Nb  Nb19  1  0.164010  0.676226  0.126946  1
  Si  Si20  1  0.040701  0.121080  0.750016  1
  Si  Si21  1  0.958836  0.878676  0.249729  1
  Si  Si22  1  0.459012  0.621038  0.249835  1
  Si  Si23  1  0.539939  0.378265  0.751083  1
  Si  Si24  1  0.294346  0.869009  0.750484  1
  Si  Si25  1  0.706025  0.130845  0.249642  1
  Si  Si26  1  0.204810  0.370485  0.249300  1
  Si  Si27  1  0.794522  0.630766  0.750538  1
  Si  Si28  1  0.331874  0.962650  0.040606  1
  Ge  Ge29  1  0.174178  0.462482  0.540096  1
  Ge  Ge30  1  0.825424  0.537458  0.459838  1
  Ge  Ge31  1  0.325467  0.962688  0.459709  1
  Ge  Ge32  1  0.826436  0.536336  0.040445  1
  Ge  Ge33  1  0.674594  0.037398  0.539919  1
  Ge  Ge34  1  0.173727  0.463506  0.959825  1
  Ge  Ge35  1  0.670425  0.036436  0.960377  1
