# generated using pymatgen
data_Nd8As14Ir15Rh
_symmetry_space_group_name_H-M   'P 1'
_cell_length_a   4.13718500
_cell_length_b   13.22744044
_cell_length_c   13.64048211
_cell_angle_alpha   81.75765405
_cell_angle_beta   90.00000000
_cell_angle_gamma   90.00000000
_symmetry_Int_Tables_number   1
_chemical_formula_structural   Nd8As14Ir15Rh
_chemical_formula_sum   'Nd8 As14 Ir15 Rh1'
_cell_volume   738.75617139
_cell_formula_units_Z   1
loop_
 _symmetry_equiv_pos_site_id
 _symmetry_equiv_pos_as_xyz
  1  'x, y, z'
loop_
 _atom_site_type_symbol
 _atom_site_label
 _atom_site_symmetry_multiplicity
 _atom_site_fract_x
 _atom_site_fract_y
 _atom_site_fract_z
 _atom_site_occupancy
  Nd  Nd0  1  0.250000  0.098425  0.794237  1
  Nd  Nd1  1  0.750000  0.901820  0.206221  1
  Nd  Nd2  1  0.250000  0.287520  0.102622  1
  Nd  Nd3  1  0.750000  0.712764  0.897237  1
  Nd  Nd4  1  0.250000  0.519704  0.293758  1
  Nd  Nd5  1  0.750000  0.480224  0.706286  1
  Nd  Nd6  1  0.250000  0.208273  0.437902  1
  Nd  Nd7  1  0.750000  0.791386  0.562109  1
  As  As8  1  0.250000  0.057706  0.099652  1
  As  As9  1  0.750000  0.942223  0.900207  1
  As  As10  1  0.250000  0.310178  0.688697  1
  As  As11  1  0.750000  0.689653  0.311408  1
  As  As12  1  0.250000  0.607398  0.566996  1
  As  As13  1  0.750000  0.392633  0.433078  1
  As  As14  1  0.250000  0.848296  0.718996  1
  As  As15  1  0.750000  0.152010  0.280429  1
  As  As16  1  0.750000  0.256550  0.917869  1
  As  As17  1  0.250000  0.743459  0.082057  1
  As  As18  1  0.750000  0.095621  0.586375  1
  As  As19  1  0.250000  0.903993  0.413584  1
  As  As20  1  0.750000  0.471669  0.129020  1
  As  As21  1  0.250000  0.528314  0.870953  1
  Ir  Ir22  1  0.750000  0.010745  0.426064  1
  Ir  Ir23  1  0.250000  0.665655  0.733520  1
  Ir  Ir24  1  0.750000  0.334495  0.266612  1
  Ir  Ir25  1  0.250000  0.555676  0.045144  1
  Ir  Ir26  1  0.750000  0.444171  0.955046  1
  Ir  Ir27  1  0.250000  0.053089  0.278116  1
  Ir  Ir28  1  0.750000  0.947370  0.721895  1
  Ir  Ir29  1  0.250000  0.424703  0.526312  1
  Ir  Ir30  1  0.750000  0.575069  0.473867  1
  Ir  Ir31  1  0.250000  0.918299  0.997778  1
  Ir  Ir32  1  0.750000  0.081638  0.002073  1
  Ir  Ir33  1  0.250000  0.721944  0.400350  1
  Ir  Ir34  1  0.750000  0.277891  0.599525  1
  Ir  Ir35  1  0.250000  0.343624  0.860268  1
  Ir  Ir36  1  0.750000  0.656428  0.139756  1
  Rh  Rh37  1  0.250000  0.989382  0.573982  1
