# generated using pymatgen
data_K4Ni4Cl10O
_symmetry_space_group_name_H-M   'P 1'
_cell_length_a   10.74680578
_cell_length_b   10.74680591
_cell_length_c   9.12014002
_cell_angle_alpha   78.74713621
_cell_angle_beta   78.74713808
_cell_angle_gamma   90.38930503
_symmetry_Int_Tables_number   1
_chemical_formula_structural   K4Ni4Cl10O
_chemical_formula_sum   'K8 Ni8 Cl20 O2'
_cell_volume   1012.10710508
_cell_formula_units_Z   2
loop_
 _symmetry_equiv_pos_site_id
 _symmetry_equiv_pos_as_xyz
  1  'x, y, z'
loop_
 _atom_site_type_symbol
 _atom_site_label
 _atom_site_symmetry_multiplicity
 _atom_site_fract_x
 _atom_site_fract_y
 _atom_site_fract_z
 _atom_site_occupancy
  K  K0  1  0.296770  0.439195  0.141086  1
  K  K1  1  0.716953  0.960943  0.870654  1
  K  K2  1  0.960943  0.716953  0.370654  1
  K  K3  1  0.560805  0.703230  0.358914  1
  K  K4  1  0.439195  0.296770  0.641086  1
  K  K5  1  0.039057  0.283047  0.629346  1
  K  K6  1  0.703230  0.560805  0.858914  1
  K  K7  1  0.283047  0.039057  0.129346  1
  Ni  Ni8  1  0.950127  0.238287  0.120106  1
  Ni  Ni9  1  0.049873  0.761713  0.879894  1
  Ni  Ni10  1  0.648143  0.233685  0.127471  1
  Ni  Ni11  1  0.766315  0.351857  0.372529  1
  Ni  Ni12  1  0.233685  0.648143  0.627471  1
  Ni  Ni13  1  0.351857  0.766315  0.872529  1
  Ni  Ni14  1  0.761713  0.049873  0.379894  1
  Ni  Ni15  1  0.238287  0.950127  0.620106  1
  Cl  Cl16  1  0.146951  0.272444  0.953514  1
  Cl  Cl17  1  0.974701  0.025299  0.250000  1
  Cl  Cl18  1  0.727556  0.853049  0.546486  1
  Cl  Cl19  1  0.378669  0.995926  0.787364  1
  Cl  Cl20  1  0.260377  0.490390  0.485419  1
  Cl  Cl21  1  0.004074  0.621331  0.712636  1
  Cl  Cl22  1  0.824150  0.271928  0.914836  1
  Cl  Cl23  1  0.416779  0.583221  0.750000  1
  Cl  Cl24  1  0.490390  0.260377  0.985419  1
  Cl  Cl25  1  0.025299  0.974701  0.750000  1
  Cl  Cl26  1  0.271928  0.824150  0.414836  1
  Cl  Cl27  1  0.995926  0.378669  0.287364  1
  Cl  Cl28  1  0.853049  0.727556  0.046486  1
  Cl  Cl29  1  0.739623  0.509610  0.514581  1
  Cl  Cl30  1  0.621331  0.004074  0.212636  1
  Cl  Cl31  1  0.728072  0.175850  0.585164  1
  Cl  Cl32  1  0.175850  0.728072  0.085164  1
  Cl  Cl33  1  0.583221  0.416779  0.250000  1
  Cl  Cl34  1  0.272444  0.146951  0.453514  1
  Cl  Cl35  1  0.509610  0.739623  0.014581  1
  O  O36  1  0.221587  0.778413  0.750000  1
  O  O37  1  0.778413  0.221587  0.250000  1
