# generated using pymatgen
data_Li4Ni9P7Ir
_symmetry_space_group_name_H-M   'P 1'
_cell_length_a   9.07378658
_cell_length_b   9.02637336
_cell_length_c   3.61348000
_cell_angle_alpha   90.00000000
_cell_angle_beta   90.00000000
_cell_angle_gamma   119.75237829
_symmetry_Int_Tables_number   1
_chemical_formula_structural   Li4Ni9P7Ir
_chemical_formula_sum   'Li4 Ni9 P7 Ir1'
_cell_volume   256.94276514
_cell_formula_units_Z   1
loop_
 _symmetry_equiv_pos_site_id
 _symmetry_equiv_pos_as_xyz
  1  'x, y, z'
loop_
 _atom_site_type_symbol
 _atom_site_label
 _atom_site_symmetry_multiplicity
 _atom_site_fract_x
 _atom_site_fract_y
 _atom_site_fract_z
 _atom_site_occupancy
  Li  Li0  1  0.893371  0.120965  0.500000  1
  Li  Li1  1  0.224803  0.102326  0.500000  1
  Li  Li2  1  0.330471  0.662212  0.000000  1
  Li  Li3  1  0.661961  0.328228  0.500000  1
  Ni  Ni4  1  0.714256  0.884011  0.000000  1
  Ni  Ni5  1  0.159186  0.275218  0.000000  1
  Ni  Ni6  1  0.125453  0.835795  0.000000  1
  Ni  Ni7  1  0.631327  0.568545  0.000000  1
  Ni  Ni8  1  0.942313  0.373896  0.000000  1
  Ni  Ni9  1  0.429172  0.057223  0.000000  1
  Ni  Ni10  1  0.564523  0.953985  0.500000  1
  Ni  Ni11  1  0.388349  0.438013  0.500000  1
  Ni  Ni12  1  0.055145  0.612978  0.500000  1
  P  P13  1  0.584691  0.710173  0.500000  1
  P  P14  1  0.125711  0.412898  0.500000  1
  P  P15  1  0.293480  0.872675  0.500000  1
  P  P16  1  0.994935  0.991523  0.000000  1
  P  P17  1  0.879644  0.580340  0.000000  1
  P  P18  1  0.698892  0.126023  0.000000  1
  P  P19  1  0.422028  0.301881  0.000000  1
  Ir  Ir20  1  0.880287  0.791093  0.500000  1
