# generated using pymatgen
data_Nd4Gd5DyIr4
_symmetry_space_group_name_H-M   'P 1'
_cell_length_a   6.57842939
_cell_length_b   7.23835191
_cell_length_c   8.84670000
_cell_angle_alpha   96.87812394
_cell_angle_beta   111.73836393
_cell_angle_gamma   90.13574773
_symmetry_Int_Tables_number   1
_chemical_formula_structural   Nd4Gd5DyIr4
_chemical_formula_sum   'Nd4 Gd5 Dy1 Ir4'
_cell_volume   387.98065349
_cell_formula_units_Z   1
loop_
 _symmetry_equiv_pos_site_id
 _symmetry_equiv_pos_as_xyz
  1  'x, y, z'
loop_
 _atom_site_type_symbol
 _atom_site_label
 _atom_site_symmetry_multiplicity
 _atom_site_fract_x
 _atom_site_fract_y
 _atom_site_fract_z
 _atom_site_occupancy
  Nd  Nd0  1  0.978964  0.922407  0.191496  1
  Nd  Nd1  1  0.787211  0.578452  0.809206  1
  Nd  Nd2  1  0.020945  0.077709  0.809278  1
  Nd  Nd3  1  0.213376  0.421568  0.191470  1
  Gd  Gd4  1  0.207517  0.685146  0.563175  1
  Gd  Gd5  1  0.359358  0.185378  0.566343  1
  Gd  Gd6  1  0.792995  0.314371  0.435677  1
  Gd  Gd7  1  0.428479  0.751008  0.000283  1
  Gd  Gd8  1  0.570678  0.250191  0.000302  1
  Dy  Dy9  1  0.641234  0.813819  0.433719  1
  Ir  Ir10  1  0.813213  0.574621  0.226440  1
  Ir  Ir11  1  0.588579  0.926266  0.773791  1
  Ir  Ir12  1  0.185454  0.426446  0.774042  1
  Ir  Ir13  1  0.411995  0.072618  0.224778  1
