# generated using pymatgen
data_K2PuBiO6
_symmetry_space_group_name_H-M   'P 1'
_cell_length_a   6.15567757
_cell_length_b   6.15567719
_cell_length_c   6.17297600
_cell_angle_alpha   120.07648233
_cell_angle_beta   120.07648032
_cell_angle_gamma   59.98517806
_symmetry_Int_Tables_number   1
_chemical_formula_structural   K2PuBiO6
_chemical_formula_sum   'K2 Pu1 Bi1 O6'
_cell_volume   165.18846318
_cell_formula_units_Z   1
loop_
 _symmetry_equiv_pos_site_id
 _symmetry_equiv_pos_as_xyz
  1  'x, y, z'
loop_
 _atom_site_type_symbol
 _atom_site_label
 _atom_site_symmetry_multiplicity
 _atom_site_fract_x
 _atom_site_fract_y
 _atom_site_fract_z
 _atom_site_occupancy
  K  K0  1  0.249741  0.249741  0.249271  1
  K  K1  1  0.750258  0.750258  0.750730  1
  Pu  Pu2  1  0.000000  0.000000  0.499999  1
  Bi  Bi3  1  0.500000  0.500000  0.000000  1
  O  O4  1  0.752695  0.218013  0.253940  1
  O  O5  1  0.218013  0.752695  0.253940  1
  O  O6  1  0.767828  0.767828  0.297039  1
  O  O7  1  0.232172  0.232172  0.702962  1
  O  O8  1  0.781986  0.247304  0.746058  1
  O  O9  1  0.247304  0.781986  0.746058  1
