# generated using pymatgen
data_Y2Sn(PRh2)6
_symmetry_space_group_name_H-M   'P 1'
_cell_length_a   9.77827800
_cell_length_b   9.77827823
_cell_length_c   3.88444200
_cell_angle_alpha   90.00000000
_cell_angle_beta   90.00000000
_cell_angle_gamma   119.99999244
_symmetry_Int_Tables_number   1
_chemical_formula_structural   Y2Sn(PRh2)6
_chemical_formula_sum   'Y2 Sn1 P6 Rh12'
_cell_volume   321.65038595
_cell_formula_units_Z   1
loop_
 _symmetry_equiv_pos_site_id
 _symmetry_equiv_pos_as_xyz
  1  'x, y, z'
loop_
 _atom_site_type_symbol
 _atom_site_label
 _atom_site_symmetry_multiplicity
 _atom_site_fract_x
 _atom_site_fract_y
 _atom_site_fract_z
 _atom_site_occupancy
  Y  Y0  1  0.333333  0.666667  0.751208  1
  Y  Y1  1  0.666667  0.333333  0.248792  1
  Sn  Sn2  1  0.000000  0.000000  0.500000  1
  P  P3  1  0.405733  0.287567  0.746575  1
  P  P4  1  0.712433  0.118167  0.746575  1
  P  P5  1  0.881833  0.594267  0.746575  1
  P  P6  1  0.594267  0.712433  0.253425  1
  P  P7  1  0.287567  0.881833  0.253425  1
  P  P8  1  0.118167  0.405733  0.253425  1
  Rh  Rh9  1  0.453145  0.067032  0.747181  1
  Rh  Rh10  1  0.932968  0.386113  0.747181  1
  Rh  Rh11  1  0.613887  0.546855  0.747181  1
  Rh  Rh12  1  0.546855  0.932968  0.252819  1
  Rh  Rh13  1  0.067032  0.613887  0.252819  1
  Rh  Rh14  1  0.386113  0.453145  0.252819  1
  Rh  Rh15  1  0.162109  0.287547  0.759300  1
  Rh  Rh16  1  0.712453  0.874562  0.759300  1
  Rh  Rh17  1  0.125438  0.837891  0.759300  1
  Rh  Rh18  1  0.837891  0.712453  0.240700  1
  Rh  Rh19  1  0.287547  0.125438  0.240700  1
  Rh  Rh20  1  0.874562  0.162109  0.240700  1
