# generated using pymatgen
data_Sc6CdCo5Sn6
_symmetry_space_group_name_H-M   'P 1'
_cell_length_a   7.43596600
_cell_length_b   7.43596560
_cell_length_c   6.87253500
_cell_angle_alpha   90.00000000
_cell_angle_beta   90.00000000
_cell_angle_gamma   120.00000176
_symmetry_Int_Tables_number   1
_chemical_formula_structural   Sc6CdCo5Sn6
_chemical_formula_sum   'Sc6 Cd1 Co5 Sn6'
_cell_volume   329.09580912
_cell_formula_units_Z   1
loop_
 _symmetry_equiv_pos_site_id
 _symmetry_equiv_pos_as_xyz
  1  'x, y, z'
loop_
 _atom_site_type_symbol
 _atom_site_label
 _atom_site_symmetry_multiplicity
 _atom_site_fract_x
 _atom_site_fract_y
 _atom_site_fract_z
 _atom_site_occupancy
  Sc  Sc0  1  0.379687  0.973986  0.238684  1
  Sc  Sc1  1  0.594298  0.620313  0.238684  1
  Sc  Sc2  1  0.026014  0.405702  0.238684  1
  Sc  Sc3  1  0.379349  0.973562  0.761433  1
  Sc  Sc4  1  0.594214  0.620651  0.761433  1
  Sc  Sc5  1  0.026438  0.405786  0.761433  1
  Cd  Cd6  1  0.666667  0.333333  0.501330  1
  Co  Co7  1  0.000000  0.000000  0.773707  1
  Co  Co8  1  0.000000  0.000000  0.226135  1
  Co  Co9  1  0.666667  0.333333  0.999162  1
  Co  Co10  1  0.333333  0.666667  0.499667  1
  Co  Co11  1  0.333333  0.666667  0.000298  1
  Sn  Sn12  1  0.287945  0.271548  0.999820  1
  Sn  Sn13  1  0.983603  0.712055  0.999820  1
  Sn  Sn14  1  0.008322  0.748817  0.499963  1
  Sn  Sn15  1  0.740496  0.991678  0.499963  1
  Sn  Sn16  1  0.251183  0.259504  0.499963  1
  Sn  Sn17  1  0.728452  0.016397  0.999820  1
