# generated using pymatgen
data_Hf3ScN4
_symmetry_space_group_name_H-M   'P 1'
_cell_length_a   10.61265939
_cell_length_b   10.61265944
_cell_length_c   10.61265917
_cell_angle_alpha   17.37915018
_cell_angle_beta   17.37914667
_cell_angle_gamma   17.37915670
_symmetry_Int_Tables_number   1
_chemical_formula_structural   Hf3ScN4
_chemical_formula_sum   'Hf3 Sc1 N4'
_cell_volume   93.06181724
_cell_formula_units_Z   1
loop_
 _symmetry_equiv_pos_site_id
 _symmetry_equiv_pos_as_xyz
  1  'x, y, z'
loop_
 _atom_site_type_symbol
 _atom_site_label
 _atom_site_symmetry_multiplicity
 _atom_site_fract_x
 _atom_site_fract_y
 _atom_site_fract_z
 _atom_site_occupancy
  Hf  Hf0  1  0.249801  0.249801  0.249801  1
  Hf  Hf1  1  0.500000  0.500000  0.500000  1
  Hf  Hf2  1  0.750199  0.750199  0.750199  1
  Sc  Sc3  1  0.000000  0.000000  0.000000  1
  N  N4  1  0.375785  0.375785  0.375785  1
  N  N5  1  0.124728  0.124728  0.124728  1
  N  N6  1  0.624215  0.624215  0.624215  1
  N  N7  1  0.875272  0.875272  0.875272  1
