# generated using pymatgen
data_Dy4AlNi
_symmetry_space_group_name_H-M   'P 1'
_cell_length_a   9.46617523
_cell_length_b   9.46617583
_cell_length_c   9.46617400
_cell_angle_alpha   59.99999941
_cell_angle_beta   59.99999730
_cell_angle_gamma   59.99999627
_symmetry_Int_Tables_number   1
_chemical_formula_structural   Dy4AlNi
_chemical_formula_sum   'Dy16 Al4 Ni4'
_cell_volume   599.80291021
_cell_formula_units_Z   4
loop_
 _symmetry_equiv_pos_site_id
 _symmetry_equiv_pos_as_xyz
  1  'x, y, z'
loop_
 _atom_site_type_symbol
 _atom_site_label
 _atom_site_symmetry_multiplicity
 _atom_site_fract_x
 _atom_site_fract_y
 _atom_site_fract_z
 _atom_site_occupancy
  Dy  Dy0  1  0.350340  0.350340  0.350340  1
  Dy  Dy1  1  0.350340  0.350340  0.948979  1
  Dy  Dy2  1  0.350340  0.948979  0.350340  1
  Dy  Dy3  1  0.948979  0.350340  0.350340  1
  Dy  Dy4  1  0.808296  0.191704  0.191704  1
  Dy  Dy5  1  0.191704  0.808296  0.808296  1
  Dy  Dy6  1  0.191704  0.808296  0.191704  1
  Dy  Dy7  1  0.808296  0.191704  0.808296  1
  Dy  Dy8  1  0.191704  0.191704  0.808296  1
  Dy  Dy9  1  0.808296  0.808296  0.191704  1
  Dy  Dy10  1  0.935418  0.564582  0.564582  1
  Dy  Dy11  1  0.564582  0.935418  0.935418  1
  Dy  Dy12  1  0.564582  0.935418  0.564582  1
  Dy  Dy13  1  0.935418  0.564582  0.935418  1
  Dy  Dy14  1  0.564582  0.564582  0.935418  1
  Dy  Dy15  1  0.935418  0.935418  0.564582  1
  Al  Al16  1  0.576705  0.576705  0.576705  1
  Al  Al17  1  0.576705  0.576705  0.269887  1
  Al  Al18  1  0.576705  0.269887  0.576705  1
  Al  Al19  1  0.269887  0.576705  0.576705  1
  Ni  Ni20  1  0.142602  0.142602  0.142602  1
  Ni  Ni21  1  0.142602  0.142602  0.572195  1
  Ni  Ni22  1  0.142602  0.572195  0.142602  1
  Ni  Ni23  1  0.572195  0.142602  0.142602  1
