# generated using pymatgen
data_Nb2VFeCo2
_symmetry_space_group_name_H-M   'P 1'
_cell_length_a   4.75208246
_cell_length_b   4.75208236
_cell_length_c   8.02779600
_cell_angle_alpha   90.00000000
_cell_angle_beta   90.00000000
_cell_angle_gamma   118.14840398
_symmetry_Int_Tables_number   1
_chemical_formula_structural   Nb2VFeCo2
_chemical_formula_sum   'Nb4 V2 Fe2 Co4'
_cell_volume   159.84505337
_cell_formula_units_Z   2
loop_
 _symmetry_equiv_pos_site_id
 _symmetry_equiv_pos_as_xyz
  1  'x, y, z'
loop_
 _atom_site_type_symbol
 _atom_site_label
 _atom_site_symmetry_multiplicity
 _atom_site_fract_x
 _atom_site_fract_y
 _atom_site_fract_z
 _atom_site_occupancy
  Nb  Nb0  1  0.668104  0.331896  0.313228  1
  Nb  Nb1  1  0.336454  0.663546  0.187868  1
  Nb  Nb2  1  0.336454  0.663546  0.812132  1
  Nb  Nb3  1  0.668104  0.331896  0.686772  1
  V  V4  1  0.161641  0.838359  0.500000  1
  V  V5  1  0.834371  0.165629  0.000000  1
  Fe  Fe6  1  0.342405  0.159348  0.000000  1
  Fe  Fe7  1  0.840652  0.657595  0.000000  1
  Co  Co8  1  0.000072  0.999928  0.251392  1
  Co  Co9  1  0.000072  0.999928  0.748608  1
  Co  Co10  1  0.655303  0.843285  0.500000  1
  Co  Co11  1  0.156715  0.344697  0.500000  1
