# generated using pymatgen
data_Li6Cu5SiPd12
_symmetry_space_group_name_H-M   'P 1'
_cell_length_a   4.25600700
_cell_length_b   6.09346900
_cell_length_c   12.75288600
_cell_angle_alpha   90.00000000
_cell_angle_beta   89.99991923
_cell_angle_gamma   90.00000000
_symmetry_Int_Tables_number   1
_chemical_formula_structural   Li6Cu5SiPd12
_chemical_formula_sum   'Li6 Cu5 Si1 Pd12'
_cell_volume   330.73139074
_cell_formula_units_Z   1
loop_
 _symmetry_equiv_pos_site_id
 _symmetry_equiv_pos_as_xyz
  1  'x, y, z'
loop_
 _atom_site_type_symbol
 _atom_site_label
 _atom_site_symmetry_multiplicity
 _atom_site_fract_x
 _atom_site_fract_y
 _atom_site_fract_z
 _atom_site_occupancy
  Li  Li0  1  0.999992  0.500000  0.007398  1
  Li  Li1  1  0.499983  0.000000  0.165815  1
  Li  Li2  1  0.999948  0.500000  0.333341  1
  Li  Li3  1  0.499926  0.000000  0.500927  1
  Li  Li4  1  0.999939  0.500000  0.659294  1
  Li  Li5  1  0.499924  0.000000  0.833401  1
  Cu  Cu6  1  0.000277  0.000000  0.997886  1
  Cu  Cu7  1  0.500091  0.500000  0.165888  1
  Cu  Cu8  1  0.999908  0.000000  0.333358  1
  Cu  Cu9  1  0.499929  0.500000  0.500788  1
  Cu  Cu10  1  0.000098  0.000000  0.668587  1
  Si  Si11  1  0.499925  0.500000  0.833378  1
  Pd  Pd12  1  0.500181  0.258557  0.991352  1
  Pd  Pd13  1  0.500181  0.741443  0.991352  1
  Pd  Pd14  1  0.000040  0.247568  0.164591  1
  Pd  Pd15  1  0.000040  0.752432  0.164591  1
  Pd  Pd16  1  0.499939  0.250583  0.333348  1
  Pd  Pd17  1  0.499939  0.749417  0.333348  1
  Pd  Pd18  1  0.999929  0.247688  0.502011  1
  Pd  Pd19  1  0.999929  0.752312  0.502011  1
  Pd  Pd20  1  0.499989  0.258543  0.675378  1
  Pd  Pd21  1  0.499989  0.741457  0.675378  1
  Pd  Pd22  1  0.999953  0.266163  0.833291  1
  Pd  Pd23  1  0.999953  0.733837  0.833291  1
