# generated using pymatgen
data_Tb8Dy2Ga3Bi2Pt
_symmetry_space_group_name_H-M   'P 1'
_cell_length_a   8.65768101
_cell_length_b   8.65768089
_cell_length_c   8.81024882
_cell_angle_alpha   124.21323088
_cell_angle_beta   124.21322963
_cell_angle_gamma   81.69944138
_symmetry_Int_Tables_number   1
_chemical_formula_structural   Tb8Dy2Ga3Bi2Pt
_chemical_formula_sum   'Tb8 Dy2 Ga3 Bi2 Pt1'
_cell_volume   437.11551494
_cell_formula_units_Z   1
loop_
 _symmetry_equiv_pos_site_id
 _symmetry_equiv_pos_as_xyz
  1  'x, y, z'
loop_
 _atom_site_type_symbol
 _atom_site_label
 _atom_site_symmetry_multiplicity
 _atom_site_fract_x
 _atom_site_fract_y
 _atom_site_fract_z
 _atom_site_occupancy
  Tb  Tb0  1  0.784514  0.296844  0.799373  1
  Tb  Tb1  1  0.203156  0.715486  0.200627  1
  Tb  Tb2  1  0.485140  0.997470  0.200627  1
  Tb  Tb3  1  0.300822  0.466679  0.500000  1
  Tb  Tb4  1  0.033321  0.199178  0.500000  1
  Tb  Tb5  1  0.502530  0.014860  0.799373  1
  Tb  Tb6  1  0.705498  0.515674  0.500000  1
  Tb  Tb7  1  0.984326  0.794502  0.500000  1
  Dy  Dy8  1  0.995226  0.997392  0.992618  1
  Dy  Dy9  1  0.502608  0.504774  0.007382  1
  Ga  Ga10  1  0.146397  0.645443  0.791841  1
  Ga  Ga11  1  0.854557  0.353603  0.208159  1
  Ga  Ga12  1  0.638216  0.861784  0.500000  1
  Bi  Bi13  1  0.245992  0.254008  0.000000  1
  Bi  Bi14  1  0.745992  0.754008  0.000000  1
  Pt  Pt15  1  0.371703  0.128297  0.500000  1
