# generated using pymatgen
data_CsPuF7
_symmetry_space_group_name_H-M   'P 1'
_cell_length_a   11.35789700
_cell_length_b   11.35789700
_cell_length_c   11.35789700
_cell_angle_alpha   90.00000000
_cell_angle_beta   90.00000000
_cell_angle_gamma   90.00000000
_symmetry_Int_Tables_number   1
_chemical_formula_structural   CsPuF7
_chemical_formula_sum   'Cs8 Pu8 F56'
_cell_volume   1465.18943279
_cell_formula_units_Z   8
loop_
 _symmetry_equiv_pos_site_id
 _symmetry_equiv_pos_as_xyz
  1  'x, y, z'
loop_
 _atom_site_type_symbol
 _atom_site_label
 _atom_site_symmetry_multiplicity
 _atom_site_fract_x
 _atom_site_fract_y
 _atom_site_fract_z
 _atom_site_occupancy
  Cs  Cs0  1  0.000000  0.500000  0.000000  1
  Cs  Cs1  1  0.000000  0.000000  0.500000  1
  Cs  Cs2  1  0.500000  0.500000  0.500000  1
  Cs  Cs3  1  0.500000  0.000000  0.000000  1
  Cs  Cs4  1  0.000000  0.000000  0.000000  1
  Cs  Cs5  1  0.000000  0.500000  0.500000  1
  Cs  Cs6  1  0.500000  0.000000  0.500000  1
  Cs  Cs7  1  0.500000  0.500000  0.000000  1
  Pu  Pu8  1  0.779680  0.220320  0.720320  1
  Pu  Pu9  1  0.220320  0.720320  0.779680  1
  Pu  Pu10  1  0.720320  0.779680  0.220320  1
  Pu  Pu11  1  0.279680  0.279680  0.279680  1
  Pu  Pu12  1  0.220320  0.779680  0.279680  1
  Pu  Pu13  1  0.779680  0.279680  0.220320  1
  Pu  Pu14  1  0.279680  0.220320  0.779680  1
  Pu  Pu15  1  0.720320  0.720320  0.720320  1
  F  F16  1  0.884504  0.360062  0.773916  1
  F  F17  1  0.115496  0.860062  0.726084  1
  F  F18  1  0.615496  0.639938  0.273916  1
  F  F19  1  0.384504  0.139938  0.226084  1
  F  F20  1  0.773916  0.884504  0.360062  1
  F  F21  1  0.726084  0.115496  0.860062  1
  F  F22  1  0.273916  0.615496  0.639938  1
  F  F23  1  0.226084  0.384504  0.139938  1
  F  F24  1  0.360062  0.773916  0.884504  1
  F  F25  1  0.860062  0.726084  0.115496  1
  F  F26  1  0.639938  0.273916  0.615496  1
  F  F27  1  0.139938  0.226084  0.384504  1
  F  F28  1  0.115496  0.639938  0.226084  1
  F  F29  1  0.884504  0.139938  0.273916  1
  F  F30  1  0.384504  0.360062  0.726084  1
  F  F31  1  0.615496  0.860062  0.773916  1
  F  F32  1  0.226084  0.115496  0.639938  1
  F  F33  1  0.273916  0.884504  0.139938  1
  F  F34  1  0.726084  0.384504  0.360062  1
  F  F35  1  0.773916  0.615496  0.860062  1
  F  F36  1  0.639938  0.226084  0.115496  1
  F  F37  1  0.139938  0.273916  0.884504  1
  F  F38  1  0.360062  0.726084  0.384504  1
  F  F39  1  0.860062  0.773916  0.615496  1
  F  F40  1  0.934375  0.133281  0.760688  1
  F  F41  1  0.065625  0.633281  0.739312  1
  F  F42  1  0.565625  0.866719  0.260688  1
  F  F43  1  0.434375  0.366719  0.239312  1
  F  F44  1  0.760688  0.934375  0.133281  1
  F  F45  1  0.739312  0.065625  0.633281  1
  F  F46  1  0.260688  0.565625  0.866719  1
  F  F47  1  0.239312  0.434375  0.366719  1
  F  F48  1  0.133281  0.760688  0.934375  1
  F  F49  1  0.633281  0.739312  0.065625  1
  F  F50  1  0.866719  0.260688  0.565625  1
  F  F51  1  0.366719  0.239312  0.434375  1
  F  F52  1  0.065625  0.866719  0.239312  1
  F  F53  1  0.934375  0.366719  0.260688  1
  F  F54  1  0.434375  0.133281  0.739312  1
  F  F55  1  0.565625  0.633281  0.760688  1
  F  F56  1  0.239312  0.065625  0.866719  1
  F  F57  1  0.260688  0.934375  0.366719  1
  F  F58  1  0.739312  0.434375  0.133281  1
  F  F59  1  0.760688  0.565625  0.633281  1
  F  F60  1  0.866719  0.239312  0.065625  1
  F  F61  1  0.366719  0.260688  0.934375  1
  F  F62  1  0.133281  0.739312  0.434375  1
  F  F63  1  0.633281  0.760688  0.565625  1
  F  F64  1  0.671082  0.328918  0.828918  1
  F  F65  1  0.328918  0.828918  0.671082  1
  F  F66  1  0.828918  0.671082  0.328918  1
  F  F67  1  0.171082  0.171082  0.171082  1
  F  F68  1  0.328918  0.671082  0.171082  1
  F  F69  1  0.671082  0.171082  0.328918  1
  F  F70  1  0.171082  0.328918  0.671082  1
  F  F71  1  0.828918  0.828918  0.828918  1
