# generated using pymatgen
data_Ho7Tm9Ga6FeCo
_symmetry_space_group_name_H-M   'P 1'
_cell_length_a   9.87475430
_cell_length_b   9.87396773
_cell_length_c   6.91089300
_cell_angle_alpha   89.99763914
_cell_angle_beta   90.00273871
_cell_angle_gamma   120.06158231
_symmetry_Int_Tables_number   1
_chemical_formula_structural   Ho7Tm9Ga6FeCo
_chemical_formula_sum   'Ho7 Tm9 Ga6 Fe1 Co1'
_cell_volume   583.19389474
_cell_formula_units_Z   1
loop_
 _symmetry_equiv_pos_site_id
 _symmetry_equiv_pos_as_xyz
  1  'x, y, z'
loop_
 _atom_site_type_symbol
 _atom_site_label
 _atom_site_symmetry_multiplicity
 _atom_site_fract_x
 _atom_site_fract_y
 _atom_site_fract_z
 _atom_site_occupancy
  Ho  Ho0  1  0.073768  0.536826  0.208260  1
  Ho  Ho1  1  0.463162  0.926206  0.208274  1
  Ho  Ho2  1  0.535489  0.464512  0.706986  1
  Ho  Ho3  1  0.928621  0.464266  0.707622  1
  Ho  Ho4  1  0.535746  0.071406  0.707627  1
  Ho  Ho5  1  0.999782  0.000275  0.231675  1
  Ho  Ho6  1  0.000213  0.999701  0.732987  1
  Tm  Tm7  1  0.173247  0.826743  0.511491  1
  Tm  Tm8  1  0.652716  0.826050  0.511120  1
  Tm  Tm9  1  0.173944  0.347301  0.511111  1
  Tm  Tm10  1  0.826514  0.173495  0.012811  1
  Tm  Tm11  1  0.347584  0.174132  0.013203  1
  Tm  Tm12  1  0.825858  0.652394  0.013222  1
  Tm  Tm13  1  0.333594  0.666397  0.829718  1
  Tm  Tm14  1  0.666454  0.333541  0.328285  1
  Tm  Tm15  1  0.462836  0.537160  0.207306  1
  Ga  Ga16  1  0.163360  0.836661  0.956988  1
  Ga  Ga17  1  0.673138  0.836297  0.957128  1
  Ga  Ga18  1  0.163718  0.326860  0.957100  1
  Ga  Ga19  1  0.836042  0.163941  0.456626  1
  Ga  Ga20  1  0.327824  0.163912  0.456418  1
  Ga  Ga21  1  0.836082  0.672180  0.456390  1
  Fe  Fe22  1  0.333693  0.666380  0.446793  1
  Co  Co23  1  0.666616  0.333362  0.944904  1
