# generated using pymatgen
data_YErB6Rh
_symmetry_space_group_name_H-M   'P 1'
_cell_length_a   3.65367900
_cell_length_b   9.15790200
_cell_length_c   11.50098700
_cell_angle_alpha   90.00000000
_cell_angle_beta   90.00000000
_cell_angle_gamma   90.00000000
_symmetry_Int_Tables_number   1
_chemical_formula_structural   YErB6Rh
_chemical_formula_sum   'Y4 Er4 B24 Rh4'
_cell_volume   384.82341860
_cell_formula_units_Z   4
loop_
 _symmetry_equiv_pos_site_id
 _symmetry_equiv_pos_as_xyz
  1  'x, y, z'
loop_
 _atom_site_type_symbol
 _atom_site_label
 _atom_site_symmetry_multiplicity
 _atom_site_fract_x
 _atom_site_fract_y
 _atom_site_fract_z
 _atom_site_occupancy
  Y  Y0  1  0.500000  0.322042  0.413809  1
  Y  Y1  1  0.500000  0.677958  0.586191  1
  Y  Y2  1  0.500000  0.177958  0.913809  1
  Y  Y3  1  0.500000  0.822042  0.086191  1
  Er  Er4  1  0.500000  0.444118  0.127087  1
  Er  Er5  1  0.500000  0.555882  0.872913  1
  Er  Er6  1  0.500000  0.055882  0.627087  1
  Er  Er7  1  0.500000  0.944118  0.372913  1
  B  B8  1  0.000000  0.108114  0.470800  1
  B  B9  1  0.000000  0.891886  0.529200  1
  B  B10  1  0.000000  0.391886  0.970800  1
  B  B11  1  0.000000  0.608114  0.029200  1
  B  B12  1  0.000000  0.132637  0.316388  1
  B  B13  1  0.000000  0.867363  0.683612  1
  B  B14  1  0.000000  0.367363  0.816388  1
  B  B15  1  0.000000  0.632637  0.183612  1
  B  B16  1  0.000000  0.054353  0.065773  1
  B  B17  1  0.000000  0.945647  0.934227  1
  B  B18  1  0.000000  0.445647  0.565773  1
  B  B19  1  0.000000  0.554353  0.434227  1
  B  B20  1  0.000000  0.483197  0.286484  1
  B  B21  1  0.000000  0.516803  0.713516  1
  B  B22  1  0.000000  0.016803  0.786484  1
  B  B23  1  0.000000  0.983197  0.213516  1
  B  B24  1  0.000000  0.249908  0.080002  1
  B  B25  1  0.000000  0.750092  0.919998  1
  B  B26  1  0.000000  0.250092  0.580002  1
  B  B27  1  0.000000  0.749908  0.419998  1
  B  B28  1  0.000000  0.294122  0.235847  1
  B  B29  1  0.000000  0.705878  0.764153  1
  B  B30  1  0.000000  0.205878  0.735847  1
  B  B31  1  0.000000  0.794122  0.264153  1
  Rh  Rh32  1  0.500000  0.139858  0.179433  1
  Rh  Rh33  1  0.500000  0.860142  0.820567  1
  Rh  Rh34  1  0.500000  0.360142  0.679433  1
  Rh  Rh35  1  0.500000  0.639858  0.320567  1
