# generated using pymatgen
data_Tb2YHo3(Si3Ru)8
_symmetry_space_group_name_H-M   'P 1'
_cell_length_a   10.13530162
_cell_length_b   10.13530226
_cell_length_c   8.15488701
_cell_angle_alpha   90.05703501
_cell_angle_beta   89.94295890
_cell_angle_gamma   132.56001326
_symmetry_Int_Tables_number   1
_chemical_formula_structural   Tb2YHo3(Si3Ru)8
_chemical_formula_sum   'Tb2 Y1 Ho3 Si24 Ru8'
_cell_volume   617.02773781
_cell_formula_units_Z   1
loop_
 _symmetry_equiv_pos_site_id
 _symmetry_equiv_pos_as_xyz
  1  'x, y, z'
loop_
 _atom_site_type_symbol
 _atom_site_label
 _atom_site_symmetry_multiplicity
 _atom_site_fract_x
 _atom_site_fract_y
 _atom_site_fract_z
 _atom_site_occupancy
  Tb  Tb0  1  0.997611  0.497611  0.250000  1
  Tb  Tb1  1  0.497250  0.997250  0.250000  1
  Y  Y2  1  0.502377  0.002377  0.750000  1
  Ho  Ho3  1  0.499962  0.500042  0.500062  1
  Ho  Ho4  1  0.000042  0.999962  0.999938  1
  Ho  Ho5  1  0.002642  0.502642  0.750000  1
  Si  Si6  1  0.794224  0.205217  0.500562  1
  Si  Si7  1  0.294721  0.705656  0.999760  1
  Si  Si8  1  0.205656  0.794721  0.500240  1
  Si  Si9  1  0.705217  0.294224  0.999438  1
  Si  Si10  1  0.332501  0.332229  0.833052  1
  Si  Si11  1  0.667552  0.667700  0.167069  1
  Si  Si12  1  0.167700  0.167552  0.332931  1
  Si  Si13  1  0.832229  0.832501  0.666948  1
  Si  Si14  1  0.121939  0.887804  0.727813  1
  Si  Si15  1  0.113662  0.879260  0.271300  1
  Si  Si16  1  0.611454  0.377076  0.228406  1
  Si  Si17  1  0.621358  0.387381  0.771672  1
  Si  Si18  1  0.877076  0.111454  0.271594  1
  Si  Si19  1  0.887381  0.121358  0.728328  1
  Si  Si20  1  0.387804  0.621939  0.772187  1
  Si  Si21  1  0.379260  0.613662  0.228700  1
  Si  Si22  1  0.346246  0.112264  0.504648  1
  Si  Si23  1  0.888894  0.655986  0.496142  1
  Si  Si24  1  0.387676  0.153707  0.005213  1
  Si  Si25  1  0.844185  0.611121  0.994915  1
  Si  Si26  1  0.653707  0.887676  0.494787  1
  Si  Si27  1  0.111121  0.344185  0.505085  1
  Si  Si28  1  0.612264  0.846246  0.995352  1
  Si  Si29  1  0.155986  0.388894  0.003858  1
  Ru  Ru30  1  0.670812  0.333300  0.500369  1
  Ru  Ru31  1  0.166688  0.829183  0.998901  1
  Ru  Ru32  1  0.329183  0.666688  0.501099  1
  Ru  Ru33  1  0.833300  0.170812  0.999631  1
  Ru  Ru34  1  0.126488  0.126094  0.626929  1
  Ru  Ru35  1  0.873899  0.873834  0.372853  1
  Ru  Ru36  1  0.373834  0.373899  0.127147  1
  Ru  Ru37  1  0.626094  0.626488  0.873071  1
