# generated using pymatgen
data_TbGd4YTa2O14
_symmetry_space_group_name_H-M   'P 1'
_cell_length_a   6.55283515
_cell_length_b   6.54956283
_cell_length_c   7.55465608
_cell_angle_alpha   90.05055693
_cell_angle_beta   90.03716008
_cell_angle_gamma   108.79586831
_symmetry_Int_Tables_number   1
_chemical_formula_structural   TbGd4YTa2O14
_chemical_formula_sum   'Tb1 Gd4 Y1 Ta2 O14'
_cell_volume   306.94151568
_cell_formula_units_Z   1
loop_
 _symmetry_equiv_pos_site_id
 _symmetry_equiv_pos_as_xyz
  1  'x, y, z'
loop_
 _atom_site_type_symbol
 _atom_site_label
 _atom_site_symmetry_multiplicity
 _atom_site_fract_x
 _atom_site_fract_y
 _atom_site_fract_z
 _atom_site_occupancy
  Tb  Tb0  1  0.000304  0.464037  0.742563  1
  Gd  Gd1  1  0.466364  0.000417  0.257074  1
  Gd  Gd2  1  0.999719  0.533720  0.242845  1
  Gd  Gd3  1  0.467504  0.467553  0.998582  1
  Gd  Gd4  1  0.532927  0.533435  0.501454  1
  Y  Y5  1  0.534651  0.999648  0.757407  1
  Ta  Ta6  1  0.002559  0.001927  0.501251  1
  Ta  Ta7  1  0.997958  0.997407  0.998592  1
  O  O8  1  0.933571  0.066932  0.749955  1
  O  O9  1  0.640254  0.358716  0.749947  1
  O  O10  1  0.306014  0.048681  0.544203  1
  O  O11  1  0.950176  0.693339  0.956115  1
  O  O12  1  0.629025  0.371169  0.249993  1
  O  O13  1  0.920237  0.675011  0.527283  1
  O  O14  1  0.324564  0.079068  0.972445  1
  O  O15  1  0.081438  0.326055  0.023000  1
  O  O16  1  0.673880  0.919117  0.477390  1
  O  O17  1  0.370876  0.631277  0.750303  1
  O  O18  1  0.691437  0.947337  0.038390  1
  O  O19  1  0.053211  0.308456  0.461192  1
  O  O20  1  0.361467  0.638734  0.250070  1
  O  O21  1  0.061864  0.937965  0.249946  1
