# generated using pymatgen
data_Hf2TiVP2
_symmetry_space_group_name_H-M   'P 1'
_cell_length_a   3.48923400
_cell_length_b   6.65849600
_cell_length_c   8.03771900
_cell_angle_alpha   90.00000000
_cell_angle_beta   90.00000000
_cell_angle_gamma   90.00000000
_symmetry_Int_Tables_number   1
_chemical_formula_structural   Hf2TiVP2
_chemical_formula_sum   'Hf4 Ti2 V2 P4'
_cell_volume   186.74073249
_cell_formula_units_Z   2
loop_
 _symmetry_equiv_pos_site_id
 _symmetry_equiv_pos_as_xyz
  1  'x, y, z'
loop_
 _atom_site_type_symbol
 _atom_site_label
 _atom_site_symmetry_multiplicity
 _atom_site_fract_x
 _atom_site_fract_y
 _atom_site_fract_z
 _atom_site_occupancy
  Hf  Hf0  1  0.250000  0.040879  0.833107  1
  Hf  Hf1  1  0.250000  0.540879  0.666893  1
  Hf  Hf2  1  0.750000  0.963157  0.169667  1
  Hf  Hf3  1  0.750000  0.463157  0.330333  1
  Ti  Ti4  1  0.250000  0.131861  0.441772  1
  Ti  Ti5  1  0.250000  0.631861  0.058228  1
  V  V6  1  0.750000  0.864707  0.560465  1
  V  V7  1  0.750000  0.364707  0.939535  1
  P  P8  1  0.250000  0.761487  0.365558  1
  P  P9  1  0.250000  0.261487  0.134442  1
  P  P10  1  0.750000  0.237909  0.642389  1
  P  P11  1  0.750000  0.737909  0.857611  1
