# generated using pymatgen
data_Gd7Ho3(Sn3Cl)2
_symmetry_space_group_name_H-M   'P 1'
_cell_length_a   9.20781800
_cell_length_b   9.20781774
_cell_length_c   6.62246300
_cell_angle_alpha   90.00000000
_cell_angle_beta   90.00000000
_cell_angle_gamma   120.00000094
_symmetry_Int_Tables_number   1
_chemical_formula_structural   Gd7Ho3(Sn3Cl)2
_chemical_formula_sum   'Gd7 Ho3 Sn6 Cl2'
_cell_volume   486.25447244
_cell_formula_units_Z   1
loop_
 _symmetry_equiv_pos_site_id
 _symmetry_equiv_pos_as_xyz
  1  'x, y, z'
loop_
 _atom_site_type_symbol
 _atom_site_label
 _atom_site_symmetry_multiplicity
 _atom_site_fract_x
 _atom_site_fract_y
 _atom_site_fract_z
 _atom_site_occupancy
  Gd  Gd0  1  0.262800  0.262762  0.750274  1
  Gd  Gd1  1  0.999962  0.737200  0.750274  1
  Gd  Gd2  1  0.737238  0.000038  0.750274  1
  Gd  Gd3  1  0.999962  0.262762  0.249726  1
  Gd  Gd4  1  0.737238  0.737200  0.249726  1
  Gd  Gd5  1  0.262800  0.000038  0.249726  1
  Gd  Gd6  1  0.666667  0.333333  0.000000  1
  Ho  Ho7  1  0.333333  0.666667  0.500000  1
  Ho  Ho8  1  0.666667  0.333333  0.500000  1
  Ho  Ho9  1  0.333333  0.666667  0.000000  1
  Sn  Sn10  1  0.608698  0.997935  0.251656  1
  Sn  Sn11  1  0.002065  0.391302  0.748344  1
  Sn  Sn12  1  0.389236  0.997935  0.748344  1
  Sn  Sn13  1  0.608698  0.610764  0.748344  1
  Sn  Sn14  1  0.002065  0.610764  0.251656  1
  Sn  Sn15  1  0.389236  0.391302  0.251656  1
  Cl  Cl16  1  0.000000  0.000000  0.000000  1
  Cl  Cl17  1  0.000000  0.000000  0.500000  1
