# generated using pymatgen
data_K2FeCoF7
_symmetry_space_group_name_H-M   'P 1'
_cell_length_a   7.74566505
_cell_length_b   7.74566492
_cell_length_c   7.74566500
_cell_angle_alpha   120.99376650
_cell_angle_beta   117.05046805
_cell_angle_gamma   91.73518961
_symmetry_Int_Tables_number   1
_chemical_formula_structural   K2FeCoF7
_chemical_formula_sum   'K4 Fe2 Co2 F14'
_cell_volume   332.81099469
_cell_formula_units_Z   2
loop_
 _symmetry_equiv_pos_site_id
 _symmetry_equiv_pos_as_xyz
  1  'x, y, z'
loop_
 _atom_site_type_symbol
 _atom_site_label
 _atom_site_symmetry_multiplicity
 _atom_site_fract_x
 _atom_site_fract_y
 _atom_site_fract_z
 _atom_site_occupancy
  K  K0  1  0.500000  0.500000  0.000000  1
  K  K1  1  0.000000  0.000000  0.000000  1
  K  K2  1  0.000000  0.500000  0.000000  1
  K  K3  1  0.000000  0.000000  0.500000  1
  Fe  Fe4  1  0.000000  0.500000  0.500000  1
  Fe  Fe5  1  0.500000  0.000000  0.500000  1
  Co  Co6  1  0.500000  0.500000  0.500000  1
  Co  Co7  1  0.500000  0.000000  0.000000  1
  F  F8  1  0.876370  0.586476  0.289894  1
  F  F9  1  0.203417  0.913524  0.289894  1
  F  F10  1  0.188625  0.802468  0.760590  1
  F  F11  1  0.458122  0.697532  0.386157  1
  F  F12  1  0.458122  0.071965  0.760590  1
  F  F13  1  0.188625  0.428035  0.386157  1
  F  F14  1  0.811375  0.571965  0.613843  1
  F  F15  1  0.541878  0.928035  0.239410  1
  F  F16  1  0.541878  0.302468  0.613843  1
  F  F17  1  0.811375  0.197532  0.239410  1
  F  F18  1  0.401627  0.250000  0.151627  1
  F  F19  1  0.123630  0.413524  0.710106  1
  F  F20  1  0.796583  0.086476  0.710106  1
  F  F21  1  0.598373  0.750000  0.848373  1
