# generated using pymatgen
data_Nb4SiB2W
_symmetry_space_group_name_H-M   'P 1'
_cell_length_a   7.29539250
_cell_length_b   7.29539266
_cell_length_c   7.29539329
_cell_angle_alpha   129.62753894
_cell_angle_beta   129.62754219
_cell_angle_gamma   74.00291450
_symmetry_Int_Tables_number   1
_chemical_formula_structural   Nb4SiB2W
_chemical_formula_sum   'Nb8 Si2 B4 W2'
_cell_volume   224.63200582
_cell_formula_units_Z   2
loop_
 _symmetry_equiv_pos_site_id
 _symmetry_equiv_pos_as_xyz
  1  'x, y, z'
loop_
 _atom_site_type_symbol
 _atom_site_label
 _atom_site_symmetry_multiplicity
 _atom_site_fract_x
 _atom_site_fract_y
 _atom_site_fract_z
 _atom_site_occupancy
  Nb  Nb0  1  0.806652  0.306652  0.837015  1
  Nb  Nb1  1  0.193348  0.693348  0.162985  1
  Nb  Nb2  1  0.469636  0.969636  0.162985  1
  Nb  Nb3  1  0.306652  0.469636  0.500000  1
  Nb  Nb4  1  0.030364  0.193348  0.500000  1
  Nb  Nb5  1  0.530364  0.030364  0.837015  1
  Nb  Nb6  1  0.693348  0.530364  0.500000  1
  Nb  Nb7  1  0.969636  0.806652  0.500000  1
  Si  Si8  1  0.250000  0.250000  0.000000  1
  Si  Si9  1  0.750000  0.750000  0.000000  1
  B  B10  1  0.117386  0.617386  0.734772  1
  B  B11  1  0.882614  0.382614  0.265228  1
  B  B12  1  0.617386  0.882614  0.500000  1
  B  B13  1  0.382614  0.117386  0.500000  1
  W  W14  1  0.000000  0.000000  0.000000  1
  W  W15  1  0.500000  0.500000  0.000000  1
