# generated using pymatgen
data_Zr10CuSn4GeBi2
_symmetry_space_group_name_H-M   'P 1'
_cell_length_a   8.76207450
_cell_length_b   8.75374505
_cell_length_c   5.90670836
_cell_angle_alpha   90.07772097
_cell_angle_beta   89.96117166
_cell_angle_gamma   119.96856234
_symmetry_Int_Tables_number   1
_chemical_formula_structural   Zr10CuSn4GeBi2
_chemical_formula_sum   'Zr10 Cu1 Sn4 Ge1 Bi2'
_cell_volume   392.47688809
_cell_formula_units_Z   1
loop_
 _symmetry_equiv_pos_site_id
 _symmetry_equiv_pos_as_xyz
  1  'x, y, z'
loop_
 _atom_site_type_symbol
 _atom_site_label
 _atom_site_symmetry_multiplicity
 _atom_site_fract_x
 _atom_site_fract_y
 _atom_site_fract_z
 _atom_site_occupancy
  Zr  Zr0  1  0.669266  0.335404  0.503166  1
  Zr  Zr1  1  0.330734  0.666138  0.503166  1
  Zr  Zr2  1  0.330586  0.666134  0.996753  1
  Zr  Zr3  1  0.669414  0.335548  0.996753  1
  Zr  Zr4  1  0.743739  0.738268  0.249713  1
  Zr  Zr5  1  0.256261  0.994530  0.249713  1
  Zr  Zr6  1  0.000000  0.262231  0.249441  1
  Zr  Zr7  1  0.263594  0.264482  0.750783  1
  Zr  Zr8  1  0.736406  0.000888  0.750783  1
  Zr  Zr9  1  0.000000  0.735103  0.751242  1
  Cu  Cu10  1  0.000000  0.000023  0.991793  1
  Sn  Sn11  1  0.000000  0.608278  0.248631  1
  Sn  Sn12  1  0.612816  0.613666  0.751902  1
  Sn  Sn13  1  0.387184  0.000849  0.751902  1
  Sn  Sn14  1  0.000000  0.388605  0.752087  1
  Ge  Ge15  1  0.000000  0.000467  0.505511  1
  Bi  Bi16  1  0.390852  0.390120  0.248330  1
  Bi  Bi17  1  0.609148  0.999267  0.248330  1
