# generated using pymatgen
data_Dy6Tm9Th(CdPt)4
_symmetry_space_group_name_H-M   'P 1'
_cell_length_a   9.60511298
_cell_length_b   9.60511201
_cell_length_c   9.60511145
_cell_angle_alpha   60.40517645
_cell_angle_beta   60.40518155
_cell_angle_gamma   60.40517930
_symmetry_Int_Tables_number   1
_chemical_formula_structural   Dy6Tm9Th(CdPt)4
_chemical_formula_sum   'Dy6 Tm9 Th1 Cd4 Pt4'
_cell_volume   632.34413339
_cell_formula_units_Z   1
loop_
 _symmetry_equiv_pos_site_id
 _symmetry_equiv_pos_as_xyz
  1  'x, y, z'
loop_
 _atom_site_type_symbol
 _atom_site_label
 _atom_site_symmetry_multiplicity
 _atom_site_fract_x
 _atom_site_fract_y
 _atom_site_fract_z
 _atom_site_occupancy
  Dy  Dy0  1  0.936140  0.566240  0.566240  1
  Dy  Dy1  1  0.562684  0.938235  0.938235  1
  Dy  Dy2  1  0.566240  0.936140  0.566240  1
  Dy  Dy3  1  0.938235  0.562683  0.938235  1
  Dy  Dy4  1  0.566240  0.566240  0.936140  1
  Dy  Dy5  1  0.938235  0.938235  0.562683  1
  Tm  Tm6  1  0.354293  0.354293  0.937910  1
  Tm  Tm7  1  0.354293  0.937910  0.354293  1
  Tm  Tm8  1  0.937910  0.354293  0.354293  1
  Tm  Tm9  1  0.814034  0.187669  0.187669  1
  Tm  Tm10  1  0.190118  0.811752  0.811752  1
  Tm  Tm11  1  0.187669  0.814034  0.187669  1
  Tm  Tm12  1  0.811752  0.190118  0.811752  1
  Tm  Tm13  1  0.187669  0.187669  0.814034  1
  Tm  Tm14  1  0.811752  0.811752  0.190118  1
  Th  Th15  1  0.349107  0.349107  0.349107  1
  Cd  Cd16  1  0.581430  0.581430  0.581430  1
  Cd  Cd17  1  0.582493  0.582493  0.253704  1
  Cd  Cd18  1  0.582493  0.253704  0.582493  1
  Cd  Cd19  1  0.253704  0.582493  0.582493  1
  Pt  Pt20  1  0.144352  0.144352  0.144352  1
  Pt  Pt21  1  0.138978  0.138978  0.571202  1
  Pt  Pt22  1  0.138978  0.571202  0.138978  1
  Pt  Pt23  1  0.571202  0.138978  0.138978  1
