# generated using pymatgen
data_Hf2Fe12P7
_symmetry_space_group_name_H-M   'P 1'
_cell_length_a   8.83959100
_cell_length_b   8.83959130
_cell_length_c   3.58173000
_cell_angle_alpha   90.00000000
_cell_angle_beta   90.00000000
_cell_angle_gamma   119.99999514
_symmetry_Int_Tables_number   1
_chemical_formula_structural   Hf2Fe12P7
_chemical_formula_sum   'Hf2 Fe12 P7'
_cell_volume   242.37501801
_cell_formula_units_Z   1
loop_
 _symmetry_equiv_pos_site_id
 _symmetry_equiv_pos_as_xyz
  1  'x, y, z'
loop_
 _atom_site_type_symbol
 _atom_site_label
 _atom_site_symmetry_multiplicity
 _atom_site_fract_x
 _atom_site_fract_y
 _atom_site_fract_z
 _atom_site_occupancy
  Hf  Hf0  1  0.000000  0.000000  0.000000  1
  Hf  Hf1  1  0.333333  0.666667  0.500000  1
  Fe  Fe2  1  0.097406  0.395738  0.000000  1
  Fe  Fe3  1  0.298332  0.902594  0.000000  1
  Fe  Fe4  1  0.604262  0.701668  0.000000  1
  Fe  Fe5  1  0.823358  0.610499  0.000000  1
  Fe  Fe6  1  0.787140  0.176642  0.000000  1
  Fe  Fe7  1  0.389501  0.212860  0.000000  1
  Fe  Fe8  1  0.052593  0.771817  0.500000  1
  Fe  Fe9  1  0.719226  0.947407  0.500000  1
  Fe  Fe10  1  0.228183  0.280774  0.500000  1
  Fe  Fe11  1  0.884935  0.431116  0.500000  1
  Fe  Fe12  1  0.546181  0.115065  0.500000  1
  Fe  Fe13  1  0.568884  0.453819  0.500000  1
  P  P14  1  0.080903  0.632108  0.000000  1
  P  P15  1  0.551205  0.919097  0.000000  1
  P  P16  1  0.367892  0.448795  0.000000  1
  P  P17  1  0.783164  0.738519  0.500000  1
  P  P18  1  0.955355  0.216836  0.500000  1
  P  P19  1  0.261481  0.044645  0.500000  1
  P  P20  1  0.666667  0.333333  0.000000  1
