# generated using pymatgen
data_LiSm4Al17Pt6
_symmetry_space_group_name_H-M   'P 1'
_cell_length_a   7.60523600
_cell_length_b   7.60523472
_cell_length_c   9.46640900
_cell_angle_alpha   90.00000000
_cell_angle_beta   90.00000000
_cell_angle_gamma   119.49278335
_symmetry_Int_Tables_number   1
_chemical_formula_structural   LiSm4Al17Pt6
_chemical_formula_sum   'Li1 Sm4 Al17 Pt6'
_cell_volume   476.58273085
_cell_formula_units_Z   1
loop_
 _symmetry_equiv_pos_site_id
 _symmetry_equiv_pos_as_xyz
  1  'x, y, z'
loop_
 _atom_site_type_symbol
 _atom_site_label
 _atom_site_symmetry_multiplicity
 _atom_site_fract_x
 _atom_site_fract_y
 _atom_site_fract_z
 _atom_site_occupancy
  Li  Li0  1  0.128875  0.128875  0.250000  1
  Sm  Sm1  1  0.995300  0.666050  0.250000  1
  Sm  Sm2  1  0.008142  0.331143  0.750000  1
  Sm  Sm3  1  0.666050  0.995300  0.250000  1
  Sm  Sm4  1  0.331143  0.008143  0.750000  1
  Al  Al5  1  0.865413  0.865413  0.750000  1
  Al  Al6  1  0.002510  0.328197  0.080281  1
  Al  Al7  1  0.000198  0.665196  0.924016  1
  Al  Al8  1  0.000198  0.665196  0.575984  1
  Al  Al9  1  0.328197  0.002510  0.419719  1
  Al  Al10  1  0.002510  0.328197  0.419719  1
  Al  Al11  1  0.665196  0.000198  0.575984  1
  Al  Al12  1  0.665196  0.000198  0.924016  1
  Al  Al13  1  0.328197  0.002510  0.080281  1
  Al  Al14  1  0.334899  0.334899  0.547520  1
  Al  Al15  1  0.670564  0.670563  0.440701  1
  Al  Al16  1  0.670564  0.670563  0.059299  1
  Al  Al17  1  0.334899  0.334899  0.952480  1
  Al  Al18  1  0.339964  0.540225  0.250000  1
  Al  Al19  1  0.658989  0.453378  0.750000  1
  Al  Al20  1  0.540225  0.339963  0.250000  1
  Al  Al21  1  0.453378  0.658989  0.750000  1
  Pt  Pt22  1  0.674848  0.330060  0.000349  1
  Pt  Pt23  1  0.330060  0.674848  0.000348  1
  Pt  Pt24  1  0.330060  0.674848  0.499652  1
  Pt  Pt25  1  0.674848  0.330060  0.499651  1
  Pt  Pt26  1  0.999790  0.999790  0.993403  1
  Pt  Pt27  1  0.999790  0.999790  0.506597  1
