# generated using pymatgen
data_Cs6Na4TaTiP6
_symmetry_space_group_name_H-M   'P 1'
_cell_length_a   10.59307673
_cell_length_b   10.59307791
_cell_length_c   16.65665700
_cell_angle_alpha   90.00000000
_cell_angle_beta   90.00000000
_cell_angle_gamma   142.35709004
_symmetry_Int_Tables_number   1
_chemical_formula_structural   Cs6Na4TaTiP6
_chemical_formula_sum   'Cs12 Na8 Ta2 Ti2 P12'
_cell_volume   1141.52998054
_cell_formula_units_Z   2
loop_
 _symmetry_equiv_pos_site_id
 _symmetry_equiv_pos_as_xyz
  1  'x, y, z'
loop_
 _atom_site_type_symbol
 _atom_site_label
 _atom_site_symmetry_multiplicity
 _atom_site_fract_x
 _atom_site_fract_y
 _atom_site_fract_z
 _atom_site_occupancy
  Cs  Cs0  1  0.947563  0.610635  0.826050  1
  Cs  Cs1  1  0.552437  0.889365  0.326050  1
  Cs  Cs2  1  0.389365  0.052437  0.173950  1
  Cs  Cs3  1  0.057462  0.390574  0.171468  1
  Cs  Cs4  1  0.890574  0.557462  0.328532  1
  Cs  Cs5  1  0.442538  0.109426  0.671468  1
  Cs  Cs6  1  0.609426  0.942538  0.828532  1
  Cs  Cs7  1  0.281429  0.278218  0.315600  1
  Cs  Cs8  1  0.778218  0.781429  0.184400  1
  Cs  Cs9  1  0.218571  0.221782  0.815600  1
  Cs  Cs10  1  0.721782  0.718571  0.684400  1
  Cs  Cs11  1  0.110635  0.447563  0.673950  1
  Na  Na12  1  0.920507  0.079493  0.000000  1
  Na  Na13  1  0.579493  0.420507  0.500000  1
  Na  Na14  1  0.078922  0.921078  0.000000  1
  Na  Na15  1  0.421078  0.578922  0.500000  1
  Na  Na16  1  0.755977  0.244023  0.000000  1
  Na  Na17  1  0.744023  0.255977  0.500000  1
  Na  Na18  1  0.246111  0.753889  0.000000  1
  Na  Na19  1  0.253889  0.746111  0.500000  1
  Ta  Ta20  1  0.581583  0.418417  0.000000  1
  Ta  Ta21  1  0.918417  0.081583  0.500000  1
  Ti  Ti22  1  0.415685  0.584315  0.000000  1
  Ti  Ti23  1  0.084315  0.915685  0.500000  1
  P  P24  1  0.854505  0.551999  0.085534  1
  P  P25  1  0.448001  0.145495  0.914466  1
  P  P26  1  0.645495  0.948001  0.585534  1
  P  P27  1  0.946902  0.640942  0.586405  1
  P  P28  1  0.140942  0.446902  0.913595  1
  P  P29  1  0.553098  0.859058  0.086405  1
  P  P30  1  0.359058  0.053098  0.413595  1
  P  P31  1  0.188732  0.192120  0.579676  1
  P  P32  1  0.692120  0.688732  0.920324  1
  P  P33  1  0.311268  0.307880  0.079676  1
  P  P34  1  0.051999  0.354505  0.414466  1
  P  P35  1  0.807880  0.811268  0.420324  1
