# generated using pymatgen
data_Gd2Er3SiPb3
_symmetry_space_group_name_H-M   'P 1'
_cell_length_a   9.24373600
_cell_length_b   9.24373583
_cell_length_c   6.44180800
_cell_angle_alpha   90.00000000
_cell_angle_beta   90.00000000
_cell_angle_gamma   120.00000063
_symmetry_Int_Tables_number   1
_chemical_formula_structural   Gd2Er3SiPb3
_chemical_formula_sum   'Gd4 Er6 Si2 Pb6'
_cell_volume   476.68717136
_cell_formula_units_Z   2
loop_
 _symmetry_equiv_pos_site_id
 _symmetry_equiv_pos_as_xyz
  1  'x, y, z'
loop_
 _atom_site_type_symbol
 _atom_site_label
 _atom_site_symmetry_multiplicity
 _atom_site_fract_x
 _atom_site_fract_y
 _atom_site_fract_z
 _atom_site_occupancy
  Gd  Gd0  1  0.666667  0.333333  0.500000  1
  Gd  Gd1  1  0.333333  0.666667  0.500000  1
  Gd  Gd2  1  0.333333  0.666667  0.000000  1
  Gd  Gd3  1  0.666667  0.333333  0.000000  1
  Er  Er4  1  0.751267  0.751267  0.250000  1
  Er  Er5  1  0.248733  0.000000  0.250000  1
  Er  Er6  1  0.000000  0.248733  0.250000  1
  Er  Er7  1  0.248733  0.248733  0.750000  1
  Er  Er8  1  0.751267  0.000000  0.750000  1
  Er  Er9  1  0.000000  0.751267  0.750000  1
  Si  Si10  1  0.000000  0.000000  0.500000  1
  Si  Si11  1  0.000000  0.000000  0.000000  1
  Pb  Pb12  1  0.391181  0.391181  0.250000  1
  Pb  Pb13  1  0.608819  0.000000  0.250000  1
  Pb  Pb14  1  0.000000  0.608819  0.250000  1
  Pb  Pb15  1  0.608819  0.608819  0.750000  1
  Pb  Pb16  1  0.391181  0.000000  0.750000  1
  Pb  Pb17  1  0.000000  0.391181  0.750000  1
