# generated using pymatgen
data_Pr5NdAl24(Ru3Rh)2
_symmetry_space_group_name_H-M   'P 1'
_cell_length_a   8.89885030
_cell_length_b   8.89885182
_cell_length_c   9.69174000
_cell_angle_alpha   90.00000000
_cell_angle_beta   90.00000000
_cell_angle_gamma   119.57154974
_symmetry_Int_Tables_number   1
_chemical_formula_structural   Pr5NdAl24(Ru3Rh)2
_chemical_formula_sum   'Pr5 Nd1 Al24 Ru6 Rh2'
_cell_volume   667.51206533
_cell_formula_units_Z   1
loop_
 _symmetry_equiv_pos_site_id
 _symmetry_equiv_pos_as_xyz
  1  'x, y, z'
loop_
 _atom_site_type_symbol
 _atom_site_label
 _atom_site_symmetry_multiplicity
 _atom_site_fract_x
 _atom_site_fract_y
 _atom_site_fract_z
 _atom_site_occupancy
  Pr  Pr0  1  0.189067  0.383514  0.250000  1
  Pr  Pr1  1  0.810822  0.616267  0.750000  1
  Pr  Pr2  1  0.616486  0.810933  0.250000  1
  Pr  Pr3  1  0.383733  0.189178  0.750000  1
  Pr  Pr4  1  0.193834  0.806166  0.250000  1
  Nd  Nd5  1  0.806181  0.193819  0.750000  1
  Al  Al6  1  0.332426  0.667574  0.010601  1
  Al  Al7  1  0.667759  0.332241  0.989015  1
  Al  Al8  1  0.667759  0.332241  0.510985  1
  Al  Al9  1  0.332426  0.667574  0.489399  1
  Al  Al10  1  0.161112  0.324017  0.576718  1
  Al  Al11  1  0.838520  0.675851  0.423476  1
  Al  Al12  1  0.675983  0.838888  0.576718  1
  Al  Al13  1  0.838520  0.675851  0.076524  1
  Al  Al14  1  0.324149  0.161480  0.423476  1
  Al  Al15  1  0.161112  0.324017  0.923282  1
  Al  Al16  1  0.162866  0.837134  0.576116  1
  Al  Al17  1  0.324149  0.161480  0.076524  1
  Al  Al18  1  0.837101  0.162899  0.424306  1
  Al  Al19  1  0.675983  0.838888  0.923282  1
  Al  Al20  1  0.837101  0.162899  0.075694  1
  Al  Al21  1  0.162866  0.837134  0.923884  1
  Al  Al22  1  0.562407  0.126556  0.250000  1
  Al  Al23  1  0.438195  0.873935  0.750000  1
  Al  Al24  1  0.873444  0.437593  0.250000  1
  Al  Al25  1  0.126065  0.561805  0.750000  1
  Al  Al26  1  0.562600  0.437400  0.250000  1
  Al  Al27  1  0.437364  0.562636  0.750000  1
  Al  Al28  1  0.999649  0.000351  0.250000  1
  Al  Al29  1  0.000079  0.999921  0.750000  1
  Ru  Ru30  1  0.500243  0.000136  0.999803  1
  Ru  Ru31  1  0.999864  0.499757  0.999803  1
  Ru  Ru32  1  0.500243  0.000136  0.500197  1
  Ru  Ru33  1  0.999864  0.499757  0.500197  1
  Ru  Ru34  1  0.999954  0.000046  0.999873  1
  Ru  Ru35  1  0.999954  0.000046  0.500127  1
  Rh  Rh36  1  0.500059  0.499941  0.999947  1
  Rh  Rh37  1  0.500059  0.499941  0.500053  1
