# generated using pymatgen
data_AcLa7(B2Rh5)4
_symmetry_space_group_name_H-M   'P 1'
_cell_length_a   5.55955816
_cell_length_b   5.56058285
_cell_length_c   21.25645000
_cell_angle_alpha   89.99384856
_cell_angle_beta   90.01388193
_cell_angle_gamma   119.98322105
_symmetry_Int_Tables_number   1
_chemical_formula_structural   AcLa7(B2Rh5)4
_chemical_formula_sum   'Ac1 La7 B8 Rh20'
_cell_volume   569.18749750
_cell_formula_units_Z   1
loop_
 _symmetry_equiv_pos_site_id
 _symmetry_equiv_pos_as_xyz
  1  'x, y, z'
loop_
 _atom_site_type_symbol
 _atom_site_label
 _atom_site_symmetry_multiplicity
 _atom_site_fract_x
 _atom_site_fract_y
 _atom_site_fract_z
 _atom_site_occupancy
  Ac  Ac0  1  0.666667  0.333418  0.825459  1
  La  La1  1  0.666666  0.333294  0.520648  1
  La  La2  1  0.333371  0.666695  0.478559  1
  La  La3  1  0.333302  0.666675  0.021370  1
  La  La4  1  0.666634  0.333286  0.980251  1
  La  La5  1  0.666635  0.333396  0.672093  1
  La  La6  1  0.333406  0.666591  0.326050  1
  La  La7  1  0.333329  0.666603  0.173900  1
  B  B8  1  0.999954  0.000051  0.677486  1
  B  B9  1  0.000057  0.999941  0.322312  1
  B  B10  1  0.999984  0.999944  0.177782  1
  B  B11  1  0.999993  0.000065  0.822730  1
  B  B12  1  0.666719  0.333317  0.325352  1
  B  B13  1  0.333288  0.666680  0.674488  1
  B  B14  1  0.333327  0.666705  0.825750  1
  B  B15  1  0.666657  0.333313  0.174691  1
  Rh  Rh16  1  0.000008  0.000000  0.500136  1
  Rh  Rh17  1  0.999998  0.999973  0.000232  1
  Rh  Rh18  1  0.167479  0.335006  0.749474  1
  Rh  Rh19  1  0.167409  0.832562  0.749474  1
  Rh  Rh20  1  0.665033  0.832635  0.749478  1
  Rh  Rh21  1  0.832617  0.665069  0.250011  1
  Rh  Rh22  1  0.832574  0.167315  0.250010  1
  Rh  Rh23  1  0.334851  0.167330  0.250015  1
  Rh  Rh24  1  0.163150  0.326413  0.609811  1
  Rh  Rh25  1  0.163101  0.836807  0.609816  1
  Rh  Rh26  1  0.673535  0.836882  0.609809  1
  Rh  Rh27  1  0.836898  0.673528  0.390251  1
  Rh  Rh28  1  0.836866  0.163215  0.390245  1
  Rh  Rh29  1  0.326560  0.163187  0.390257  1
  Rh  Rh30  1  0.836848  0.673785  0.109814  1
  Rh  Rh31  1  0.836858  0.163086  0.109809  1
  Rh  Rh32  1  0.326144  0.163044  0.109819  1
  Rh  Rh33  1  0.163211  0.326443  0.890875  1
  Rh  Rh34  1  0.163240  0.836868  0.890869  1
  Rh  Rh35  1  0.673631  0.836879  0.890870  1
