# generated using pymatgen
data_Sc8Si16(MoW3)3
_symmetry_space_group_name_H-M   'P 1'
_cell_length_a   6.58403634
_cell_length_b   6.78948630
_cell_length_c   12.66544264
_cell_angle_alpha   89.97905579
_cell_angle_beta   89.97022754
_cell_angle_gamma   89.90813453
_symmetry_Int_Tables_number   1
_chemical_formula_structural   Sc8Si16(MoW3)3
_chemical_formula_sum   'Sc8 Si16 Mo3 W9'
_cell_volume   566.17261813
_cell_formula_units_Z   1
loop_
 _symmetry_equiv_pos_site_id
 _symmetry_equiv_pos_as_xyz
  1  'x, y, z'
loop_
 _atom_site_type_symbol
 _atom_site_label
 _atom_site_symmetry_multiplicity
 _atom_site_fract_x
 _atom_site_fract_y
 _atom_site_fract_z
 _atom_site_occupancy
  Sc  Sc0  1  0.493238  0.669671  0.592486  1
  Sc  Sc1  1  0.993336  0.830363  0.907276  1
  Sc  Sc2  1  0.506952  0.330372  0.092538  1
  Sc  Sc3  1  0.006734  0.169594  0.407501  1
  Sc  Sc4  1  0.506920  0.330493  0.407389  1
  Sc  Sc5  1  0.005898  0.170310  0.092598  1
  Sc  Sc6  1  0.493819  0.669975  0.907211  1
  Sc  Sc7  1  0.993962  0.829751  0.592230  1
  Si  Si8  1  0.668311  0.963226  0.455639  1
  Si  Si9  1  0.167673  0.537611  0.044621  1
  Si  Si10  1  0.332096  0.037451  0.955090  1
  Si  Si11  1  0.831511  0.461739  0.544712  1
  Si  Si12  1  0.332693  0.037313  0.544700  1
  Si  Si13  1  0.833025  0.462486  0.955362  1
  Si  Si14  1  0.667137  0.962831  0.044877  1
  Si  Si15  1  0.167978  0.537316  0.455841  1
  Si  Si16  1  0.464655  0.380031  0.749622  1
  Si  Si17  1  0.964392  0.119966  0.750471  1
  Si  Si18  1  0.534586  0.619507  0.249381  1
  Si  Si19  1  0.036202  0.880815  0.249768  1
  Si  Si20  1  0.698095  0.857563  0.749601  1
  Si  Si21  1  0.197883  0.642519  0.750368  1
  Si  Si22  1  0.302065  0.142592  0.249829  1
  Si  Si23  1  0.801747  0.356989  0.250230  1
  Mo  Mo24  1  0.668340  0.163645  0.623989  1
  Mo  Mo25  1  0.169123  0.336740  0.876294  1
  Mo  Mo26  1  0.331246  0.835661  0.124016  1
  W  W27  1  0.831404  0.663498  0.375576  1
  W  W28  1  0.332954  0.835543  0.374889  1
  W  W29  1  0.831908  0.663547  0.124745  1
  W  W30  1  0.667175  0.164657  0.874760  1
  W  W31  1  0.167391  0.335779  0.625505  1
  W  W32  1  0.833599  0.503461  0.749725  1
  W  W33  1  0.333071  0.996108  0.750058  1
  W  W34  1  0.165605  0.497143  0.250667  1
  W  W35  1  0.667276  0.003735  0.250433  1
