# generated using pymatgen
data_La3TiGa5O14
_symmetry_space_group_name_H-M   'P 1'
_cell_length_a   8.29641500
_cell_length_b   8.29641462
_cell_length_c   5.14792900
_cell_angle_alpha   90.00000000
_cell_angle_beta   90.00000000
_cell_angle_gamma   60.00000247
_symmetry_Int_Tables_number   1
_chemical_formula_structural   La3TiGa5O14
_chemical_formula_sum   'La3 Ti1 Ga5 O14'
_cell_volume   306.86270369
_cell_formula_units_Z   1
loop_
 _symmetry_equiv_pos_site_id
 _symmetry_equiv_pos_as_xyz
  1  'x, y, z'
loop_
 _atom_site_type_symbol
 _atom_site_label
 _atom_site_symmetry_multiplicity
 _atom_site_fract_x
 _atom_site_fract_y
 _atom_site_fract_z
 _atom_site_occupancy
  La  La0  1  0.422184  0.000000  0.000000  1
  La  La1  1  0.577816  0.422183  0.000000  1
  La  La2  1  0.000000  0.577817  0.000000  1
  Ti  Ti3  1  0.000000  0.000000  0.000000  1
  Ga  Ga4  1  0.666666  0.666666  0.467166  1
  Ga  Ga5  1  0.761167  0.000000  0.500000  1
  Ga  Ga6  1  0.238833  0.761167  0.500000  1
  Ga  Ga7  1  0.000000  0.238833  0.500000  1
  Ga  Ga8  1  0.333333  0.333333  0.532834  1
  O  O9  1  0.333333  0.333333  0.179409  1
  O  O10  1  0.142704  0.073782  0.236009  1
  O  O11  1  0.783514  0.142705  0.236009  1
  O  O12  1  0.073783  0.783514  0.236009  1
  O  O13  1  0.854686  0.455875  0.300957  1
  O  O14  1  0.455875  0.689437  0.300957  1
  O  O15  1  0.689437  0.854686  0.300957  1
  O  O16  1  0.544125  0.145313  0.699043  1
  O  O17  1  0.145314  0.310563  0.699043  1
  O  O18  1  0.310563  0.544124  0.699043  1
  O  O19  1  0.857296  0.216487  0.763990  1
  O  O20  1  0.926218  0.857296  0.763990  1
  O  O21  1  0.216486  0.926217  0.763990  1
  O  O22  1  0.666667  0.666667  0.820590  1
