# generated using pymatgen
data_Ba4HoPb3
_symmetry_space_group_name_H-M   'P 1'
_cell_length_a   10.24522128
_cell_length_b   10.24519777
_cell_length_c   10.24522248
_cell_angle_alpha   97.12155267
_cell_angle_beta   97.11826814
_cell_angle_gamma   138.77342195
_symmetry_Int_Tables_number   1
_chemical_formula_structural   Ba4HoPb3
_chemical_formula_sum   'Ba8 Ho2 Pb6'
_cell_volume   663.34420680
_cell_formula_units_Z   2
loop_
 _symmetry_equiv_pos_site_id
 _symmetry_equiv_pos_as_xyz
  1  'x, y, z'
loop_
 _atom_site_type_symbol
 _atom_site_label
 _atom_site_symmetry_multiplicity
 _atom_site_fract_x
 _atom_site_fract_y
 _atom_site_fract_z
 _atom_site_occupancy
  Ba  Ba0  1  0.087606  0.214462  0.302089  1
  Ba  Ba1  1  0.912394  0.785538  0.697911  1
  Ba  Ba2  1  0.785534  0.087624  0.873153  1
  Ba  Ba3  1  0.412374  0.714462  0.126856  1
  Ba  Ba4  1  0.214466  0.912376  0.126847  1
  Ba  Ba5  1  0.587626  0.285538  0.873144  1
  Ba  Ba6  1  0.714471  0.587624  0.302091  1
  Ba  Ba7  1  0.285529  0.412376  0.697909  1
  Ho  Ho8  1  0.249987  0.750000  0.499987  1
  Ho  Ho9  1  0.750013  0.250000  0.500013  1
  Pb  Pb10  1  0.139781  0.639779  0.779553  1
  Pb  Pb11  1  0.860219  0.360221  0.220447  1
  Pb  Pb12  1  0.360224  0.139779  0.499998  1
  Pb  Pb13  1  0.639776  0.860221  0.500002  1
  Pb  Pb14  1  0.250013  0.250000  0.000013  1
  Pb  Pb15  1  0.749987  0.750000  0.999987  1
