# generated using pymatgen
data_YbLu2Ga2Co9B4
_symmetry_space_group_name_H-M   'P 1'
_cell_length_a   5.09678600
_cell_length_b   5.10327203
_cell_length_c   9.57630500
_cell_angle_alpha   90.00029144
_cell_angle_beta   89.99997772
_cell_angle_gamma   119.96238363
_symmetry_Int_Tables_number   1
_chemical_formula_structural   YbLu2Ga2Co9B4
_chemical_formula_sum   'Yb1 Lu2 Ga2 Co9 B4'
_cell_volume   215.79342753
_cell_formula_units_Z   1
loop_
 _symmetry_equiv_pos_site_id
 _symmetry_equiv_pos_as_xyz
  1  'x, y, z'
loop_
 _atom_site_type_symbol
 _atom_site_label
 _atom_site_symmetry_multiplicity
 _atom_site_fract_x
 _atom_site_fract_y
 _atom_site_fract_z
 _atom_site_occupancy
  Yb  Yb0  1  0.999992  0.000000  0.000081  1
  Lu  Lu1  1  0.999999  0.999999  0.338266  1
  Lu  Lu2  1  0.999979  0.999998  0.661621  1
  Ga  Ga3  1  0.333209  0.666397  0.000126  1
  Ga  Ga4  1  0.666779  0.333604  0.000127  1
  Co  Co5  1  0.499990  0.000000  0.499936  1
  Co  Co6  1  0.499992  0.499998  0.499959  1
  Co  Co7  1  0.999992  0.500000  0.499958  1
  Co  Co8  1  0.499990  0.999999  0.209008  1
  Co  Co9  1  0.499993  0.500000  0.208913  1
  Co  Co10  1  0.999994  0.499999  0.208902  1
  Co  Co11  1  0.499996  0.000001  0.791031  1
  Co  Co12  1  0.500002  0.499992  0.791136  1
  Co  Co13  1  0.000003  0.500009  0.791120  1
  B  B14  1  0.333231  0.666463  0.350577  1
  B  B15  1  0.666759  0.333535  0.350576  1
  B  B16  1  0.666764  0.333547  0.649330  1
  B  B17  1  0.333236  0.666459  0.649332  1
