# generated using pymatgen
data_Ta4Si2Ru9Rh
_symmetry_space_group_name_H-M   'P 1'
_cell_length_a   4.10756700
_cell_length_b   5.41077220
_cell_length_c   10.55062394
_cell_angle_alpha   89.52797740
_cell_angle_beta   90.00000000
_cell_angle_gamma   90.00000000
_symmetry_Int_Tables_number   1
_chemical_formula_structural   Ta4Si2Ru9Rh
_chemical_formula_sum   'Ta4 Si2 Ru9 Rh1'
_cell_volume   234.48081308
_cell_formula_units_Z   1
loop_
 _symmetry_equiv_pos_site_id
 _symmetry_equiv_pos_as_xyz
  1  'x, y, z'
loop_
 _atom_site_type_symbol
 _atom_site_label
 _atom_site_symmetry_multiplicity
 _atom_site_fract_x
 _atom_site_fract_y
 _atom_site_fract_z
 _atom_site_occupancy
  Ta  Ta0  1  0.500000  0.841998  0.361324  1
  Ta  Ta1  1  0.500000  0.165209  0.641050  1
  Ta  Ta2  1  0.500000  0.328417  0.137935  1
  Ta  Ta3  1  0.500000  0.661083  0.858589  1
  Si  Si4  1  0.000000  0.506011  0.499609  1
  Si  Si5  1  0.000000  0.999417  0.000472  1
  Ru  Ru6  1  0.000000  0.502169  0.998114  1
  Ru  Ru7  1  0.000000  0.010907  0.502995  1
  Ru  Ru8  1  0.000000  0.404935  0.741913  1
  Ru  Ru9  1  0.000000  0.088720  0.244531  1
  Ru  Ru10  1  0.000000  0.904091  0.758978  1
  Ru  Ru11  1  0.500000  0.820594  0.106920  1
  Ru  Ru12  1  0.500000  0.172939  0.895026  1
  Ru  Ru13  1  0.500000  0.327804  0.393042  1
  Ru  Ru14  1  0.500000  0.677345  0.604826  1
  Rh  Rh15  1  0.000000  0.588359  0.254674  1
