# generated using pymatgen
data_Er6Zn17PAu6
_symmetry_space_group_name_H-M   'P 1'
_cell_length_a   9.09292861
_cell_length_b   9.09282093
_cell_length_c   9.09350100
_cell_angle_alpha   59.99828011
_cell_angle_beta   59.99829680
_cell_angle_gamma   60.03268339
_symmetry_Int_Tables_number   1
_chemical_formula_structural   Er6Zn17PAu6
_chemical_formula_sum   'Er6 Zn17 P1 Au6'
_cell_volume   531.75852070
_cell_formula_units_Z   1
loop_
 _symmetry_equiv_pos_site_id
 _symmetry_equiv_pos_as_xyz
  1  'x, y, z'
loop_
 _atom_site_type_symbol
 _atom_site_label
 _atom_site_symmetry_multiplicity
 _atom_site_fract_x
 _atom_site_fract_y
 _atom_site_fract_z
 _atom_site_occupancy
  Er  Er0  1  0.711276  0.290107  0.286449  1
  Er  Er1  1  0.711274  0.290107  0.712168  1
  Er  Er2  1  0.711225  0.711227  0.288772  1
  Er  Er3  1  0.290106  0.711284  0.712162  1
  Er  Er4  1  0.290113  0.711275  0.286448  1
  Er  Er5  1  0.287537  0.287538  0.712461  1
  Zn  Zn6  1  0.875663  0.875662  0.372704  1
  Zn  Zn7  1  0.875660  0.875666  0.875971  1
  Zn  Zn8  1  0.503579  0.999373  0.998153  1
  Zn  Zn9  1  0.503590  0.999379  0.498888  1
  Zn  Zn10  1  0.499933  0.499933  0.000067  1
  Zn  Zn11  1  0.999387  0.503585  0.498888  1
  Zn  Zn12  1  0.999379  0.503581  0.998148  1
  Zn  Zn13  1  0.997734  0.997735  0.502266  1
  Zn  Zn14  1  0.999595  0.999590  0.000409  1
  Zn  Zn15  1  0.006246  0.331708  0.331022  1
  Zn  Zn16  1  0.331708  0.006247  0.331017  1
  Zn  Zn17  1  0.331426  0.331427  0.006281  1
  Zn  Zn18  1  0.331418  0.331426  0.330870  1
  Zn  Zn19  1  0.991706  0.670115  0.669086  1
  Zn  Zn20  1  0.670119  0.991699  0.669091  1
  Zn  Zn21  1  0.669597  0.669598  0.992406  1
  Zn  Zn22  1  0.669603  0.669599  0.668393  1
  P  P23  1  0.499667  0.499667  0.500332  1
  Au  Au24  1  0.635918  0.118916  0.122588  1
  Au  Au25  1  0.118917  0.635921  0.122580  1
  Au  Au26  1  0.121177  0.121184  0.632681  1
  Au  Au27  1  0.121180  0.121177  0.124965  1
  Au  Au28  1  0.367579  0.877690  0.877364  1
  Au  Au29  1  0.877687  0.367581  0.877370  1
