# generated using pymatgen
data_Dy3Lu5Ti11NbSi16
_symmetry_space_group_name_H-M   'P 1'
_cell_length_a   7.00626434
_cell_length_b   7.00906268
_cell_length_c   12.88083223
_cell_angle_alpha   90.04616068
_cell_angle_beta   89.92651649
_cell_angle_gamma   90.03867425
_symmetry_Int_Tables_number   1
_chemical_formula_structural   Dy3Lu5Ti11NbSi16
_chemical_formula_sum   'Dy3 Lu5 Ti11 Nb1 Si16'
_cell_volume   632.54261434
_cell_formula_units_Z   1
loop_
 _symmetry_equiv_pos_site_id
 _symmetry_equiv_pos_as_xyz
  1  'x, y, z'
loop_
 _atom_site_type_symbol
 _atom_site_label
 _atom_site_symmetry_multiplicity
 _atom_site_fract_x
 _atom_site_fract_y
 _atom_site_fract_z
 _atom_site_occupancy
  Dy  Dy0  1  0.503489  0.160557  0.216515  1
  Dy  Dy1  1  0.497375  0.840100  0.716922  1
  Dy  Dy2  1  0.340331  0.002741  0.466806  1
  Lu  Lu3  1  0.998047  0.659221  0.033024  1
  Lu  Lu4  1  0.000786  0.342118  0.533457  1
  Lu  Lu5  1  0.659815  0.997897  0.966876  1
  Lu  Lu6  1  0.159277  0.501575  0.783378  1
  Lu  Lu7  1  0.841381  0.499258  0.283635  1
  Ti  Ti8  1  0.348774  0.507652  0.374557  1
  Ti  Ti9  1  0.847166  0.990980  0.376349  1
  Ti  Ti10  1  0.006946  0.151705  0.123615  1
  Ti  Ti11  1  0.991675  0.846811  0.623831  1
  Ti  Ti12  1  0.508615  0.348803  0.625732  1
  Ti  Ti13  1  0.151150  0.007776  0.876265  1
  Ti  Ti14  1  0.827122  0.173566  0.750330  1
  Ti  Ti15  1  0.172444  0.826277  0.249574  1
  Ti  Ti16  1  0.326706  0.327271  0.999964  1
  Ti  Ti17  1  0.492476  0.651280  0.125720  1
  Ti  Ti18  1  0.651637  0.492750  0.874261  1
  Nb  Nb19  1  0.673824  0.672442  0.499959  1
  Si  Si20  1  0.046803  0.705896  0.434670  1
  Si  Si21  1  0.953752  0.293138  0.935062  1
  Si  Si22  1  0.710116  0.049450  0.565169  1
  Si  Si23  1  0.205585  0.454842  0.184900  1
  Si  Si24  1  0.795253  0.544309  0.686725  1
  Si  Si25  1  0.453016  0.208795  0.815650  1
  Si  Si26  1  0.547056  0.791106  0.313093  1
  Si  Si27  1  0.291795  0.952436  0.064112  1
  Si  Si28  1  0.798838  0.866745  0.182846  1
  Si  Si29  1  0.294471  0.628548  0.566604  1
  Si  Si30  1  0.703999  0.369578  0.065623  1
  Si  Si31  1  0.633293  0.297812  0.433438  1
  Si  Si32  1  0.367755  0.702187  0.933793  1
  Si  Si33  1  0.128461  0.204130  0.315918  1
  Si  Si34  1  0.200667  0.133247  0.684083  1
  Si  Si35  1  0.870100  0.796997  0.817544  1
