# generated using pymatgen
data_KNp3F12
_symmetry_space_group_name_H-M   'P 1'
_cell_length_a   6.96550883
_cell_length_b   6.96550938
_cell_length_c   6.96550926
_cell_angle_alpha   108.65433077
_cell_angle_beta   108.65433119
_cell_angle_gamma   111.11765637
_symmetry_Int_Tables_number   1
_chemical_formula_structural   KNp3F12
_chemical_formula_sum   'K1 Np3 F12'
_cell_volume   259.99606294
_cell_formula_units_Z   1
loop_
 _symmetry_equiv_pos_site_id
 _symmetry_equiv_pos_as_xyz
  1  'x, y, z'
loop_
 _atom_site_type_symbol
 _atom_site_label
 _atom_site_symmetry_multiplicity
 _atom_site_fract_x
 _atom_site_fract_y
 _atom_site_fract_z
 _atom_site_occupancy
  K  K0  1  0.000000  0.000000  0.000000  1
  Np  Np1  1  0.250000  0.750000  0.500000  1
  Np  Np2  1  0.500000  0.500000  0.000000  1
  Np  Np3  1  0.750000  0.250000  0.500000  1
  F  F4  1  0.555018  0.344942  0.247513  1
  F  F5  1  0.307504  0.555018  0.210076  1
  F  F6  1  0.344942  0.097429  0.789924  1
  F  F7  1  0.097429  0.307504  0.752487  1
  F  F8  1  0.341055  0.013271  0.354326  1
  F  F9  1  0.986729  0.341055  0.327784  1
  F  F10  1  0.013271  0.658945  0.672216  1
  F  F11  1  0.658945  0.986729  0.645674  1
  F  F12  1  0.902571  0.692496  0.247513  1
  F  F13  1  0.655058  0.902571  0.210076  1
  F  F14  1  0.692496  0.444982  0.789924  1
  F  F15  1  0.444982  0.655058  0.752487  1
