# generated using pymatgen
data_ScCo2(PRh)3
_symmetry_space_group_name_H-M   'P 1'
_cell_length_a   3.74039000
_cell_length_b   10.60882700
_cell_length_c   12.14143900
_cell_angle_alpha   90.00000000
_cell_angle_beta   90.00000000
_cell_angle_gamma   90.00000000
_symmetry_Int_Tables_number   1
_chemical_formula_structural   ScCo2(PRh)3
_chemical_formula_sum   'Sc4 Co8 P12 Rh12'
_cell_volume   481.78626730
_cell_formula_units_Z   4
loop_
 _symmetry_equiv_pos_site_id
 _symmetry_equiv_pos_as_xyz
  1  'x, y, z'
loop_
 _atom_site_type_symbol
 _atom_site_label
 _atom_site_symmetry_multiplicity
 _atom_site_fract_x
 _atom_site_fract_y
 _atom_site_fract_z
 _atom_site_occupancy
  Sc  Sc0  1  0.250000  0.580453  0.709682  1
  Sc  Sc1  1  0.250000  0.919547  0.209682  1
  Sc  Sc2  1  0.750000  0.419547  0.290318  1
  Sc  Sc3  1  0.750000  0.080453  0.790318  1
  Co  Co4  1  0.250000  0.884852  0.697359  1
  Co  Co5  1  0.250000  0.615148  0.197359  1
  Co  Co6  1  0.750000  0.115148  0.302641  1
  Co  Co7  1  0.750000  0.384852  0.802641  1
  Co  Co8  1  0.250000  0.463400  0.931655  1
  Co  Co9  1  0.250000  0.036600  0.431655  1
  Co  Co10  1  0.750000  0.536600  0.068345  1
  Co  Co11  1  0.750000  0.963400  0.568345  1
  P  P12  1  0.250000  0.430467  0.113105  1
  P  P13  1  0.250000  0.069533  0.613105  1
  P  P14  1  0.750000  0.569533  0.886895  1
  P  P15  1  0.750000  0.930467  0.386895  1
  P  P16  1  0.250000  0.271730  0.870615  1
  P  P17  1  0.250000  0.228270  0.370615  1
  P  P18  1  0.750000  0.728270  0.129385  1
  P  P19  1  0.750000  0.771730  0.629385  1
  P  P20  1  0.250000  0.597832  0.379350  1
  P  P21  1  0.250000  0.902168  0.879350  1
  P  P22  1  0.750000  0.402168  0.620650  1
  P  P23  1  0.750000  0.097832  0.120650  1
  Rh  Rh24  1  0.250000  0.716169  0.991118  1
  Rh  Rh25  1  0.250000  0.783831  0.491118  1
  Rh  Rh26  1  0.750000  0.283831  0.008882  1
  Rh  Rh27  1  0.750000  0.216169  0.508882  1
  Rh  Rh28  1  0.250000  0.409196  0.475804  1
  Rh  Rh29  1  0.250000  0.090804  0.975804  1
  Rh  Rh30  1  0.750000  0.590804  0.524196  1
  Rh  Rh31  1  0.750000  0.909196  0.024196  1
  Rh  Rh32  1  0.250000  0.227818  0.181250  1
  Rh  Rh33  1  0.250000  0.272183  0.681250  1
  Rh  Rh34  1  0.750000  0.772183  0.818750  1
  Rh  Rh35  1  0.750000  0.727817  0.318750  1
