# generated using pymatgen
data_DyTa8NbN12
_symmetry_space_group_name_H-M   'P 1'
_cell_length_a   5.27940381
_cell_length_b   5.28526980
_cell_length_c   10.52615292
_cell_angle_alpha   89.97584785
_cell_angle_beta   90.04799965
_cell_angle_gamma   119.92169898
_symmetry_Int_Tables_number   1
_chemical_formula_structural   DyTa8NbN12
_chemical_formula_sum   'Dy1 Ta8 Nb1 N12'
_cell_volume   254.56243813
_cell_formula_units_Z   1
loop_
 _symmetry_equiv_pos_site_id
 _symmetry_equiv_pos_as_xyz
  1  'x, y, z'
loop_
 _atom_site_type_symbol
 _atom_site_label
 _atom_site_symmetry_multiplicity
 _atom_site_fract_x
 _atom_site_fract_y
 _atom_site_fract_z
 _atom_site_occupancy
  Dy  Dy0  1  0.333019  0.668120  0.500193  1
  Ta  Ta1  1  0.665524  0.331855  0.999617  1
  Ta  Ta2  1  0.665713  0.332431  0.499448  1
  Ta  Ta3  1  0.333542  0.668069  0.999719  1
  Ta  Ta4  1  0.675463  0.997926  0.755335  1
  Ta  Ta5  1  0.675293  0.677575  0.245182  1
  Ta  Ta6  1  0.002226  0.324602  0.245153  1
  Ta  Ta7  1  0.002327  0.677261  0.755251  1
  Ta  Ta8  1  0.323007  0.325025  0.755211  1
  Nb  Nb9  1  0.323486  0.997980  0.244245  1
  N  N10  1  0.351803  0.336673  0.369298  1
  N  N11  1  0.671894  0.018494  0.369843  1
  N  N12  1  0.976905  0.643648  0.369403  1
  N  N13  1  0.999914  0.341002  0.882265  1
  N  N14  1  0.663378  0.000245  0.116913  1
  N  N15  1  0.659204  0.658977  0.882230  1
  N  N16  1  0.339847  0.000195  0.882286  1
  N  N17  1  0.666976  0.648002  0.631155  1
  N  N18  1  0.981406  0.333201  0.631214  1
  N  N19  1  0.996069  0.654393  0.117509  1
  N  N20  1  0.351062  0.018702  0.631173  1
  N  N21  1  0.341945  0.345626  0.117358  1
