# generated using pymatgen
data_Pr4Mn3Fe3(PtO10)2
_symmetry_space_group_name_H-M   'P 1'
_cell_length_a   5.93812512
_cell_length_b   7.62454767
_cell_length_c   8.87860262
_cell_angle_alpha   90.14995736
_cell_angle_beta   89.98289511
_cell_angle_gamma   89.98422396
_symmetry_Int_Tables_number   1
_chemical_formula_structural   Pr4Mn3Fe3(PtO10)2
_chemical_formula_sum   'Pr4 Mn3 Fe3 Pt2 O20'
_cell_volume   401.98192338
_cell_formula_units_Z   1
loop_
 _symmetry_equiv_pos_site_id
 _symmetry_equiv_pos_as_xyz
  1  'x, y, z'
loop_
 _atom_site_type_symbol
 _atom_site_label
 _atom_site_symmetry_multiplicity
 _atom_site_fract_x
 _atom_site_fract_y
 _atom_site_fract_z
 _atom_site_occupancy
  Pr  Pr0  1  0.002567  0.361422  0.669442  1
  Pr  Pr1  1  0.002939  0.638338  0.330455  1
  Pr  Pr2  1  0.997286  0.864834  0.828695  1
  Pr  Pr3  1  0.996820  0.133638  0.171370  1
  Mn  Mn4  1  0.503799  0.411168  0.351872  1
  Mn  Mn5  1  0.746105  0.499904  0.000010  1
  Mn  Mn6  1  0.256467  0.000729  0.499832  1
  Fe  Fe7  1  0.495865  0.106298  0.857339  1
  Fe  Fe8  1  0.495856  0.894494  0.143012  1
  Fe  Fe9  1  0.504029  0.606249  0.644170  1
  Pt  Pt10  1  0.252657  0.499968  0.000147  1
  Pt  Pt11  1  0.746758  0.999267  0.500386  1
  O  O12  1  0.248956  0.900938  0.294286  1
  O  O13  1  0.248566  0.097435  0.706312  1
  O  O14  1  0.751578  0.402215  0.205409  1
  O  O15  1  0.750876  0.595985  0.794673  1
  O  O16  1  0.753645  0.100016  0.713806  1
  O  O17  1  0.753387  0.898734  0.286768  1
  O  O18  1  0.245550  0.598357  0.786602  1
  O  O19  1  0.246503  0.399411  0.213342  1
  O  O20  1  0.510010  0.343573  0.935570  1
  O  O21  1  0.509949  0.656440  0.065003  1
  O  O22  1  0.490675  0.842152  0.565403  1
  O  O23  1  0.489017  0.155464  0.437016  1
  O  O24  1  0.270249  0.000025  0.000158  1
  O  O25  1  0.726940  0.498268  0.498734  1
  O  O26  1  0.720318  0.000052  0.000198  1
  O  O27  1  0.282426  0.498212  0.498777  1
  O  O28  1  0.012370  0.159055  0.445939  1
  O  O29  1  0.013168  0.837609  0.554818  1
  O  O30  1  0.987188  0.659969  0.054194  1
  O  O31  1  0.987481  0.339780  0.946266  1
