# generated using pymatgen
data_NaHfP7Ru12
_symmetry_space_group_name_H-M   'P 1'
_cell_length_a   9.40267800
_cell_length_b   9.40267786
_cell_length_c   3.92448400
_cell_angle_alpha   90.00000000
_cell_angle_beta   90.00000000
_cell_angle_gamma   119.99999253
_symmetry_Int_Tables_number   1
_chemical_formula_structural   NaHfP7Ru12
_chemical_formula_sum   'Na1 Hf1 P7 Ru12'
_cell_volume   300.48053786
_cell_formula_units_Z   1
loop_
 _symmetry_equiv_pos_site_id
 _symmetry_equiv_pos_as_xyz
  1  'x, y, z'
loop_
 _atom_site_type_symbol
 _atom_site_label
 _atom_site_symmetry_multiplicity
 _atom_site_fract_x
 _atom_site_fract_y
 _atom_site_fract_z
 _atom_site_occupancy
  Na  Na0  1  0.333333  0.666667  0.000000  1
  Hf  Hf1  1  0.666667  0.333333  0.500000  1
  P  P2  1  0.602806  0.721548  0.500000  1
  P  P3  1  0.000000  0.000000  0.000000  1
  P  P4  1  0.278452  0.881259  0.500000  1
  P  P5  1  0.118741  0.397194  0.500000  1
  P  P6  1  0.888404  0.571150  0.000000  1
  P  P7  1  0.428850  0.317254  0.000000  1
  P  P8  1  0.682746  0.111596  0.000000  1
  Ru  Ru9  1  0.557885  0.959526  0.500000  1
  Ru  Ru10  1  0.401643  0.442115  0.500000  1
  Ru  Ru11  1  0.915503  0.120590  0.500000  1
  Ru  Ru12  1  0.205087  0.084497  0.500000  1
  Ru  Ru13  1  0.879410  0.794913  0.500000  1
  Ru  Ru14  1  0.726462  0.889160  0.000000  1
  Ru  Ru15  1  0.110840  0.837300  0.000000  1
  Ru  Ru16  1  0.162700  0.273538  0.000000  1
  Ru  Ru17  1  0.425211  0.076417  0.000000  1
  Ru  Ru18  1  0.923583  0.348795  0.000000  1
  Ru  Ru19  1  0.651205  0.574789  0.000000  1
  Ru  Ru20  1  0.040474  0.598357  0.500000  1
