# generated using pymatgen
data_Pa4Al24OsPt8
_symmetry_space_group_name_H-M   'P 1'
_cell_length_a   7.56519277
_cell_length_b   7.59386422
_cell_length_c   13.10147356
_cell_angle_alpha   84.74506065
_cell_angle_beta   79.05450303
_cell_angle_gamma   59.85806974
_symmetry_Int_Tables_number   1
_chemical_formula_structural   Pa4Al24OsPt8
_chemical_formula_sum   'Pa4 Al24 Os1 Pt8'
_cell_volume   639.04748170
_cell_formula_units_Z   1
loop_
 _symmetry_equiv_pos_site_id
 _symmetry_equiv_pos_as_xyz
  1  'x, y, z'
loop_
 _atom_site_type_symbol
 _atom_site_label
 _atom_site_symmetry_multiplicity
 _atom_site_fract_x
 _atom_site_fract_y
 _atom_site_fract_z
 _atom_site_occupancy
  Pa  Pa0  1  0.391306  0.171204  0.807557  1
  Pa  Pa1  1  0.608694  0.828796  0.192443  1
  Pa  Pa2  1  0.737040  0.498435  0.807416  1
  Pa  Pa3  1  0.262960  0.501565  0.192584  1
  Al  Al4  1  0.687035  0.830860  0.946335  1
  Al  Al5  1  0.312965  0.169140  0.053665  1
  Al  Al6  1  0.145796  0.833074  0.560943  1
  Al  Al7  1  0.854204  0.166926  0.439057  1
  Al  Al8  1  0.481698  0.166537  0.558448  1
  Al  Al9  1  0.518302  0.833463  0.441552  1
  Al  Al10  1  0.215484  0.164775  0.328949  1
  Al  Al11  1  0.784516  0.835225  0.671051  1
  Al  Al12  1  0.435081  0.509459  0.671261  1
  Al  Al13  1  0.564919  0.490541  0.328739  1
  Al  Al14  1  0.110277  0.157212  0.668637  1
  Al  Al15  1  0.889723  0.842788  0.331363  1
  Al  Al16  1  0.348693  0.499925  0.946543  1
  Al  Al17  1  0.651307  0.500075  0.053457  1
  Al  Al18  1  0.014835  0.170612  0.955454  1
  Al  Al19  1  0.985165  0.829388  0.044546  1
  Al  Al20  1  0.186999  0.499748  0.441795  1
  Al  Al21  1  0.813001  0.500252  0.558205  1
  Al  Al22  1  0.736447  0.161989  0.181991  1
  Al  Al23  1  0.263553  0.838011  0.818009  1
  Al  Al24  1  0.060365  0.633007  0.818748  1
  Al  Al25  1  0.939635  0.366993  0.181252  1
  Al  Al26  1  0.857169  0.041527  0.817653  1
  Al  Al27  1  0.142831  0.958473  0.182347  1
  Os  Os28  1  0.000000  0.500000  0.000000  1
  Pt  Pt29  1  0.119790  0.491316  0.640382  1
  Pt  Pt30  1  0.880210  0.508684  0.359618  1
  Pt  Pt31  1  0.656795  0.171628  0.999901  1
  Pt  Pt32  1  0.343205  0.828372  0.000099  1
  Pt  Pt33  1  0.537037  0.166741  0.360304  1
  Pt  Pt34  1  0.462963  0.833259  0.639696  1
  Pt  Pt35  1  0.777918  0.175641  0.638814  1
  Pt  Pt36  1  0.222082  0.824359  0.361186  1
