# generated using pymatgen
data_CsHgF4
_symmetry_space_group_name_H-M   'P 1'
_cell_length_a   7.97305928
_cell_length_b   7.97305930
_cell_length_c   7.97305969
_cell_angle_alpha   131.07004811
_cell_angle_beta   131.07004982
_cell_angle_gamma   71.70180823
_symmetry_Int_Tables_number   1
_chemical_formula_structural   CsHgF4
_chemical_formula_sum   'Cs2 Hg2 F8'
_cell_volume   281.83788010
_cell_formula_units_Z   2
loop_
 _symmetry_equiv_pos_site_id
 _symmetry_equiv_pos_as_xyz
  1  'x, y, z'
loop_
 _atom_site_type_symbol
 _atom_site_label
 _atom_site_symmetry_multiplicity
 _atom_site_fract_x
 _atom_site_fract_y
 _atom_site_fract_z
 _atom_site_occupancy
  Cs  Cs0  1  0.750000  0.750000  0.000000  1
  Cs  Cs1  1  0.250000  0.250000  0.000000  1
  Hg  Hg2  1  0.000000  0.500000  0.500000  1
  Hg  Hg3  1  0.500000  0.000000  0.500000  1
  F  F4  1  0.272220  0.772220  0.821267  1
  F  F5  1  0.772220  0.950952  0.500000  1
  F  F6  1  0.450952  0.272220  0.500000  1
  F  F7  1  0.227780  0.049048  0.500000  1
  F  F8  1  0.549048  0.727780  0.500000  1
  F  F9  1  0.049048  0.549048  0.821267  1
  F  F10  1  0.727780  0.227780  0.178733  1
  F  F11  1  0.950952  0.450952  0.178733  1
