# generated using pymatgen
data_Sc4TiMn(B2Ir5)2
_symmetry_space_group_name_H-M   'P 1'
_cell_length_a   3.10739800
_cell_length_b   9.41088600
_cell_length_c   9.41088600
_cell_angle_alpha   90.00000000
_cell_angle_beta   90.00000000
_cell_angle_gamma   90.00000000
_symmetry_Int_Tables_number   1
_chemical_formula_structural   Sc4TiMn(B2Ir5)2
_chemical_formula_sum   'Sc4 Ti1 Mn1 B4 Ir10'
_cell_volume   275.20600565
_cell_formula_units_Z   1
loop_
 _symmetry_equiv_pos_site_id
 _symmetry_equiv_pos_as_xyz
  1  'x, y, z'
loop_
 _atom_site_type_symbol
 _atom_site_label
 _atom_site_symmetry_multiplicity
 _atom_site_fract_x
 _atom_site_fract_y
 _atom_site_fract_z
 _atom_site_occupancy
  Sc  Sc0  1  0.000000  0.674145  0.177638  1
  Sc  Sc1  1  0.000000  0.177638  0.325855  1
  Sc  Sc2  1  0.000000  0.822361  0.674145  1
  Sc  Sc3  1  0.000000  0.325855  0.822361  1
  Ti  Ti4  1  0.000000  0.000000  0.000000  1
  Mn  Mn5  1  0.000000  0.499999  0.499999  1
  B  B6  1  0.000000  0.380975  0.126138  1
  B  B7  1  0.000000  0.873862  0.380975  1
  B  B8  1  0.000000  0.126138  0.619025  1
  B  B9  1  0.000000  0.619025  0.873862  1
  Ir  Ir10  1  0.499997  0.499999  0.000000  1
  Ir  Ir11  1  0.499997  0.216853  0.069921  1
  Ir  Ir12  1  0.499997  0.930079  0.216853  1
  Ir  Ir13  1  0.499997  0.428336  0.282962  1
  Ir  Ir14  1  0.499997  0.717038  0.428336  1
  Ir  Ir15  1  0.499997  0.000000  0.499999  1
  Ir  Ir16  1  0.499997  0.282962  0.571664  1
  Ir  Ir17  1  0.499997  0.571664  0.717038  1
  Ir  Ir18  1  0.499997  0.069921  0.783146  1
  Ir  Ir19  1  0.499997  0.783146  0.930079  1
