# generated using pymatgen
data_TbYb2Ce(B4Os)4
_symmetry_space_group_name_H-M   'P 1'
_cell_length_a   3.57628700
_cell_length_b   5.98522585
_cell_length_c   11.57263055
_cell_angle_alpha   90.02012879
_cell_angle_beta   90.00000000
_cell_angle_gamma   90.00000000
_symmetry_Int_Tables_number   1
_chemical_formula_structural   TbYb2Ce(B4Os)4
_chemical_formula_sum   'Tb1 Yb2 Ce1 B16 Os4'
_cell_volume   247.71081552
_cell_formula_units_Z   1
loop_
 _symmetry_equiv_pos_site_id
 _symmetry_equiv_pos_as_xyz
  1  'x, y, z'
loop_
 _atom_site_type_symbol
 _atom_site_label
 _atom_site_symmetry_multiplicity
 _atom_site_fract_x
 _atom_site_fract_y
 _atom_site_fract_z
 _atom_site_occupancy
  Tb  Tb0  1  0.000000  0.128402  0.652282  1
  Yb  Yb1  1  0.000000  0.627446  0.851633  1
  Yb  Yb2  1  0.000000  0.372172  0.147543  1
  Ce  Ce3  1  0.000000  0.871370  0.348134  1
  B  B4  1  0.500000  0.474573  0.692347  1
  B  B5  1  0.500000  0.525520  0.308534  1
  B  B6  1  0.500000  0.974768  0.809804  1
  B  B7  1  0.500000  0.024438  0.189388  1
  B  B8  1  0.500000  0.288329  0.816116  1
  B  B9  1  0.500000  0.712430  0.183706  1
  B  B10  1  0.500000  0.785677  0.687186  1
  B  B11  1  0.500000  0.213794  0.313866  1
  B  B12  1  0.500000  0.363679  0.969683  1
  B  B13  1  0.500000  0.636422  0.030107  1
  B  B14  1  0.500000  0.862864  0.531010  1
  B  B15  1  0.500000  0.136902  0.469358  1
  B  B16  1  0.500000  0.388597  0.547827  1
  B  B17  1  0.500000  0.610595  0.453675  1
  B  B18  1  0.500000  0.886551  0.953527  1
  B  B19  1  0.500000  0.114367  0.045829  1
  Os  Os20  1  0.000000  0.137381  0.909549  1
  Os  Os21  1  0.000000  0.862874  0.090575  1
  Os  Os22  1  0.000000  0.641338  0.591924  1
  Os  Os23  1  0.000000  0.359510  0.406398  1
