# generated using pymatgen
data_NaLiDyPt3
_symmetry_space_group_name_H-M   'P 1'
_cell_length_a   5.48726021
_cell_length_b   5.48726070
_cell_length_c   5.14990886
_cell_angle_alpha   57.80832959
_cell_angle_beta   57.80832916
_cell_angle_gamma   59.99999583
_symmetry_Int_Tables_number   1
_chemical_formula_structural   NaLiDyPt3
_chemical_formula_sum   'Na1 Li1 Dy1 Pt3'
_cell_volume   105.87287084
_cell_formula_units_Z   1
loop_
 _symmetry_equiv_pos_site_id
 _symmetry_equiv_pos_as_xyz
  1  'x, y, z'
loop_
 _atom_site_type_symbol
 _atom_site_label
 _atom_site_symmetry_multiplicity
 _atom_site_fract_x
 _atom_site_fract_y
 _atom_site_fract_z
 _atom_site_occupancy
  Na  Na0  1  0.253034  0.253034  0.240899  1
  Li  Li1  1  0.621890  0.621890  0.134330  1
  Dy  Dy2  1  0.005118  0.005118  0.984645  1
  Pt  Pt3  1  0.623232  0.123493  0.630042  1
  Pt  Pt4  1  0.123493  0.623232  0.630042  1
  Pt  Pt5  1  0.623232  0.623232  0.630042  1
