# generated using pymatgen
data_Dy2VIr3
_symmetry_space_group_name_H-M   'P 1'
_cell_length_a   5.14397446
_cell_length_b   5.14397427
_cell_length_c   5.14397418
_cell_angle_alpha   65.51980228
_cell_angle_beta   65.51980626
_cell_angle_gamma   65.51980863
_symmetry_Int_Tables_number   1
_chemical_formula_structural   Dy2VIr3
_chemical_formula_sum   'Dy2 V1 Ir3'
_cell_volume   107.79318407
_cell_formula_units_Z   1
loop_
 _symmetry_equiv_pos_site_id
 _symmetry_equiv_pos_as_xyz
  1  'x, y, z'
loop_
 _atom_site_type_symbol
 _atom_site_label
 _atom_site_symmetry_multiplicity
 _atom_site_fract_x
 _atom_site_fract_y
 _atom_site_fract_z
 _atom_site_occupancy
  Dy  Dy0  1  0.998299  0.998299  0.998299  1
  Dy  Dy1  1  0.251701  0.251701  0.251701  1
  V  V2  1  0.625001  0.625001  0.625001  1
  Ir  Ir3  1  0.625001  0.625001  0.124999  1
  Ir  Ir4  1  0.124999  0.625001  0.625001  1
  Ir  Ir5  1  0.625001  0.124999  0.625001  1
