# generated using pymatgen
data_Sc4Co6ReSi
_symmetry_space_group_name_H-M   'P 1'
_cell_length_a   5.02628200
_cell_length_b   5.02628209
_cell_length_c   7.67452900
_cell_angle_alpha   90.00000000
_cell_angle_beta   90.00000000
_cell_angle_gamma   119.99999942
_symmetry_Int_Tables_number   1
_chemical_formula_structural   Sc4Co6ReSi
_chemical_formula_sum   'Sc4 Co6 Re1 Si1'
_cell_volume   167.90981204
_cell_formula_units_Z   1
loop_
 _symmetry_equiv_pos_site_id
 _symmetry_equiv_pos_as_xyz
  1  'x, y, z'
loop_
 _atom_site_type_symbol
 _atom_site_label
 _atom_site_symmetry_multiplicity
 _atom_site_fract_x
 _atom_site_fract_y
 _atom_site_fract_z
 _atom_site_occupancy
  Sc  Sc0  1  0.333333  0.666667  0.561544  1
  Sc  Sc1  1  0.666667  0.333333  0.438456  1
  Sc  Sc2  1  0.666667  0.333333  0.063142  1
  Sc  Sc3  1  0.333333  0.666667  0.936858  1
  Co  Co4  1  0.829598  0.170402  0.753902  1
  Co  Co5  1  0.659197  0.829598  0.246098  1
  Co  Co6  1  0.170402  0.829598  0.246098  1
  Co  Co7  1  0.829598  0.659197  0.753902  1
  Co  Co8  1  0.170402  0.340803  0.246098  1
  Co  Co9  1  0.340803  0.170402  0.753902  1
  Re  Re10  1  0.000000  0.000000  0.500000  1
  Si  Si11  1  0.000000  0.000000  0.000000  1
