# generated using pymatgen
data_Dy5Si9P3Ir9Rh10
_symmetry_space_group_name_H-M   'P 1'
_cell_length_a   12.82464589
_cell_length_b   12.82743816
_cell_length_c   3.93342300
_cell_angle_alpha   90.00000000
_cell_angle_beta   90.00000000
_cell_angle_gamma   119.93063352
_symmetry_Int_Tables_number   1
_chemical_formula_structural   Dy5Si9P3Ir9Rh10
_chemical_formula_sum   'Dy5 Si9 P3 Ir9 Rh10'
_cell_volume   560.77641111
_cell_formula_units_Z   1
loop_
 _symmetry_equiv_pos_site_id
 _symmetry_equiv_pos_as_xyz
  1  'x, y, z'
loop_
 _atom_site_type_symbol
 _atom_site_label
 _atom_site_symmetry_multiplicity
 _atom_site_fract_x
 _atom_site_fract_y
 _atom_site_fract_z
 _atom_site_occupancy
  Dy  Dy0  1  0.332811  0.665938  0.500000  1
  Dy  Dy1  1  0.666436  0.333074  0.500000  1
  Dy  Dy2  1  0.999728  0.813244  0.000000  1
  Dy  Dy3  1  0.186621  0.186588  0.000000  1
  Dy  Dy4  1  0.812849  0.999909  0.000000  1
  Si  Si5  1  0.000189  0.629265  0.500000  1
  Si  Si6  1  0.370913  0.370861  0.500000  1
  Si  Si7  1  0.629011  0.000284  0.500000  1
  Si  Si8  1  0.520263  0.686554  0.000000  1
  Si  Si9  1  0.313756  0.834093  0.000000  1
  Si  Si10  1  0.166421  0.479649  0.000000  1
  Si  Si11  1  0.479518  0.165751  0.000000  1
  Si  Si12  1  0.686617  0.520042  0.000000  1
  Si  Si13  1  0.833707  0.313282  0.000000  1
  P  P14  1  0.000341  0.179053  0.500000  1
  P  P15  1  0.820647  0.821201  0.500000  1
  P  P16  1  0.179096  0.000418  0.500000  1
  Ir  Ir17  1  0.127209  0.640661  0.000000  1
  Ir  Ir18  1  0.359843  0.486443  0.000000  1
  Ir  Ir19  1  0.486785  0.359370  0.000000  1
  Ir  Ir20  1  0.873114  0.513395  0.000000  1
  Ir  Ir21  1  0.640644  0.126744  0.000000  1
  Ir  Ir22  1  0.000439  0.276469  0.000000  1
  Ir  Ir23  1  0.723823  0.723516  0.000000  1
  Ir  Ir24  1  0.276128  0.000117  0.000000  1
  Ir  Ir25  1  0.999689  0.999686  0.500000  1
  Rh  Rh26  1  0.513239  0.873050  0.000000  1
  Rh  Rh27  1  0.000481  0.445148  0.500000  1
  Rh  Rh28  1  0.555212  0.555349  0.500000  1
  Rh  Rh29  1  0.444595  0.999995  0.500000  1
  Rh  Rh30  1  0.627127  0.807877  0.500000  1
  Rh  Rh31  1  0.191539  0.819861  0.500000  1
  Rh  Rh32  1  0.180651  0.372275  0.500000  1
  Rh  Rh33  1  0.372034  0.180560  0.500000  1
  Rh  Rh34  1  0.808391  0.628107  0.500000  1
  Rh  Rh35  1  0.820132  0.192168  0.500000  1
