# generated using pymatgen
data_La8Tb3Lu9Si16
_symmetry_space_group_name_H-M   'P 1'
_cell_length_a   7.77275295
_cell_length_b   7.76699943
_cell_length_c   14.31868945
_cell_angle_alpha   89.83155487
_cell_angle_beta   89.87090008
_cell_angle_gamma   90.00248565
_symmetry_Int_Tables_number   1
_chemical_formula_structural   La8Tb3Lu9Si16
_chemical_formula_sum   'La8 Tb3 Lu9 Si16'
_cell_volume   864.42720837
_cell_formula_units_Z   1
loop_
 _symmetry_equiv_pos_site_id
 _symmetry_equiv_pos_as_xyz
  1  'x, y, z'
loop_
 _atom_site_type_symbol
 _atom_site_label
 _atom_site_symmetry_multiplicity
 _atom_site_fract_x
 _atom_site_fract_y
 _atom_site_fract_z
 _atom_site_occupancy
  La  La0  1  0.990486  0.644734  0.038673  1
  La  La1  1  0.008993  0.354763  0.542015  1
  La  La2  1  0.646539  0.992103  0.958950  1
  La  La3  1  0.147393  0.508863  0.788847  1
  La  La4  1  0.855708  0.491721  0.291073  1
  La  La5  1  0.506894  0.145199  0.207837  1
  La  La6  1  0.491583  0.854292  0.711623  1
  La  La7  1  0.355038  0.006826  0.460696  1
  Tb  Tb8  1  0.358538  0.492034  0.376756  1
  Tb  Tb9  1  0.857787  0.008382  0.375022  1
  Tb  Tb10  1  0.992530  0.140190  0.123361  1
  Lu  Lu11  1  0.005298  0.859431  0.626284  1
  Lu  Lu12  1  0.639832  0.505671  0.873558  1
  Lu  Lu13  1  0.493973  0.359573  0.627250  1
  Lu  Lu14  1  0.505875  0.641491  0.123158  1
  Lu  Lu15  1  0.141486  0.995216  0.874696  1
  Lu  Lu16  1  0.681977  0.680555  0.501030  1
  Lu  Lu17  1  0.820696  0.180914  0.749972  1
  Lu  Lu18  1  0.182571  0.817347  0.249846  1
  Lu  Lu19  1  0.320286  0.320015  0.998827  1
  Si  Si20  1  0.060777  0.711538  0.439081  1
  Si  Si21  1  0.937283  0.290831  0.934378  1
  Si  Si22  1  0.710136  0.062765  0.565474  1
  Si  Si23  1  0.211566  0.439410  0.185676  1
  Si  Si24  1  0.788704  0.562074  0.687022  1
  Si  Si25  1  0.437802  0.211712  0.813528  1
  Si  Si26  1  0.560956  0.787417  0.311417  1
  Si  Si27  1  0.289777  0.936227  0.061759  1
  Si  Si28  1  0.852198  0.796091  0.810952  1
  Si  Si29  1  0.151782  0.202139  0.308430  1
  Si  Si30  1  0.792889  0.846614  0.189156  1
  Si  Si31  1  0.294980  0.649967  0.563476  1
  Si  Si32  1  0.700789  0.352971  0.057516  1
  Si  Si33  1  0.650655  0.297841  0.444441  1
  Si  Si34  1  0.351703  0.704990  0.938254  1
  Si  Si35  1  0.204521  0.148095  0.689965  1
