# generated using pymatgen
data_Sr4LuPa2InO12
_symmetry_space_group_name_H-M   'P 1'
_cell_length_a   6.08434900
_cell_length_b   5.96230490
_cell_length_c   10.36800812
_cell_angle_alpha   55.10438107
_cell_angle_beta   89.79720485
_cell_angle_gamma   89.98406374
_symmetry_Int_Tables_number   1
_chemical_formula_structural   Sr4LuPa2InO12
_chemical_formula_sum   'Sr4 Lu1 Pa2 In1 O12'
_cell_volume   308.48735612
_cell_formula_units_Z   1
loop_
 _symmetry_equiv_pos_site_id
 _symmetry_equiv_pos_as_xyz
  1  'x, y, z'
loop_
 _atom_site_type_symbol
 _atom_site_label
 _atom_site_symmetry_multiplicity
 _atom_site_fract_x
 _atom_site_fract_y
 _atom_site_fract_z
 _atom_site_occupancy
  Sr  Sr0  1  0.040830  0.239308  0.248707  1
  Sr  Sr1  1  0.543117  0.763504  0.246714  1
  Sr  Sr2  1  0.456883  0.236496  0.753286  1
  Sr  Sr3  1  0.959170  0.760692  0.751293  1
  Lu  Lu4  1  0.500000  0.000000  0.500000  1
  Pa  Pa5  1  0.500000  0.500000  0.000000  1
  Pa  Pa6  1  0.000000  0.500000  0.500000  1
  In  In7  1  0.000000  0.000000  0.000000  1
  O  O8  1  0.533570  0.653478  0.752209  1
  O  O9  1  0.033470  0.345524  0.748700  1
  O  O10  1  0.466430  0.346522  0.247791  1
  O  O11  1  0.966530  0.654476  0.251300  1
  O  O12  1  0.797506  0.843046  0.450802  1
  O  O13  1  0.295564  0.159410  0.047766  1
  O  O14  1  0.202494  0.156954  0.549198  1
  O  O15  1  0.704436  0.840590  0.952234  1
  O  O16  1  0.209604  0.755541  0.948859  1
  O  O17  1  0.708225  0.244607  0.552233  1
  O  O18  1  0.790396  0.244459  0.051141  1
  O  O19  1  0.291775  0.755393  0.447767  1
