# generated using pymatgen
data_MgZn2Sn(RhO4)2
_symmetry_space_group_name_H-M   'P 1'
_cell_length_a   6.22107233
_cell_length_b   6.16674793
_cell_length_c   6.08306468
_cell_angle_alpha   59.54387119
_cell_angle_beta   59.79686077
_cell_angle_gamma   60.28844753
_symmetry_Int_Tables_number   1
_chemical_formula_structural   MgZn2Sn(RhO4)2
_chemical_formula_sum   'Mg1 Zn2 Sn1 Rh2 O8'
_cell_volume   164.53980174
_cell_formula_units_Z   1
loop_
 _symmetry_equiv_pos_site_id
 _symmetry_equiv_pos_as_xyz
  1  'x, y, z'
loop_
 _atom_site_type_symbol
 _atom_site_label
 _atom_site_symmetry_multiplicity
 _atom_site_fract_x
 _atom_site_fract_y
 _atom_site_fract_z
 _atom_site_occupancy
  Mg  Mg0  1  0.125000  0.125000  0.625000  1
  Zn  Zn1  1  0.509683  0.507938  0.474441  1
  Zn  Zn2  1  0.740317  0.742062  0.775559  1
  Sn  Sn3  1  0.625000  0.125000  0.125000  1
  Rh  Rh4  1  0.125000  0.125000  0.125000  1
  Rh  Rh5  1  0.125000  0.625000  0.125000  1
  O  O6  1  0.365638  0.366331  0.363854  1
  O  O7  1  0.345712  0.883807  0.886675  1
  O  O8  1  0.889157  0.881088  0.348669  1
  O  O9  1  0.884362  0.345825  0.886146  1
  O  O10  1  0.360843  0.368912  0.901331  1
  O  O11  1  0.365638  0.904175  0.363854  1
  O  O12  1  0.884362  0.883669  0.886146  1
  O  O13  1  0.904288  0.366193  0.363325  1
