# generated using pymatgen
data_Li4ZnB4IrRh7
_symmetry_space_group_name_H-M   'P 1'
_cell_length_a   9.45393749
_cell_length_b   9.45393852
_cell_length_c   2.86828000
_cell_angle_alpha   90.00000000
_cell_angle_beta   90.00000000
_cell_angle_gamma   126.72426914
_symmetry_Int_Tables_number   1
_chemical_formula_structural   Li4ZnB4IrRh7
_chemical_formula_sum   'Li4 Zn1 B4 Ir1 Rh7'
_cell_volume   205.47676807
_cell_formula_units_Z   1
loop_
 _symmetry_equiv_pos_site_id
 _symmetry_equiv_pos_as_xyz
  1  'x, y, z'
loop_
 _atom_site_type_symbol
 _atom_site_label
 _atom_site_symmetry_multiplicity
 _atom_site_fract_x
 _atom_site_fract_y
 _atom_site_fract_z
 _atom_site_occupancy
  Li  Li0  1  0.205844  0.794156  0.500000  1
  Li  Li1  1  0.794032  0.205968  0.500000  1
  Li  Li2  1  0.355331  0.354681  0.500000  1
  Li  Li3  1  0.645319  0.644669  0.500000  1
  Zn  Zn4  1  0.000056  0.999944  0.500000  1
  B  B5  1  0.461658  0.153214  0.500000  1
  B  B6  1  0.151926  0.460452  0.500000  1
  B  B7  1  0.539548  0.848074  0.500000  1
  B  B8  1  0.846786  0.538342  0.500000  1
  Ir  Ir9  1  0.638100  0.361900  0.000000  1
  Rh  Rh10  1  0.360885  0.639115  0.000000  1
  Rh  Rh11  1  0.921049  0.734927  0.000000  1
  Rh  Rh12  1  0.079690  0.265639  0.000000  1
  Rh  Rh13  1  0.499251  0.998908  0.000000  1
  Rh  Rh14  1  0.265073  0.078951  0.000000  1
  Rh  Rh15  1  0.734361  0.920310  0.000000  1
  Rh  Rh16  1  0.001092  0.500749  0.000000  1
