# generated using pymatgen
data_Ti4As2RuRh9
_symmetry_space_group_name_H-M   'P 1'
_cell_length_a   3.97936000
_cell_length_b   5.46694535
_cell_length_c   10.63284671
_cell_angle_alpha   90.28006396
_cell_angle_beta   90.00000000
_cell_angle_gamma   90.00000000
_symmetry_Int_Tables_number   1
_chemical_formula_structural   Ti4As2RuRh9
_chemical_formula_sum   'Ti4 As2 Ru1 Rh9'
_cell_volume   231.31421764
_cell_formula_units_Z   1
loop_
 _symmetry_equiv_pos_site_id
 _symmetry_equiv_pos_as_xyz
  1  'x, y, z'
loop_
 _atom_site_type_symbol
 _atom_site_label
 _atom_site_symmetry_multiplicity
 _atom_site_fract_x
 _atom_site_fract_y
 _atom_site_fract_z
 _atom_site_occupancy
  Ti  Ti0  1  0.500000  0.331429  0.146942  1
  Ti  Ti1  1  0.500000  0.669371  0.856405  1
  Ti  Ti2  1  0.500000  0.833532  0.357342  1
  Ti  Ti3  1  0.500000  0.170238  0.641295  1
  As  As4  1  0.000000  0.002187  0.000793  1
  As  As5  1  0.000000  0.496772  0.498410  1
  Ru  Ru6  1  0.500000  0.311600  0.392972  1
  Rh  Rh7  1  0.000000  0.997372  0.500801  1
  Rh  Rh8  1  0.000000  0.501744  0.998930  1
  Rh  Rh9  1  0.000000  0.073079  0.242968  1
  Rh  Rh10  1  0.000000  0.926214  0.757831  1
  Rh  Rh11  1  0.000000  0.573294  0.255782  1
  Rh  Rh12  1  0.000000  0.426124  0.742633  1
  Rh  Rh13  1  0.500000  0.687179  0.607210  1
  Rh  Rh14  1  0.500000  0.810184  0.106973  1
  Rh  Rh15  1  0.500000  0.189680  0.892713  1
