# generated using pymatgen
data_Lu4ZrPt15
_symmetry_space_group_name_H-M   'P 1'
_cell_length_a   4.07985900
_cell_length_b   4.07985900
_cell_length_c   20.29686900
_cell_angle_alpha   90.00000000
_cell_angle_beta   90.00000000
_cell_angle_gamma   90.00000000
_symmetry_Int_Tables_number   1
_chemical_formula_structural   Lu4ZrPt15
_chemical_formula_sum   'Lu4 Zr1 Pt15'
_cell_volume   337.84644776
_cell_formula_units_Z   1
loop_
 _symmetry_equiv_pos_site_id
 _symmetry_equiv_pos_as_xyz
  1  'x, y, z'
loop_
 _atom_site_type_symbol
 _atom_site_label
 _atom_site_symmetry_multiplicity
 _atom_site_fract_x
 _atom_site_fract_y
 _atom_site_fract_z
 _atom_site_occupancy
  Lu  Lu0  1  0.000000  0.000000  0.199719  1
  Lu  Lu1  1  0.000000  0.000000  0.399583  1
  Lu  Lu2  1  0.000000  0.000000  0.600417  1
  Lu  Lu3  1  0.000000  0.000000  0.800281  1
  Zr  Zr4  1  0.000000  0.000000  0.000000  1
  Pt  Pt5  1  0.500000  0.500000  0.000000  1
  Pt  Pt6  1  0.500000  0.500000  0.197845  1
  Pt  Pt7  1  0.500000  0.500000  0.399481  1
  Pt  Pt8  1  0.500000  0.500000  0.600519  1
  Pt  Pt9  1  0.500000  0.500000  0.802155  1
  Pt  Pt10  1  0.500000  0.000000  0.097331  1
  Pt  Pt11  1  0.500000  0.000000  0.298996  1
  Pt  Pt12  1  0.500000  0.000000  0.500000  1
  Pt  Pt13  1  0.500000  0.000000  0.701004  1
  Pt  Pt14  1  0.500000  0.000000  0.902669  1
  Pt  Pt15  1  0.000000  0.500000  0.097331  1
  Pt  Pt16  1  0.000000  0.500000  0.298996  1
  Pt  Pt17  1  0.000000  0.500000  0.500000  1
  Pt  Pt18  1  0.000000  0.500000  0.701004  1
  Pt  Pt19  1  0.000000  0.500000  0.902669  1
