# generated using pymatgen
data_La2Mn3Ni9As7
_symmetry_space_group_name_H-M   'P 1'
_cell_length_a   9.53383300
_cell_length_b   9.53383375
_cell_length_c   3.93108300
_cell_angle_alpha   90.00000000
_cell_angle_beta   90.00000000
_cell_angle_gamma   120.00000272
_symmetry_Int_Tables_number   1
_chemical_formula_structural   La2Mn3Ni9As7
_chemical_formula_sum   'La2 Mn3 Ni9 As7'
_cell_volume   309.44106582
_cell_formula_units_Z   1
loop_
 _symmetry_equiv_pos_site_id
 _symmetry_equiv_pos_as_xyz
  1  'x, y, z'
loop_
 _atom_site_type_symbol
 _atom_site_label
 _atom_site_symmetry_multiplicity
 _atom_site_fract_x
 _atom_site_fract_y
 _atom_site_fract_z
 _atom_site_occupancy
  La  La0  1  0.333333  0.666667  0.000000  1
  La  La1  1  0.666667  0.333333  0.500000  1
  Mn  Mn2  1  0.216995  0.112116  0.500000  1
  Mn  Mn3  1  0.887884  0.104879  0.500000  1
  Mn  Mn4  1  0.895121  0.783005  0.500000  1
  Ni  Ni5  1  0.130375  0.277706  0.000000  1
  Ni  Ni6  1  0.722294  0.852670  0.000000  1
  Ni  Ni7  1  0.147330  0.869625  0.000000  1
  Ni  Ni8  1  0.427417  0.363326  0.000000  1
  Ni  Ni9  1  0.636674  0.064092  0.000000  1
  Ni  Ni10  1  0.935908  0.572583  0.000000  1
  Ni  Ni11  1  0.054648  0.426131  0.500000  1
  Ni  Ni12  1  0.573869  0.628517  0.500000  1
  Ni  Ni13  1  0.371483  0.945352  0.500000  1
  As  As14  1  0.300383  0.402783  0.500000  1
  As  As15  1  0.597217  0.897600  0.500000  1
  As  As16  1  0.102400  0.699617  0.500000  1
  As  As17  1  0.406043  0.102092  0.000000  1
  As  As18  1  0.897908  0.303952  0.000000  1
  As  As19  1  0.696048  0.593957  0.000000  1
  As  As20  1  0.000000  0.000000  0.000000  1
