# generated using pymatgen
data_Hf5ZrTi4Ga5Sb
_symmetry_space_group_name_H-M   'P 1'
_cell_length_a   7.95431200
_cell_length_b   7.96214676
_cell_length_c   5.47366900
_cell_angle_alpha   90.00000000
_cell_angle_beta   90.00000000
_cell_angle_gamma   119.96746316
_symmetry_Int_Tables_number   1
_chemical_formula_structural   Hf5ZrTi4Ga5Sb
_chemical_formula_sum   'Hf5 Zr1 Ti4 Ga5 Sb1'
_cell_volume   300.32000240
_cell_formula_units_Z   1
loop_
 _symmetry_equiv_pos_site_id
 _symmetry_equiv_pos_as_xyz
  1  'x, y, z'
loop_
 _atom_site_type_symbol
 _atom_site_label
 _atom_site_symmetry_multiplicity
 _atom_site_fract_x
 _atom_site_fract_y
 _atom_site_fract_z
 _atom_site_occupancy
  Hf  Hf0  1  0.231574  0.000000  0.250000  1
  Hf  Hf1  1  0.011614  0.252730  0.250000  1
  Hf  Hf2  1  0.998183  0.753457  0.750000  1
  Hf  Hf3  1  0.758884  0.747270  0.250000  1
  Hf  Hf4  1  0.244726  0.246543  0.750000  1
  Zr  Zr5  1  0.761301  0.000000  0.750000  1
  Ti  Ti6  1  0.327858  0.658190  0.996641  1
  Ti  Ti7  1  0.669669  0.341810  0.996641  1
  Ti  Ti8  1  0.669669  0.341810  0.503359  1
  Ti  Ti9  1  0.327858  0.658190  0.503359  1
  Ga  Ga10  1  0.395488  0.000000  0.750000  1
  Ga  Ga11  1  0.002782  0.600977  0.250000  1
  Ga  Ga12  1  0.998595  0.398439  0.750000  1
  Ga  Ga13  1  0.401805  0.399023  0.250000  1
  Ga  Ga14  1  0.600156  0.601561  0.750000  1
  Sb  Sb15  1  0.599841  0.000000  0.250000  1
