# generated using pymatgen
data_Pr4Cu3Ni11
_symmetry_space_group_name_H-M   'P 1'
_cell_length_a   5.05544425
_cell_length_b   5.05544392
_cell_length_c   12.63326291
_cell_angle_alpha   78.45809975
_cell_angle_beta   78.45808693
_cell_angle_gamma   59.99999526
_symmetry_Int_Tables_number   1
_chemical_formula_structural   Pr4Cu3Ni11
_chemical_formula_sum   'Pr4 Cu3 Ni11'
_cell_volume   272.05264857
_cell_formula_units_Z   1
loop_
 _symmetry_equiv_pos_site_id
 _symmetry_equiv_pos_as_xyz
  1  'x, y, z'
loop_
 _atom_site_type_symbol
 _atom_site_label
 _atom_site_symmetry_multiplicity
 _atom_site_fract_x
 _atom_site_fract_y
 _atom_site_fract_z
 _atom_site_occupancy
  Pr  Pr0  1  0.950607  0.950607  0.148178  1
  Pr  Pr1  1  0.050473  0.050473  0.848583  1
  Pr  Pr2  1  0.853032  0.853032  0.440904  1
  Pr  Pr3  1  0.146845  0.146845  0.559464  1
  Cu  Cu4  1  0.721778  0.721778  0.834665  1
  Cu  Cu5  1  0.278341  0.278341  0.164978  1
  Cu  Cu6  1  0.611876  0.611876  0.164371  1
  Ni  Ni7  1  0.499842  0.499842  0.500474  1
  Ni  Ni8  1  0.387919  0.387919  0.836242  1
  Ni  Ni9  1  0.001264  0.499738  0.999260  1
  Ni  Ni10  1  0.499738  0.001264  0.999260  1
  Ni  Ni11  1  0.499738  0.499738  0.999260  1
  Ni  Ni12  1  0.391082  0.391082  0.329111  1
  Ni  Ni13  1  0.888725  0.391082  0.329111  1
  Ni  Ni14  1  0.391082  0.888725  0.329111  1
  Ni  Ni15  1  0.608013  0.608013  0.672342  1
  Ni  Ni16  1  0.111632  0.608013  0.672342  1
  Ni  Ni17  1  0.608013  0.111632  0.672342  1
