# generated using pymatgen
data_Th2Si2As4Pd21
_symmetry_space_group_name_H-M   'P 1'
_cell_length_a   8.83731271
_cell_length_b   8.83731256
_cell_length_c   8.80231200
_cell_angle_alpha   60.13092747
_cell_angle_beta   60.13092804
_cell_angle_gamma   59.71143972
_symmetry_Int_Tables_number   1
_chemical_formula_structural   Th2Si2As4Pd21
_chemical_formula_sum   'Th2 Si2 As4 Pd21'
_cell_volume   485.98073628
_cell_formula_units_Z   1
loop_
 _symmetry_equiv_pos_site_id
 _symmetry_equiv_pos_as_xyz
  1  'x, y, z'
loop_
 _atom_site_type_symbol
 _atom_site_label
 _atom_site_symmetry_multiplicity
 _atom_site_fract_x
 _atom_site_fract_y
 _atom_site_fract_z
 _atom_site_occupancy
  Th  Th0  1  0.750025  0.750025  0.749680  1
  Th  Th1  1  0.249975  0.249975  0.249729  1
  Si  Si2  1  0.739913  0.260087  0.739630  1
  Si  Si3  1  0.260087  0.739913  0.739630  1
  As  As4  1  0.738888  0.738888  0.260479  1
  As  As5  1  0.260392  0.739608  0.259862  1
  As  As6  1  0.739608  0.260392  0.259862  1
  As  As7  1  0.261112  0.261112  0.738255  1
  Pd  Pd8  1  0.000000  0.000000  0.996974  1
  Pd  Pd9  1  0.616983  0.616983  0.150286  1
  Pd  Pd10  1  0.619060  0.151856  0.620012  1
  Pd  Pd11  1  0.151856  0.619060  0.620012  1
  Pd  Pd12  1  0.613124  0.613124  0.621209  1
  Pd  Pd13  1  0.386876  0.386876  0.847458  1
  Pd  Pd14  1  0.380940  0.848144  0.390929  1
  Pd  Pd15  1  0.848144  0.380940  0.390929  1
  Pd  Pd16  1  0.383017  0.383017  0.384253  1
  Pd  Pd17  1  0.000000  0.000000  0.351361  1
  Pd  Pd18  1  0.648793  0.001623  0.348559  1
  Pd  Pd19  1  0.001623  0.648793  0.348559  1
  Pd  Pd20  1  0.651986  0.348014  0.994538  1
  Pd  Pd21  1  0.998377  0.351207  0.998975  1
  Pd  Pd22  1  0.995456  0.345447  0.652108  1
  Pd  Pd23  1  0.348014  0.651986  0.994538  1
  Pd  Pd24  1  0.345447  0.995456  0.652108  1
  Pd  Pd25  1  0.351207  0.998377  0.998975  1
  Pd  Pd26  1  0.000000  0.000000  0.655074  1
  Pd  Pd27  1  0.004544  0.654553  0.993011  1
  Pd  Pd28  1  0.654553  0.004544  0.993011  1
