# generated using pymatgen
data_Y3TmAl15(SiRh2)3
_symmetry_space_group_name_H-M   'P 1'
_cell_length_a   7.54300734
_cell_length_b   7.48200628
_cell_length_c   9.39415446
_cell_angle_alpha   89.97557738
_cell_angle_beta   89.94879001
_cell_angle_gamma   119.82366739
_symmetry_Int_Tables_number   1
_chemical_formula_structural   Y3TmAl15(SiRh2)3
_chemical_formula_sum   'Y3 Tm1 Al15 Si3 Rh6'
_cell_volume   459.95936920
_cell_formula_units_Z   1
loop_
 _symmetry_equiv_pos_site_id
 _symmetry_equiv_pos_as_xyz
  1  'x, y, z'
loop_
 _atom_site_type_symbol
 _atom_site_label
 _atom_site_symmetry_multiplicity
 _atom_site_fract_x
 _atom_site_fract_y
 _atom_site_fract_z
 _atom_site_occupancy
  Y  Y0  1  0.006550  0.342078  0.754082  1
  Y  Y1  1  0.675600  0.001569  0.247654  1
  Y  Y2  1  0.318927  0.991378  0.749885  1
  Tm  Tm3  1  0.994069  0.664226  0.247150  1
  Al  Al4  1  0.128607  0.125525  0.249897  1
  Al  Al5  1  0.871571  0.871075  0.749247  1
  Al  Al6  1  0.337779  0.002127  0.422207  1
  Al  Al7  1  0.001487  0.331169  0.428856  1
  Al  Al8  1  0.666373  0.001895  0.575439  1
  Al  Al9  1  0.662261  0.998083  0.922412  1
  Al  Al10  1  0.337805  0.002242  0.077983  1
  Al  Al11  1  0.333424  0.331258  0.554966  1
  Al  Al12  1  0.664150  0.667808  0.445271  1
  Al  Al13  1  0.663782  0.667464  0.056183  1
  Al  Al14  1  0.335758  0.331895  0.945470  1
  Al  Al15  1  0.337228  0.550731  0.250223  1
  Al  Al16  1  0.661865  0.449888  0.750398  1
  Al  Al17  1  0.549273  0.344404  0.249912  1
  Al  Al18  1  0.455321  0.657804  0.749786  1
  Si  Si19  1  0.002702  0.329904  0.076869  1
  Si  Si20  1  0.996869  0.671768  0.931725  1
  Si  Si21  1  0.998325  0.665563  0.563825  1
  Rh  Rh22  1  0.689681  0.337875  0.001963  1
  Rh  Rh23  1  0.310550  0.662988  0.997801  1
  Rh  Rh24  1  0.319368  0.670528  0.502231  1
  Rh  Rh25  1  0.680323  0.336504  0.499203  1
  Rh  Rh26  1  0.999859  0.999715  0.999702  1
  Rh  Rh27  1  0.000490  0.992539  0.499662  1
