# generated using pymatgen
data_Si16Mo3Pt10Rh2W
_symmetry_space_group_name_H-M   'P 1'
_cell_length_a   3.51329900
_cell_length_b   5.53324304
_cell_length_c   24.60022219
_cell_angle_alpha   90.01416542
_cell_angle_beta   90.00000000
_cell_angle_gamma   90.00000000
_symmetry_Int_Tables_number   1
_chemical_formula_structural   Si16Mo3Pt10Rh2W
_chemical_formula_sum   'Si16 Mo3 Pt10 Rh2 W1'
_cell_volume   478.22676099
_cell_formula_units_Z   1
loop_
 _symmetry_equiv_pos_site_id
 _symmetry_equiv_pos_as_xyz
  1  'x, y, z'
loop_
 _atom_site_type_symbol
 _atom_site_label
 _atom_site_symmetry_multiplicity
 _atom_site_fract_x
 _atom_site_fract_y
 _atom_site_fract_z
 _atom_site_occupancy
  Si  Si0  1  0.250000  0.175989  0.521174  1
  Si  Si1  1  0.750000  0.324023  0.021197  1
  Si  Si2  1  0.250000  0.672317  0.982564  1
  Si  Si3  1  0.750000  0.827640  0.482538  1
  Si  Si4  1  0.750000  0.319701  0.643919  1
  Si  Si5  1  0.250000  0.180758  0.144140  1
  Si  Si6  1  0.750000  0.819890  0.854245  1
  Si  Si7  1  0.250000  0.680120  0.354111  1
  Si  Si8  1  0.250000  0.667933  0.608758  1
  Si  Si9  1  0.750000  0.831765  0.108882  1
  Si  Si10  1  0.250000  0.161822  0.890503  1
  Si  Si11  1  0.750000  0.338298  0.390433  1
  Si  Si12  1  0.750000  0.830256  0.725983  1
  Si  Si13  1  0.250000  0.670526  0.225948  1
  Si  Si14  1  0.750000  0.329943  0.773743  1
  Si  Si15  1  0.250000  0.168937  0.273503  1
  Mo  Mo16  1  0.750000  0.997012  0.209751  1
  Mo  Mo17  1  0.250000  0.004723  0.789530  1
  Mo  Mo18  1  0.750000  0.494832  0.289666  1
  Pt  Pt19  1  0.750000  0.502400  0.925451  1
  Pt  Pt20  1  0.250000  0.997630  0.425536  1
  Pt  Pt21  1  0.250000  0.005687  0.670268  1
  Pt  Pt22  1  0.750000  0.494719  0.170172  1
  Pt  Pt23  1  0.250000  0.504184  0.829909  1
  Pt  Pt24  1  0.750000  0.996127  0.329960  1
  Pt  Pt25  1  0.750000  0.500700  0.549086  1
  Pt  Pt26  1  0.250000  0.999393  0.049005  1
  Pt  Pt27  1  0.750000  0.003580  0.951371  1
  Pt  Pt28  1  0.250000  0.496423  0.451418  1
  Rh  Rh29  1  0.750000  0.000222  0.573845  1
  Rh  Rh30  1  0.250000  0.499648  0.073659  1
  W  W31  1  0.250000  0.502801  0.709733  1
