# generated using pymatgen
data_Er6Be(P3Rh5)4
_symmetry_space_group_name_H-M   'P 1'
_cell_length_a   13.31096500
_cell_length_b   13.31096352
_cell_length_c   3.89601800
_cell_angle_alpha   90.00000000
_cell_angle_beta   90.00000000
_cell_angle_gamma   119.99999621
_symmetry_Int_Tables_number   1
_chemical_formula_structural   Er6Be(P3Rh5)4
_chemical_formula_sum   'Er6 Be1 P12 Rh20'
_cell_volume   597.82027196
_cell_formula_units_Z   1
loop_
 _symmetry_equiv_pos_site_id
 _symmetry_equiv_pos_as_xyz
  1  'x, y, z'
loop_
 _atom_site_type_symbol
 _atom_site_label
 _atom_site_symmetry_multiplicity
 _atom_site_fract_x
 _atom_site_fract_y
 _atom_site_fract_z
 _atom_site_occupancy
  Er  Er0  1  0.530952  0.717522  0.248088  1
  Er  Er1  1  0.282478  0.813429  0.248088  1
  Er  Er2  1  0.186571  0.469048  0.248088  1
  Er  Er3  1  0.469048  0.282478  0.751912  1
  Er  Er4  1  0.717522  0.186571  0.751912  1
  Er  Er5  1  0.813429  0.530952  0.751912  1
  Be  Be6  1  0.000000  0.000000  0.000000  1
  P  P7  1  0.526975  0.139956  0.250934  1
  P  P8  1  0.860044  0.387021  0.250934  1
  P  P9  1  0.612979  0.473025  0.250934  1
  P  P10  1  0.948540  0.719376  0.252602  1
  P  P11  1  0.280624  0.229165  0.252602  1
  P  P12  1  0.770835  0.051460  0.252602  1
  P  P13  1  0.387021  0.526975  0.749066  1
  P  P14  1  0.473025  0.860044  0.749066  1
  P  P15  1  0.139956  0.612979  0.749066  1
  P  P16  1  0.719376  0.770835  0.747398  1
  P  P17  1  0.229165  0.948540  0.747398  1
  P  P18  1  0.051460  0.280624  0.747398  1
  Rh  Rh19  1  0.333333  0.666667  0.752621  1
  Rh  Rh20  1  0.919514  0.249082  0.252692  1
  Rh  Rh21  1  0.750918  0.670432  0.252692  1
  Rh  Rh22  1  0.329568  0.080486  0.252692  1
  Rh  Rh23  1  0.438922  0.023804  0.750728  1
  Rh  Rh24  1  0.976196  0.415119  0.750728  1
  Rh  Rh25  1  0.584881  0.561078  0.750728  1
  Rh  Rh26  1  0.666667  0.333333  0.247379  1
  Rh  Rh27  1  0.091333  0.190754  0.243877  1
  Rh  Rh28  1  0.809246  0.900579  0.243877  1
  Rh  Rh29  1  0.099421  0.908667  0.243877  1
  Rh  Rh30  1  0.023804  0.584881  0.249272  1
  Rh  Rh31  1  0.415119  0.438922  0.249272  1
  Rh  Rh32  1  0.561078  0.976196  0.249272  1
  Rh  Rh33  1  0.670432  0.919514  0.747308  1
  Rh  Rh34  1  0.080486  0.750918  0.747308  1
  Rh  Rh35  1  0.249082  0.329568  0.747308  1
  Rh  Rh36  1  0.908667  0.809246  0.756123  1
  Rh  Rh37  1  0.190754  0.099421  0.756123  1
  Rh  Rh38  1  0.900579  0.091333  0.756123  1
