# generated using pymatgen
data_LaYbY5OsBr12
_symmetry_space_group_name_H-M   'P 1'
_cell_length_a   9.24293132
_cell_length_b   9.41879358
_cell_length_c   9.45185497
_cell_angle_alpha   106.88977153
_cell_angle_beta   106.66853854
_cell_angle_gamma   107.36374449
_symmetry_Int_Tables_number   1
_chemical_formula_structural   LaYbY5OsBr12
_chemical_formula_sum   'La1 Yb1 Y5 Os1 Br12'
_cell_volume   685.74423123
_cell_formula_units_Z   1
loop_
 _symmetry_equiv_pos_site_id
 _symmetry_equiv_pos_as_xyz
  1  'x, y, z'
loop_
 _atom_site_type_symbol
 _atom_site_label
 _atom_site_symmetry_multiplicity
 _atom_site_fract_x
 _atom_site_fract_y
 _atom_site_fract_z
 _atom_site_occupancy
  La  La0  1  0.694249  0.896707  0.976637  1
  Yb  Yb1  1  0.501490  0.499263  0.497160  1
  Y  Y2  1  0.296051  0.101835  0.024628  1
  Y  Y3  1  0.023917  0.319308  0.109383  1
  Y  Y4  1  0.111922  0.026479  0.318822  1
  Y  Y5  1  0.893795  0.975014  0.684924  1
  Y  Y6  1  0.972693  0.680776  0.890365  1
  Os  Os7  1  0.988448  0.996530  0.001475  1
  Br  Br8  1  0.682965  0.232584  0.074154  1
  Br  Br9  1  0.374252  0.452113  0.159717  1
  Br  Br10  1  0.071994  0.678905  0.213888  1
  Br  Br11  1  0.794448  0.934700  0.335059  1
  Br  Br12  1  0.457247  0.160923  0.371568  1
  Br  Br13  1  0.160353  0.375209  0.456905  1
  Br  Br14  1  0.844593  0.625811  0.544220  1
  Br  Br15  1  0.541278  0.834386  0.608456  1
  Br  Br16  1  0.219750  0.071631  0.686688  1
  Br  Br17  1  0.932732  0.322422  0.787013  1
  Br  Br18  1  0.623768  0.528727  0.827047  1
  Br  Br19  1  0.314061  0.786681  0.931895  1
