# generated using pymatgen
data_BeNb4B3Mo2
_symmetry_space_group_name_H-M   'P 1'
_cell_length_a   6.21727245
_cell_length_b   6.21727245
_cell_length_c   3.28977000
_cell_angle_alpha   90.00000000
_cell_angle_beta   90.00000000
_cell_angle_gamma   90.04379244
_symmetry_Int_Tables_number   1
_chemical_formula_structural   BeNb4B3Mo2
_chemical_formula_sum   'Be1 Nb4 B3 Mo2'
_cell_volume   127.16430089
_cell_formula_units_Z   1
loop_
 _symmetry_equiv_pos_site_id
 _symmetry_equiv_pos_as_xyz
  1  'x, y, z'
loop_
 _atom_site_type_symbol
 _atom_site_label
 _atom_site_symmetry_multiplicity
 _atom_site_fract_x
 _atom_site_fract_y
 _atom_site_fract_z
 _atom_site_occupancy
  Be  Be0  1  0.111630  0.611630  0.000000  1
  Nb  Nb1  1  0.678987  0.178987  0.500000  1
  Nb  Nb2  1  0.327725  0.827725  0.500000  1
  Nb  Nb3  1  0.180270  0.314539  0.500000  1
  Nb  Nb4  1  0.814539  0.680270  0.500000  1
  B  B5  1  0.885954  0.385954  0.000000  1
  B  B6  1  0.608783  0.891612  0.000000  1
  B  B7  1  0.391612  0.108783  0.000000  1
  Mo  Mo8  1  0.997861  0.002639  0.000000  1
  Mo  Mo9  1  0.502639  0.497861  0.000000  1
