# generated using pymatgen
data_Zr6Zn18PRh5
_symmetry_space_group_name_H-M   'P 1'
_cell_length_a   8.72706108
_cell_length_b   8.72706041
_cell_length_c   8.72706000
_cell_angle_alpha   60.09910344
_cell_angle_beta   60.09910599
_cell_angle_gamma   60.09911190
_symmetry_Int_Tables_number   1
_chemical_formula_structural   Zr6Zn18PRh5
_chemical_formula_sum   'Zr6 Zn18 P1 Rh5'
_cell_volume   471.04578189
_cell_formula_units_Z   1
loop_
 _symmetry_equiv_pos_site_id
 _symmetry_equiv_pos_as_xyz
  1  'x, y, z'
loop_
 _atom_site_type_symbol
 _atom_site_label
 _atom_site_symmetry_multiplicity
 _atom_site_fract_x
 _atom_site_fract_y
 _atom_site_fract_z
 _atom_site_occupancy
  Zr  Zr0  1  0.710899  0.288514  0.288514  1
  Zr  Zr1  1  0.289101  0.711486  0.711486  1
  Zr  Zr2  1  0.288514  0.710899  0.288514  1
  Zr  Zr3  1  0.711486  0.289101  0.711486  1
  Zr  Zr4  1  0.288514  0.288514  0.710899  1
  Zr  Zr5  1  0.711486  0.711486  0.289101  1
  Zn  Zn6  1  0.120676  0.120676  0.634845  1
  Zn  Zn7  1  0.120676  0.634845  0.120676  1
  Zn  Zn8  1  0.879324  0.879324  0.365155  1
  Zn  Zn9  1  0.879324  0.365155  0.879324  1
  Zn  Zn10  1  0.634845  0.120676  0.120676  1
  Zn  Zn11  1  0.365155  0.879324  0.879324  1
  Zn  Zn12  1  0.500000  0.000000  0.000000  1
  Zn  Zn13  1  0.000000  0.500000  0.000000  1
  Zn  Zn14  1  0.000000  0.000000  0.500000  1
  Zn  Zn15  1  0.334460  0.334460  0.334460  1
  Zn  Zn16  1  0.665540  0.665540  0.665540  1
  Zn  Zn17  1  0.331383  0.331383  0.998149  1
  Zn  Zn18  1  0.331383  0.998149  0.331383  1
  Zn  Zn19  1  0.668617  0.668617  0.001851  1
  Zn  Zn20  1  0.668617  0.001851  0.668617  1
  Zn  Zn21  1  0.998149  0.331383  0.331383  1
  Zn  Zn22  1  0.001851  0.668617  0.668617  1
  Zn  Zn23  1  0.000000  0.000000  0.000000  1
  P  P24  1  0.500000  0.500000  0.500000  1
  Rh  Rh25  1  0.119274  0.119274  0.119274  1
  Rh  Rh26  1  0.880726  0.880726  0.880726  1
  Rh  Rh27  1  0.000000  0.500000  0.500000  1
  Rh  Rh28  1  0.500000  0.000000  0.500000  1
  Rh  Rh29  1  0.500000  0.500000  0.000000  1
