# generated using pymatgen
data_RbNb6BiCl18
_symmetry_space_group_name_H-M   'P 1'
_cell_length_a   10.31532982
_cell_length_b   10.31532928
_cell_length_c   10.31533100
_cell_angle_alpha   55.48556106
_cell_angle_beta   55.48556313
_cell_angle_gamma   55.48556464
_symmetry_Int_Tables_number   1
_chemical_formula_structural   RbNb6BiCl18
_chemical_formula_sum   'Rb1 Nb6 Bi1 Cl18'
_cell_volume   694.77310164
_cell_formula_units_Z   1
loop_
 _symmetry_equiv_pos_site_id
 _symmetry_equiv_pos_as_xyz
  1  'x, y, z'
loop_
 _atom_site_type_symbol
 _atom_site_label
 _atom_site_symmetry_multiplicity
 _atom_site_fract_x
 _atom_site_fract_y
 _atom_site_fract_z
 _atom_site_occupancy
  Rb  Rb0  1  0.222177  0.222177  0.222177  1
  Nb  Nb1  1  0.802894  0.147947  0.911524  1
  Nb  Nb2  1  0.911524  0.802894  0.147947  1
  Nb  Nb3  1  0.147947  0.911524  0.802894  1
  Nb  Nb4  1  0.197662  0.852410  0.087380  1
  Nb  Nb5  1  0.087380  0.197662  0.852410  1
  Nb  Nb6  1  0.852410  0.087380  0.197662  1
  Bi  Bi7  1  0.498271  0.498271  0.498271  1
  Cl  Cl8  1  0.867422  0.408312  0.726865  1
  Cl  Cl9  1  0.726865  0.867422  0.408312  1
  Cl  Cl10  1  0.408312  0.726865  0.867422  1
  Cl  Cl11  1  0.132219  0.591162  0.274681  1
  Cl  Cl12  1  0.274681  0.132219  0.591162  1
  Cl  Cl13  1  0.591162  0.274681  0.132219  1
  Cl  Cl14  1  0.539903  0.336028  0.806448  1
  Cl  Cl15  1  0.806448  0.539903  0.336028  1
  Cl  Cl16  1  0.336028  0.806448  0.539903  1
  Cl  Cl17  1  0.456599  0.664717  0.197606  1
  Cl  Cl18  1  0.197606  0.456599  0.664717  1
  Cl  Cl19  1  0.664717  0.197606  0.456599  1
  Cl  Cl20  1  0.663916  0.940493  0.070145  1
  Cl  Cl21  1  0.070145  0.663916  0.940493  1
  Cl  Cl22  1  0.940493  0.070145  0.663916  1
  Cl  Cl23  1  0.337616  0.058754  0.927987  1
  Cl  Cl24  1  0.927987  0.337616  0.058754  1
  Cl  Cl25  1  0.058754  0.927987  0.337616  1
