# generated using pymatgen
data_CaAcCd4
_symmetry_space_group_name_H-M   'P 1'
_cell_length_a   5.12737845
_cell_length_b   6.35662704
_cell_length_c   6.35662688
_cell_angle_alpha   103.41080858
_cell_angle_beta   66.21475364
_cell_angle_gamma   113.78525074
_symmetry_Int_Tables_number   1
_chemical_formula_structural   CaAcCd4
_chemical_formula_sum   'Ca1 Ac1 Cd4'
_cell_volume   172.88608007
_cell_formula_units_Z   1
loop_
 _symmetry_equiv_pos_site_id
 _symmetry_equiv_pos_as_xyz
  1  'x, y, z'
loop_
 _atom_site_type_symbol
 _atom_site_label
 _atom_site_symmetry_multiplicity
 _atom_site_fract_x
 _atom_site_fract_y
 _atom_site_fract_z
 _atom_site_occupancy
  Ca  Ca0  1  0.529319  0.779318  0.720682  1
  Ac  Ac1  1  0.466069  0.216069  0.283932  1
  Cd  Cd2  1  0.834387  0.795380  0.126607  1
  Cd  Cd3  1  0.167920  0.623639  0.287800  1
  Cd  Cd4  1  0.834386  0.373393  0.704620  1
  Cd  Cd5  1  0.167921  0.212201  0.876361  1
