# generated using pymatgen
data_HoEr7Ti11NbSi16
_symmetry_space_group_name_H-M   'P 1'
_cell_length_a   7.02559326
_cell_length_b   7.02557942
_cell_length_c   12.91420001
_cell_angle_alpha   89.96639338
_cell_angle_beta   90.03253178
_cell_angle_gamma   90.01085931
_symmetry_Int_Tables_number   1
_chemical_formula_structural   HoEr7Ti11NbSi16
_chemical_formula_sum   'Ho1 Er7 Ti11 Nb1 Si16'
_cell_volume   637.43001064
_cell_formula_units_Z   1
loop_
 _symmetry_equiv_pos_site_id
 _symmetry_equiv_pos_as_xyz
  1  'x, y, z'
loop_
 _atom_site_type_symbol
 _atom_site_label
 _atom_site_symmetry_multiplicity
 _atom_site_fract_x
 _atom_site_fract_y
 _atom_site_fract_z
 _atom_site_occupancy
  Ho  Ho0  1  0.340868  0.002587  0.466708  1
  Er  Er1  1  0.497609  0.840764  0.716891  1
  Er  Er2  1  0.501852  0.158685  0.216497  1
  Er  Er3  1  0.840780  0.497599  0.283119  1
  Er  Er4  1  0.158649  0.501831  0.783490  1
  Er  Er5  1  0.658245  0.998334  0.966619  1
  Er  Er6  1  0.002502  0.340915  0.533318  1
  Er  Er7  1  0.998325  0.658224  0.033370  1
  Ti  Ti8  1  0.173391  0.826794  0.250076  1
  Ti  Ti9  1  0.826802  0.173409  0.749915  1
  Ti  Ti10  1  0.672868  0.672823  0.499999  1
  Ti  Ti11  1  0.152605  0.008387  0.875884  1
  Ti  Ti12  1  0.491962  0.650610  0.124923  1
  Ti  Ti13  1  0.507805  0.348991  0.625554  1
  Ti  Ti14  1  0.650623  0.491959  0.875074  1
  Ti  Ti15  1  0.348982  0.507786  0.374445  1
  Ti  Ti16  1  0.848356  0.992608  0.375653  1
  Ti  Ti17  1  0.008379  0.152610  0.124118  1
  Ti  Ti18  1  0.992595  0.848367  0.624352  1
  Nb  Nb19  1  0.326864  0.326867  0.000002  1
  Si  Si20  1  0.203000  0.131330  0.683493  1
  Si  Si21  1  0.368659  0.703964  0.933359  1
  Si  Si22  1  0.631361  0.297240  0.433699  1
  Si  Si23  1  0.703960  0.368662  0.066645  1
  Si  Si24  1  0.297186  0.631248  0.566315  1
  Si  Si25  1  0.797028  0.868654  0.183818  1
  Si  Si26  1  0.131278  0.203059  0.316492  1
  Si  Si27  1  0.868658  0.797029  0.816182  1
  Si  Si28  1  0.291331  0.951965  0.064904  1
  Si  Si29  1  0.546901  0.791405  0.314825  1
  Si  Si30  1  0.453919  0.207566  0.813229  1
  Si  Si31  1  0.791446  0.546853  0.685142  1
  Si  Si32  1  0.207564  0.453920  0.186773  1
  Si  Si33  1  0.708720  0.047020  0.564610  1
  Si  Si34  1  0.951970  0.291331  0.935096  1
  Si  Si35  1  0.046962  0.708604  0.435409  1
