# generated using pymatgen
data_Sm(Zn5Rh)2
_symmetry_space_group_name_H-M   'P 1'
_cell_length_a   6.82823308
_cell_length_b   6.87038086
_cell_length_c   6.82823317
_cell_angle_alpha   98.17864377
_cell_angle_beta   97.89085360
_cell_angle_gamma   135.65641342
_symmetry_Int_Tables_number   1
_chemical_formula_structural   Sm(Zn5Rh)2
_chemical_formula_sum   'Sm1 Zn10 Rh2'
_cell_volume   207.97386725
_cell_formula_units_Z   1
loop_
 _symmetry_equiv_pos_site_id
 _symmetry_equiv_pos_as_xyz
  1  'x, y, z'
loop_
 _atom_site_type_symbol
 _atom_site_label
 _atom_site_symmetry_multiplicity
 _atom_site_fract_x
 _atom_site_fract_y
 _atom_site_fract_z
 _atom_site_occupancy
  Sm  Sm0  1  0.000000  0.000000  0.000000  1
  Zn  Zn1  1  0.278073  0.500000  0.778073  1
  Zn  Zn2  1  0.000000  0.500000  0.000000  1
  Zn  Zn3  1  0.500000  0.500000  0.500000  1
  Zn  Zn4  1  0.649636  0.000000  0.649636  1
  Zn  Zn5  1  0.022995  0.671212  0.648217  1
  Zn  Zn6  1  0.977005  0.328788  0.351783  1
  Zn  Zn7  1  0.350364  0.000000  0.350364  1
  Zn  Zn8  1  0.721927  0.500000  0.221927  1
  Zn  Zn9  1  0.500742  0.722048  0.221306  1
  Zn  Zn10  1  0.499258  0.277952  0.778694  1
  Rh  Rh11  1  0.000000  0.000000  0.500000  1
  Rh  Rh12  1  0.500000  0.000000  0.000000  1
