# generated using pymatgen
data_RbSmY9(C2Br9)2
_symmetry_space_group_name_H-M   'P 1'
_cell_length_a   10.70853023
_cell_length_b   10.79626924
_cell_length_c   10.94189251
_cell_angle_alpha   113.45343946
_cell_angle_beta   87.50351655
_cell_angle_gamma   118.76518508
_symmetry_Int_Tables_number   1
_chemical_formula_structural   RbSmY9(C2Br9)2
_chemical_formula_sum   'Rb1 Sm1 Y9 C4 Br18'
_cell_volume   999.92865435
_cell_formula_units_Z   1
loop_
 _symmetry_equiv_pos_site_id
 _symmetry_equiv_pos_as_xyz
  1  'x, y, z'
loop_
 _atom_site_type_symbol
 _atom_site_label
 _atom_site_symmetry_multiplicity
 _atom_site_fract_x
 _atom_site_fract_y
 _atom_site_fract_z
 _atom_site_occupancy
  Rb  Rb0  1  0.500157  0.000825  0.499987  1
  Sm  Sm1  1  0.657853  0.715561  0.699959  1
  Y  Y2  1  0.282190  0.364188  0.012576  1
  Y  Y3  1  0.092409  0.406027  0.300159  1
  Y  Y4  1  0.960339  0.036354  0.332543  1
  Y  Y5  1  0.906839  0.593349  0.699186  1
  Y  Y6  1  0.112533  0.941865  0.001436  1
  Y  Y7  1  0.040618  0.964218  0.667948  1
  Y  Y8  1  0.337799  0.282395  0.297045  1
  Y  Y9  1  0.718529  0.636143  0.988203  1
  Y  Y10  1  0.887966  0.058437  0.998847  1
  C  C11  1  0.156720  0.227090  0.123510  1
  C  C12  1  0.844225  0.773308  0.877096  1
  C  C13  1  0.922658  0.852047  0.797229  1
  C  C14  1  0.078327  0.148313  0.203440  1
  Br  Br15  1  0.449043  0.528307  0.836532  1
  Br  Br16  1  0.383616  0.039085  0.159770  1
  Br  Br17  1  0.780224  0.861469  0.500363  1
  Br  Br18  1  0.838006  0.311501  0.154341  1
  Br  Br19  1  0.549448  0.469822  0.166261  1
  Br  Br20  1  0.222207  0.140776  0.498324  1
  Br  Br21  1  0.315704  0.099802  0.828431  1
  Br  Br22  1  0.684777  0.900422  0.171708  1
  Br  Br23  1  0.974101  0.759588  0.172703  1
  Br  Br24  1  0.932803  0.301820  0.500609  1
  Br  Br25  1  0.026295  0.240462  0.827664  1
  Br  Br26  1  0.067552  0.698280  0.499451  1
  Br  Br27  1  0.262215  0.624700  0.189284  1
  Br  Br28  1  0.737778  0.375514  0.810879  1
  Br  Br29  1  0.638973  0.426695  0.495801  1
  Br  Br30  1  0.162162  0.689022  0.845985  1
  Br  Br31  1  0.616820  0.967318  0.844015  1
  Br  Br32  1  0.359111  0.565299  0.498713  1
