# generated using pymatgen
data_NdLu2Th(AsPt)4
_symmetry_space_group_name_H-M   'P 1'
_cell_length_a   4.29128100
_cell_length_b   4.29128230
_cell_length_c   15.63045700
_cell_angle_alpha   90.00000000
_cell_angle_beta   90.00000000
_cell_angle_gamma   120.00001308
_symmetry_Int_Tables_number   1
_chemical_formula_structural   NdLu2Th(AsPt)4
_chemical_formula_sum   'Nd1 Lu2 Th1 As4 Pt4'
_cell_volume   249.27360238
_cell_formula_units_Z   1
loop_
 _symmetry_equiv_pos_site_id
 _symmetry_equiv_pos_as_xyz
  1  'x, y, z'
loop_
 _atom_site_type_symbol
 _atom_site_label
 _atom_site_symmetry_multiplicity
 _atom_site_fract_x
 _atom_site_fract_y
 _atom_site_fract_z
 _atom_site_occupancy
  Nd  Nd0  1  0.000000  0.000000  0.500000  1
  Lu  Lu1  1  0.000000  0.000000  0.252048  1
  Lu  Lu2  1  0.000000  0.000000  0.747952  1
  Th  Th3  1  0.000000  0.000000  0.000000  1
  As  As4  1  0.333333  0.666667  0.883160  1
  As  As5  1  0.666667  0.333333  0.116840  1
  As  As6  1  0.666667  0.333333  0.382155  1
  As  As7  1  0.333333  0.666667  0.617845  1
  Pt  Pt8  1  0.333333  0.666667  0.351619  1
  Pt  Pt9  1  0.666667  0.333333  0.648381  1
  Pt  Pt10  1  0.666667  0.333333  0.854667  1
  Pt  Pt11  1  0.333333  0.666667  0.145333  1
