# generated using pymatgen
data_Yb3DySc6(Si5Ir2)4
_symmetry_space_group_name_H-M   'P 1'
_cell_length_a   12.52099122
_cell_length_b   12.52099020
_cell_length_c   4.15380800
_cell_angle_alpha   90.00000000
_cell_angle_beta   90.00000000
_cell_angle_gamma   90.00471326
_symmetry_Int_Tables_number   1
_chemical_formula_structural   Yb3DySc6(Si5Ir2)4
_chemical_formula_sum   'Yb3 Dy1 Sc6 Si20 Ir8'
_cell_volume   651.21411261
_cell_formula_units_Z   1
loop_
 _symmetry_equiv_pos_site_id
 _symmetry_equiv_pos_as_xyz
  1  'x, y, z'
loop_
 _atom_site_type_symbol
 _atom_site_label
 _atom_site_symmetry_multiplicity
 _atom_site_fract_x
 _atom_site_fract_y
 _atom_site_fract_z
 _atom_site_occupancy
  Yb  Yb0  1  0.884485  0.384485  0.500000  1
  Yb  Yb1  1  0.616015  0.883889  0.500000  1
  Yb  Yb2  1  0.383889  0.116015  0.500000  1
  Dy  Dy3  1  0.116532  0.616532  0.500000  1
  Sc  Sc4  1  0.672483  0.172483  0.500000  1
  Sc  Sc5  1  0.327038  0.827038  0.500000  1
  Sc  Sc6  1  0.172544  0.326405  0.500000  1
  Sc  Sc7  1  0.826405  0.672544  0.500000  1
  Sc  Sc8  1  0.999949  0.000093  0.000000  1
  Sc  Sc9  1  0.500093  0.499949  0.000000  1
  Si  Si10  1  0.568048  0.068048  0.000000  1
  Si  Si11  1  0.432010  0.932010  0.000000  1
  Si  Si12  1  0.067962  0.432336  0.000000  1
  Si  Si13  1  0.932336  0.567962  0.000000  1
  Si  Si14  1  0.200294  0.165847  0.000000  1
  Si  Si15  1  0.800114  0.833937  0.000000  1
  Si  Si16  1  0.165901  0.799882  0.000000  1
  Si  Si17  1  0.700498  0.334235  0.000000  1
  Si  Si18  1  0.834235  0.200498  0.000000  1
  Si  Si19  1  0.299882  0.665901  0.000000  1
  Si  Si20  1  0.665847  0.700294  0.000000  1
  Si  Si21  1  0.333937  0.300114  0.000000  1
  Si  Si22  1  0.007183  0.150808  0.500000  1
  Si  Si23  1  0.991450  0.849567  0.500000  1
  Si  Si24  1  0.149884  0.993942  0.500000  1
  Si  Si25  1  0.506924  0.349617  0.500000  1
  Si  Si26  1  0.849617  0.006924  0.500000  1
  Si  Si27  1  0.493942  0.649884  0.500000  1
  Si  Si28  1  0.650808  0.507183  0.500000  1
  Si  Si29  1  0.349567  0.491450  0.500000  1
  Ir  Ir30  1  0.020811  0.243544  0.000000  1
  Ir  Ir31  1  0.980150  0.756087  0.000000  1
  Ir  Ir32  1  0.242981  0.978479  0.000000  1
  Ir  Ir33  1  0.521254  0.256823  0.000000  1
  Ir  Ir34  1  0.756823  0.021254  0.000000  1
  Ir  Ir35  1  0.478479  0.742981  0.000000  1
  Ir  Ir36  1  0.743544  0.520811  0.000000  1
  Ir  Ir37  1  0.256087  0.480150  0.000000  1
