# generated using pymatgen
data_Tm3ThAs6Ru7
_symmetry_space_group_name_H-M   'P 1'
_cell_length_a   7.25257621
_cell_length_b   7.23519799
_cell_length_c   7.25257619
_cell_angle_alpha   109.42269423
_cell_angle_beta   109.51970269
_cell_angle_gamma   109.42269906
_symmetry_Int_Tables_number   1
_chemical_formula_structural   Tm3ThAs6Ru7
_chemical_formula_sum   'Tm3 Th1 As6 Ru7'
_cell_volume   293.13849129
_cell_formula_units_Z   1
loop_
 _symmetry_equiv_pos_site_id
 _symmetry_equiv_pos_as_xyz
  1  'x, y, z'
loop_
 _atom_site_type_symbol
 _atom_site_label
 _atom_site_symmetry_multiplicity
 _atom_site_fract_x
 _atom_site_fract_y
 _atom_site_fract_z
 _atom_site_occupancy
  Tm  Tm0  1  0.000000  0.000000  0.500000  1
  Tm  Tm1  1  0.500000  0.000000  0.000000  1
  Tm  Tm2  1  0.500000  0.500000  0.500000  1
  Th  Th3  1  0.000000  0.500000  0.000000  1
  As  As4  1  0.321447  0.008319  0.321447  1
  As  As5  1  0.000000  0.313129  0.321447  1
  As  As6  1  0.000000  0.686871  0.678553  1
  As  As7  1  0.321447  0.313129  0.000000  1
  As  As8  1  0.678553  0.686871  0.000000  1
  As  As9  1  0.678553  0.991681  0.678553  1
  Ru  Ru10  1  0.748911  0.500000  0.251089  1
  Ru  Ru11  1  0.502177  0.751089  0.251089  1
  Ru  Ru12  1  0.497823  0.248911  0.748911  1
  Ru  Ru13  1  0.748911  0.248911  0.497823  1
  Ru  Ru14  1  0.251089  0.751089  0.502177  1
  Ru  Ru15  1  0.251089  0.500000  0.748911  1
  Ru  Ru16  1  0.000000  0.000000  0.000000  1
