# generated using pymatgen
data_HoEr7Tc3B24Rh
_symmetry_space_group_name_H-M   'P 1'
_cell_length_a   3.65550700
_cell_length_b   9.11299904
_cell_length_c   11.49020903
_cell_angle_alpha   90.11579769
_cell_angle_beta   90.00000000
_cell_angle_gamma   90.00000000
_symmetry_Int_Tables_number   1
_chemical_formula_structural   HoEr7Tc3B24Rh
_chemical_formula_sum   'Ho1 Er7 Tc3 B24 Rh1'
_cell_volume   382.76832084
_cell_formula_units_Z   1
loop_
 _symmetry_equiv_pos_site_id
 _symmetry_equiv_pos_as_xyz
  1  'x, y, z'
loop_
 _atom_site_type_symbol
 _atom_site_label
 _atom_site_symmetry_multiplicity
 _atom_site_fract_x
 _atom_site_fract_y
 _atom_site_fract_z
 _atom_site_occupancy
  Ho  Ho0  1  0.500000  0.318773  0.415821  1
  Er  Er1  1  0.500000  0.677877  0.591178  1
  Er  Er2  1  0.500000  0.176965  0.912813  1
  Er  Er3  1  0.500000  0.827415  0.081100  1
  Er  Er4  1  0.500000  0.440653  0.128889  1
  Er  Er5  1  0.500000  0.556996  0.871104  1
  Er  Er6  1  0.500000  0.055957  0.629667  1
  Er  Er7  1  0.500000  0.943869  0.369668  1
  Tc  Tc8  1  0.500000  0.138473  0.180109  1
  Tc  Tc9  1  0.500000  0.861447  0.820824  1
  Tc  Tc10  1  0.500000  0.362386  0.677876  1
  B  B11  1  0.000000  0.101633  0.471338  1
  B  B12  1  0.000000  0.895109  0.528249  1
  B  B13  1  0.000000  0.396878  0.971924  1
  B  B14  1  0.000000  0.604109  0.029294  1
  B  B15  1  0.000000  0.130792  0.315072  1
  B  B16  1  0.000000  0.868269  0.685224  1
  B  B17  1  0.000000  0.369142  0.814492  1
  B  B18  1  0.000000  0.631833  0.183828  1
  B  B19  1  0.000000  0.053482  0.066317  1
  B  B20  1  0.000000  0.947283  0.932843  1
  B  B21  1  0.000000  0.446595  0.566550  1
  B  B22  1  0.000000  0.554113  0.433929  1
  B  B23  1  0.000000  0.483196  0.287828  1
  B  B24  1  0.000000  0.518264  0.712336  1
  B  B25  1  0.000000  0.017659  0.787211  1
  B  B26  1  0.000000  0.982621  0.211863  1
  B  B27  1  0.000000  0.249392  0.080919  1
  B  B28  1  0.000000  0.751526  0.919191  1
  B  B29  1  0.000000  0.250129  0.580946  1
  B  B30  1  0.000000  0.749269  0.420462  1
  B  B31  1  0.000000  0.292008  0.235269  1
  B  B32  1  0.000000  0.707849  0.765638  1
  B  B33  1  0.000000  0.208076  0.734425  1
  B  B34  1  0.000000  0.791585  0.264782  1
  Rh  Rh35  1  0.500000  0.638381  0.321022  1
