# generated using pymatgen
data_Tb5ReMoC7
_symmetry_space_group_name_H-M   'P 1'
_cell_length_a   8.42157092
_cell_length_b   8.42157084
_cell_length_c   3.45203500
_cell_angle_alpha   90.00000000
_cell_angle_beta   90.00000000
_cell_angle_gamma   122.95238795
_symmetry_Int_Tables_number   1
_chemical_formula_structural   Tb5ReMoC7
_chemical_formula_sum   'Tb5 Re1 Mo1 C7'
_cell_volume   205.44092529
_cell_formula_units_Z   1
loop_
 _symmetry_equiv_pos_site_id
 _symmetry_equiv_pos_as_xyz
  1  'x, y, z'
loop_
 _atom_site_type_symbol
 _atom_site_label
 _atom_site_symmetry_multiplicity
 _atom_site_fract_x
 _atom_site_fract_y
 _atom_site_fract_z
 _atom_site_occupancy
  Tb  Tb0  1  0.498977  0.501023  0.000000  1
  Tb  Tb1  1  0.074177  0.333012  0.500000  1
  Tb  Tb2  1  0.927269  0.667380  0.500000  1
  Tb  Tb3  1  0.666988  0.925823  0.500000  1
  Tb  Tb4  1  0.332620  0.072731  0.500000  1
  Re  Re5  1  0.286996  0.713004  0.000000  1
  Mo  Mo6  1  0.713548  0.286452  0.000000  1
  C  C7  1  0.625573  0.374427  0.500000  1
  C  C8  1  0.371495  0.628505  0.500000  1
  C  C9  1  0.999966  0.000034  0.000000  1
  C  C10  1  0.168930  0.167895  0.000000  1
  C  C11  1  0.832105  0.831070  0.000000  1
  C  C12  1  0.002675  0.501318  0.000000  1
  C  C13  1  0.498682  0.997325  0.000000  1
