# generated using pymatgen
data_Th7CoTc2
_symmetry_space_group_name_H-M   'P 1'
_cell_length_a   9.84443972
_cell_length_b   9.92099657
_cell_length_c   6.30916172
_cell_angle_alpha   90.16685085
_cell_angle_beta   89.66370175
_cell_angle_gamma   119.74505861
_symmetry_Int_Tables_number   1
_chemical_formula_structural   Th7CoTc2
_chemical_formula_sum   'Th14 Co2 Tc4'
_cell_volume   534.99666604
_cell_formula_units_Z   2
loop_
 _symmetry_equiv_pos_site_id
 _symmetry_equiv_pos_as_xyz
  1  'x, y, z'
loop_
 _atom_site_type_symbol
 _atom_site_label
 _atom_site_symmetry_multiplicity
 _atom_site_fract_x
 _atom_site_fract_y
 _atom_site_fract_z
 _atom_site_occupancy
  Th  Th0  1  0.331877  0.668851  0.034578  1
  Th  Th1  1  0.663026  0.331149  0.534578  1
  Th  Th2  1  0.129732  0.876821  0.243131  1
  Th  Th3  1  0.252911  0.123179  0.743131  1
  Th  Th4  1  0.878853  0.749282  0.754157  1
  Th  Th5  1  0.129570  0.250718  0.254157  1
  Th  Th6  1  0.751827  0.875256  0.255171  1
  Th  Th7  1  0.876572  0.124744  0.755171  1
  Th  Th8  1  0.535720  0.455169  0.047402  1
  Th  Th9  1  0.080550  0.544831  0.547402  1
  Th  Th10  1  0.455431  0.917221  0.552808  1
  Th  Th11  1  0.538211  0.082779  0.052808  1
  Th  Th12  1  0.918651  0.456936  0.049078  1
  Th  Th13  1  0.461713  0.543064  0.549078  1
  Co  Co14  1  0.370751  0.183624  0.296767  1
  Co  Co15  1  0.187127  0.816376  0.796767  1
  Tc  Tc16  1  0.810080  0.182407  0.298712  1
  Tc  Tc17  1  0.627675  0.817593  0.798712  1
  Tc  Tc18  1  0.185507  0.371289  0.798195  1
  Tc  Tc19  1  0.814217  0.628711  0.298195  1
