# generated using pymatgen
data_Li6MnAl5Pt12
_symmetry_space_group_name_H-M   'P 1'
_cell_length_a   4.10776300
_cell_length_b   6.54436600
_cell_length_c   12.33065000
_cell_angle_alpha   90.00000000
_cell_angle_beta   90.00100396
_cell_angle_gamma   90.00000000
_symmetry_Int_Tables_number   1
_chemical_formula_structural   Li6MnAl5Pt12
_chemical_formula_sum   'Li6 Mn1 Al5 Pt12'
_cell_volume   331.48122038
_cell_formula_units_Z   1
loop_
 _symmetry_equiv_pos_site_id
 _symmetry_equiv_pos_as_xyz
  1  'x, y, z'
loop_
 _atom_site_type_symbol
 _atom_site_label
 _atom_site_symmetry_multiplicity
 _atom_site_fract_x
 _atom_site_fract_y
 _atom_site_fract_z
 _atom_site_occupancy
  Li  Li0  1  0.000000  0.000000  0.000000  1
  Li  Li1  1  0.499884  0.500001  0.164241  1
  Li  Li2  1  0.999865  0.000000  0.334529  1
  Li  Li3  1  0.499999  0.500001  0.500000  1
  Li  Li4  1  0.000135  0.000000  0.665472  1
  Li  Li5  1  0.500116  0.500001  0.835759  1
  Mn  Mn6  1  0.000000  0.500001  0.000000  1
  Al  Al7  1  0.499889  0.000000  0.168259  1
  Al  Al8  1  0.999918  0.500001  0.332685  1
  Al  Al9  1  0.499999  0.000000  0.500000  1
  Al  Al10  1  0.000082  0.500001  0.667315  1
  Al  Al11  1  0.500114  0.000000  0.831741  1
  Pt  Pt12  1  0.499999  0.240968  0.000000  1
  Pt  Pt13  1  0.499999  0.759033  0.000000  1
  Pt  Pt14  1  0.999911  0.246014  0.168525  1
  Pt  Pt15  1  0.999911  0.753987  0.168525  1
  Pt  Pt16  1  0.499914  0.250390  0.334286  1
  Pt  Pt17  1  0.499914  0.749610  0.334286  1
  Pt  Pt18  1  0.000000  0.250833  0.500000  1
  Pt  Pt19  1  0.000000  0.749167  0.500000  1
  Pt  Pt20  1  0.500086  0.250390  0.665713  1
  Pt  Pt21  1  0.500086  0.749610  0.665713  1
  Pt  Pt22  1  0.000089  0.246014  0.831475  1
  Pt  Pt23  1  0.000089  0.753987  0.831475  1
