# generated using pymatgen
data_AcPr9(Sn5Rh2)4
_symmetry_space_group_name_H-M   'P 1'
_cell_length_a   14.31886566
_cell_length_b   14.31886566
_cell_length_c   4.65804400
_cell_angle_alpha   90.00000000
_cell_angle_beta   90.00000000
_cell_angle_gamma   90.05514756
_symmetry_Int_Tables_number   1
_chemical_formula_structural   AcPr9(Sn5Rh2)4
_chemical_formula_sum   'Ac1 Pr9 Sn20 Rh8'
_cell_volume   955.03791712
_cell_formula_units_Z   1
loop_
 _symmetry_equiv_pos_site_id
 _symmetry_equiv_pos_as_xyz
  1  'x, y, z'
loop_
 _atom_site_type_symbol
 _atom_site_label
 _atom_site_symmetry_multiplicity
 _atom_site_fract_x
 _atom_site_fract_y
 _atom_site_fract_z
 _atom_site_occupancy
  Ac  Ac0  1  0.610663  0.889337  0.500000  1
  Pr  Pr1  1  0.499886  0.499848  0.000000  1
  Pr  Pr2  1  0.000152  0.000114  0.000000  1
  Pr  Pr3  1  0.679864  0.179760  0.500000  1
  Pr  Pr4  1  0.320240  0.820136  0.500000  1
  Pr  Pr5  1  0.179499  0.320501  0.500000  1
  Pr  Pr6  1  0.821272  0.678728  0.500000  1
  Pr  Pr7  1  0.889061  0.389017  0.500000  1
  Pr  Pr8  1  0.110983  0.610939  0.500000  1
  Pr  Pr9  1  0.389245  0.110755  0.500000  1
  Sn  Sn10  1  0.568585  0.072684  0.000000  1
  Sn  Sn11  1  0.427316  0.931415  0.000000  1
  Sn  Sn12  1  0.069803  0.430197  0.000000  1
  Sn  Sn13  1  0.930193  0.569807  0.000000  1
  Sn  Sn14  1  0.653059  0.696583  0.000000  1
  Sn  Sn15  1  0.347486  0.300944  0.000000  1
  Sn  Sn16  1  0.152388  0.800692  0.000000  1
  Sn  Sn17  1  0.847984  0.199382  0.000000  1
  Sn  Sn18  1  0.300618  0.652016  0.000000  1
  Sn  Sn19  1  0.699308  0.347612  0.000000  1
  Sn  Sn20  1  0.199056  0.152514  0.000000  1
  Sn  Sn21  1  0.803417  0.846941  0.000000  1
  Sn  Sn22  1  0.664640  0.503017  0.500000  1
  Sn  Sn23  1  0.335176  0.496947  0.500000  1
  Sn  Sn24  1  0.164677  0.996920  0.500000  1
  Sn  Sn25  1  0.836841  0.004421  0.500000  1
  Sn  Sn26  1  0.495579  0.663159  0.500000  1
  Sn  Sn27  1  0.503080  0.335323  0.500000  1
  Sn  Sn28  1  0.003053  0.164824  0.500000  1
  Sn  Sn29  1  0.996983  0.835360  0.500000  1
  Rh  Rh30  1  0.745685  0.529221  0.000000  1
  Rh  Rh31  1  0.254482  0.469916  0.000000  1
  Rh  Rh32  1  0.244056  0.970351  0.000000  1
  Rh  Rh33  1  0.754819  0.029663  0.000000  1
  Rh  Rh34  1  0.470337  0.745181  0.000000  1
  Rh  Rh35  1  0.529649  0.255944  0.000000  1
  Rh  Rh36  1  0.030084  0.245518  0.000000  1
  Rh  Rh37  1  0.970779  0.754315  0.000000  1
