# generated using pymatgen
data_Pr2MgPa2Zn3Rh4
_symmetry_space_group_name_H-M   'P 1'
_cell_length_a   3.89589600
_cell_length_b   7.35131712
_cell_length_c   8.59988637
_cell_angle_alpha   87.36807799
_cell_angle_beta   90.00000000
_cell_angle_gamma   90.00000000
_symmetry_Int_Tables_number   1
_chemical_formula_structural   Pr2MgPa2Zn3Rh4
_chemical_formula_sum   'Pr2 Mg1 Pa2 Zn3 Rh4'
_cell_volume   246.04064923
_cell_formula_units_Z   1
loop_
 _symmetry_equiv_pos_site_id
 _symmetry_equiv_pos_as_xyz
  1  'x, y, z'
loop_
 _atom_site_type_symbol
 _atom_site_label
 _atom_site_symmetry_multiplicity
 _atom_site_fract_x
 _atom_site_fract_y
 _atom_site_fract_z
 _atom_site_occupancy
  Pr  Pr0  1  0.250000  0.557201  0.178667  1
  Pr  Pr1  1  0.750000  0.445711  0.816871  1
  Mg  Mg2  1  0.750000  0.375523  0.444677  1
  Pa  Pa3  1  0.250000  0.039909  0.307015  1
  Pa  Pa4  1  0.750000  0.953080  0.689860  1
  Zn  Zn5  1  0.250000  0.125550  0.944995  1
  Zn  Zn6  1  0.750000  0.875200  0.054310  1
  Zn  Zn7  1  0.250000  0.636974  0.561187  1
  Rh  Rh8  1  0.750000  0.231518  0.151054  1
  Rh  Rh9  1  0.250000  0.766863  0.849551  1
  Rh  Rh10  1  0.750000  0.787768  0.378099  1
  Rh  Rh11  1  0.250000  0.204702  0.623714  1
