# generated using pymatgen
data_Pr12OsRuAu2
_symmetry_space_group_name_H-M   'P 1'
_cell_length_a   6.66755271
_cell_length_b   7.52045618
_cell_length_c   10.05939300
_cell_angle_alpha   90.00000000
_cell_angle_beta   90.00000000
_cell_angle_gamma   89.83419329
_symmetry_Int_Tables_number   1
_chemical_formula_structural   Pr12OsRuAu2
_chemical_formula_sum   'Pr12 Os1 Ru1 Au2'
_cell_volume   504.40641338
_cell_formula_units_Z   1
loop_
 _symmetry_equiv_pos_site_id
 _symmetry_equiv_pos_as_xyz
  1  'x, y, z'
loop_
 _atom_site_type_symbol
 _atom_site_label
 _atom_site_symmetry_multiplicity
 _atom_site_fract_x
 _atom_site_fract_y
 _atom_site_fract_z
 _atom_site_occupancy
  Pr  Pr0  1  0.323330  0.688306  0.059022  1
  Pr  Pr1  1  0.159342  0.165736  0.435609  1
  Pr  Pr2  1  0.658720  0.334628  0.565236  1
  Pr  Pr3  1  0.824190  0.812914  0.942253  1
  Pr  Pr4  1  0.658720  0.334628  0.934764  1
  Pr  Pr5  1  0.824190  0.812914  0.557747  1
  Pr  Pr6  1  0.323330  0.688306  0.440978  1
  Pr  Pr7  1  0.159342  0.165736  0.064391  1
  Pr  Pr8  1  0.877032  0.543164  0.250000  1
  Pr  Pr9  1  0.648213  0.021928  0.250000  1
  Pr  Pr10  1  0.150439  0.477595  0.750000  1
  Pr  Pr11  1  0.377282  0.955097  0.750000  1
  Os  Os12  1  0.066412  0.882168  0.250000  1
  Ru  Ru13  1  0.569904  0.617115  0.750000  1
  Au  Au14  1  0.439533  0.387826  0.250000  1
  Au  Au15  1  0.940022  0.111940  0.750000  1
