# generated using pymatgen
data_Hf2Co10P7W2
_symmetry_space_group_name_H-M   'P 1'
_cell_length_a   8.94189709
_cell_length_b   8.96376949
_cell_length_c   3.64134600
_cell_angle_alpha   90.00000000
_cell_angle_beta   90.00000000
_cell_angle_gamma   119.85338662
_symmetry_Int_Tables_number   1
_chemical_formula_structural   Hf2Co10P7W2
_chemical_formula_sum   'Hf2 Co10 P7 W2'
_cell_volume   253.13526233
_cell_formula_units_Z   1
loop_
 _symmetry_equiv_pos_site_id
 _symmetry_equiv_pos_as_xyz
  1  'x, y, z'
loop_
 _atom_site_type_symbol
 _atom_site_label
 _atom_site_symmetry_multiplicity
 _atom_site_fract_x
 _atom_site_fract_y
 _atom_site_fract_z
 _atom_site_occupancy
  Hf  Hf0  1  0.667439  0.333426  0.500000  1
  Hf  Hf1  1  0.338227  0.667377  0.000000  1
  Co  Co2  1  0.716151  0.877680  0.000000  1
  Co  Co3  1  0.931942  0.370030  0.000000  1
  Co  Co4  1  0.164197  0.289727  0.000000  1
  Co  Co5  1  0.390019  0.444098  0.500000  1
  Co  Co6  1  0.121457  0.834424  0.000000  1
  Co  Co7  1  0.437287  0.066225  0.000000  1
  Co  Co8  1  0.048692  0.610578  0.500000  1
  Co  Co9  1  0.557463  0.943225  0.500000  1
  Co  Co10  1  0.629486  0.562843  0.000000  1
  Co  Co11  1  0.869871  0.776892  0.500000  1
  P  P12  1  0.417448  0.301193  0.000000  1
  P  P13  1  0.286880  0.873259  0.500000  1
  P  P14  1  0.698173  0.115879  0.000000  1
  P  P15  1  0.594060  0.711607  0.500000  1
  P  P16  1  0.882693  0.586503  0.000000  1
  P  P17  1  0.125707  0.417504  0.500000  1
  P  P18  1  0.998067  0.992668  0.000000  1
  W  W19  1  0.219188  0.097906  0.500000  1
  W  W20  1  0.905555  0.126953  0.500000  1
