# generated using pymatgen
data_SmYTcB6
_symmetry_space_group_name_H-M   'P 1'
_cell_length_a   3.71917500
_cell_length_b   9.21681500
_cell_length_c   11.63319500
_cell_angle_alpha   90.00000000
_cell_angle_beta   90.00000000
_cell_angle_gamma   90.00000000
_symmetry_Int_Tables_number   1
_chemical_formula_structural   SmYTcB6
_chemical_formula_sum   'Sm4 Y4 Tc4 B24'
_cell_volume   398.77368564
_cell_formula_units_Z   4
loop_
 _symmetry_equiv_pos_site_id
 _symmetry_equiv_pos_as_xyz
  1  'x, y, z'
loop_
 _atom_site_type_symbol
 _atom_site_label
 _atom_site_symmetry_multiplicity
 _atom_site_fract_x
 _atom_site_fract_y
 _atom_site_fract_z
 _atom_site_occupancy
  Sm  Sm0  1  0.000000  0.323972  0.414450  1
  Sm  Sm1  1  0.000000  0.676028  0.585550  1
  Sm  Sm2  1  0.000000  0.823972  0.085550  1
  Sm  Sm3  1  0.000000  0.176028  0.914450  1
  Y  Y4  1  0.000000  0.942963  0.369305  1
  Y  Y5  1  0.000000  0.057037  0.630695  1
  Y  Y6  1  0.000000  0.442963  0.130695  1
  Y  Y7  1  0.000000  0.557037  0.869305  1
  Tc  Tc8  1  0.000000  0.639236  0.319937  1
  Tc  Tc9  1  0.000000  0.360764  0.680063  1
  Tc  Tc10  1  0.000000  0.139236  0.180063  1
  Tc  Tc11  1  0.000000  0.860764  0.819937  1
  B  B12  1  0.500000  0.554449  0.431521  1
  B  B13  1  0.500000  0.445551  0.568479  1
  B  B14  1  0.500000  0.054449  0.068479  1
  B  B15  1  0.500000  0.945551  0.931521  1
  B  B16  1  0.500000  0.748997  0.416982  1
  B  B17  1  0.500000  0.251003  0.583018  1
  B  B18  1  0.500000  0.248997  0.083018  1
  B  B19  1  0.500000  0.751003  0.916982  1
  B  B20  1  0.500000  0.791528  0.265757  1
  B  B21  1  0.500000  0.208472  0.734243  1
  B  B22  1  0.500000  0.291528  0.234243  1
  B  B23  1  0.500000  0.708472  0.765757  1
  B  B24  1  0.500000  0.630626  0.186266  1
  B  B25  1  0.500000  0.369374  0.813734  1
  B  B26  1  0.500000  0.130626  0.313734  1
  B  B27  1  0.500000  0.869374  0.686266  1
  B  B28  1  0.500000  0.983632  0.212266  1
  B  B29  1  0.500000  0.016368  0.787734  1
  B  B30  1  0.500000  0.483632  0.287734  1
  B  B31  1  0.500000  0.516368  0.712266  1
  B  B32  1  0.500000  0.598245  0.027333  1
  B  B33  1  0.500000  0.401755  0.972667  1
  B  B34  1  0.500000  0.098245  0.472667  1
  B  B35  1  0.500000  0.901755  0.527333  1
