# generated using pymatgen
data_Pr17Nd(PaRh8)2
_symmetry_space_group_name_H-M   'P 1'
_cell_length_a   7.69642801
_cell_length_b   7.68880132
_cell_length_c   14.98825392
_cell_angle_alpha   90.29464910
_cell_angle_beta   89.99465524
_cell_angle_gamma   89.99953993
_symmetry_Int_Tables_number   1
_chemical_formula_structural   Pr17Nd(PaRh8)2
_chemical_formula_sum   'Pr17 Nd1 Pa2 Rh16'
_cell_volume   886.93776594
_cell_formula_units_Z   1
loop_
 _symmetry_equiv_pos_site_id
 _symmetry_equiv_pos_as_xyz
  1  'x, y, z'
loop_
 _atom_site_type_symbol
 _atom_site_label
 _atom_site_symmetry_multiplicity
 _atom_site_fract_x
 _atom_site_fract_y
 _atom_site_fract_z
 _atom_site_occupancy
  Pr  Pr0  1  0.337148  0.835954  0.120384  1
  Pr  Pr1  1  0.836668  0.664710  0.379606  1
  Pr  Pr2  1  0.335284  0.834168  0.379417  1
  Pr  Pr3  1  0.834907  0.666402  0.120610  1
  Pr  Pr4  1  0.661925  0.165035  0.879523  1
  Pr  Pr5  1  0.162000  0.334846  0.620466  1
  Pr  Pr6  1  0.515584  0.682069  0.593949  1
  Pr  Pr7  1  0.015648  0.817951  0.906019  1
  Pr  Pr8  1  0.489127  0.316639  0.096716  1
  Pr  Pr9  1  0.988233  0.182830  0.403158  1
  Pr  Pr10  1  0.485333  0.319948  0.407803  1
  Pr  Pr11  1  0.984868  0.179500  0.092237  1
  Pr  Pr12  1  0.511459  0.678396  0.907653  1
  Pr  Pr13  1  0.011600  0.821470  0.592355  1
  Pr  Pr14  1  0.820368  0.516067  0.748877  1
  Pr  Pr15  1  0.320186  0.983924  0.751155  1
  Pr  Pr16  1  0.174632  0.490131  0.249436  1
  Nd  Nd17  1  0.674679  0.009793  0.250319  1
  Pa  Pa18  1  0.659285  0.157338  0.624645  1
  Pa  Pa19  1  0.159288  0.342496  0.875423  1
  Rh  Rh20  1  0.692705  0.978538  0.476451  1
  Rh  Rh21  1  0.192748  0.521344  0.023308  1
  Rh  Rh22  1  0.296958  0.070189  0.955995  1
  Rh  Rh23  1  0.796895  0.429525  0.543969  1
  Rh  Rh24  1  0.343555  0.033833  0.549672  1
  Rh  Rh25  1  0.843670  0.466227  0.950404  1
  Rh  Rh26  1  0.666604  0.969422  0.043349  1
  Rh  Rh27  1  0.166292  0.530995  0.457102  1
  Rh  Rh28  1  0.465882  0.366534  0.745310  1
  Rh  Rh29  1  0.965927  0.133659  0.754820  1
  Rh  Rh30  1  0.540119  0.604776  0.251425  1
  Rh  Rh31  1  0.039277  0.896646  0.248547  1
  Rh  Rh32  1  0.704030  0.886008  0.737595  1
  Rh  Rh33  1  0.203955  0.614020  0.762401  1
  Rh  Rh34  1  0.302710  0.141862  0.250451  1
  Rh  Rh35  1  0.800453  0.356758  0.249449  1
