# generated using pymatgen
data_LaPr7(ScIn3)2
_symmetry_space_group_name_H-M   'P 1'
_cell_length_a   9.33193067
_cell_length_b   9.33193046
_cell_length_c   9.26203600
_cell_angle_alpha   96.30814167
_cell_angle_beta   96.37789252
_cell_angle_gamma   141.32415978
_symmetry_Int_Tables_number   1
_chemical_formula_structural   LaPr7(ScIn3)2
_chemical_formula_sum   'La1 Pr7 Sc2 In6'
_cell_volume   475.16384218
_cell_formula_units_Z   1
loop_
 _symmetry_equiv_pos_site_id
 _symmetry_equiv_pos_as_xyz
  1  'x, y, z'
loop_
 _atom_site_type_symbol
 _atom_site_label
 _atom_site_symmetry_multiplicity
 _atom_site_fract_x
 _atom_site_fract_y
 _atom_site_fract_z
 _atom_site_occupancy
  La  La0  1  0.410552  0.275171  0.685723  1
  Pr  Pr1  1  0.912075  0.222639  0.134714  1
  Pr  Pr2  1  0.223026  0.088742  0.311769  1
  Pr  Pr3  1  0.777572  0.912127  0.689699  1
  Pr  Pr4  1  0.087833  0.777916  0.865749  1
  Pr  Pr5  1  0.722786  0.412186  0.134972  1
  Pr  Pr6  1  0.277791  0.587579  0.865370  1
  Pr  Pr7  1  0.588003  0.723390  0.311394  1
  Sc  Sc8  1  0.750251  0.250237  0.499785  1
  Sc  Sc9  1  0.249549  0.749534  0.499785  1
  In  In10  1  0.750968  0.750880  0.001345  1
  In  In11  1  0.250466  0.250376  0.001345  1
  In  In12  1  0.848256  0.650815  0.499071  1
  In  In13  1  0.652114  0.150873  0.802988  1
  In  In14  1  0.348598  0.848524  0.197121  1
  In  In15  1  0.150161  0.349010  0.499171  1
