# generated using pymatgen
data_Dy3Er9Ga2Co3Ni
_symmetry_space_group_name_H-M   'P 1'
_cell_length_a   8.20139554
_cell_length_b   8.20569461
_cell_length_c   8.20569524
_cell_angle_alpha   112.49873886
_cell_angle_beta   109.42279745
_cell_angle_gamma   106.56626166
_symmetry_Int_Tables_number   1
_chemical_formula_structural   Dy3Er9Ga2Co3Ni
_chemical_formula_sum   'Dy3 Er9 Ga2 Co3 Ni1'
_cell_volume   423.86125100
_cell_formula_units_Z   1
loop_
 _symmetry_equiv_pos_site_id
 _symmetry_equiv_pos_as_xyz
  1  'x, y, z'
loop_
 _atom_site_type_symbol
 _atom_site_label
 _atom_site_symmetry_multiplicity
 _atom_site_fract_x
 _atom_site_fract_y
 _atom_site_fract_z
 _atom_site_occupancy
  Dy  Dy0  1  0.041171  0.738373  0.302798  1
  Dy  Dy1  1  0.957701  0.260766  0.696935  1
  Dy  Dy2  1  0.563777  0.260568  0.303208  1
  Er  Er3  1  0.435879  0.738347  0.697532  1
  Er  Er4  1  0.673632  0.861474  0.187295  1
  Er  Er5  1  0.331096  0.520799  0.189982  1
  Er  Er6  1  0.331096  0.141113  0.810297  1
  Er  Er7  1  0.673632  0.486335  0.812159  1
  Er  Er8  1  0.179008  0.219290  0.401393  1
  Er  Er9  1  0.817473  0.218418  0.039724  1
  Er  Er10  1  0.179008  0.777617  0.959719  1
  Er  Er11  1  0.817473  0.777749  0.599054  1
  Ga  Ga12  1  0.000255  0.499985  0.500270  1
  Ga  Ga13  1  0.499335  0.999083  0.500252  1
  Co  Co14  1  0.661012  0.498448  0.162564  1
  Co  Co15  1  0.336002  0.498751  0.837252  1
  Co  Co16  1  0.883652  0.884130  0.999522  1
  Ni  Ni17  1  0.118800  0.118755  0.000044  1
