# generated using pymatgen
data_DyYGaIr2
_symmetry_space_group_name_H-M   'P 1'
_cell_length_a   4.16032261
_cell_length_b   5.81532966
_cell_length_c   5.54059734
_cell_angle_alpha   121.65429267
_cell_angle_beta   112.05151179
_cell_angle_gamma   89.99999584
_symmetry_Int_Tables_number   1
_chemical_formula_structural   DyYGaIr2
_chemical_formula_sum   'Dy1 Y1 Ga1 Ir2'
_cell_volume   102.40696284
_cell_formula_units_Z   1
loop_
 _symmetry_equiv_pos_site_id
 _symmetry_equiv_pos_as_xyz
  1  'x, y, z'
loop_
 _atom_site_type_symbol
 _atom_site_label
 _atom_site_symmetry_multiplicity
 _atom_site_fract_x
 _atom_site_fract_y
 _atom_site_fract_z
 _atom_site_occupancy
  Dy  Dy0  1  0.200699  0.700699  0.401397  1
  Y  Y1  1  0.799234  0.299234  0.598469  1
  Ga  Ga2  1  0.999960  0.999960  0.999920  1
  Ir  Ir3  1  0.500054  0.264787  0.000107  1
  Ir  Ir4  1  0.500054  0.735320  0.000107  1
