# generated using pymatgen
data_Nd3Dy7Cd3Os
_symmetry_space_group_name_H-M   'P 1'
_cell_length_a   9.73892600
_cell_length_b   9.73892659
_cell_length_c   9.97926500
_cell_angle_alpha   90.00000000
_cell_angle_beta   90.00000000
_cell_angle_gamma   119.99999800
_symmetry_Int_Tables_number   1
_chemical_formula_structural   Nd3Dy7Cd3Os
_chemical_formula_sum   'Nd6 Dy14 Cd6 Os2'
_cell_volume   819.69324089
_cell_formula_units_Z   2
loop_
 _symmetry_equiv_pos_site_id
 _symmetry_equiv_pos_as_xyz
  1  'x, y, z'
loop_
 _atom_site_type_symbol
 _atom_site_label
 _atom_site_symmetry_multiplicity
 _atom_site_fract_x
 _atom_site_fract_y
 _atom_site_fract_z
 _atom_site_occupancy
  Nd  Nd0  1  0.539545  0.460455  0.250000  1
  Nd  Nd1  1  0.539545  0.079090  0.250000  1
  Nd  Nd2  1  0.920910  0.460455  0.250000  1
  Nd  Nd3  1  0.460455  0.539545  0.750000  1
  Nd  Nd4  1  0.460455  0.920910  0.750000  1
  Nd  Nd5  1  0.079090  0.539545  0.750000  1
  Dy  Dy6  1  0.000000  0.000000  0.500000  1
  Dy  Dy7  1  0.000000  0.000000  0.000000  1
  Dy  Dy8  1  0.209825  0.790175  0.438190  1
  Dy  Dy9  1  0.209825  0.419649  0.438190  1
  Dy  Dy10  1  0.580351  0.790175  0.438190  1
  Dy  Dy11  1  0.790175  0.209825  0.561810  1
  Dy  Dy12  1  0.790175  0.580351  0.561810  1
  Dy  Dy13  1  0.419649  0.209825  0.561810  1
  Dy  Dy14  1  0.790175  0.209825  0.938190  1
  Dy  Dy15  1  0.790175  0.580351  0.938190  1
  Dy  Dy16  1  0.419649  0.209825  0.938190  1
  Dy  Dy17  1  0.209825  0.790175  0.061810  1
  Dy  Dy18  1  0.209825  0.419649  0.061810  1
  Dy  Dy19  1  0.580351  0.790175  0.061810  1
  Cd  Cd20  1  0.887661  0.112339  0.250000  1
  Cd  Cd21  1  0.887661  0.775322  0.250000  1
  Cd  Cd22  1  0.224678  0.112339  0.250000  1
  Cd  Cd23  1  0.112339  0.887661  0.750000  1
  Cd  Cd24  1  0.112339  0.224678  0.750000  1
  Cd  Cd25  1  0.775322  0.887661  0.750000  1
  Os  Os26  1  0.333333  0.666667  0.250000  1
  Os  Os27  1  0.666667  0.333333  0.750000  1
