# generated using pymatgen
data_K2Pb(SeO4)2
_symmetry_space_group_name_H-M   'P 1'
_cell_length_a   7.95181097
_cell_length_b   7.95181089
_cell_length_c   7.95181161
_cell_angle_alpha   42.99595156
_cell_angle_beta   42.99595560
_cell_angle_gamma   42.99594082
_symmetry_Int_Tables_number   1
_chemical_formula_structural   K2Pb(SeO4)2
_chemical_formula_sum   'K2 Pb1 Se2 O8'
_cell_volume   211.94149560
_cell_formula_units_Z   1
loop_
 _symmetry_equiv_pos_site_id
 _symmetry_equiv_pos_as_xyz
  1  'x, y, z'
loop_
 _atom_site_type_symbol
 _atom_site_label
 _atom_site_symmetry_multiplicity
 _atom_site_fract_x
 _atom_site_fract_y
 _atom_site_fract_z
 _atom_site_occupancy
  K  K0  1  0.200326  0.200326  0.200326  1
  K  K1  1  0.799674  0.799674  0.799674  1
  Pb  Pb2  1  0.000000  0.000000  0.000000  1
  Se  Se3  1  0.599800  0.599800  0.599800  1
  Se  Se4  1  0.400200  0.400200  0.400200  1
  O  O5  1  0.730866  0.259200  0.730866  1
  O  O6  1  0.259200  0.730866  0.730866  1
  O  O7  1  0.730866  0.730866  0.259200  1
  O  O8  1  0.323340  0.323340  0.323340  1
  O  O9  1  0.676660  0.676660  0.676660  1
  O  O10  1  0.740800  0.269134  0.269134  1
  O  O11  1  0.269134  0.269134  0.740800  1
  O  O12  1  0.269134  0.740800  0.269134  1
