# generated using pymatgen
data_Sc8Cu3Ir4Ru
_symmetry_space_group_name_H-M   'P 1'
_cell_length_a   6.43095801
_cell_length_b   4.57984606
_cell_length_c   9.19865711
_cell_angle_alpha   89.98233479
_cell_angle_beta   89.99639067
_cell_angle_gamma   89.99489247
_symmetry_Int_Tables_number   1
_chemical_formula_structural   Sc8Cu3Ir4Ru
_chemical_formula_sum   'Sc8 Cu3 Ir4 Ru1'
_cell_volume   270.92617256
_cell_formula_units_Z   1
loop_
 _symmetry_equiv_pos_site_id
 _symmetry_equiv_pos_as_xyz
  1  'x, y, z'
loop_
 _atom_site_type_symbol
 _atom_site_label
 _atom_site_symmetry_multiplicity
 _atom_site_fract_x
 _atom_site_fract_y
 _atom_site_fract_z
 _atom_site_occupancy
  Sc  Sc0  1  0.998303  0.749706  0.123077  1
  Sc  Sc1  1  0.501729  0.749658  0.123058  1
  Sc  Sc2  1  0.000152  0.250219  0.375010  1
  Sc  Sc3  1  0.499821  0.250250  0.375033  1
  Sc  Sc4  1  0.501771  0.750169  0.627003  1
  Sc  Sc5  1  0.998211  0.750211  0.626983  1
  Sc  Sc6  1  0.502816  0.249936  0.874966  1
  Sc  Sc7  1  0.997189  0.250003  0.875018  1
  Cu  Cu8  1  0.250299  0.249322  0.123537  1
  Cu  Cu9  1  0.749692  0.750184  0.374836  1
  Cu  Cu10  1  0.250152  0.250143  0.626191  1
  Ir  Ir11  1  0.749959  0.249626  0.127618  1
  Ir  Ir12  1  0.249966  0.750408  0.375082  1
  Ir  Ir13  1  0.749975  0.250190  0.622432  1
  Ir  Ir14  1  0.249981  0.750013  0.875070  1
  Ru  Ru15  1  0.749986  0.749963  0.875083  1
