# generated using pymatgen
data_Ti3VSi3WC
_symmetry_space_group_name_H-M   'P 1'
_cell_length_a   7.37866300
_cell_length_b   7.37866223
_cell_length_c   5.10268000
_cell_angle_alpha   90.00000000
_cell_angle_beta   90.00000000
_cell_angle_gamma   119.99999898
_symmetry_Int_Tables_number   1
_chemical_formula_structural   Ti3VSi3WC
_chemical_formula_sum   'Ti6 V2 Si6 W2 C2'
_cell_volume   240.59371354
_cell_formula_units_Z   2
loop_
 _symmetry_equiv_pos_site_id
 _symmetry_equiv_pos_as_xyz
  1  'x, y, z'
loop_
 _atom_site_type_symbol
 _atom_site_label
 _atom_site_symmetry_multiplicity
 _atom_site_fract_x
 _atom_site_fract_y
 _atom_site_fract_z
 _atom_site_occupancy
  Ti  Ti0  1  0.232150  0.000000  0.249948  1
  Ti  Ti1  1  0.767850  0.000000  0.750052  1
  Ti  Ti2  1  0.000000  0.232150  0.249948  1
  Ti  Ti3  1  0.000000  0.767850  0.750052  1
  Ti  Ti4  1  0.767850  0.767850  0.249948  1
  Ti  Ti5  1  0.232150  0.232150  0.750052  1
  V  V6  1  0.666667  0.333333  0.500000  1
  V  V7  1  0.333333  0.666667  0.500000  1
  Si  Si8  1  0.591505  0.000000  0.259247  1
  Si  Si9  1  0.408495  0.000000  0.740753  1
  Si  Si10  1  0.000000  0.591505  0.259247  1
  Si  Si11  1  0.000000  0.408495  0.740753  1
  Si  Si12  1  0.408495  0.408495  0.259247  1
  Si  Si13  1  0.591505  0.591505  0.740753  1
  W  W14  1  0.333333  0.666667  0.000000  1
  W  W15  1  0.666667  0.333333  0.000000  1
  C  C16  1  0.000000  0.000000  0.000000  1
  C  C17  1  0.000000  0.000000  0.500000  1
