# generated using pymatgen
data_LiLa16CdHg2Ir3Os
_symmetry_space_group_name_H-M   'P 1'
_cell_length_a   10.13279638
_cell_length_b   10.17022436
_cell_length_c   10.17040300
_cell_angle_alpha   59.34591159
_cell_angle_beta   59.43782541
_cell_angle_gamma   59.43903038
_symmetry_Int_Tables_number   1
_chemical_formula_structural   LiLa16CdHg2Ir3Os
_chemical_formula_sum   'Li1 La16 Cd1 Hg2 Ir3 Os1'
_cell_volume   731.11871506
_cell_formula_units_Z   1
loop_
 _symmetry_equiv_pos_site_id
 _symmetry_equiv_pos_as_xyz
  1  'x, y, z'
loop_
 _atom_site_type_symbol
 _atom_site_label
 _atom_site_symmetry_multiplicity
 _atom_site_fract_x
 _atom_site_fract_y
 _atom_site_fract_z
 _atom_site_occupancy
  Li  Li0  1  0.818707  0.816669  0.816653  1
  La  La1  1  0.597771  0.597684  0.597745  1
  La  La2  1  0.595357  0.595500  0.210438  1
  La  La3  1  0.595370  0.210447  0.595490  1
  La  La4  1  0.207408  0.596573  0.596562  1
  La  La5  1  0.060340  0.442532  0.442507  1
  La  La6  1  0.437820  0.062049  0.062060  1
  La  La7  1  0.440820  0.061182  0.441669  1
  La  La8  1  0.060962  0.439507  0.061748  1
  La  La9  1  0.440774  0.441722  0.061154  1
  La  La10  1  0.060925  0.061700  0.439621  1
  La  La11  1  0.189724  0.812126  0.812109  1
  La  La12  1  0.805131  0.192378  0.192322  1
  La  La13  1  0.811039  0.191069  0.811228  1
  La  La14  1  0.191375  0.806722  0.191532  1
  La  La15  1  0.811014  0.811109  0.191157  1
  La  La16  1  0.191401  0.191596  0.806637  1
  Cd  Cd17  1  0.512234  0.830260  0.830237  1
  Hg  Hg18  1  0.834892  0.838628  0.498186  1
  Hg  Hg19  1  0.834883  0.498255  0.838618  1
  Ir  Ir20  1  0.391326  0.391241  0.829043  1
  Ir  Ir21  1  0.391332  0.829033  0.391342  1
  Ir  Ir22  1  0.829209  0.391789  0.391756  1
  Os  Os23  1  0.390188  0.390229  0.390181  1
