# generated using pymatgen
data_Cs3(MnN2)2
_symmetry_space_group_name_H-M   'P 1'
_cell_length_a   7.04419200
_cell_length_b   9.73994400
_cell_length_c   11.26313300
_cell_angle_alpha   90.00000000
_cell_angle_beta   90.00000000
_cell_angle_gamma   90.00000000
_symmetry_Int_Tables_number   1
_chemical_formula_structural   Cs3(MnN2)2
_chemical_formula_sum   'Cs12 Mn8 N16'
_cell_volume   772.76395616
_cell_formula_units_Z   4
loop_
 _symmetry_equiv_pos_site_id
 _symmetry_equiv_pos_as_xyz
  1  'x, y, z'
loop_
 _atom_site_type_symbol
 _atom_site_label
 _atom_site_symmetry_multiplicity
 _atom_site_fract_x
 _atom_site_fract_y
 _atom_site_fract_z
 _atom_site_occupancy
  Cs  Cs0  1  0.621322  0.152306  0.416129  1
  Cs  Cs1  1  0.878678  0.847694  0.416129  1
  Cs  Cs2  1  0.621322  0.347694  0.083871  1
  Cs  Cs3  1  0.878678  0.652306  0.083871  1
  Cs  Cs4  1  0.378678  0.847694  0.583871  1
  Cs  Cs5  1  0.121322  0.152306  0.583871  1
  Cs  Cs6  1  0.378678  0.652306  0.916129  1
  Cs  Cs7  1  0.121322  0.347694  0.916129  1
  Cs  Cs8  1  0.750000  0.500000  0.413469  1
  Cs  Cs9  1  0.750000  0.000000  0.086531  1
  Cs  Cs10  1  0.250000  0.500000  0.586531  1
  Cs  Cs11  1  0.250000  0.000000  0.913469  1
  Mn  Mn12  1  0.750000  0.500000  0.740002  1
  Mn  Mn13  1  0.750000  0.000000  0.759998  1
  Mn  Mn14  1  0.250000  0.500000  0.259998  1
  Mn  Mn15  1  0.250000  0.000000  0.240002  1
  Mn  Mn16  1  0.715213  0.250000  0.750000  1
  Mn  Mn17  1  0.784787  0.750000  0.750000  1
  Mn  Mn18  1  0.284787  0.750000  0.250000  1
  Mn  Mn19  1  0.215213  0.250000  0.250000  1
  N  N20  1  0.857604  0.361556  0.656610  1
  N  N21  1  0.642396  0.638444  0.656610  1
  N  N22  1  0.857604  0.138444  0.843390  1
  N  N23  1  0.642396  0.861556  0.843390  1
  N  N24  1  0.142396  0.638444  0.343390  1
  N  N25  1  0.357604  0.361556  0.343390  1
  N  N26  1  0.142396  0.861556  0.156610  1
  N  N27  1  0.357604  0.138444  0.156610  1
  N  N28  1  0.590503  0.391368  0.823936  1
  N  N29  1  0.909497  0.608632  0.823936  1
  N  N30  1  0.590503  0.108632  0.676064  1
  N  N31  1  0.909497  0.891368  0.676064  1
  N  N32  1  0.409497  0.608632  0.176064  1
  N  N33  1  0.090503  0.391368  0.176064  1
  N  N34  1  0.409497  0.891368  0.323936  1
  N  N35  1  0.090503  0.108632  0.323936  1
