# generated using pymatgen
data_DySc5H18
_symmetry_space_group_name_H-M   'P 1'
_cell_length_a   5.91205600
_cell_length_b   5.93140206
_cell_length_c   6.18293307
_cell_angle_alpha   90.01372430
_cell_angle_beta   90.00000000
_cell_angle_gamma   119.89215340
_symmetry_Int_Tables_number   1
_chemical_formula_structural   DySc5H18
_chemical_formula_sum   'Dy1 Sc5 H18'
_cell_volume   187.97149744
_cell_formula_units_Z   1
loop_
 _symmetry_equiv_pos_site_id
 _symmetry_equiv_pos_as_xyz
  1  'x, y, z'
loop_
 _atom_site_type_symbol
 _atom_site_label
 _atom_site_symmetry_multiplicity
 _atom_site_fract_x
 _atom_site_fract_y
 _atom_site_fract_z
 _atom_site_occupancy
  Dy  Dy0  1  0.334433  0.000000  0.250000  1
  Sc  Sc1  1  0.660830  0.000000  0.750000  1
  Sc  Sc2  1  0.340977  0.344406  0.749624  1
  Sc  Sc3  1  0.996572  0.655594  0.750376  1
  Sc  Sc4  1  0.670591  0.669447  0.250271  1
  Sc  Sc5  1  0.001145  0.330553  0.249729  1
  H  H6  1  0.331157  0.949756  0.900079  1
  H  H7  1  0.627767  0.668756  0.909605  1
  H  H8  1  0.041111  0.374701  0.910252  1
  H  H9  1  0.304528  0.331668  0.413514  1
  H  H10  1  0.008862  0.682586  0.416965  1
  H  H11  1  0.674884  0.976555  0.413957  1
  H  H12  1  0.698330  0.023445  0.086043  1
  H  H13  1  0.326277  0.317414  0.083035  1
  H  H14  1  0.972861  0.668332  0.086486  1
  H  H15  1  0.666411  0.625299  0.589748  1
  H  H16  1  0.959012  0.331244  0.590395  1
  H  H17  1  0.381402  0.050244  0.599921  1
  H  H18  1  0.002811  0.000000  0.750000  1
  H  H19  1  0.986289  0.000000  0.250000  1
  H  H20  1  0.664413  0.331062  0.823269  1
  H  H21  1  0.682704  0.349419  0.291304  1
  H  H22  1  0.333284  0.650581  0.208696  1
  H  H23  1  0.333351  0.668938  0.676731  1
