# generated using pymatgen
data_CaNd3Al18(Pt2Rh)2
_symmetry_space_group_name_H-M   'P 1'
_cell_length_a   7.67460904
_cell_length_b   7.66438280
_cell_length_c   9.55433000
_cell_angle_alpha   90.00000000
_cell_angle_beta   90.00000000
_cell_angle_gamma   119.65848227
_symmetry_Int_Tables_number   1
_chemical_formula_structural   CaNd3Al18(Pt2Rh)2
_chemical_formula_sum   'Ca1 Nd3 Al18 Pt4 Rh2'
_cell_volume   488.36959557
_cell_formula_units_Z   1
loop_
 _symmetry_equiv_pos_site_id
 _symmetry_equiv_pos_as_xyz
  1  'x, y, z'
loop_
 _atom_site_type_symbol
 _atom_site_label
 _atom_site_symmetry_multiplicity
 _atom_site_fract_x
 _atom_site_fract_y
 _atom_site_fract_z
 _atom_site_occupancy
  Ca  Ca0  1  0.994389  0.667341  0.750000  1
  Nd  Nd1  1  0.005219  0.334457  0.250000  1
  Nd  Nd2  1  0.667621  0.995926  0.750000  1
  Nd  Nd3  1  0.331887  0.002998  0.250000  1
  Al  Al4  1  0.123663  0.124308  0.750000  1
  Al  Al5  1  0.875342  0.873899  0.250000  1
  Al  Al6  1  0.001900  0.333042  0.576242  1
  Al  Al7  1  0.998332  0.669968  0.430191  1
  Al  Al8  1  0.998332  0.669968  0.069809  1
  Al  Al9  1  0.327154  0.998443  0.923748  1
  Al  Al10  1  0.001900  0.333042  0.923758  1
  Al  Al11  1  0.669973  0.998182  0.073866  1
  Al  Al12  1  0.669973  0.998182  0.426134  1
  Al  Al13  1  0.327154  0.998443  0.576252  1
  Al  Al14  1  0.330409  0.330124  0.050317  1
  Al  Al15  1  0.671406  0.669605  0.946412  1
  Al  Al16  1  0.671406  0.669605  0.553588  1
  Al  Al17  1  0.330409  0.330124  0.449683  1
  Al  Al18  1  0.341857  0.544737  0.750000  1
  Al  Al19  1  0.661092  0.457539  0.250000  1
  Al  Al20  1  0.543575  0.339973  0.750000  1
  Al  Al21  1  0.458448  0.659498  0.250000  1
  Pt  Pt22  1  0.670720  0.327730  0.500379  1
  Pt  Pt23  1  0.328875  0.671385  0.500165  1
  Pt  Pt24  1  0.328875  0.671385  0.999835  1
  Pt  Pt25  1  0.670720  0.327730  0.999621  1
  Rh  Rh26  1  0.999686  0.001184  0.500118  1
  Rh  Rh27  1  0.999686  0.001184  0.999882  1
