# generated using pymatgen
data_Nd3Ag(Rh2O7)2
_symmetry_space_group_name_H-M   'P 1'
_cell_length_a   7.44708853
_cell_length_b   7.24214216
_cell_length_c   7.44708800
_cell_angle_alpha   59.05937459
_cell_angle_beta   60.00000234
_cell_angle_gamma   59.05937645
_symmetry_Int_Tables_number   1
_chemical_formula_structural   Nd3Ag(Rh2O7)2
_chemical_formula_sum   'Nd3 Ag1 Rh4 O14'
_cell_volume   279.89934005
_cell_formula_units_Z   1
loop_
 _symmetry_equiv_pos_site_id
 _symmetry_equiv_pos_as_xyz
  1  'x, y, z'
loop_
 _atom_site_type_symbol
 _atom_site_label
 _atom_site_symmetry_multiplicity
 _atom_site_fract_x
 _atom_site_fract_y
 _atom_site_fract_z
 _atom_site_occupancy
  Nd  Nd0  1  0.125000  0.125000  0.125000  1
  Nd  Nd1  1  0.625000  0.125000  0.125000  1
  Nd  Nd2  1  0.125000  0.125000  0.625000  1
  Ag  Ag3  1  0.125000  0.625000  0.125000  1
  Rh  Rh4  1  0.625000  0.625000  0.625000  1
  Rh  Rh5  1  0.625000  0.625000  0.125000  1
  Rh  Rh6  1  0.125000  0.625000  0.625000  1
  Rh  Rh7  1  0.625000  0.125000  0.625000  1
  O  O8  1  0.243411  0.269767  0.243411  1
  O  O9  1  0.301405  0.701559  0.301405  1
  O  O10  1  0.956793  0.961911  0.540648  1
  O  O11  1  0.540648  0.961911  0.540648  1
  O  O12  1  0.695632  0.701559  0.301405  1
  O  O13  1  0.948595  0.548441  0.554368  1
  O  O14  1  0.709352  0.288089  0.709352  1
  O  O15  1  0.293207  0.288089  0.709352  1
  O  O16  1  0.709352  0.288089  0.293207  1
  O  O17  1  0.301405  0.701559  0.695632  1
  O  O18  1  0.948595  0.548441  0.948595  1
  O  O19  1  0.554368  0.548441  0.948595  1
  O  O20  1  0.006589  0.980233  0.006589  1
  O  O21  1  0.540648  0.961911  0.956793  1
