# generated using pymatgen
data_Y4Al12(Ga4Pt3)3
_symmetry_space_group_name_H-M   'P 1'
_cell_length_a   7.51509257
_cell_length_b   7.51638447
_cell_length_c   13.24760500
_cell_angle_alpha   84.57387658
_cell_angle_beta   100.76334490
_cell_angle_gamma   119.90345125
_symmetry_Int_Tables_number   1
_chemical_formula_structural   Y4Al12(Ga4Pt3)3
_chemical_formula_sum   'Y4 Al12 Ga12 Pt9'
_cell_volume   637.27047987
_cell_formula_units_Z   1
loop_
 _symmetry_equiv_pos_site_id
 _symmetry_equiv_pos_as_xyz
  1  'x, y, z'
loop_
 _atom_site_type_symbol
 _atom_site_label
 _atom_site_symmetry_multiplicity
 _atom_site_fract_x
 _atom_site_fract_y
 _atom_site_fract_z
 _atom_site_occupancy
  Y  Y0  1  0.735923  0.001214  0.192411  1
  Y  Y1  1  0.264077  0.998786  0.807589  1
  Y  Y2  1  0.060707  0.664206  0.191161  1
  Y  Y3  1  0.939293  0.335794  0.808839  1
  Al  Al4  1  0.852501  0.331899  0.558277  1
  Al  Al5  1  0.187471  0.000054  0.558335  1
  Al  Al6  1  0.812529  0.999946  0.441665  1
  Al  Al7  1  0.351784  0.999517  0.054695  1
  Al  Al8  1  0.648216  0.000483  0.945305  1
  Al  Al9  1  0.556204  0.994771  0.668868  1
  Al  Al10  1  0.443796  0.005229  0.331132  1
  Al  Al11  1  0.519777  0.666618  0.560933  1
  Al  Al12  1  0.480223  0.333382  0.439067  1
  Al  Al13  1  0.683936  0.666631  0.048155  1
  Al  Al14  1  0.316064  0.333369  0.951845  1
  Al  Al15  1  0.147499  0.668101  0.441723  1
  Ga  Ga16  1  0.803517  0.871544  0.814695  1
  Ga  Ga17  1  0.196483  0.128456  0.185305  1
  Ga  Ga18  1  0.981860  0.666600  0.940418  1
  Ga  Ga19  1  0.018140  0.333400  0.059582  1
  Ga  Ga20  1  0.401171  0.664936  0.815635  1
  Ga  Ga21  1  0.598829  0.335064  0.184365  1
  Ga  Ga22  1  0.884472  0.665434  0.669800  1
  Ga  Ga23  1  0.115528  0.334566  0.330200  1
  Ga  Ga24  1  0.600151  0.457943  0.814709  1
  Ga  Ga25  1  0.399849  0.542057  0.185291  1
  Ga  Ga26  1  0.227613  0.336619  0.670603  1
  Ga  Ga27  1  0.772387  0.663381  0.329397  1
  Pt  Pt28  1  0.336134  0.674207  0.000694  1
  Pt  Pt29  1  0.545740  0.322768  0.634376  1
  Pt  Pt30  1  0.454260  0.677232  0.365624  1
  Pt  Pt31  1  0.881836  0.005841  0.635160  1
  Pt  Pt32  1  0.118164  0.994159  0.364840  1
  Pt  Pt33  1  0.663866  0.325793  0.999306  1
  Pt  Pt34  1  0.208489  0.669973  0.635563  1
  Pt  Pt35  1  0.791511  0.330027  0.364437  1
  Pt  Pt36  1  0.000000  0.000000  0.000000  1
