# generated using pymatgen
data_YbGd4Ho3(B6Ru)4
_symmetry_space_group_name_H-M   'P 1'
_cell_length_a   3.67415400
_cell_length_b   9.14480003
_cell_length_c   11.53006103
_cell_angle_alpha   89.99150335
_cell_angle_beta   90.00000000
_cell_angle_gamma   90.00000000
_symmetry_Int_Tables_number   1
_chemical_formula_structural   YbGd4Ho3(B6Ru)4
_chemical_formula_sum   'Yb1 Gd4 Ho3 B24 Ru4'
_cell_volume   387.40316978
_cell_formula_units_Z   1
loop_
 _symmetry_equiv_pos_site_id
 _symmetry_equiv_pos_as_xyz
  1  'x, y, z'
loop_
 _atom_site_type_symbol
 _atom_site_label
 _atom_site_symmetry_multiplicity
 _atom_site_fract_x
 _atom_site_fract_y
 _atom_site_fract_z
 _atom_site_occupancy
  Yb  Yb0  1  0.000000  0.943331  0.371009  1
  Gd  Gd1  1  0.000000  0.322006  0.413119  1
  Gd  Gd2  1  0.000000  0.677681  0.584037  1
  Gd  Gd3  1  0.000000  0.823534  0.087979  1
  Gd  Gd4  1  0.000000  0.176961  0.915220  1
  Ho  Ho5  1  0.000000  0.055932  0.626857  1
  Ho  Ho6  1  0.000000  0.443588  0.128572  1
  Ho  Ho7  1  0.000000  0.556750  0.871873  1
  B  B8  1  0.500000  0.554665  0.431722  1
  B  B9  1  0.500000  0.445222  0.567670  1
  B  B10  1  0.500000  0.054536  0.068547  1
  B  B11  1  0.500000  0.945609  0.932358  1
  B  B12  1  0.500000  0.748976  0.418435  1
  B  B13  1  0.500000  0.251040  0.580422  1
  B  B14  1  0.500000  0.248398  0.081218  1
  B  B15  1  0.500000  0.751688  0.919357  1
  B  B16  1  0.500000  0.791154  0.267019  1
  B  B17  1  0.500000  0.208999  0.733309  1
  B  B18  1  0.500000  0.289991  0.233511  1
  B  B19  1  0.500000  0.709625  0.766390  1
  B  B20  1  0.500000  0.631706  0.185975  1
  B  B21  1  0.500000  0.368474  0.814717  1
  B  B22  1  0.500000  0.130572  0.314751  1
  B  B23  1  0.500000  0.868450  0.684621  1
  B  B24  1  0.500000  0.984281  0.213584  1
  B  B25  1  0.500000  0.015835  0.786745  1
  B  B26  1  0.500000  0.484057  0.287285  1
  B  B27  1  0.500000  0.515775  0.712869  1
  B  B28  1  0.500000  0.607050  0.029574  1
  B  B29  1  0.500000  0.393381  0.970583  1
  B  B30  1  0.500000  0.105770  0.470842  1
  B  B31  1  0.500000  0.894347  0.529156  1
  Ru  Ru32  1  0.000000  0.638349  0.320268  1
  Ru  Ru33  1  0.000000  0.361558  0.679678  1
  Ru  Ru34  1  0.000000  0.138725  0.179591  1
  Ru  Ru35  1  0.000000  0.861984  0.821135  1
