# generated using pymatgen
data_Sc6Ti4Al12Co4Ru3
_symmetry_space_group_name_H-M   'P 1'
_cell_length_a   8.70545154
_cell_length_b   8.66486902
_cell_length_c   8.72101600
_cell_angle_alpha   59.78542370
_cell_angle_beta   59.94084676
_cell_angle_gamma   60.21622023
_symmetry_Int_Tables_number   1
_chemical_formula_structural   Sc6Ti4Al12Co4Ru3
_chemical_formula_sum   'Sc6 Ti4 Al12 Co4 Ru3'
_cell_volume   464.94754020
_cell_formula_units_Z   1
loop_
 _symmetry_equiv_pos_site_id
 _symmetry_equiv_pos_as_xyz
  1  'x, y, z'
loop_
 _atom_site_type_symbol
 _atom_site_label
 _atom_site_symmetry_multiplicity
 _atom_site_fract_x
 _atom_site_fract_y
 _atom_site_fract_z
 _atom_site_occupancy
  Sc  Sc0  1  0.707893  0.287844  0.292037  1
  Sc  Sc1  1  0.707893  0.287844  0.712226  1
  Sc  Sc2  1  0.704420  0.711460  0.292060  1
  Sc  Sc3  1  0.292586  0.711044  0.707394  1
  Sc  Sc4  1  0.292586  0.711044  0.288976  1
  Sc  Sc5  1  0.295911  0.287679  0.708205  1
  Ti  Ti6  1  0.639864  0.123351  0.118392  1
  Ti  Ti7  1  0.117838  0.640353  0.120903  1
  Ti  Ti8  1  0.115980  0.123871  0.639699  1
  Ti  Ti9  1  0.115980  0.123871  0.120448  1
  Al  Al10  1  0.359607  0.876841  0.881776  1
  Al  Al11  1  0.881532  0.361164  0.878652  1
  Al  Al12  1  0.883445  0.876618  0.360318  1
  Al  Al13  1  0.883445  0.876618  0.879620  1
  Al  Al14  1  0.995172  0.335715  0.334557  1
  Al  Al15  1  0.326333  0.002138  0.335766  1
  Al  Al16  1  0.330026  0.340190  0.998850  1
  Al  Al17  1  0.330026  0.340190  0.330935  1
  Al  Al18  1  0.006874  0.663865  0.664631  1
  Al  Al19  1  0.673657  0.997819  0.664263  1
  Al  Al20  1  0.669326  0.659721  0.002476  1
  Al  Al21  1  0.669326  0.659721  0.668478  1
  Co  Co22  1  0.496998  0.497995  0.002503  1
  Co  Co23  1  0.002364  0.497696  0.497202  1
  Co  Co24  1  0.002364  0.497696  0.002738  1
  Co  Co25  1  0.002036  0.003170  0.497397  1
  Ru  Ru26  1  0.998912  0.001439  0.999824  1
  Ru  Ru27  1  0.498805  0.001521  0.001033  1
  Ru  Ru28  1  0.498805  0.001521  0.498641  1
