# generated using pymatgen
data_DyEr15In4Ir3Ru
_symmetry_space_group_name_H-M   'P 1'
_cell_length_a   9.58871605
_cell_length_b   9.58871494
_cell_length_c   9.58530936
_cell_angle_alpha   59.97814375
_cell_angle_beta   59.97813967
_cell_angle_gamma   59.97401155
_symmetry_Int_Tables_number   1
_chemical_formula_structural   DyEr15In4Ir3Ru
_chemical_formula_sum   'Dy1 Er15 In4 Ir3 Ru1'
_cell_volume   622.84950310
_cell_formula_units_Z   1
loop_
 _symmetry_equiv_pos_site_id
 _symmetry_equiv_pos_as_xyz
  1  'x, y, z'
loop_
 _atom_site_type_symbol
 _atom_site_label
 _atom_site_symmetry_multiplicity
 _atom_site_fract_x
 _atom_site_fract_y
 _atom_site_fract_z
 _atom_site_occupancy
  Dy  Dy0  1  0.059680  0.059680  0.441050  1
  Er  Er1  1  0.650655  0.046396  0.650973  1
  Er  Er2  1  0.191693  0.809061  0.191604  1
  Er  Er3  1  0.439560  0.060839  0.439347  1
  Er  Er4  1  0.191657  0.191657  0.809048  1
  Er  Er5  1  0.651159  0.651159  0.651187  1
  Er  Er6  1  0.046396  0.650655  0.650973  1
  Er  Er7  1  0.441408  0.059522  0.059090  1
  Er  Er8  1  0.650932  0.650932  0.046442  1
  Er  Er9  1  0.190031  0.809205  0.809364  1
  Er  Er10  1  0.809205  0.190031  0.809364  1
  Er  Er11  1  0.809061  0.191693  0.191604  1
  Er  Er12  1  0.809308  0.809308  0.189927  1
  Er  Er13  1  0.060839  0.439560  0.439347  1
  Er  Er14  1  0.439161  0.439161  0.060959  1
  Er  Er15  1  0.059522  0.441408  0.059090  1
  In  In16  1  0.748929  0.417542  0.417067  1
  In  In17  1  0.417099  0.417099  0.749167  1
  In  In18  1  0.417542  0.748929  0.417067  1
  In  In19  1  0.416954  0.416954  0.417218  1
  Ir  Ir20  1  0.422786  0.858692  0.858853  1
  Ir  Ir21  1  0.858568  0.858568  0.422720  1
  Ir  Ir22  1  0.858692  0.422786  0.858853  1
  Ru  Ru23  1  0.859167  0.859167  0.859688  1
