# generated using pymatgen
data_Tb20Ir6RuRh5
_symmetry_space_group_name_H-M   'P 1'
_cell_length_a   10.90734643
_cell_length_b   10.91188308
_cell_length_c   6.44989121
_cell_angle_alpha   89.99898768
_cell_angle_beta   89.97087079
_cell_angle_gamma   90.01364421
_symmetry_Int_Tables_number   1
_chemical_formula_structural   Tb20Ir6RuRh5
_chemical_formula_sum   'Tb20 Ir6 Ru1 Rh5'
_cell_volume   767.66392419
_cell_formula_units_Z   1
loop_
 _symmetry_equiv_pos_site_id
 _symmetry_equiv_pos_as_xyz
  1  'x, y, z'
loop_
 _atom_site_type_symbol
 _atom_site_label
 _atom_site_symmetry_multiplicity
 _atom_site_fract_x
 _atom_site_fract_y
 _atom_site_fract_z
 _atom_site_occupancy
  Tb  Tb0  1  0.291480  0.087371  0.380561  1
  Tb  Tb1  1  0.292663  0.912658  0.885788  1
  Tb  Tb2  1  0.705546  0.090062  0.885326  1
  Tb  Tb3  1  0.706500  0.910236  0.379105  1
  Tb  Tb4  1  0.586133  0.792271  0.885662  1
  Tb  Tb5  1  0.586001  0.208816  0.380246  1
  Tb  Tb6  1  0.410854  0.791835  0.380135  1
  Tb  Tb7  1  0.410844  0.207157  0.885313  1
  Tb  Tb8  1  0.209931  0.409402  0.617386  1
  Tb  Tb9  1  0.209831  0.589269  0.116408  1
  Tb  Tb10  1  0.790288  0.413243  0.118651  1
  Tb  Tb11  1  0.790214  0.588097  0.619459  1
  Tb  Tb12  1  0.912514  0.709396  0.118232  1
  Tb  Tb13  1  0.911256  0.290534  0.619233  1
  Tb  Tb14  1  0.092444  0.708246  0.618163  1
  Tb  Tb15  1  0.091007  0.291846  0.117105  1
  Tb  Tb16  1  0.999432  0.999047  0.497934  1
  Tb  Tb17  1  0.999526  0.000870  0.997893  1
  Tb  Tb18  1  0.500339  0.499334  0.997749  1
  Tb  Tb19  1  0.500368  0.500545  0.497795  1
  Ir  Ir20  1  0.152106  0.153726  0.749282  1
  Ir  Ir21  1  0.151284  0.844748  0.249129  1
  Ir  Ir22  1  0.655015  0.346674  0.748978  1
  Ir  Ir23  1  0.656540  0.652205  0.248850  1
  Ir  Ir24  1  0.345504  0.347502  0.249619  1
  Ir  Ir25  1  0.347114  0.653635  0.749978  1
  Ru  Ru26  1  0.500929  0.000049  0.128757  1
  Rh  Rh27  1  0.847271  0.154483  0.249822  1
  Rh  Rh28  1  0.846618  0.846794  0.749555  1
  Rh  Rh29  1  0.500481  0.000011  0.626536  1
  Rh  Rh30  1  0.999999  0.500118  0.875040  1
  Rh  Rh31  1  0.999968  0.499821  0.376308  1
