# generated using pymatgen
data_Sc2U(AlFe)3
_symmetry_space_group_name_H-M   'P 1'
_cell_length_a   6.48250190
_cell_length_b   6.48250181
_cell_length_c   3.80835700
_cell_angle_alpha   90.00000000
_cell_angle_beta   90.00000000
_cell_angle_gamma   116.15765268
_symmetry_Int_Tables_number   1
_chemical_formula_structural   Sc2U(AlFe)3
_chemical_formula_sum   'Sc2 U1 Al3 Fe3'
_cell_volume   143.64756500
_cell_formula_units_Z   1
loop_
 _symmetry_equiv_pos_site_id
 _symmetry_equiv_pos_as_xyz
  1  'x, y, z'
loop_
 _atom_site_type_symbol
 _atom_site_label
 _atom_site_symmetry_multiplicity
 _atom_site_fract_x
 _atom_site_fract_y
 _atom_site_fract_z
 _atom_site_occupancy
  Sc  Sc0  1  0.412380  0.008222  0.500000  1
  Sc  Sc1  1  0.008222  0.412380  0.500000  1
  U  U2  1  0.616474  0.616474  0.500000  1
  Al  Al3  1  0.745103  0.035520  0.000000  1
  Al  Al4  1  0.035520  0.745103  0.000000  1
  Al  Al5  1  0.207759  0.207759  0.000000  1
  Fe  Fe6  1  0.388322  0.632682  0.000000  1
  Fe  Fe7  1  0.632682  0.388322  0.000000  1
  Fe  Fe8  1  0.953539  0.953539  0.500000  1
