# generated using pymatgen
data_Dy15Y5(InSi2)4
_symmetry_space_group_name_H-M   'P 1'
_cell_length_a   7.56772362
_cell_length_b   7.56785443
_cell_length_c   14.00610500
_cell_angle_alpha   89.98662972
_cell_angle_beta   89.97687795
_cell_angle_gamma   89.96735628
_symmetry_Int_Tables_number   1
_chemical_formula_structural   Dy15Y5(InSi2)4
_chemical_formula_sum   'Dy15 Y5 In4 Si8'
_cell_volume   802.14945491
_cell_formula_units_Z   1
loop_
 _symmetry_equiv_pos_site_id
 _symmetry_equiv_pos_as_xyz
  1  'x, y, z'
loop_
 _atom_site_type_symbol
 _atom_site_label
 _atom_site_symmetry_multiplicity
 _atom_site_fract_x
 _atom_site_fract_y
 _atom_site_fract_z
 _atom_site_occupancy
  Dy  Dy0  1  0.831541  0.829014  0.890011  1
  Dy  Dy1  1  0.170585  0.169131  0.609880  1
  Dy  Dy2  1  0.831550  0.169727  0.389972  1
  Dy  Dy3  1  0.167678  0.830253  0.390136  1
  Dy  Dy4  1  0.328736  0.330998  0.389770  1
  Dy  Dy5  1  0.830169  0.167592  0.110479  1
  Dy  Dy6  1  0.329088  0.668585  0.889780  1
  Dy  Dy7  1  0.170757  0.831724  0.109838  1
  Dy  Dy8  1  0.500253  0.999847  0.751875  1
  Dy  Dy9  1  0.000019  0.500035  0.247720  1
  Dy  Dy10  1  0.331360  0.670575  0.610075  1
  Dy  Dy11  1  0.668229  0.670849  0.110084  1
  Dy  Dy12  1  0.667997  0.330037  0.610023  1
  Dy  Dy13  1  0.999876  0.500073  0.747711  1
  Dy  Dy14  1  0.499640  0.999527  0.252365  1
  Y  Y15  1  0.830375  0.832196  0.609952  1
  Y  Y16  1  0.670417  0.332071  0.889913  1
  Y  Y17  1  0.168147  0.169961  0.889661  1
  Y  Y18  1  0.670532  0.667727  0.389822  1
  Y  Y19  1  0.332830  0.330114  0.110383  1
  In  In20  1  0.000172  0.499595  0.001270  1
  In  In21  1  0.499977  0.000379  0.999183  1
  In  In22  1  0.500051  0.999870  0.499205  1
  In  In23  1  0.999879  0.500111  0.500742  1
  Si  Si24  1  0.625280  0.374554  0.250241  1
  Si  Si25  1  0.374606  0.625348  0.250166  1
  Si  Si26  1  0.125188  0.124957  0.250016  1
  Si  Si27  1  0.374776  0.375232  0.749870  1
  Si  Si28  1  0.125418  0.874824  0.749922  1
  Si  Si29  1  0.874918  0.874642  0.249897  1
  Si  Si30  1  0.625008  0.625375  0.750149  1
  Si  Si31  1  0.874948  0.125077  0.749889  1
