# generated using pymatgen
data_Ba8Ce3(OsO6)4
_symmetry_space_group_name_H-M   'P 1'
_cell_length_a   8.49559866
_cell_length_b   8.49559847
_cell_length_c   10.43441038
_cell_angle_alpha   114.02249019
_cell_angle_beta   114.02248665
_cell_angle_gamma   90.00000913
_symmetry_Int_Tables_number   1
_chemical_formula_structural   Ba8Ce3(OsO6)4
_chemical_formula_sum   'Ba8 Ce3 Os4 O24'
_cell_volume   615.77470629
_cell_formula_units_Z   1
loop_
 _symmetry_equiv_pos_site_id
 _symmetry_equiv_pos_as_xyz
  1  'x, y, z'
loop_
 _atom_site_type_symbol
 _atom_site_label
 _atom_site_symmetry_multiplicity
 _atom_site_fract_x
 _atom_site_fract_y
 _atom_site_fract_z
 _atom_site_occupancy
  Ba  Ba0  1  0.653443  0.114740  0.768184  1
  Ba  Ba1  1  0.653443  0.653443  0.768184  1
  Ba  Ba2  1  0.885260  0.346557  0.231816  1
  Ba  Ba3  1  0.346557  0.346557  0.231816  1
  Ba  Ba4  1  0.114740  0.114740  0.768184  1
  Ba  Ba5  1  0.346557  0.885260  0.231816  1
  Ba  Ba6  1  0.885260  0.885260  0.231816  1
  Ba  Ba7  1  0.114740  0.653443  0.768184  1
  Ce  Ce8  1  0.750000  0.250000  0.500000  1
  Ce  Ce9  1  0.250000  0.750000  0.500000  1
  Ce  Ce10  1  0.500000  0.500000  0.000000  1
  Os  Os11  1  0.254113  0.254113  0.508226  1
  Os  Os12  1  0.745887  0.745887  0.491774  1
  Os  Os13  1  0.500000  0.000000  0.000000  1
  Os  Os14  1  0.000000  0.500000  0.000000  1
  O  O15  1  0.765977  0.500000  0.000000  1
  O  O16  1  0.629079  0.629079  0.258158  1
  O  O17  1  0.017713  0.252807  0.505616  1
  O  O18  1  0.982287  0.747193  0.494384  1
  O  O19  1  0.252808  0.017713  0.505616  1
  O  O20  1  0.234023  0.500000  0.000000  1
  O  O21  1  0.117488  0.617488  0.234975  1
  O  O22  1  0.000000  0.271354  0.000000  1
  O  O23  1  0.747192  0.982287  0.494384  1
  O  O24  1  0.500000  0.765977  0.000000  1
  O  O25  1  0.882512  0.382512  0.765025  1
  O  O26  1  0.747192  0.512097  0.494384  1
  O  O27  1  0.487903  0.252807  0.505616  1
  O  O28  1  0.370921  0.370921  0.741842  1
  O  O29  1  0.000000  0.728646  0.000000  1
  O  O30  1  0.500000  0.234023  0.000000  1
  O  O31  1  0.271354  0.000000  0.000000  1
  O  O32  1  0.252808  0.487903  0.505616  1
  O  O33  1  0.858588  0.858588  0.717177  1
  O  O34  1  0.382512  0.882512  0.765025  1
  O  O35  1  0.141412  0.141412  0.282823  1
  O  O36  1  0.728646  0.000000  0.000000  1
  O  O37  1  0.512097  0.747193  0.494384  1
  O  O38  1  0.617488  0.117488  0.234975  1
