# generated using pymatgen
data_Er5Tm3(P3Ir4)4
_symmetry_space_group_name_H-M   'P 1'
_cell_length_a   12.94768300
_cell_length_b   12.94768377
_cell_length_c   3.98824200
_cell_angle_alpha   90.00000000
_cell_angle_beta   90.00000000
_cell_angle_gamma   120.00000058
_symmetry_Int_Tables_number   1
_chemical_formula_structural   Er5Tm3(P3Ir4)4
_chemical_formula_sum   'Er5 Tm3 P12 Ir16'
_cell_volume   579.02361130
_cell_formula_units_Z   1
loop_
 _symmetry_equiv_pos_site_id
 _symmetry_equiv_pos_as_xyz
  1  'x, y, z'
loop_
 _atom_site_type_symbol
 _atom_site_label
 _atom_site_symmetry_multiplicity
 _atom_site_fract_x
 _atom_site_fract_y
 _atom_site_fract_z
 _atom_site_occupancy
  Er  Er0  1  0.333333  0.666667  0.500000  1
  Er  Er1  1  0.666667  0.333333  0.500000  1
  Er  Er2  1  0.000000  0.814233  0.000000  1
  Er  Er3  1  0.185767  0.185767  0.000000  1
  Er  Er4  1  0.814233  0.000000  0.000000  1
  Tm  Tm5  1  0.000000  0.446264  0.500000  1
  Tm  Tm6  1  0.553736  0.553736  0.500000  1
  Tm  Tm7  1  0.446264  0.000000  0.500000  1
  P  P8  1  0.000000  0.652267  0.500000  1
  P  P9  1  0.347733  0.347733  0.500000  1
  P  P10  1  0.652267  0.000000  0.500000  1
  P  P11  1  0.516523  0.688229  0.000000  1
  P  P12  1  0.311771  0.828294  0.000000  1
  P  P13  1  0.171706  0.483477  0.000000  1
  P  P14  1  0.483477  0.171706  0.000000  1
  P  P15  1  0.688229  0.516523  0.000000  1
  P  P16  1  0.828294  0.311771  0.000000  1
  P  P17  1  0.000000  0.176234  0.500000  1
  P  P18  1  0.823766  0.823766  0.500000  1
  P  P19  1  0.176234  0.000000  0.500000  1
  Ir  Ir20  1  0.509119  0.865752  0.000000  1
  Ir  Ir21  1  0.134248  0.643367  0.000000  1
  Ir  Ir22  1  0.356633  0.490881  0.000000  1
  Ir  Ir23  1  0.490881  0.356633  0.000000  1
  Ir  Ir24  1  0.865752  0.509119  0.000000  1
  Ir  Ir25  1  0.643367  0.134248  0.000000  1
  Ir  Ir26  1  0.000000  0.274868  0.000000  1
  Ir  Ir27  1  0.725132  0.725132  0.000000  1
  Ir  Ir28  1  0.274868  0.000000  0.000000  1
  Ir  Ir29  1  0.630288  0.809191  0.500000  1
  Ir  Ir30  1  0.190809  0.821097  0.500000  1
  Ir  Ir31  1  0.178903  0.369712  0.500000  1
  Ir  Ir32  1  0.369712  0.178903  0.500000  1
  Ir  Ir33  1  0.809191  0.630288  0.500000  1
  Ir  Ir34  1  0.821097  0.190809  0.500000  1
  Ir  Ir35  1  0.000000  0.000000  0.500000  1
