# generated using pymatgen
data_Ca(TbCo)2
_symmetry_space_group_name_H-M   'P 1'
_cell_length_a   3.92937200
_cell_length_b   3.92937376
_cell_length_c   20.47997400
_cell_angle_alpha   90.00000000
_cell_angle_beta   90.00000000
_cell_angle_gamma   119.99998522
_symmetry_Int_Tables_number   1
_chemical_formula_structural   Ca(TbCo)2
_chemical_formula_sum   'Ca2 Tb4 Co4'
_cell_volume   273.84611470
_cell_formula_units_Z   2
loop_
 _symmetry_equiv_pos_site_id
 _symmetry_equiv_pos_as_xyz
  1  'x, y, z'
loop_
 _atom_site_type_symbol
 _atom_site_label
 _atom_site_symmetry_multiplicity
 _atom_site_fract_x
 _atom_site_fract_y
 _atom_site_fract_z
 _atom_site_occupancy
  Ca  Ca0  1  0.666668  0.333334  0.250000  1
  Ca  Ca1  1  0.333333  0.666665  0.750000  1
  Tb  Tb2  1  0.000000  0.000000  0.086836  1
  Tb  Tb3  1  0.000000  0.000000  0.413164  1
  Tb  Tb4  1  0.000000  0.000000  0.586836  1
  Tb  Tb5  1  0.000000  0.000000  0.913164  1
  Co  Co6  1  0.333333  0.666665  0.999249  1
  Co  Co7  1  0.333333  0.666665  0.500751  1
  Co  Co8  1  0.666668  0.333334  0.499250  1
  Co  Co9  1  0.666668  0.333334  0.000751  1
