# generated using pymatgen
data_HoEr3(Co2O5)4
_symmetry_space_group_name_H-M   'P 1'
_cell_length_a   5.68163314
_cell_length_b   7.17569970
_cell_length_c   8.33837911
_cell_angle_alpha   90.00120084
_cell_angle_beta   90.07253652
_cell_angle_gamma   89.99381699
_symmetry_Int_Tables_number   1
_chemical_formula_structural   HoEr3(Co2O5)4
_chemical_formula_sum   'Ho1 Er3 Co8 O20'
_cell_volume   339.95288346
_cell_formula_units_Z   1
loop_
 _symmetry_equiv_pos_site_id
 _symmetry_equiv_pos_as_xyz
  1  'x, y, z'
loop_
 _atom_site_type_symbol
 _atom_site_label
 _atom_site_symmetry_multiplicity
 _atom_site_fract_x
 _atom_site_fract_y
 _atom_site_fract_z
 _atom_site_occupancy
  Ho  Ho0  1  0.000222  0.862393  0.828222  1
  Er  Er1  1  0.999786  0.637980  0.328256  1
  Er  Er2  1  0.000134  0.361923  0.671666  1
  Er  Er3  1  0.999719  0.138163  0.171961  1
  Co  Co4  1  0.499526  0.908734  0.151105  1
  Co  Co5  1  0.500486  0.091563  0.849260  1
  Co  Co6  1  0.500220  0.408550  0.349156  1
  Co  Co7  1  0.499756  0.591325  0.650624  1
  Co  Co8  1  0.254959  0.499673  0.000091  1
  Co  Co9  1  0.745063  0.000282  0.499995  1
  Co  Co10  1  0.745428  0.499779  0.999880  1
  Co  Co11  1  0.254509  0.000029  0.499977  1
  O  O12  1  0.272704  0.499901  0.500077  1
  O  O13  1  0.726835  0.999954  0.999832  1
  O  O14  1  0.727136  0.500200  0.499736  1
  O  O15  1  0.273744  0.000993  0.000835  1
  O  O16  1  0.000240  0.663419  0.055479  1
  O  O17  1  0.000194  0.335948  0.944890  1
  O  O18  1  0.000051  0.164082  0.445031  1
  O  O19  1  0.999475  0.836299  0.554146  1
  O  O20  1  0.500653  0.651944  0.068915  1
  O  O21  1  0.499889  0.347577  0.931160  1
  O  O22  1  0.499720  0.152132  0.431611  1
  O  O23  1  0.499846  0.847765  0.568839  1
  O  O24  1  0.241783  0.895571  0.292759  1
  O  O25  1  0.242697  0.104584  0.707206  1
  O  O26  1  0.757835  0.395143  0.207299  1
  O  O27  1  0.757382  0.603657  0.792542  1
  O  O28  1  0.757443  0.104948  0.706937  1
  O  O29  1  0.757500  0.896316  0.292507  1
  O  O30  1  0.242596  0.603807  0.792657  1
  O  O31  1  0.242474  0.395366  0.207353  1
