# generated using pymatgen
data_Sr5Pa2PbO12
_symmetry_space_group_name_H-M   'P 1'
_cell_length_a   6.06546429
_cell_length_b   6.23981731
_cell_length_c   8.66070112
_cell_angle_alpha   89.28843124
_cell_angle_beta   89.61242572
_cell_angle_gamma   89.97190503
_symmetry_Int_Tables_number   1
_chemical_formula_structural   Sr5Pa2PbO12
_chemical_formula_sum   'Sr5 Pa2 Pb1 O12'
_cell_volume   327.75212178
_cell_formula_units_Z   1
loop_
 _symmetry_equiv_pos_site_id
 _symmetry_equiv_pos_as_xyz
  1  'x, y, z'
loop_
 _atom_site_type_symbol
 _atom_site_label
 _atom_site_symmetry_multiplicity
 _atom_site_fract_x
 _atom_site_fract_y
 _atom_site_fract_z
 _atom_site_occupancy
  Sr  Sr0  1  0.000000  0.000000  0.000000  1
  Sr  Sr1  1  0.982116  0.451936  0.246885  1
  Sr  Sr2  1  0.512000  0.952937  0.250458  1
  Sr  Sr3  1  0.488000  0.047063  0.749542  1
  Sr  Sr4  1  0.017884  0.548064  0.753115  1
  Pa  Pa5  1  0.500000  0.500000  0.000000  1
  Pa  Pa6  1  0.000000  0.000000  0.500000  1
  Pb  Pb7  1  0.500000  0.500000  0.500000  1
  O  O8  1  0.886978  0.950814  0.725798  1
  O  O9  1  0.790566  0.715257  0.434226  1
  O  O10  1  0.790870  0.672362  0.052092  1
  O  O11  1  0.711717  0.210882  0.441576  1
  O  O12  1  0.670086  0.211755  0.060242  1
  O  O13  1  0.611049  0.454072  0.742069  1
  O  O14  1  0.388951  0.545928  0.257931  1
  O  O15  1  0.329914  0.788245  0.939758  1
  O  O16  1  0.288283  0.789118  0.558424  1
  O  O17  1  0.209130  0.327638  0.947908  1
  O  O18  1  0.209434  0.284743  0.565774  1
  O  O19  1  0.113022  0.049186  0.274202  1
