# generated using pymatgen
data_LaPr15Cd4IrPd3
_symmetry_space_group_name_H-M   'P 1'
_cell_length_a   10.12815333
_cell_length_b   10.06388882
_cell_length_c   10.06388923
_cell_angle_alpha   59.82166241
_cell_angle_beta   60.14162071
_cell_angle_gamma   60.14161689
_symmetry_Int_Tables_number   1
_chemical_formula_structural   LaPr15Cd4IrPd3
_chemical_formula_sum   'La1 Pr15 Cd4 Ir1 Pd3'
_cell_volume   725.90875827
_cell_formula_units_Z   1
loop_
 _symmetry_equiv_pos_site_id
 _symmetry_equiv_pos_as_xyz
  1  'x, y, z'
loop_
 _atom_site_type_symbol
 _atom_site_label
 _atom_site_symmetry_multiplicity
 _atom_site_fract_x
 _atom_site_fract_y
 _atom_site_fract_z
 _atom_site_occupancy
  La  La0  1  0.351715  0.345361  0.345361  1
  Pr  Pr1  1  0.353557  0.349113  0.947980  1
  Pr  Pr2  1  0.353557  0.947980  0.349113  1
  Pr  Pr3  1  0.936650  0.354449  0.354449  1
  Pr  Pr4  1  0.807673  0.189739  0.189739  1
  Pr  Pr5  1  0.194730  0.807456  0.807456  1
  Pr  Pr6  1  0.195202  0.809427  0.190105  1
  Pr  Pr7  1  0.805398  0.189756  0.814229  1
  Pr  Pr8  1  0.195202  0.190105  0.809427  1
  Pr  Pr9  1  0.805398  0.814229  0.189756  1
  Pr  Pr10  1  0.941110  0.563589  0.563589  1
  Pr  Pr11  1  0.565781  0.936499  0.936499  1
  Pr  Pr12  1  0.567432  0.937664  0.560682  1
  Pr  Pr13  1  0.938021  0.562161  0.934894  1
  Pr  Pr14  1  0.567432  0.560682  0.937664  1
  Pr  Pr15  1  0.938021  0.934894  0.562161  1
  Cd  Cd16  1  0.578750  0.581030  0.581030  1
  Cd  Cd17  1  0.579263  0.581441  0.258805  1
  Cd  Cd18  1  0.579263  0.258805  0.581441  1
  Cd  Cd19  1  0.260253  0.579898  0.579898  1
  Ir  Ir20  1  0.569327  0.144082  0.144082  1
  Pd  Pd21  1  0.139198  0.145937  0.145937  1
  Pd  Pd22  1  0.138531  0.144888  0.570818  1
  Pd  Pd23  1  0.138531  0.570818  0.144888  1
