# generated using pymatgen
data_Nb4Fe5SiOs2
_symmetry_space_group_name_H-M   'P 1'
_cell_length_a   4.85127500
_cell_length_b   4.86675675
_cell_length_c   8.15363900
_cell_angle_alpha   90.00000000
_cell_angle_beta   90.00000000
_cell_angle_gamma   119.89481817
_symmetry_Int_Tables_number   1
_chemical_formula_structural   Nb4Fe5SiOs2
_chemical_formula_sum   'Nb4 Fe5 Si1 Os2'
_cell_volume   166.89255785
_cell_formula_units_Z   1
loop_
 _symmetry_equiv_pos_site_id
 _symmetry_equiv_pos_as_xyz
  1  'x, y, z'
loop_
 _atom_site_type_symbol
 _atom_site_label
 _atom_site_symmetry_multiplicity
 _atom_site_fract_x
 _atom_site_fract_y
 _atom_site_fract_z
 _atom_site_occupancy
  Nb  Nb0  1  0.665479  0.330957  0.068809  1
  Nb  Nb1  1  0.665479  0.330957  0.431191  1
  Nb  Nb2  1  0.332124  0.664248  0.566911  1
  Nb  Nb3  1  0.332124  0.664248  0.933089  1
  Fe  Fe4  1  0.170324  0.825308  0.249999  1
  Fe  Fe5  1  0.654984  0.825308  0.249999  1
  Fe  Fe6  1  0.349763  0.175830  0.750000  1
  Fe  Fe7  1  0.826066  0.175830  0.750000  1
  Fe  Fe8  1  0.831598  0.663197  0.750000  1
  Si  Si9  1  0.171701  0.343403  0.249999  1
  Os  Os10  1  0.000178  0.000357  0.996125  1
  Os  Os11  1  0.000178  0.000357  0.503875  1
