# generated using pymatgen
data_LaAl8SiAu4
_symmetry_space_group_name_H-M   'P 1'
_cell_length_a   6.11760122
_cell_length_b   6.11760139
_cell_length_c   14.95608423
_cell_angle_alpha   101.80133560
_cell_angle_beta   101.80133559
_cell_angle_gamma   89.99999689
_symmetry_Int_Tables_number   1
_chemical_formula_structural   LaAl8SiAu4
_chemical_formula_sum   'La2 Al16 Si2 Au8'
_cell_volume   535.80841338
_cell_formula_units_Z   2
loop_
 _symmetry_equiv_pos_site_id
 _symmetry_equiv_pos_as_xyz
  1  'x, y, z'
loop_
 _atom_site_type_symbol
 _atom_site_label
 _atom_site_symmetry_multiplicity
 _atom_site_fract_x
 _atom_site_fract_y
 _atom_site_fract_z
 _atom_site_occupancy
  La  La0  1  0.750001  0.250000  0.500000  1
  La  La1  1  0.250000  0.750001  0.500000  1
  Al  Al2  1  0.302083  0.302083  0.105692  1
  Al  Al3  1  0.803608  0.302083  0.105692  1
  Al  Al4  1  0.302083  0.803608  0.105692  1
  Al  Al5  1  0.803608  0.803608  0.105692  1
  Al  Al6  1  0.404270  0.404270  0.313324  1
  Al  Al7  1  0.909052  0.404270  0.313324  1
  Al  Al8  1  0.404270  0.909052  0.313324  1
  Al  Al9  1  0.909052  0.909052  0.313324  1
  Al  Al10  1  0.090947  0.090947  0.686676  1
  Al  Al11  1  0.595730  0.090947  0.686676  1
  Al  Al12  1  0.090947  0.595730  0.686676  1
  Al  Al13  1  0.595730  0.595730  0.686676  1
  Al  Al14  1  0.196393  0.196393  0.894308  1
  Al  Al15  1  0.697916  0.196393  0.894308  1
  Al  Al16  1  0.196393  0.697916  0.894308  1
  Al  Al17  1  0.697916  0.697916  0.894308  1
  Si  Si18  1  0.207277  0.207277  0.414556  1
  Si  Si19  1  0.792723  0.792723  0.585445  1
  Au  Au20  1  0.000000  0.000000  0.000000  1
  Au  Au21  1  0.500001  0.500001  0.000000  1
  Au  Au22  1  0.605362  0.105362  0.210724  1
  Au  Au23  1  0.105362  0.605362  0.210724  1
  Au  Au24  1  0.706032  0.706032  0.412062  1
  Au  Au25  1  0.293969  0.293969  0.587938  1
  Au  Au26  1  0.894639  0.394638  0.789275  1
  Au  Au27  1  0.394638  0.894639  0.789275  1
