# generated using pymatgen
data_NdEuAl3O7
_symmetry_space_group_name_H-M   'P 1'
_cell_length_a   7.90280100
_cell_length_b   5.23034344
_cell_length_c   7.91912092
_cell_angle_alpha   89.68173389
_cell_angle_beta   90.00000000
_cell_angle_gamma   90.00000000
_symmetry_Int_Tables_number   1
_chemical_formula_structural   NdEuAl3O7
_chemical_formula_sum   'Nd2 Eu2 Al6 O14'
_cell_volume   327.32677167
_cell_formula_units_Z   2
loop_
 _symmetry_equiv_pos_site_id
 _symmetry_equiv_pos_as_xyz
  1  'x, y, z'
loop_
 _atom_site_type_symbol
 _atom_site_label
 _atom_site_symmetry_multiplicity
 _atom_site_fract_x
 _atom_site_fract_y
 _atom_site_fract_z
 _atom_site_occupancy
  Nd  Nd0  1  0.840567  0.508953  0.092386  1
  Nd  Nd1  1  0.340567  0.491047  0.907614  1
  Eu  Eu2  1  0.162489  0.513676  0.417897  1
  Eu  Eu3  1  0.662489  0.486324  0.582103  1
  Al  Al4  1  0.356836  0.964545  0.611013  1
  Al  Al5  1  0.856836  0.035455  0.388987  1
  Al  Al6  1  0.643073  0.959763  0.896707  1
  Al  Al7  1  0.143073  0.040237  0.103293  1
  Al  Al8  1  0.500382  0.999668  0.244120  1
  Al  Al9  1  0.000382  0.000332  0.755880  1
  O  O10  1  0.357417  0.298147  0.627710  1
  O  O11  1  0.857417  0.701853  0.372290  1
  O  O12  1  0.639627  0.294619  0.904881  1
  O  O13  1  0.139627  0.705381  0.095119  1
  O  O14  1  0.003679  0.179844  0.249442  1
  O  O15  1  0.503679  0.820156  0.750558  1
  O  O16  1  0.405140  0.828905  0.412112  1
  O  O17  1  0.905140  0.171095  0.587888  1
  O  O18  1  0.581573  0.790792  0.085508  1
  O  O19  1  0.081573  0.209208  0.914492  1
  O  O20  1  0.341534  0.188207  0.144018  1
  O  O21  1  0.841534  0.811793  0.855982  1
  O  O22  1  0.667685  0.193410  0.320876  1
  O  O23  1  0.167685  0.806590  0.679124  1
