# generated using pymatgen
data_Ta8ReB8Mo3
_symmetry_space_group_name_H-M   'P 1'
_cell_length_a   3.29507800
_cell_length_b   6.09092926
_cell_length_c   12.18103910
_cell_angle_alpha   89.99031154
_cell_angle_beta   90.00000000
_cell_angle_gamma   90.00000000
_symmetry_Int_Tables_number   1
_chemical_formula_structural   Ta8ReB8Mo3
_chemical_formula_sum   'Ta8 Re1 B8 Mo3'
_cell_volume   244.47451113
_cell_formula_units_Z   1
loop_
 _symmetry_equiv_pos_site_id
 _symmetry_equiv_pos_as_xyz
  1  'x, y, z'
loop_
 _atom_site_type_symbol
 _atom_site_label
 _atom_site_symmetry_multiplicity
 _atom_site_fract_x
 _atom_site_fract_y
 _atom_site_fract_z
 _atom_site_occupancy
  Ta  Ta0  1  0.500000  0.823814  0.089242  1
  Ta  Ta1  1  0.500000  0.821826  0.589212  1
  Ta  Ta2  1  0.500000  0.176186  0.910758  1
  Ta  Ta3  1  0.500000  0.178174  0.410788  1
  Ta  Ta4  1  0.500000  0.677939  0.838434  1
  Ta  Ta5  1  0.500000  0.678224  0.338928  1
  Ta  Ta6  1  0.500000  0.322061  0.161566  1
  Ta  Ta7  1  0.500000  0.321776  0.661072  1
  Re  Re8  1  0.000000  0.500000  0.000000  1
  B  B9  1  0.000000  0.390687  0.805872  1
  B  B10  1  0.000000  0.390279  0.304333  1
  B  B11  1  0.000000  0.609313  0.194128  1
  B  B12  1  0.000000  0.609721  0.695667  1
  B  B13  1  0.000000  0.111427  0.054762  1
  B  B14  1  0.000000  0.109214  0.554606  1
  B  B15  1  0.000000  0.888573  0.945238  1
  B  B16  1  0.000000  0.890786  0.445394  1
  Mo  Mo17  1  0.000000  0.500000  0.500000  1
  Mo  Mo18  1  0.000000  0.999479  0.750485  1
  Mo  Mo19  1  0.000000  0.000521  0.249515  1
