# generated using pymatgen
data_Ho5Er(Cd3C)2
_symmetry_space_group_name_H-M   'P 1'
_cell_length_a   9.52561493
_cell_length_b   9.52133511
_cell_length_c   9.52419851
_cell_angle_alpha   119.79619713
_cell_angle_beta   90.37206882
_cell_angle_gamma   119.79523294
_symmetry_Int_Tables_number   1
_chemical_formula_structural   Ho5Er(Cd3C)2
_chemical_formula_sum   'Ho10 Er2 Cd12 C4'
_cell_volume   612.58457396
_cell_formula_units_Z   2
loop_
 _symmetry_equiv_pos_site_id
 _symmetry_equiv_pos_as_xyz
  1  'x, y, z'
loop_
 _atom_site_type_symbol
 _atom_site_label
 _atom_site_symmetry_multiplicity
 _atom_site_fract_x
 _atom_site_fract_y
 _atom_site_fract_z
 _atom_site_occupancy
  Ho  Ho0  1  0.935543  0.371389  0.185585  1
  Ho  Ho1  1  0.936497  0.749773  0.186577  1
  Ho  Ho2  1  0.314308  0.750007  0.185730  1
  Ho  Ho3  1  0.686588  0.250258  0.436625  1
  Ho  Ho4  1  0.685759  0.871331  0.435817  1
  Ho  Ho5  1  0.064312  0.250012  0.435713  1
  Ho  Ho6  1  0.314417  0.128623  0.564469  1
  Ho  Ho7  1  0.313393  0.750187  0.563480  1
  Ho  Ho8  1  0.064199  0.628661  0.814235  1
  Ho  Ho9  1  0.063404  0.249815  0.813443  1
  Er  Er10  1  0.936031  0.750034  0.564003  1
  Er  Er11  1  0.685924  0.249972  0.814102  1
  Cd  Cd12  1  0.999913  0.999902  0.999839  1
  Cd  Cd13  1  0.500010  0.000033  0.999871  1
  Cd  Cd14  1  0.500079  0.499930  0.999974  1
  Cd  Cd15  1  0.708556  0.917314  0.125926  1
  Cd  Cd16  1  0.291089  0.082547  0.208586  1
  Cd  Cd17  1  0.291420  0.417503  0.208926  1
  Cd  Cd18  1  0.626358  0.417827  0.208817  1
  Cd  Cd19  1  0.500145  0.500121  0.500108  1
  Cd  Cd20  1  0.373996  0.582591  0.791378  1
  Cd  Cd21  1  0.708550  0.582301  0.791123  1
  Cd  Cd22  1  0.708829  0.917609  0.791440  1
  Cd  Cd23  1  0.291226  0.082256  0.873688  1
  C  C24  1  0.999442  0.499596  0.999614  1
  C  C25  1  0.999809  0.999805  0.500166  1
  C  C26  1  0.500398  0.000425  0.500585  1
  C  C27  1  0.999810  0.500187  0.500186  1
