# generated using pymatgen
data_Er7Tm3(IrOs)2
_symmetry_space_group_name_H-M   'P 1'
_cell_length_a   6.36282956
_cell_length_b   7.28686243
_cell_length_c   8.33220603
_cell_angle_alpha   96.68520393
_cell_angle_beta   112.46379894
_cell_angle_gamma   90.02165773
_symmetry_Int_Tables_number   1
_chemical_formula_structural   Er7Tm3(IrOs)2
_chemical_formula_sum   'Er7 Tm3 Ir2 Os2'
_cell_volume   354.15832532
_cell_formula_units_Z   1
loop_
 _symmetry_equiv_pos_site_id
 _symmetry_equiv_pos_as_xyz
  1  'x, y, z'
loop_
 _atom_site_type_symbol
 _atom_site_label
 _atom_site_symmetry_multiplicity
 _atom_site_fract_x
 _atom_site_fract_y
 _atom_site_fract_z
 _atom_site_occupancy
  Er  Er0  1  0.969223  0.916122  0.178968  1
  Er  Er1  1  0.790383  0.583741  0.821023  1
  Er  Er2  1  0.026364  0.082069  0.816494  1
  Er  Er3  1  0.209954  0.418003  0.183384  1
  Er  Er4  1  0.652808  0.817885  0.440000  1
  Er  Er5  1  0.212505  0.682052  0.559890  1
  Er  Er6  1  0.350186  0.178920  0.561678  1
  Tm  Tm7  1  0.788696  0.321216  0.438147  1
  Tm  Tm8  1  0.422886  0.750007  0.000003  1
  Tm  Tm9  1  0.578424  0.250020  0.000284  1
  Ir  Ir10  1  0.173738  0.423298  0.780067  1
  Ir  Ir11  1  0.393878  0.076880  0.219701  1
  Os  Os12  1  0.823847  0.574764  0.217068  1
  Os  Os13  1  0.607108  0.925023  0.783293  1
