# generated using pymatgen
data_VFeHgO5
_symmetry_space_group_name_H-M   'P 1'
_cell_length_a   6.20636100
_cell_length_b   8.47336000
_cell_length_c   8.68676500
_cell_angle_alpha   90.00000000
_cell_angle_beta   90.00000000
_cell_angle_gamma   90.00000000
_symmetry_Int_Tables_number   1
_chemical_formula_structural   VFeHgO5
_chemical_formula_sum   'V4 Fe4 Hg4 O20'
_cell_volume   456.82594822
_cell_formula_units_Z   4
loop_
 _symmetry_equiv_pos_site_id
 _symmetry_equiv_pos_as_xyz
  1  'x, y, z'
loop_
 _atom_site_type_symbol
 _atom_site_label
 _atom_site_symmetry_multiplicity
 _atom_site_fract_x
 _atom_site_fract_y
 _atom_site_fract_z
 _atom_site_occupancy
  V  V0  1  0.750000  0.312298  0.709793  1
  V  V1  1  0.750000  0.812298  0.790207  1
  V  V2  1  0.250000  0.687702  0.290207  1
  V  V3  1  0.250000  0.187702  0.209793  1
  Fe  Fe4  1  0.000000  0.000000  0.500000  1
  Fe  Fe5  1  0.500000  0.500000  0.000000  1
  Fe  Fe6  1  0.500000  0.000000  0.500000  1
  Fe  Fe7  1  0.000000  0.500000  0.000000  1
  Hg  Hg8  1  0.250000  0.572633  0.659302  1
  Hg  Hg9  1  0.250000  0.072633  0.840698  1
  Hg  Hg10  1  0.750000  0.427367  0.340698  1
  Hg  Hg11  1  0.750000  0.927367  0.159302  1
  O  O12  1  0.526228  0.336349  0.825888  1
  O  O13  1  0.973771  0.836348  0.674111  1
  O  O14  1  0.026229  0.663652  0.174111  1
  O  O15  1  0.473772  0.163651  0.325888  1
  O  O16  1  0.473772  0.663651  0.174112  1
  O  O17  1  0.026229  0.163652  0.325889  1
  O  O18  1  0.973771  0.336348  0.825889  1
  O  O19  1  0.526228  0.836349  0.674112  1
  O  O20  1  0.750000  0.128872  0.608457  1
  O  O21  1  0.750000  0.628872  0.891543  1
  O  O22  1  0.250000  0.871128  0.391543  1
  O  O23  1  0.250000  0.371128  0.108457  1
  O  O24  1  0.250000  0.097749  0.606619  1
  O  O25  1  0.250000  0.597749  0.893381  1
  O  O26  1  0.750000  0.902251  0.393381  1
  O  O27  1  0.750000  0.402251  0.106619  1
  O  O28  1  0.750000  0.466482  0.573091  1
  O  O29  1  0.750000  0.966482  0.926909  1
  O  O30  1  0.250000  0.533518  0.426909  1
  O  O31  1  0.250000  0.033518  0.073091  1
