# generated using pymatgen
data_Nd2ThNi2Sn7
_symmetry_space_group_name_H-M   'P 1'
_cell_length_a   13.70004318
_cell_length_b   13.70004292
_cell_length_c   4.58178500
_cell_angle_alpha   90.00000000
_cell_angle_beta   90.00000000
_cell_angle_gamma   159.91577738
_symmetry_Int_Tables_number   1
_chemical_formula_structural   Nd2ThNi2Sn7
_chemical_formula_sum   'Nd2 Th1 Ni2 Sn7'
_cell_volume   295.31141443
_cell_formula_units_Z   1
loop_
 _symmetry_equiv_pos_site_id
 _symmetry_equiv_pos_as_xyz
  1  'x, y, z'
loop_
 _atom_site_type_symbol
 _atom_site_label
 _atom_site_symmetry_multiplicity
 _atom_site_fract_x
 _atom_site_fract_y
 _atom_site_fract_z
 _atom_site_occupancy
  Nd  Nd0  1  0.185458  0.814542  0.000000  1
  Nd  Nd1  1  0.814542  0.185458  0.000000  1
  Th  Th2  1  0.500000  0.500000  0.500000  1
  Ni  Ni3  1  0.372514  0.627486  0.500000  1
  Ni  Ni4  1  0.627486  0.372514  0.500000  1
  Sn  Sn5  1  0.000000  0.000000  0.000000  1
  Sn  Sn6  1  0.411041  0.588959  0.000000  1
  Sn  Sn7  1  0.588959  0.411041  0.000000  1
  Sn  Sn8  1  0.089843  0.910157  0.500000  1
  Sn  Sn9  1  0.910157  0.089843  0.500000  1
  Sn  Sn10  1  0.278955  0.721045  0.500000  1
  Sn  Sn11  1  0.721045  0.278955  0.500000  1
