# generated using pymatgen
data_YbPr7NbPd24
_symmetry_space_group_name_H-M   'P 1'
_cell_length_a   8.50436953
_cell_length_b   8.50437006
_cell_length_c   8.50437000
_cell_angle_alpha   89.94777309
_cell_angle_beta   90.05222691
_cell_angle_gamma   90.05222733
_symmetry_Int_Tables_number   1
_chemical_formula_structural   YbPr7NbPd24
_chemical_formula_sum   'Yb1 Pr7 Nb1 Pd24'
_cell_volume   615.07188899
_cell_formula_units_Z   1
loop_
 _symmetry_equiv_pos_site_id
 _symmetry_equiv_pos_as_xyz
  1  'x, y, z'
loop_
 _atom_site_type_symbol
 _atom_site_label
 _atom_site_symmetry_multiplicity
 _atom_site_fract_x
 _atom_site_fract_y
 _atom_site_fract_z
 _atom_site_occupancy
  Yb  Yb0  1  0.747768  0.252232  0.252232  1
  Pr  Pr1  1  0.252385  0.253430  0.253430  1
  Pr  Pr2  1  0.747727  0.746611  0.746611  1
  Pr  Pr3  1  0.746570  0.747615  0.253430  1
  Pr  Pr4  1  0.746570  0.253430  0.747615  1
  Pr  Pr5  1  0.253389  0.252273  0.746611  1
  Pr  Pr6  1  0.253389  0.746611  0.252273  1
  Pr  Pr7  1  0.252109  0.747891  0.747891  1
  Nb  Nb8  1  0.999809  0.000191  0.000191  1
  Pd  Pd9  1  0.264930  0.499227  0.999472  1
  Pd  Pd10  1  0.735029  0.498025  0.003612  1
  Pd  Pd11  1  0.996388  0.264971  0.498025  1
  Pd  Pd12  1  0.501975  0.264971  0.003612  1
  Pd  Pd13  1  0.000528  0.735070  0.499227  1
  Pd  Pd14  1  0.500773  0.735070  0.999472  1
  Pd  Pd15  1  0.501975  0.003612  0.264971  1
  Pd  Pd16  1  0.264930  0.999472  0.499227  1
  Pd  Pd17  1  0.500773  0.999472  0.735070  1
  Pd  Pd18  1  0.735029  0.003612  0.498025  1
  Pd  Pd19  1  0.996388  0.498025  0.264971  1
  Pd  Pd20  1  0.000528  0.499227  0.735070  1
  Pd  Pd21  1  0.254294  0.500139  0.500139  1
  Pd  Pd22  1  0.745500  0.497161  0.497161  1
  Pd  Pd23  1  0.502839  0.254500  0.497161  1
  Pd  Pd24  1  0.499861  0.745706  0.500139  1
  Pd  Pd25  1  0.502839  0.497161  0.254500  1
  Pd  Pd26  1  0.499861  0.500139  0.745706  1
  Pd  Pd27  1  0.305360  0.000534  0.000534  1
  Pd  Pd28  1  0.697040  0.002743  0.002743  1
  Pd  Pd29  1  0.997257  0.302960  0.002743  1
  Pd  Pd30  1  0.999466  0.694640  0.000534  1
  Pd  Pd31  1  0.997257  0.002743  0.302960  1
  Pd  Pd32  1  0.999466  0.000534  0.694640  1
