# generated using pymatgen
data_Cs3CdInBr6
_symmetry_space_group_name_H-M   'P 1'
_cell_length_a   9.67917373
_cell_length_b   9.67917294
_cell_length_c   9.67917311
_cell_angle_alpha   91.64079155
_cell_angle_beta   91.64079049
_cell_angle_gamma   91.64079293
_symmetry_Int_Tables_number   1
_chemical_formula_structural   Cs3CdInBr6
_chemical_formula_sum   'Cs6 Cd2 In2 Br12'
_cell_volume   905.66965861
_cell_formula_units_Z   2
loop_
 _symmetry_equiv_pos_site_id
 _symmetry_equiv_pos_as_xyz
  1  'x, y, z'
loop_
 _atom_site_type_symbol
 _atom_site_label
 _atom_site_symmetry_multiplicity
 _atom_site_fract_x
 _atom_site_fract_y
 _atom_site_fract_z
 _atom_site_occupancy
  Cs  Cs0  1  0.373123  0.126877  0.750000  1
  Cs  Cs1  1  0.126877  0.750000  0.373123  1
  Cs  Cs2  1  0.750000  0.373123  0.126877  1
  Cs  Cs3  1  0.626877  0.873123  0.250000  1
  Cs  Cs4  1  0.250000  0.626877  0.873123  1
  Cs  Cs5  1  0.873123  0.250000  0.626877  1
  Cd  Cd6  1  0.000000  0.000000  0.000000  1
  Cd  Cd7  1  0.500000  0.500000  0.500000  1
  In  In8  1  0.250000  0.250000  0.250000  1
  In  In9  1  0.750000  0.750000  0.750000  1
  Br  Br10  1  0.952941  0.076833  0.281893  1
  Br  Br11  1  0.076833  0.281893  0.952941  1
  Br  Br12  1  0.281893  0.952941  0.076833  1
  Br  Br13  1  0.576833  0.452941  0.781893  1
  Br  Br14  1  0.781893  0.576833  0.452941  1
  Br  Br15  1  0.452941  0.781893  0.576833  1
  Br  Br16  1  0.218107  0.423167  0.547059  1
  Br  Br17  1  0.423167  0.547059  0.218107  1
  Br  Br18  1  0.547059  0.218107  0.423167  1
  Br  Br19  1  0.923167  0.718107  0.047059  1
  Br  Br20  1  0.047059  0.923167  0.718107  1
  Br  Br21  1  0.718107  0.047059  0.923167  1
