# generated using pymatgen
data_Ho20Cd3Co2Pd3
_symmetry_space_group_name_H-M   'P 1'
_cell_length_a   9.46654200
_cell_length_b   9.46654162
_cell_length_c   9.44329700
_cell_angle_alpha   90.00000000
_cell_angle_beta   90.00000000
_cell_angle_gamma   119.99999433
_symmetry_Int_Tables_number   1
_chemical_formula_structural   Ho20Cd3Co2Pd3
_chemical_formula_sum   'Ho20 Cd3 Co2 Pd3'
_cell_volume   732.88700332
_cell_formula_units_Z   1
loop_
 _symmetry_equiv_pos_site_id
 _symmetry_equiv_pos_as_xyz
  1  'x, y, z'
loop_
 _atom_site_type_symbol
 _atom_site_label
 _atom_site_symmetry_multiplicity
 _atom_site_fract_x
 _atom_site_fract_y
 _atom_site_fract_z
 _atom_site_occupancy
  Ho  Ho0  1  0.000000  0.000000  0.449624  1
  Ho  Ho1  1  0.000000  0.000000  0.050376  1
  Ho  Ho2  1  0.542646  0.457354  0.250000  1
  Ho  Ho3  1  0.542646  0.085293  0.250000  1
  Ho  Ho4  1  0.914707  0.457354  0.250000  1
  Ho  Ho5  1  0.456703  0.543297  0.750000  1
  Ho  Ho6  1  0.456703  0.913406  0.750000  1
  Ho  Ho7  1  0.086594  0.543297  0.750000  1
  Ho  Ho8  1  0.211290  0.788710  0.437203  1
  Ho  Ho9  1  0.211290  0.422581  0.437203  1
  Ho  Ho10  1  0.577419  0.788710  0.437203  1
  Ho  Ho11  1  0.790378  0.209622  0.560373  1
  Ho  Ho12  1  0.790378  0.580754  0.560373  1
  Ho  Ho13  1  0.419246  0.209622  0.560373  1
  Ho  Ho14  1  0.790378  0.209622  0.939627  1
  Ho  Ho15  1  0.790378  0.580754  0.939627  1
  Ho  Ho16  1  0.419246  0.209622  0.939627  1
  Ho  Ho17  1  0.211290  0.788710  0.062797  1
  Ho  Ho18  1  0.211290  0.422581  0.062797  1
  Ho  Ho19  1  0.577419  0.788710  0.062797  1
  Cd  Cd20  1  0.108947  0.891053  0.750000  1
  Cd  Cd21  1  0.108947  0.217894  0.750000  1
  Cd  Cd22  1  0.782106  0.891053  0.750000  1
  Co  Co23  1  0.333333  0.666667  0.250000  1
  Co  Co24  1  0.666667  0.333333  0.750000  1
  Pd  Pd25  1  0.869218  0.130782  0.250000  1
  Pd  Pd26  1  0.869218  0.738436  0.250000  1
  Pd  Pd27  1  0.261564  0.130782  0.250000  1
