# generated using pymatgen
data_U2Ta3Si4
_symmetry_space_group_name_H-M   'P 1'
_cell_length_a   7.02641000
_cell_length_b   6.86913844
_cell_length_c   7.03416560
_cell_angle_alpha   70.33228917
_cell_angle_beta   90.00000000
_cell_angle_gamma   90.00000000
_symmetry_Int_Tables_number   1
_chemical_formula_structural   U2Ta3Si4
_chemical_formula_sum   'U4 Ta6 Si8'
_cell_volume   319.70000028
_cell_formula_units_Z   2
loop_
 _symmetry_equiv_pos_site_id
 _symmetry_equiv_pos_as_xyz
  1  'x, y, z'
loop_
 _atom_site_type_symbol
 _atom_site_label
 _atom_site_symmetry_multiplicity
 _atom_site_fract_x
 _atom_site_fract_y
 _atom_site_fract_z
 _atom_site_occupancy
  U  U0  1  0.664445  0.438527  0.182564  1
  U  U1  1  0.164445  0.061473  0.817436  1
  U  U2  1  0.335555  0.561473  0.817436  1
  U  U3  1  0.835555  0.938527  0.182564  1
  Ta  Ta4  1  0.675250  0.248664  0.749406  1
  Ta  Ta5  1  0.175250  0.251336  0.250594  1
  Ta  Ta6  1  0.500000  0.000000  0.500000  1
  Ta  Ta7  1  0.000000  0.500000  0.500000  1
  Ta  Ta8  1  0.324750  0.751336  0.250594  1
  Ta  Ta9  1  0.824750  0.748664  0.749406  1
  Si  Si10  1  0.872207  0.130760  0.492197  1
  Si  Si11  1  0.372207  0.369240  0.507803  1
  Si  Si12  1  0.127793  0.869240  0.507803  1
  Si  Si13  1  0.627793  0.630760  0.492197  1
  Si  Si14  1  0.538643  0.866537  0.917753  1
  Si  Si15  1  0.038643  0.633463  0.082247  1
  Si  Si16  1  0.961357  0.366537  0.917753  1
  Si  Si17  1  0.461357  0.133463  0.082247  1
