# generated using pymatgen
data_Tb8Tm12Si15Ge
_symmetry_space_group_name_H-M   'P 1'
_cell_length_a   7.34460312
_cell_length_b   7.64543358
_cell_length_c   14.49763766
_cell_angle_alpha   90.02771011
_cell_angle_beta   89.76069948
_cell_angle_gamma   90.06609595
_symmetry_Int_Tables_number   1
_chemical_formula_structural   Tb8Tm12Si15Ge
_chemical_formula_sum   'Tb8 Tm12 Si15 Ge1'
_cell_volume   814.07340560
_cell_formula_units_Z   1
loop_
 _symmetry_equiv_pos_site_id
 _symmetry_equiv_pos_as_xyz
  1  'x, y, z'
loop_
 _atom_site_type_symbol
 _atom_site_label
 _atom_site_symmetry_multiplicity
 _atom_site_fract_x
 _atom_site_fract_y
 _atom_site_fract_z
 _atom_site_occupancy
  Tb  Tb0  1  0.015700  0.178364  0.097467  1
  Tb  Tb1  1  0.984412  0.821898  0.902510  1
  Tb  Tb2  1  0.484855  0.678431  0.902411  1
  Tb  Tb3  1  0.984422  0.822373  0.597743  1
  Tb  Tb4  1  0.515436  0.321680  0.097669  1
  Tb  Tb5  1  0.013847  0.177643  0.401989  1
  Tb  Tb6  1  0.515493  0.320708  0.401652  1
  Tb  Tb7  1  0.487999  0.679658  0.598027  1
  Tm  Tm8  1  0.162832  0.509319  0.751033  1
  Tm  Tm9  1  0.837017  0.490621  0.250265  1
  Tm  Tm10  1  0.337487  0.009287  0.250046  1
  Tm  Tm11  1  0.662758  0.990775  0.749995  1
  Tm  Tm12  1  0.331839  0.175398  0.624240  1
  Tm  Tm13  1  0.669007  0.822822  0.376252  1
  Tm  Tm14  1  0.168159  0.678372  0.376684  1
  Tm  Tm15  1  0.670338  0.821505  0.123082  1
  Tm  Tm16  1  0.829738  0.322835  0.622986  1
  Tm  Tm17  1  0.329459  0.177933  0.876797  1
  Tm  Tm18  1  0.829270  0.321765  0.876779  1
  Tm  Tm19  1  0.170345  0.678291  0.123217  1
  Si  Si20  1  0.035138  0.110273  0.750115  1
  Si  Si21  1  0.964553  0.890579  0.249611  1
  Si  Si22  1  0.463788  0.609936  0.249648  1
  Si  Si23  1  0.535426  0.390395  0.750367  1
  Si  Si24  1  0.281076  0.871787  0.750415  1
  Si  Si25  1  0.719169  0.127549  0.249513  1
  Si  Si26  1  0.218730  0.372504  0.249849  1
  Si  Si27  1  0.781640  0.627842  0.750114  1
  Si  Si28  1  0.834320  0.534008  0.460029  1
  Si  Si29  1  0.340449  0.967280  0.460930  1
  Si  Si30  1  0.842281  0.532455  0.039010  1
  Si  Si31  1  0.659574  0.033039  0.539030  1
  Si  Si32  1  0.157673  0.467403  0.961073  1
  Si  Si33  1  0.657604  0.032618  0.961015  1
  Si  Si34  1  0.342218  0.967415  0.039070  1
  Ge  Ge35  1  0.165944  0.465235  0.539362  1
