# generated using pymatgen
data_Ac3Cd5Ir
_symmetry_space_group_name_H-M   'P 1'
_cell_length_a   8.49896000
_cell_length_b   8.49896214
_cell_length_c   4.12102800
_cell_angle_alpha   90.00000000
_cell_angle_beta   90.00000000
_cell_angle_gamma   119.99998807
_symmetry_Int_Tables_number   1
_chemical_formula_structural   Ac3Cd5Ir
_chemical_formula_sum   'Ac3 Cd5 Ir1'
_cell_volume   257.79110546
_cell_formula_units_Z   1
loop_
 _symmetry_equiv_pos_site_id
 _symmetry_equiv_pos_as_xyz
  1  'x, y, z'
loop_
 _atom_site_type_symbol
 _atom_site_label
 _atom_site_symmetry_multiplicity
 _atom_site_fract_x
 _atom_site_fract_y
 _atom_site_fract_z
 _atom_site_occupancy
  Ac  Ac0  1  0.570952  0.607957  0.000000  1
  Ac  Ac1  1  0.392043  0.962995  0.000000  1
  Ac  Ac2  1  0.037005  0.429048  0.000000  1
  Cd  Cd3  1  0.000000  0.000000  0.000000  1
  Cd  Cd4  1  0.666667  0.333333  0.500000  1
  Cd  Cd5  1  0.989093  0.729824  0.500000  1
  Cd  Cd6  1  0.270176  0.259268  0.500000  1
  Cd  Cd7  1  0.740732  0.010907  0.500000  1
  Ir  Ir8  1  0.333333  0.666667  0.500000  1
