# generated using pymatgen
data_Hf18Re7Os2W
_symmetry_space_group_name_H-M   'P 1'
_cell_length_a   8.54743100
_cell_length_b   8.65993212
_cell_length_c   8.65996400
_cell_angle_alpha   119.99971832
_cell_angle_beta   90.00078577
_cell_angle_gamma   90.00123944
_symmetry_Int_Tables_number   1
_chemical_formula_structural   Hf18Re7Os2W
_chemical_formula_sum   'Hf18 Re7 Os2 W1'
_cell_volume   555.13427522
_cell_formula_units_Z   1
loop_
 _symmetry_equiv_pos_site_id
 _symmetry_equiv_pos_as_xyz
  1  'x, y, z'
loop_
 _atom_site_type_symbol
 _atom_site_label
 _atom_site_symmetry_multiplicity
 _atom_site_fract_x
 _atom_site_fract_y
 _atom_site_fract_z
 _atom_site_occupancy
  Hf  Hf0  1  0.553835  0.802552  0.605106  1
  Hf  Hf1  1  0.553820  0.802547  0.197448  1
  Hf  Hf2  1  0.553832  0.394903  0.197449  1
  Hf  Hf3  1  0.446165  0.197448  0.394894  1
  Hf  Hf4  1  0.446180  0.197453  0.802552  1
  Hf  Hf5  1  0.446168  0.605097  0.802551  1
  Hf  Hf6  1  0.054206  0.196630  0.393242  1
  Hf  Hf7  1  0.054192  0.196624  0.803376  1
  Hf  Hf8  1  0.054205  0.606760  0.803376  1
  Hf  Hf9  1  0.945794  0.803370  0.606758  1
  Hf  Hf10  1  0.945808  0.803376  0.196624  1
  Hf  Hf11  1  0.945795  0.393240  0.196624  1
  Hf  Hf12  1  0.750600  0.459495  0.918968  1
  Hf  Hf13  1  0.750609  0.459481  0.540525  1
  Hf  Hf14  1  0.750606  0.081031  0.540506  1
  Hf  Hf15  1  0.249400  0.540505  0.081032  1
  Hf  Hf16  1  0.249391  0.540519  0.459475  1
  Hf  Hf17  1  0.249394  0.918969  0.459494  1
  Re  Re18  1  0.749313  0.110969  0.221943  1
  Re  Re19  1  0.749311  0.110971  0.889020  1
  Re  Re20  1  0.749309  0.778052  0.889029  1
  Re  Re21  1  0.250687  0.889031  0.778057  1
  Re  Re22  1  0.250689  0.889029  0.110980  1
  Re  Re23  1  0.250691  0.221948  0.110971  1
  Re  Re24  1  0.000000  0.000000  0.000000  1
  Os  Os25  1  0.750248  0.666679  0.333326  1
  Os  Os26  1  0.249752  0.333321  0.666674  1
  W  W27  1  0.500000  0.000000  0.000000  1
