# generated using pymatgen
data_Dy4Y2Al24Os7Pt
_symmetry_space_group_name_H-M   'P 1'
_cell_length_a   8.83433339
_cell_length_b   8.84138204
_cell_length_c   9.56012536
_cell_angle_alpha   89.66844590
_cell_angle_beta   90.31660818
_cell_angle_gamma   119.80649190
_symmetry_Int_Tables_number   1
_chemical_formula_structural   Dy4Y2Al24Os7Pt
_chemical_formula_sum   'Dy4 Y2 Al24 Os7 Pt1'
_cell_volume   647.92151889
_cell_formula_units_Z   1
loop_
 _symmetry_equiv_pos_site_id
 _symmetry_equiv_pos_as_xyz
  1  'x, y, z'
loop_
 _atom_site_type_symbol
 _atom_site_label
 _atom_site_symmetry_multiplicity
 _atom_site_fract_x
 _atom_site_fract_y
 _atom_site_fract_z
 _atom_site_occupancy
  Dy  Dy0  1  0.613326  0.809524  0.251384  1
  Dy  Dy1  1  0.386674  0.190476  0.748616  1
  Dy  Dy2  1  0.194857  0.805327  0.251599  1
  Dy  Dy3  1  0.805143  0.194673  0.748401  1
  Y  Y4  1  0.190515  0.386467  0.251215  1
  Y  Y5  1  0.809485  0.613533  0.748785  1
  Al  Al6  1  0.331552  0.668581  0.019443  1
  Al  Al7  1  0.668448  0.331419  0.980557  1
  Al  Al8  1  0.666467  0.333419  0.516497  1
  Al  Al9  1  0.333533  0.666581  0.483503  1
  Al  Al10  1  0.163668  0.325512  0.577151  1
  Al  Al11  1  0.836332  0.674488  0.422849  1
  Al  Al12  1  0.674371  0.836219  0.576946  1
  Al  Al13  1  0.842068  0.675477  0.077360  1
  Al  Al14  1  0.325629  0.163781  0.423054  1
  Al  Al15  1  0.157932  0.324523  0.922640  1
  Al  Al16  1  0.163489  0.836420  0.575195  1
  Al  Al17  1  0.324607  0.157940  0.077165  1
  Al  Al18  1  0.836511  0.163580  0.424805  1
  Al  Al19  1  0.675393  0.842060  0.922835  1
  Al  Al20  1  0.836727  0.163237  0.075112  1
  Al  Al21  1  0.163273  0.836763  0.924888  1
  Al  Al22  1  0.560346  0.121943  0.249005  1
  Al  Al23  1  0.439654  0.878057  0.750995  1
  Al  Al24  1  0.878002  0.439707  0.249042  1
  Al  Al25  1  0.121998  0.560293  0.750958  1
  Al  Al26  1  0.561780  0.438444  0.251990  1
  Al  Al27  1  0.438220  0.561556  0.748010  1
  Al  Al28  1  0.999544  0.999886  0.250135  1
  Al  Al29  1  0.000456  0.000114  0.749865  1
  Os  Os30  1  0.500000  0.000000  0.000000  1
  Os  Os31  1  0.000000  0.500000  0.000000  1
  Os  Os32  1  0.500000  0.000000  0.500000  1
  Os  Os33  1  0.000000  0.500000  0.500000  1
  Os  Os34  1  0.500000  0.500000  0.500000  1
  Os  Os35  1  0.000000  0.000000  0.000000  1
  Os  Os36  1  0.000000  0.000000  0.500000  1
  Pt  Pt37  1  0.500000  0.500000  0.000000  1
