# generated using pymatgen
data_Hf3AsP3Pd4
_symmetry_space_group_name_H-M   'P 1'
_cell_length_a   6.49852358
_cell_length_b   3.81520500
_cell_length_c   7.60719910
_cell_angle_alpha   90.00000000
_cell_angle_beta   90.45738844
_cell_angle_gamma   90.00000000
_symmetry_Int_Tables_number   1
_chemical_formula_structural   Hf3AsP3Pd4
_chemical_formula_sum   'Hf3 As1 P3 Pd4'
_cell_volume   188.60079653
_cell_formula_units_Z   1
loop_
 _symmetry_equiv_pos_site_id
 _symmetry_equiv_pos_as_xyz
  1  'x, y, z'
loop_
 _atom_site_type_symbol
 _atom_site_label
 _atom_site_symmetry_multiplicity
 _atom_site_fract_x
 _atom_site_fract_y
 _atom_site_fract_z
 _atom_site_occupancy
  Hf  Hf0  1  0.970198  0.749998  0.182374  1
  Hf  Hf1  1  0.462072  0.749998  0.318888  1
  Hf  Hf2  1  0.534142  0.250000  0.686918  1
  As  As3  1  0.782620  0.749998  0.874807  1
  P  P4  1  0.240959  0.250000  0.127524  1
  P  P5  1  0.748023  0.250000  0.376130  1
  P  P6  1  0.260743  0.749998  0.625182  1
  Pd  Pd7  1  0.636413  0.250000  0.069191  1
  Pd  Pd8  1  0.154317  0.250000  0.444886  1
  Pd  Pd9  1  0.856119  0.749998  0.554400  1
  Pd  Pd10  1  0.352364  0.749998  0.936957  1
