# generated using pymatgen
data_Pr3Nd3Co16(P6Ru)2
_symmetry_space_group_name_H-M   'P 1'
_cell_length_a   3.79437000
_cell_length_b   10.67622640
_cell_length_c   12.48118847
_cell_angle_alpha   90.03135058
_cell_angle_beta   90.00000000
_cell_angle_gamma   90.00000000
_symmetry_Int_Tables_number   1
_chemical_formula_structural   Pr3Nd3Co16(P6Ru)2
_chemical_formula_sum   'Pr3 Nd3 Co16 P12 Ru2'
_cell_volume   505.60729207
_cell_formula_units_Z   1
loop_
 _symmetry_equiv_pos_site_id
 _symmetry_equiv_pos_as_xyz
  1  'x, y, z'
loop_
 _atom_site_type_symbol
 _atom_site_label
 _atom_site_symmetry_multiplicity
 _atom_site_fract_x
 _atom_site_fract_y
 _atom_site_fract_z
 _atom_site_occupancy
  Pr  Pr0  1  0.000000  0.500068  0.523220  1
  Pr  Pr1  1  0.500000  0.999949  0.476954  1
  Pr  Pr2  1  0.500000  0.816772  0.206819  1
  Nd  Nd3  1  0.500000  0.183644  0.206408  1
  Nd  Nd4  1  0.000000  0.683379  0.793337  1
  Nd  Nd5  1  0.000000  0.316550  0.793520  1
  Co  Co6  1  0.500000  0.499912  0.706800  1
  Co  Co7  1  0.000000  0.000788  0.293389  1
  Co  Co8  1  0.000000  0.499637  0.987545  1
  Co  Co9  1  0.500000  0.000367  0.011865  1
  Co  Co10  1  0.500000  0.332280  0.992342  1
  Co  Co11  1  0.500000  0.667374  0.992180  1
  Co  Co12  1  0.000000  0.167995  0.007378  1
  Co  Co13  1  0.000000  0.832432  0.007109  1
  Co  Co14  1  0.500000  0.297662  0.429456  1
  Co  Co15  1  0.500000  0.702140  0.429914  1
  Co  Co16  1  0.000000  0.202391  0.570591  1
  Co  Co17  1  0.000000  0.797693  0.570949  1
  Co  Co18  1  0.500000  0.881902  0.710470  1
  Co  Co19  1  0.500000  0.118105  0.710326  1
  Co  Co20  1  0.000000  0.617581  0.289985  1
  Co  Co21  1  0.000000  0.381745  0.289622  1
  P  P22  1  0.500000  0.499822  0.886620  1
  P  P23  1  0.000000  0.000659  0.112759  1
  P  P24  1  0.500000  0.500035  0.344259  1
  P  P25  1  0.000000  0.999932  0.655814  1
  P  P26  1  0.500000  0.305625  0.614374  1
  P  P27  1  0.500000  0.694355  0.614525  1
  P  P28  1  0.000000  0.194458  0.385640  1
  P  P29  1  0.000000  0.805350  0.386620  1
  P  P30  1  0.500000  0.847881  0.896048  1
  P  P31  1  0.500000  0.152258  0.895936  1
  P  P32  1  0.000000  0.651553  0.103457  1
  P  P33  1  0.000000  0.347913  0.103863  1
  Ru  Ru34  1  0.500000  0.499655  0.157183  1
  Ru  Ru35  1  0.000000  0.000139  0.842726  1
