# generated using pymatgen
data_PrNd7Co3Si12Rh
_symmetry_space_group_name_H-M   'P 1'
_cell_length_a   8.15198700
_cell_length_b   8.15198739
_cell_length_c   8.47018100
_cell_angle_alpha   90.00000000
_cell_angle_beta   90.00000000
_cell_angle_gamma   120.00000246
_symmetry_Int_Tables_number   1
_chemical_formula_structural   PrNd7Co3Si12Rh
_chemical_formula_sum   'Pr1 Nd7 Co3 Si12 Rh1'
_cell_volume   487.47268973
_cell_formula_units_Z   1
loop_
 _symmetry_equiv_pos_site_id
 _symmetry_equiv_pos_as_xyz
  1  'x, y, z'
loop_
 _atom_site_type_symbol
 _atom_site_label
 _atom_site_symmetry_multiplicity
 _atom_site_fract_x
 _atom_site_fract_y
 _atom_site_fract_z
 _atom_site_occupancy
  Pr  Pr0  1  0.000000  0.000000  0.749137  1
  Nd  Nd1  1  0.000000  0.000000  0.250809  1
  Nd  Nd2  1  0.500300  0.499700  0.749549  1
  Nd  Nd3  1  0.500300  0.000602  0.749549  1
  Nd  Nd4  1  0.999398  0.499700  0.749549  1
  Nd  Nd5  1  0.501124  0.498876  0.250524  1
  Nd  Nd6  1  0.997754  0.498876  0.250524  1
  Nd  Nd7  1  0.501124  0.002246  0.250524  1
  Co  Co8  1  0.666667  0.333333  0.997950  1
  Co  Co9  1  0.666667  0.333333  0.501785  1
  Co  Co10  1  0.333333  0.666667  0.497835  1
  Si  Si11  1  0.828270  0.171730  0.000326  1
  Si  Si12  1  0.828270  0.656541  0.000326  1
  Si  Si13  1  0.343459  0.171730  0.000326  1
  Si  Si14  1  0.828647  0.171353  0.499689  1
  Si  Si15  1  0.828647  0.657293  0.499689  1
  Si  Si16  1  0.342707  0.171353  0.499689  1
  Si  Si17  1  0.171766  0.828234  0.499386  1
  Si  Si18  1  0.656468  0.828234  0.499386  1
  Si  Si19  1  0.171766  0.343532  0.499386  1
  Si  Si20  1  0.166198  0.833802  0.000543  1
  Si  Si21  1  0.667604  0.833802  0.000543  1
  Si  Si22  1  0.166198  0.332396  0.000543  1
  Rh  Rh23  1  0.333333  0.666667  0.002437  1
