# generated using pymatgen
data_Cr12InSi8BrO28
_symmetry_space_group_name_H-M   'P 1'
_cell_length_a   10.01707821
_cell_length_b   10.01707740
_cell_length_c   10.01707763
_cell_angle_alpha   115.73515192
_cell_angle_beta   115.73514600
_cell_angle_gamma   97.56070152
_symmetry_Int_Tables_number   1
_chemical_formula_structural   Cr12InSi8BrO28
_chemical_formula_sum   'Cr12 In1 Si8 Br1 O28'
_cell_volume   749.47614628
_cell_formula_units_Z   1
loop_
 _symmetry_equiv_pos_site_id
 _symmetry_equiv_pos_as_xyz
  1  'x, y, z'
loop_
 _atom_site_type_symbol
 _atom_site_label
 _atom_site_symmetry_multiplicity
 _atom_site_fract_x
 _atom_site_fract_y
 _atom_site_fract_z
 _atom_site_occupancy
  Cr  Cr0  1  0.279939  0.053180  0.773241  1
  Cr  Cr1  1  0.279939  0.506698  0.226759  1
  Cr  Cr2  1  0.506698  0.279939  0.226759  1
  Cr  Cr3  1  0.053180  0.279939  0.773241  1
  Cr  Cr4  1  0.723718  0.953532  0.229814  1
  Cr  Cr5  1  0.723718  0.493903  0.770186  1
  Cr  Cr6  1  0.493903  0.723718  0.770186  1
  Cr  Cr7  1  0.953532  0.723718  0.229814  1
  Cr  Cr8  1  0.499977  0.188954  0.688977  1
  Cr  Cr9  1  0.499977  0.811000  0.311023  1
  Cr  Cr10  1  0.811000  0.499977  0.311023  1
  Cr  Cr11  1  0.188954  0.499977  0.688977  1
  In  In12  1  0.023519  0.023519  0.000000  1
  Si  Si13  1  0.887773  0.887773  0.548129  1
  Si  Si14  1  0.339644  0.339644  0.451871  1
  Si  Si15  1  0.339644  0.887773  0.000000  1
  Si  Si16  1  0.887773  0.339644  0.000000  1
  Si  Si17  1  0.112407  0.112407  0.449894  1
  Si  Si18  1  0.662513  0.662513  0.550106  1
  Si  Si19  1  0.662513  0.112407  0.000000  1
  Si  Si20  1  0.112407  0.662513  0.000000  1
  Br  Br21  1  0.461088  0.461088  0.000000  1
  O  O22  1  0.052319  0.052319  0.707209  1
  O  O23  1  0.345111  0.345111  0.292791  1
  O  O24  1  0.345111  0.052319  0.000000  1
  O  O25  1  0.052319  0.345111  0.000000  1
  O  O26  1  0.947984  0.947984  0.292209  1
  O  O27  1  0.655774  0.655774  0.707791  1
  O  O28  1  0.655774  0.947984  0.000000  1
  O  O29  1  0.947984  0.655774  0.000000  1
  O  O30  1  0.255639  0.073331  0.568720  1
  O  O31  1  0.504610  0.686919  0.431280  1
  O  O32  1  0.504610  0.073331  0.817691  1
  O  O33  1  0.255639  0.686919  0.182309  1
  O  O34  1  0.686919  0.255639  0.182309  1
  O  O35  1  0.073331  0.504610  0.817691  1
  O  O36  1  0.073331  0.255639  0.568720  1
  O  O37  1  0.686919  0.504610  0.431280  1
  O  O38  1  0.743767  0.925076  0.427880  1
  O  O39  1  0.497197  0.315887  0.572120  1
  O  O40  1  0.497197  0.925076  0.181309  1
  O  O41  1  0.743767  0.315887  0.818691  1
  O  O42  1  0.315887  0.743767  0.818691  1
  O  O43  1  0.925076  0.497197  0.181309  1
  O  O44  1  0.925076  0.743767  0.427880  1
  O  O45  1  0.315887  0.497197  0.572120  1
  O  O46  1  0.823228  0.823228  0.644730  1
  O  O47  1  0.178498  0.178498  0.355270  1
  O  O48  1  0.178498  0.823228  0.000000  1
  O  O49  1  0.823228  0.178498  0.000000  1
