# generated using pymatgen
data_Rb2Li2TiS4
_symmetry_space_group_name_H-M   'P 1'
_cell_length_a   5.96383200
_cell_length_b   5.96383200
_cell_length_c   13.21989600
_cell_angle_alpha   90.00000000
_cell_angle_beta   90.00000000
_cell_angle_gamma   90.00000000
_symmetry_Int_Tables_number   1
_chemical_formula_structural   Rb2Li2TiS4
_chemical_formula_sum   'Rb4 Li4 Ti2 S8'
_cell_volume   470.19590288
_cell_formula_units_Z   2
loop_
 _symmetry_equiv_pos_site_id
 _symmetry_equiv_pos_as_xyz
  1  'x, y, z'
loop_
 _atom_site_type_symbol
 _atom_site_label
 _atom_site_symmetry_multiplicity
 _atom_site_fract_x
 _atom_site_fract_y
 _atom_site_fract_z
 _atom_site_occupancy
  Rb  Rb0  1  0.763289  0.763289  0.000000  1
  Rb  Rb1  1  0.236711  0.763289  0.500000  1
  Rb  Rb2  1  0.763289  0.236711  0.500000  1
  Rb  Rb3  1  0.236711  0.236711  0.000000  1
  Li  Li4  1  0.000000  0.500000  0.750000  1
  Li  Li5  1  0.500000  0.000000  0.750000  1
  Li  Li6  1  0.000000  0.500000  0.250000  1
  Li  Li7  1  0.500000  0.000000  0.250000  1
  Ti  Ti8  1  0.500000  0.500000  0.750000  1
  Ti  Ti9  1  0.500000  0.500000  0.250000  1
  S  S10  1  0.721959  0.721959  0.652882  1
  S  S11  1  0.278041  0.278041  0.652882  1
  S  S12  1  0.721959  0.721959  0.347118  1
  S  S13  1  0.721959  0.278041  0.152882  1
  S  S14  1  0.278041  0.721959  0.847118  1
  S  S15  1  0.278041  0.278041  0.347118  1
  S  S16  1  0.278041  0.721959  0.152882  1
  S  S17  1  0.721959  0.278041  0.847118  1
