# generated using pymatgen
data_Cs2U(RhS2)3
_symmetry_space_group_name_H-M   'P 1'
_cell_length_a   11.48583658
_cell_length_b   9.52945209
_cell_length_c   9.24405358
_cell_angle_alpha   75.42399412
_cell_angle_beta   53.41433258
_cell_angle_gamma   51.16166065
_symmetry_Int_Tables_number   1
_chemical_formula_structural   Cs2U(RhS2)3
_chemical_formula_sum   'Cs4 U2 Rh6 S12'
_cell_volume   620.64387880
_cell_formula_units_Z   2
loop_
 _symmetry_equiv_pos_site_id
 _symmetry_equiv_pos_as_xyz
  1  'x, y, z'
loop_
 _atom_site_type_symbol
 _atom_site_label
 _atom_site_symmetry_multiplicity
 _atom_site_fract_x
 _atom_site_fract_y
 _atom_site_fract_z
 _atom_site_occupancy
  Cs  Cs0  1  0.250000  0.249999  0.250000  1
  Cs  Cs1  1  0.750000  0.750000  0.750000  1
  Cs  Cs2  1  0.310100  0.689900  0.310101  1
  Cs  Cs3  1  0.689900  0.310101  0.689900  1
  U  U4  1  0.170819  0.170820  0.829181  1
  U  U5  1  0.829180  0.829181  0.170820  1
  Rh  Rh6  1  0.850130  0.149870  0.149870  1
  Rh  Rh7  1  0.149871  0.850130  0.850129  1
  Rh  Rh8  1  0.841622  0.492076  0.158378  1
  Rh  Rh9  1  0.492076  0.841622  0.507924  1
  Rh  Rh10  1  0.507924  0.158378  0.492076  1
  Rh  Rh11  1  0.158379  0.507924  0.841621  1
  S  S12  1  0.021075  0.181663  0.184614  1
  S  S13  1  0.181664  0.021074  0.612647  1
  S  S14  1  0.612647  0.184614  0.181664  1
  S  S15  1  0.184614  0.612646  0.021074  1
  S  S16  1  0.978925  0.818336  0.815386  1
  S  S17  1  0.818336  0.978926  0.387353  1
  S  S18  1  0.387353  0.815386  0.818336  1
  S  S19  1  0.815386  0.387353  0.978926  1
  S  S20  1  0.398905  0.196076  0.803924  1
  S  S21  1  0.196076  0.398905  0.601095  1
  S  S22  1  0.601095  0.803925  0.196076  1
  S  S23  1  0.803924  0.601096  0.398905  1
