# generated using pymatgen
data_Lu5Co5Si
_symmetry_space_group_name_H-M   'P 1'
_cell_length_a   5.36886914
_cell_length_b   5.36886912
_cell_length_c   20.06361900
_cell_angle_alpha   90.00000000
_cell_angle_beta   90.00000000
_cell_angle_gamma   137.51300729
_symmetry_Int_Tables_number   1
_chemical_formula_structural   Lu5Co5Si
_chemical_formula_sum   'Lu10 Co10 Si2'
_cell_volume   390.61654436
_cell_formula_units_Z   2
loop_
 _symmetry_equiv_pos_site_id
 _symmetry_equiv_pos_as_xyz
  1  'x, y, z'
loop_
 _atom_site_type_symbol
 _atom_site_label
 _atom_site_symmetry_multiplicity
 _atom_site_fract_x
 _atom_site_fract_y
 _atom_site_fract_z
 _atom_site_occupancy
  Lu  Lu0  1  0.291465  0.708535  0.250000  1
  Lu  Lu1  1  0.290057  0.709943  0.066054  1
  Lu  Lu2  1  0.995613  0.004387  0.843265  1
  Lu  Lu3  1  0.708535  0.291465  0.750000  1
  Lu  Lu4  1  0.709943  0.290057  0.566054  1
  Lu  Lu5  1  0.004387  0.995613  0.343265  1
  Lu  Lu6  1  0.995613  0.004387  0.656735  1
  Lu  Lu7  1  0.709943  0.290057  0.933946  1
  Lu  Lu8  1  0.004387  0.995613  0.156735  1
  Lu  Lu9  1  0.290057  0.709943  0.433946  1
  Co  Co10  1  0.290997  0.709003  0.654129  1
  Co  Co11  1  0.576827  0.423173  0.445220  1
  Co  Co12  1  0.413568  0.586432  0.750000  1
  Co  Co13  1  0.423173  0.576827  0.945220  1
  Co  Co14  1  0.586432  0.413568  0.250000  1
  Co  Co15  1  0.423173  0.576827  0.554780  1
  Co  Co16  1  0.709003  0.290997  0.345871  1
  Co  Co17  1  0.709003  0.290997  0.154129  1
  Co  Co18  1  0.576827  0.423173  0.054780  1
  Co  Co19  1  0.290997  0.709003  0.845871  1
  Si  Si20  1  0.000000  0.000000  0.500000  1
  Si  Si21  1  0.000000  0.000000  0.000000  1
