# generated using pymatgen
data_ThWC2
_symmetry_space_group_name_H-M   'P 1'
_cell_length_a   3.49014400
_cell_length_b   5.88841400
_cell_length_c   11.10278300
_cell_angle_alpha   90.00000000
_cell_angle_beta   90.00000000
_cell_angle_gamma   90.00000000
_symmetry_Int_Tables_number   1
_chemical_formula_structural   ThWC2
_chemical_formula_sum   'Th4 W4 C8'
_cell_volume   228.17787657
_cell_formula_units_Z   4
loop_
 _symmetry_equiv_pos_site_id
 _symmetry_equiv_pos_as_xyz
  1  'x, y, z'
loop_
 _atom_site_type_symbol
 _atom_site_label
 _atom_site_symmetry_multiplicity
 _atom_site_fract_x
 _atom_site_fract_y
 _atom_site_fract_z
 _atom_site_occupancy
  Th  Th0  1  0.250000  0.586473  0.861072  1
  Th  Th1  1  0.750000  0.413527  0.138928  1
  Th  Th2  1  0.750000  0.913527  0.361072  1
  Th  Th3  1  0.250000  0.086473  0.638928  1
  W  W4  1  0.250000  0.913442  0.107283  1
  W  W5  1  0.750000  0.086558  0.892717  1
  W  W6  1  0.750000  0.586558  0.607283  1
  W  W7  1  0.250000  0.413442  0.392717  1
  C  C8  1  0.250000  0.662744  0.248032  1
  C  C9  1  0.750000  0.337256  0.751968  1
  C  C10  1  0.750000  0.837256  0.748032  1
  C  C11  1  0.250000  0.162744  0.251968  1
  C  C12  1  0.250000  0.715393  0.518201  1
  C  C13  1  0.750000  0.284607  0.481799  1
  C  C14  1  0.750000  0.784607  0.018201  1
  C  C15  1  0.250000  0.215393  0.981799  1
