# generated using pymatgen
data_Na3V4AgO12
_symmetry_space_group_name_H-M   'P 1'
_cell_length_a   7.32634132
_cell_length_b   7.32634211
_cell_length_c   6.00641394
_cell_angle_alpha   75.40581319
_cell_angle_beta   75.40581459
_cell_angle_gamma   83.87420046
_symmetry_Int_Tables_number   1
_chemical_formula_structural   Na3V4AgO12
_chemical_formula_sum   'Na3 V4 Ag1 O12'
_cell_volume   301.60548725
_cell_formula_units_Z   1
loop_
 _symmetry_equiv_pos_site_id
 _symmetry_equiv_pos_as_xyz
  1  'x, y, z'
loop_
 _atom_site_type_symbol
 _atom_site_label
 _atom_site_symmetry_multiplicity
 _atom_site_fract_x
 _atom_site_fract_y
 _atom_site_fract_z
 _atom_site_occupancy
  Na  Na0  1  0.275578  0.724422  0.500000  1
  Na  Na1  1  0.723597  0.276403  0.000000  1
  Na  Na2  1  0.089665  0.910335  0.000000  1
  V  V3  1  0.794619  0.618765  0.519666  1
  V  V4  1  0.381235  0.205381  0.480334  1
  V  V5  1  0.205624  0.382416  0.978984  1
  V  V6  1  0.617584  0.794376  0.021016  1
  Ag  Ag7  1  0.909094  0.090906  0.500000  1
  O  O8  1  0.650283  0.646966  0.303443  1
  O  O9  1  0.353034  0.349717  0.696557  1
  O  O10  1  0.348831  0.350202  0.196877  1
  O  O11  1  0.649798  0.651169  0.803123  1
  O  O12  1  0.884331  0.396443  0.579382  1
  O  O13  1  0.603557  0.115669  0.420618  1
  O  O14  1  0.117443  0.604634  0.921948  1
  O  O15  1  0.395366  0.882557  0.078052  1
  O  O16  1  0.970727  0.771991  0.418043  1
  O  O17  1  0.228009  0.029273  0.581957  1
  O  O18  1  0.030053  0.228430  0.081025  1
  O  O19  1  0.771570  0.969947  0.918975  1
