# generated using pymatgen
data_Er(ZnAu2)2
_symmetry_space_group_name_H-M   'P 1'
_cell_length_a   5.62109968
_cell_length_b   5.62109814
_cell_length_c   5.62109906
_cell_angle_alpha   102.94744827
_cell_angle_beta   102.94743979
_cell_angle_gamma   123.49647131
_symmetry_Int_Tables_number   1
_chemical_formula_structural   Er(ZnAu2)2
_chemical_formula_sum   'Er1 Zn2 Au4'
_cell_volume   130.46764953
_cell_formula_units_Z   1
loop_
 _symmetry_equiv_pos_site_id
 _symmetry_equiv_pos_as_xyz
  1  'x, y, z'
loop_
 _atom_site_type_symbol
 _atom_site_label
 _atom_site_symmetry_multiplicity
 _atom_site_fract_x
 _atom_site_fract_y
 _atom_site_fract_z
 _atom_site_occupancy
  Er  Er0  1  0.000000  0.000000  0.000000  1
  Zn  Zn1  1  0.250000  0.750000  0.500000  1
  Zn  Zn2  1  0.750000  0.250000  0.500000  1
  Au  Au3  1  0.299162  0.299162  0.598324  1
  Au  Au4  1  0.700838  0.700838  0.401676  1
  Au  Au5  1  0.700838  0.299162  0.000000  1
  Au  Au6  1  0.299162  0.700838  0.000000  1
