# generated using pymatgen
data_Li3TbY2Si2Sn
_symmetry_space_group_name_H-M   'P 1'
_cell_length_a   7.10840145
_cell_length_b   7.10399996
_cell_length_c   4.33918200
_cell_angle_alpha   90.00000000
_cell_angle_beta   90.00000000
_cell_angle_gamma   119.97950967
_symmetry_Int_Tables_number   1
_chemical_formula_structural   Li3TbY2Si2Sn
_chemical_formula_sum   'Li3 Tb1 Y2 Si2 Sn1'
_cell_volume   189.80298094
_cell_formula_units_Z   1
loop_
 _symmetry_equiv_pos_site_id
 _symmetry_equiv_pos_as_xyz
  1  'x, y, z'
loop_
 _atom_site_type_symbol
 _atom_site_label
 _atom_site_symmetry_multiplicity
 _atom_site_fract_x
 _atom_site_fract_y
 _atom_site_fract_z
 _atom_site_occupancy
  Li  Li0  1  0.241433  0.000011  0.500000  1
  Li  Li1  1  0.758567  0.758578  0.500000  1
  Li  Li2  1  0.000000  0.241396  0.500000  1
  Tb  Tb3  1  0.000000  0.553065  0.000000  1
  Y  Y4  1  0.553007  0.999984  0.000000  1
  Y  Y5  1  0.446993  0.446977  0.000000  1
  Si  Si6  1  0.333469  0.666705  0.500000  1
  Si  Si7  1  0.666531  0.333235  0.500000  1
  Sn  Sn8  1  0.000000  0.000050  0.000000  1
