# generated using pymatgen
data_Tb2PrThAl15(GaIr2)3
_symmetry_space_group_name_H-M   'P 1'
_cell_length_a   7.60647000
_cell_length_b   7.60835983
_cell_length_c   9.53186300
_cell_angle_alpha   90.00000000
_cell_angle_beta   90.00000000
_cell_angle_gamma   119.47849568
_symmetry_Int_Tables_number   1
_chemical_formula_structural   Tb2PrThAl15(GaIr2)3
_chemical_formula_sum   'Tb2 Pr1 Th1 Al15 Ga3 Ir6'
_cell_volume   480.22077976
_cell_formula_units_Z   1
loop_
 _symmetry_equiv_pos_site_id
 _symmetry_equiv_pos_as_xyz
  1  'x, y, z'
loop_
 _atom_site_type_symbol
 _atom_site_label
 _atom_site_symmetry_multiplicity
 _atom_site_fract_x
 _atom_site_fract_y
 _atom_site_fract_z
 _atom_site_occupancy
  Tb  Tb0  1  0.001795  0.328419  0.750000  1
  Tb  Tb1  1  0.327829  0.001963  0.750000  1
  Pr  Pr2  1  0.670117  0.993562  0.250000  1
  Th  Th3  1  0.993719  0.669737  0.250000  1
  Al  Al4  1  0.872329  0.873264  0.750000  1
  Al  Al5  1  0.005002  0.332909  0.068991  1
  Al  Al6  1  0.000229  0.664434  0.918993  1
  Al  Al7  1  0.000229  0.664434  0.581007  1
  Al  Al8  1  0.337458  0.006673  0.431140  1
  Al  Al9  1  0.005002  0.332909  0.431009  1
  Al  Al10  1  0.664672  0.001013  0.578902  1
  Al  Al11  1  0.664672  0.001013  0.921098  1
  Al  Al12  1  0.337458  0.006673  0.068860  1
  Al  Al13  1  0.331761  0.331811  0.563140  1
  Al  Al14  1  0.663179  0.664818  0.464529  1
  Al  Al15  1  0.663179  0.664818  0.035471  1
  Al  Al16  1  0.331761  0.331811  0.936860  1
  Al  Al17  1  0.660461  0.449531  0.750000  1
  Al  Al18  1  0.449412  0.661677  0.750000  1
  Ga  Ga19  1  0.132639  0.132866  0.250000  1
  Ga  Ga20  1  0.341892  0.544751  0.250000  1
  Ga  Ga21  1  0.542937  0.339756  0.250000  1
  Ir  Ir22  1  0.673423  0.330560  0.998126  1
  Ir  Ir23  1  0.326832  0.671348  0.997935  1
  Ir  Ir24  1  0.326832  0.671348  0.502065  1
  Ir  Ir25  1  0.673423  0.330560  0.501874  1
  Ir  Ir26  1  0.000880  0.998670  0.997301  1
  Ir  Ir27  1  0.000880  0.998670  0.502699  1
