# generated using pymatgen
data_La2YErAl18(PdRh)3
_symmetry_space_group_name_H-M   'P 1'
_cell_length_a   7.59874632
_cell_length_b   7.60119302
_cell_length_c   9.46015900
_cell_angle_alpha   89.98730645
_cell_angle_beta   89.98326084
_cell_angle_gamma   119.59282989
_symmetry_Int_Tables_number   1
_chemical_formula_structural   La2YErAl18(PdRh)3
_chemical_formula_sum   'La2 Y1 Er1 Al18 Pd3 Rh3'
_cell_volume   475.13826690
_cell_formula_units_Z   1
loop_
 _symmetry_equiv_pos_site_id
 _symmetry_equiv_pos_as_xyz
  1  'x, y, z'
loop_
 _atom_site_type_symbol
 _atom_site_label
 _atom_site_symmetry_multiplicity
 _atom_site_fract_x
 _atom_site_fract_y
 _atom_site_fract_z
 _atom_site_occupancy
  La  La0  1  0.995726  0.669074  0.750029  1
  La  La1  1  0.005992  0.332194  0.250188  1
  Y  Y2  1  0.668366  0.993840  0.749781  1
  Er  Er3  1  0.329786  0.004104  0.249834  1
  Al  Al4  1  0.127468  0.128818  0.750697  1
  Al  Al5  1  0.872503  0.872284  0.249373  1
  Al  Al6  1  0.000963  0.327906  0.577953  1
  Al  Al7  1  0.999477  0.672853  0.420887  1
  Al  Al8  1  0.996572  0.668545  0.077499  1
  Al  Al9  1  0.337642  0.005607  0.927542  1
  Al  Al10  1  0.995719  0.327238  0.923462  1
  Al  Al11  1  0.665590  0.001462  0.073650  1
  Al  Al12  1  0.665633  0.997176  0.424749  1
  Al  Al13  1  0.334117  0.004097  0.574161  1
  Al  Al14  1  0.334275  0.328373  0.049797  1
  Al  Al15  1  0.668359  0.667809  0.952044  1
  Al  Al16  1  0.667271  0.669938  0.551844  1
  Al  Al17  1  0.333444  0.330041  0.446583  1
  Al  Al18  1  0.345538  0.546427  0.750670  1
  Al  Al19  1  0.652976  0.449603  0.246583  1
  Al  Al20  1  0.543876  0.336645  0.753259  1
  Al  Al21  1  0.459050  0.664369  0.249444  1
  Pd  Pd22  1  0.671674  0.327765  0.499783  1
  Pd  Pd23  1  0.328523  0.673256  0.499791  1
  Pd  Pd24  1  0.328442  0.673090  0.000245  1
  Rh  Rh25  1  0.670150  0.327242  0.000174  1
  Rh  Rh26  1  0.000415  0.000326  0.499613  1
  Rh  Rh27  1  0.000455  0.999915  0.000363  1
