# generated using pymatgen
data_MnBi6(AsO5)4
_symmetry_space_group_name_H-M   'P 1'
_cell_length_a   7.12785858
_cell_length_b   7.88428617
_cell_length_c   9.47905210
_cell_angle_alpha   105.50192620
_cell_angle_beta   95.42036322
_cell_angle_gamma   112.75269415
_symmetry_Int_Tables_number   1
_chemical_formula_structural   MnBi6(AsO5)4
_chemical_formula_sum   'Mn1 Bi6 As4 O20'
_cell_volume   461.50032113
_cell_formula_units_Z   1
loop_
 _symmetry_equiv_pos_site_id
 _symmetry_equiv_pos_as_xyz
  1  'x, y, z'
loop_
 _atom_site_type_symbol
 _atom_site_label
 _atom_site_symmetry_multiplicity
 _atom_site_fract_x
 _atom_site_fract_y
 _atom_site_fract_z
 _atom_site_occupancy
  Mn  Mn0  1  0.000000  0.000000  0.000000  1
  Bi  Bi1  1  0.348059  0.134782  0.515962  1
  Bi  Bi2  1  0.651941  0.865218  0.484038  1
  Bi  Bi3  1  0.432416  0.797695  0.082444  1
  Bi  Bi4  1  0.567584  0.202305  0.917556  1
  Bi  Bi5  1  0.809068  0.292166  0.324540  1
  Bi  Bi6  1  0.190932  0.707834  0.675460  1
  As  As7  1  0.055228  0.263748  0.767156  1
  As  As8  1  0.944772  0.736252  0.232844  1
  As  As9  1  0.334854  0.380184  0.245431  1
  As  As10  1  0.665146  0.619816  0.754569  1
  O  O11  1  0.095926  0.217214  0.259334  1
  O  O12  1  0.904074  0.782786  0.740666  1
  O  O13  1  0.157371  0.514734  0.836118  1
  O  O14  1  0.842629  0.485266  0.163882  1
  O  O15  1  0.667686  0.094154  0.103943  1
  O  O16  1  0.332314  0.905846  0.896057  1
  O  O17  1  0.546193  0.027080  0.363687  1
  O  O18  1  0.453807  0.972920  0.636313  1
  O  O19  1  0.347982  0.611660  0.295094  1
  O  O20  1  0.652018  0.388340  0.704906  1
  O  O21  1  0.247762  0.181623  0.753850  1
  O  O22  1  0.752238  0.818377  0.246150  1
  O  O23  1  0.537866  0.384375  0.363668  1
  O  O24  1  0.462134  0.615625  0.636332  1
  O  O25  1  0.074876  0.814587  0.418564  1
  O  O26  1  0.925124  0.185413  0.581436  1
  O  O27  1  0.103689  0.839291  0.123066  1
  O  O28  1  0.896311  0.160709  0.876934  1
  O  O29  1  0.328366  0.278266  0.058480  1
  O  O30  1  0.671634  0.721734  0.941520  1
