# generated using pymatgen
data_Ta5NbPt6
_symmetry_space_group_name_H-M   'P 1'
_cell_length_a   14.02557311
_cell_length_b   2.80952700
_cell_length_c   5.02431740
_cell_angle_alpha   90.00000000
_cell_angle_beta   89.95447438
_cell_angle_gamma   90.00000000
_symmetry_Int_Tables_number   1
_chemical_formula_structural   Ta5NbPt6
_chemical_formula_sum   'Ta5 Nb1 Pt6'
_cell_volume   197.98430169
_cell_formula_units_Z   1
loop_
 _symmetry_equiv_pos_site_id
 _symmetry_equiv_pos_as_xyz
  1  'x, y, z'
loop_
 _atom_site_type_symbol
 _atom_site_label
 _atom_site_symmetry_multiplicity
 _atom_site_fract_x
 _atom_site_fract_y
 _atom_site_fract_z
 _atom_site_occupancy
  Ta  Ta0  1  0.249180  0.000000  0.003945  1
  Ta  Ta1  1  0.418395  0.000000  0.341323  1
  Ta  Ta2  1  0.581644  0.000000  0.659090  1
  Ta  Ta3  1  0.919263  0.000000  0.657712  1
  Ta  Ta4  1  0.749627  0.000000  0.996694  1
  Nb  Nb5  1  0.081628  0.000000  0.341275  1
  Pt  Pt6  1  0.583917  0.500001  0.160536  1
  Pt  Pt7  1  0.915239  0.500001  0.159216  1
  Pt  Pt8  1  0.251005  0.500001  0.498922  1
  Pt  Pt9  1  0.750071  0.500001  0.502165  1
  Pt  Pt10  1  0.083872  0.500001  0.839177  1
  Pt  Pt11  1  0.416158  0.500001  0.839951  1
