# generated using pymatgen
data_Ca4YbAgBi3
_symmetry_space_group_name_H-M   'P 1'
_cell_length_a   9.37243992
_cell_length_b   9.37244049
_cell_length_c   7.23679000
_cell_angle_alpha   90.00000000
_cell_angle_beta   90.00000000
_cell_angle_gamma   119.86072329
_symmetry_Int_Tables_number   1
_chemical_formula_structural   Ca4YbAgBi3
_chemical_formula_sum   'Ca8 Yb2 Ag2 Bi6'
_cell_volume   551.30224093
_cell_formula_units_Z   2
loop_
 _symmetry_equiv_pos_site_id
 _symmetry_equiv_pos_as_xyz
  1  'x, y, z'
loop_
 _atom_site_type_symbol
 _atom_site_label
 _atom_site_symmetry_multiplicity
 _atom_site_fract_x
 _atom_site_fract_y
 _atom_site_fract_z
 _atom_site_occupancy
  Ca  Ca0  1  0.262808  0.262700  0.750000  1
  Ca  Ca1  1  0.737300  0.737192  0.250000  1
  Ca  Ca2  1  0.333294  0.666706  0.500000  1
  Ca  Ca3  1  0.262437  0.999874  0.250000  1
  Ca  Ca4  1  0.666803  0.333197  0.500000  1
  Ca  Ca5  1  0.000126  0.737563  0.750000  1
  Ca  Ca6  1  0.666803  0.333197  0.000000  1
  Ca  Ca7  1  0.333294  0.666706  0.000000  1
  Yb  Yb8  1  0.999953  0.260281  0.250000  1
  Yb  Yb9  1  0.739719  0.000047  0.750000  1
  Ag  Ag10  1  0.998068  0.001932  0.000000  1
  Ag  Ag11  1  0.998068  0.001932  0.500000  1
  Bi  Bi12  1  0.388865  0.999856  0.750000  1
  Bi  Bi13  1  0.612535  0.000187  0.250000  1
  Bi  Bi14  1  0.611981  0.612011  0.750000  1
  Bi  Bi15  1  0.000144  0.611135  0.250000  1
  Bi  Bi16  1  0.999813  0.387465  0.750000  1
  Bi  Bi17  1  0.387989  0.388019  0.250000  1
