# generated using pymatgen
data_Th3AlZn2Co2Cu
_symmetry_space_group_name_H-M   'P 1'
_cell_length_a   7.22089506
_cell_length_b   7.22089513
_cell_length_c   3.88476900
_cell_angle_alpha   90.00000000
_cell_angle_beta   90.00000000
_cell_angle_gamma   120.53974932
_symmetry_Int_Tables_number   1
_chemical_formula_structural   Th3AlZn2Co2Cu
_chemical_formula_sum   'Th3 Al1 Zn2 Co2 Cu1'
_cell_volume   174.45765974
_cell_formula_units_Z   1
loop_
 _symmetry_equiv_pos_site_id
 _symmetry_equiv_pos_as_xyz
  1  'x, y, z'
loop_
 _atom_site_type_symbol
 _atom_site_label
 _atom_site_symmetry_multiplicity
 _atom_site_fract_x
 _atom_site_fract_y
 _atom_site_fract_z
 _atom_site_occupancy
  Th  Th0  1  0.574001  0.001729  0.000000  1
  Th  Th1  1  0.001729  0.574001  0.000000  1
  Th  Th2  1  0.420314  0.420314  0.000000  1
  Al  Al3  1  0.764005  0.764005  0.500000  1
  Zn  Zn4  1  0.234258  0.996565  0.500000  1
  Zn  Zn5  1  0.996565  0.234258  0.500000  1
  Co  Co6  1  0.348091  0.668965  0.500000  1
  Co  Co7  1  0.668965  0.348091  0.500000  1
  Cu  Cu8  1  0.992071  0.992071  0.000000  1
