# generated using pymatgen
data_Ho16CdNi4Ag2Hg
_symmetry_space_group_name_H-M   'P 1'
_cell_length_a   9.44428032
_cell_length_b   9.43907270
_cell_length_c   9.42154700
_cell_angle_alpha   60.06141127
_cell_angle_beta   60.07960480
_cell_angle_gamma   59.98495638
_symmetry_Int_Tables_number   1
_chemical_formula_structural   Ho16CdNi4Ag2Hg
_chemical_formula_sum   'Ho16 Cd1 Ni4 Ag2 Hg1'
_cell_volume   594.45353359
_cell_formula_units_Z   1
loop_
 _symmetry_equiv_pos_site_id
 _symmetry_equiv_pos_as_xyz
  1  'x, y, z'
loop_
 _atom_site_type_symbol
 _atom_site_label
 _atom_site_symmetry_multiplicity
 _atom_site_fract_x
 _atom_site_fract_y
 _atom_site_fract_z
 _atom_site_occupancy
  Ho  Ho0  1  0.349097  0.348599  0.348881  1
  Ho  Ho1  1  0.349097  0.348599  0.953422  1
  Ho  Ho2  1  0.351053  0.949874  0.349536  1
  Ho  Ho3  1  0.945296  0.352631  0.351036  1
  Ho  Ho4  1  0.810884  0.189715  0.190059  1
  Ho  Ho5  1  0.188908  0.812128  0.810000  1
  Ho  Ho6  1  0.188908  0.812128  0.188964  1
  Ho  Ho7  1  0.810884  0.189715  0.809342  1
  Ho  Ho8  1  0.189713  0.189677  0.810305  1
  Ho  Ho9  1  0.812563  0.812746  0.187346  1
  Ho  Ho10  1  0.933545  0.563747  0.564545  1
  Ho  Ho11  1  0.563337  0.933553  0.938481  1
  Ho  Ho12  1  0.563337  0.933553  0.564628  1
  Ho  Ho13  1  0.933545  0.563747  0.938162  1
  Ho  Ho14  1  0.563117  0.563462  0.936710  1
  Ho  Ho15  1  0.935983  0.936439  0.563789  1
  Cd  Cd16  1  0.261279  0.580496  0.579113  1
  Ni  Ni17  1  0.141712  0.144337  0.143837  1
  Ni  Ni18  1  0.141712  0.144337  0.570114  1
  Ni  Ni19  1  0.141651  0.571822  0.143264  1
  Ni  Ni20  1  0.572095  0.142491  0.142707  1
  Ag  Ag21  1  0.583458  0.584549  0.581625  1
  Ag  Ag22  1  0.583458  0.584549  0.250369  1
  Hg  Hg23  1  0.585366  0.247105  0.583765  1
