# generated using pymatgen
data_DyEr2Mg2CdGe2Au
_symmetry_space_group_name_H-M   'P 1'
_cell_length_a   7.27138872
_cell_length_b   7.21129530
_cell_length_c   4.34591200
_cell_angle_alpha   90.00000000
_cell_angle_beta   90.00000000
_cell_angle_gamma   120.32712489
_symmetry_Int_Tables_number   1
_chemical_formula_structural   DyEr2Mg2CdGe2Au
_chemical_formula_sum   'Dy1 Er2 Mg2 Cd1 Ge2 Au1'
_cell_volume   196.69855385
_cell_formula_units_Z   1
loop_
 _symmetry_equiv_pos_site_id
 _symmetry_equiv_pos_as_xyz
  1  'x, y, z'
loop_
 _atom_site_type_symbol
 _atom_site_label
 _atom_site_symmetry_multiplicity
 _atom_site_fract_x
 _atom_site_fract_y
 _atom_site_fract_z
 _atom_site_occupancy
  Dy  Dy0  1  0.417852  0.415641  0.000000  1
  Er  Er1  1  0.579692  0.000081  0.000000  1
  Er  Er2  1  0.002239  0.584666  0.000000  1
  Mg  Mg3  1  0.000309  0.242129  0.500000  1
  Mg  Mg4  1  0.758708  0.758218  0.500000  1
  Cd  Cd5  1  0.248387  0.999786  0.500000  1
  Ge  Ge6  1  0.333845  0.662371  0.500000  1
  Ge  Ge7  1  0.674123  0.338087  0.500000  1
  Au  Au8  1  0.984845  0.999020  0.000000  1
