# generated using pymatgen
data_Zr8Sn6BMo2C
_symmetry_space_group_name_H-M   'P 1'
_cell_length_a   8.42051200
_cell_length_b   8.42051260
_cell_length_c   5.69480000
_cell_angle_alpha   90.00000000
_cell_angle_beta   90.00000000
_cell_angle_gamma   119.99999764
_symmetry_Int_Tables_number   1
_chemical_formula_structural   Zr8Sn6BMo2C
_chemical_formula_sum   'Zr8 Sn6 B1 Mo2 C1'
_cell_volume   349.69236291
_cell_formula_units_Z   1
loop_
 _symmetry_equiv_pos_site_id
 _symmetry_equiv_pos_as_xyz
  1  'x, y, z'
loop_
 _atom_site_type_symbol
 _atom_site_label
 _atom_site_symmetry_multiplicity
 _atom_site_fract_x
 _atom_site_fract_y
 _atom_site_fract_z
 _atom_site_occupancy
  Zr  Zr0  1  0.333333  0.666667  0.500000  1
  Zr  Zr1  1  0.666667  0.333333  0.500000  1
  Zr  Zr2  1  0.769944  0.769944  0.741826  1
  Zr  Zr3  1  0.230056  0.000000  0.741826  1
  Zr  Zr4  1  0.000000  0.230056  0.741826  1
  Zr  Zr5  1  0.230056  0.230056  0.258174  1
  Zr  Zr6  1  0.769944  0.000000  0.258174  1
  Zr  Zr7  1  0.000000  0.769944  0.258174  1
  Sn  Sn8  1  0.403856  0.403856  0.764337  1
  Sn  Sn9  1  0.596144  0.000000  0.764337  1
  Sn  Sn10  1  0.000000  0.596144  0.764337  1
  Sn  Sn11  1  0.596144  0.596144  0.235663  1
  Sn  Sn12  1  0.403856  0.000000  0.235663  1
  Sn  Sn13  1  0.000000  0.403856  0.235663  1
  B  B14  1  0.000000  0.000000  0.000000  1
  Mo  Mo15  1  0.666667  0.333333  0.000000  1
  Mo  Mo16  1  0.333333  0.666667  0.000000  1
  C  C17  1  0.000000  0.000000  0.500000  1
