# generated using pymatgen
data_Ho4Er4Tc3B24Os
_symmetry_space_group_name_H-M   'P 1'
_cell_length_a   3.65739600
_cell_length_b   9.12456460
_cell_length_c   11.50611900
_cell_angle_alpha   89.94988663
_cell_angle_beta   90.00000000
_cell_angle_gamma   90.00000000
_symmetry_Int_Tables_number   1
_chemical_formula_structural   Ho4Er4Tc3B24Os
_chemical_formula_sum   'Ho4 Er4 Tc3 B24 Os1'
_cell_volume   383.98373730
_cell_formula_units_Z   1
loop_
 _symmetry_equiv_pos_site_id
 _symmetry_equiv_pos_as_xyz
  1  'x, y, z'
loop_
 _atom_site_type_symbol
 _atom_site_label
 _atom_site_symmetry_multiplicity
 _atom_site_fract_x
 _atom_site_fract_y
 _atom_site_fract_z
 _atom_site_occupancy
  Ho  Ho0  1  0.000000  0.323342  0.413954  1
  Ho  Ho1  1  0.000000  0.675733  0.584345  1
  Ho  Ho2  1  0.000000  0.822719  0.087112  1
  Ho  Ho3  1  0.000000  0.178292  0.914501  1
  Er  Er4  1  0.000000  0.942489  0.370142  1
  Er  Er5  1  0.000000  0.058287  0.629932  1
  Er  Er6  1  0.000000  0.442730  0.130113  1
  Er  Er7  1  0.000000  0.557016  0.869509  1
  Tc  Tc8  1  0.000000  0.638319  0.320432  1
  Tc  Tc9  1  0.000000  0.361544  0.680224  1
  Tc  Tc10  1  0.000000  0.137976  0.178459  1
  B  B11  1  0.500000  0.553020  0.432993  1
  B  B12  1  0.500000  0.446884  0.566862  1
  B  B13  1  0.500000  0.052972  0.066831  1
  B  B14  1  0.500000  0.946325  0.932915  1
  B  B15  1  0.500000  0.748916  0.418770  1
  B  B16  1  0.500000  0.250812  0.581316  1
  B  B17  1  0.500000  0.249477  0.081339  1
  B  B18  1  0.500000  0.751002  0.918398  1
  B  B19  1  0.500000  0.791783  0.265335  1
  B  B20  1  0.500000  0.208394  0.735186  1
  B  B21  1  0.500000  0.291708  0.234931  1
  B  B22  1  0.500000  0.708929  0.765047  1
  B  B23  1  0.500000  0.630547  0.185286  1
  B  B24  1  0.500000  0.369371  0.815255  1
  B  B25  1  0.500000  0.130109  0.314431  1
  B  B26  1  0.500000  0.869495  0.685331  1
  B  B27  1  0.500000  0.981408  0.211913  1
  B  B28  1  0.500000  0.017450  0.788100  1
  B  B29  1  0.500000  0.481634  0.287980  1
  B  B30  1  0.500000  0.518157  0.711882  1
  B  B31  1  0.500000  0.601131  0.027871  1
  B  B32  1  0.500000  0.399936  0.971975  1
  B  B33  1  0.500000  0.100924  0.472034  1
  B  B34  1  0.500000  0.899193  0.528432  1
  Os  Os35  1  0.000000  0.861974  0.820864  1
