# generated using pymatgen
data_Tb2NiPBr2
_symmetry_space_group_name_H-M   'P 1'
_cell_length_a   3.92132600
_cell_length_b   3.92132656
_cell_length_c   10.95140100
_cell_angle_alpha   90.00000000
_cell_angle_beta   90.00000000
_cell_angle_gamma   120.00001216
_symmetry_Int_Tables_number   1
_chemical_formula_structural   Tb2NiPBr2
_chemical_formula_sum   'Tb2 Ni1 P1 Br2'
_cell_volume   145.83649556
_cell_formula_units_Z   1
loop_
 _symmetry_equiv_pos_site_id
 _symmetry_equiv_pos_as_xyz
  1  'x, y, z'
loop_
 _atom_site_type_symbol
 _atom_site_label
 _atom_site_symmetry_multiplicity
 _atom_site_fract_x
 _atom_site_fract_y
 _atom_site_fract_z
 _atom_site_occupancy
  Tb  Tb0  1  0.000000  0.000000  0.172047  1
  Tb  Tb1  1  0.000000  0.000000  0.828976  1
  Ni  Ni2  1  0.666667  0.333333  0.989081  1
  P  P3  1  0.333333  0.666667  0.009722  1
  Br  Br4  1  0.333333  0.666667  0.657447  1
  Br  Br5  1  0.666667  0.333333  0.342726  1
