# generated using pymatgen
data_Zr10AlSi2BiSb4
_symmetry_space_group_name_H-M   'P 1'
_cell_length_a   8.63246305
_cell_length_b   8.67594604
_cell_length_c   5.85511700
_cell_angle_alpha   90.00000000
_cell_angle_beta   90.00000000
_cell_angle_gamma   119.77084087
_symmetry_Int_Tables_number   1
_chemical_formula_structural   Zr10AlSi2BiSb4
_chemical_formula_sum   'Zr10 Al1 Si2 Bi1 Sb4'
_cell_volume   380.64139026
_cell_formula_units_Z   1
loop_
 _symmetry_equiv_pos_site_id
 _symmetry_equiv_pos_as_xyz
  1  'x, y, z'
loop_
 _atom_site_type_symbol
 _atom_site_label
 _atom_site_symmetry_multiplicity
 _atom_site_fract_x
 _atom_site_fract_y
 _atom_site_fract_z
 _atom_site_occupancy
  Zr  Zr0  1  0.267688  0.999716  0.250000  1
  Zr  Zr1  1  0.252145  0.251124  0.750000  1
  Zr  Zr2  1  0.006120  0.746936  0.750000  1
  Zr  Zr3  1  0.993683  0.262130  0.250000  1
  Zr  Zr4  1  0.733692  0.739758  0.250000  1
  Zr  Zr5  1  0.746731  0.005084  0.750000  1
  Zr  Zr6  1  0.333300  0.670949  0.004789  1
  Zr  Zr7  1  0.666377  0.326932  0.495188  1
  Zr  Zr8  1  0.666377  0.326932  0.004812  1
  Zr  Zr9  1  0.333300  0.670949  0.495211  1
  Al  Al10  1  0.607003  0.999388  0.250000  1
  Si  Si11  1  0.998671  0.999378  0.011548  1
  Si  Si12  1  0.998671  0.999378  0.488452  1
  Bi  Bi13  1  0.604236  0.603814  0.750000  1
  Sb  Sb14  1  0.000465  0.397674  0.750000  1
  Sb  Sb15  1  0.998043  0.608490  0.250000  1
  Sb  Sb16  1  0.390148  0.391262  0.250000  1
  Sb  Sb17  1  0.403348  0.000102  0.750000  1
