# generated using pymatgen
data_Ac3CdHg4
_symmetry_space_group_name_H-M   'P 1'
_cell_length_a   6.86251683
_cell_length_b   6.86251638
_cell_length_c   11.09379300
_cell_angle_alpha   90.00000000
_cell_angle_beta   90.00000000
_cell_angle_gamma   106.91410528
_symmetry_Int_Tables_number   1
_chemical_formula_structural   Ac3CdHg4
_chemical_formula_sum   'Ac6 Cd2 Hg8'
_cell_volume   499.85231629
_cell_formula_units_Z   2
loop_
 _symmetry_equiv_pos_site_id
 _symmetry_equiv_pos_as_xyz
  1  'x, y, z'
loop_
 _atom_site_type_symbol
 _atom_site_label
 _atom_site_symmetry_multiplicity
 _atom_site_fract_x
 _atom_site_fract_y
 _atom_site_fract_z
 _atom_site_occupancy
  Ac  Ac0  1  0.793896  0.206104  0.000000  1
  Ac  Ac1  1  0.206104  0.793896  0.000000  1
  Ac  Ac2  1  0.206104  0.793896  0.500000  1
  Ac  Ac3  1  0.793896  0.206104  0.500000  1
  Ac  Ac4  1  0.594792  0.594792  0.250000  1
  Ac  Ac5  1  0.405208  0.405208  0.750000  1
  Cd  Cd6  1  0.021499  0.021499  0.250000  1
  Cd  Cd7  1  0.978501  0.978501  0.750000  1
  Hg  Hg8  1  0.053179  0.479429  0.250000  1
  Hg  Hg9  1  0.946821  0.520571  0.750000  1
  Hg  Hg10  1  0.479429  0.053179  0.250000  1
  Hg  Hg11  1  0.520571  0.946821  0.750000  1
  Hg  Hg12  1  0.301098  0.301098  0.037906  1
  Hg  Hg13  1  0.698902  0.698902  0.962094  1
  Hg  Hg14  1  0.698902  0.698902  0.537906  1
  Hg  Hg15  1  0.301098  0.301098  0.462094  1
