# generated using pymatgen
data_Dy5Ho(RhI3)2
_symmetry_space_group_name_H-M   'P 1'
_cell_length_a   4.23628900
_cell_length_b   8.87847089
_cell_length_c   12.37327900
_cell_angle_alpha   86.30272395
_cell_angle_beta   90.00000000
_cell_angle_gamma   90.00000000
_symmetry_Int_Tables_number   1
_chemical_formula_structural   Dy5Ho(RhI3)2
_chemical_formula_sum   'Dy5 Ho1 Rh2 I6'
_cell_volume   464.41230216
_cell_formula_units_Z   1
loop_
 _symmetry_equiv_pos_site_id
 _symmetry_equiv_pos_as_xyz
  1  'x, y, z'
loop_
 _atom_site_type_symbol
 _atom_site_label
 _atom_site_symmetry_multiplicity
 _atom_site_fract_x
 _atom_site_fract_y
 _atom_site_fract_z
 _atom_site_occupancy
  Dy  Dy0  1  0.750000  0.136276  0.127726  1
  Dy  Dy1  1  0.250000  0.863527  0.872436  1
  Dy  Dy2  1  0.750000  0.098527  0.683319  1
  Dy  Dy3  1  0.250000  0.901430  0.316471  1
  Dy  Dy4  1  0.250000  0.258171  0.897059  1
  Ho  Ho5  1  0.750000  0.742406  0.103062  1
  Rh  Rh6  1  0.750000  0.054898  0.907151  1
  Rh  Rh7  1  0.250000  0.944654  0.092768  1
  I  I8  1  0.250000  0.354142  0.636934  1
  I  I9  1  0.750000  0.645835  0.362918  1
  I  I10  1  0.750000  0.141653  0.392712  1
  I  I11  1  0.250000  0.858271  0.607313  1
  I  I12  1  0.250000  0.424634  0.133021  1
  I  I13  1  0.750000  0.575576  0.867109  1
