# generated using pymatgen
data_Ca9Pr8Tm3Si16
_symmetry_space_group_name_H-M   'P 1'
_cell_length_a   7.47978142
_cell_length_b   7.91729768
_cell_length_c   15.13690160
_cell_angle_alpha   89.97921093
_cell_angle_beta   90.21531932
_cell_angle_gamma   90.04281742
_symmetry_Int_Tables_number   1
_chemical_formula_structural   Ca9Pr8Tm3Si16
_chemical_formula_sum   'Ca9 Pr8 Tm3 Si16'
_cell_volume   896.39546891
_cell_formula_units_Z   1
loop_
 _symmetry_equiv_pos_site_id
 _symmetry_equiv_pos_as_xyz
  1  'x, y, z'
loop_
 _atom_site_type_symbol
 _atom_site_label
 _atom_site_symmetry_multiplicity
 _atom_site_fract_x
 _atom_site_fract_y
 _atom_site_fract_z
 _atom_site_occupancy
  Ca  Ca0  1  0.321684  0.180759  0.622974  1
  Ca  Ca1  1  0.680458  0.820601  0.376399  1
  Ca  Ca2  1  0.653165  0.998044  0.749875  1
  Ca  Ca3  1  0.179384  0.679893  0.376651  1
  Ca  Ca4  1  0.822685  0.318729  0.880842  1
  Ca  Ca5  1  0.820229  0.319604  0.622895  1
  Ca  Ca6  1  0.847632  0.495081  0.250946  1
  Ca  Ca7  1  0.348299  0.005434  0.250757  1
  Ca  Ca8  1  0.147913  0.503236  0.750012  1
  Pr  Pr9  1  0.024234  0.184302  0.400560  1
  Pr  Pr10  1  0.524603  0.315808  0.399526  1
  Pr  Pr11  1  0.474383  0.683737  0.902109  1
  Pr  Pr12  1  0.475095  0.684934  0.599111  1
  Pr  Pr13  1  0.974932  0.814754  0.600111  1
  Pr  Pr14  1  0.975171  0.815395  0.903358  1
  Pr  Pr15  1  0.524556  0.316276  0.096972  1
  Pr  Pr16  1  0.025338  0.184944  0.097376  1
  Tm  Tm17  1  0.324404  0.181234  0.878546  1
  Tm  Tm18  1  0.176308  0.683105  0.122225  1
  Tm  Tm19  1  0.676864  0.818164  0.121069  1
  Si  Si20  1  0.264637  0.878996  0.754637  1
  Si  Si21  1  0.466680  0.602184  0.241826  1
  Si  Si22  1  0.038737  0.097126  0.756106  1
  Si  Si23  1  0.529377  0.401323  0.754664  1
  Si  Si24  1  0.143304  0.472268  0.537013  1
  Si  Si25  1  0.966374  0.898272  0.241868  1
  Si  Si26  1  0.737683  0.118409  0.244554  1
  Si  Si27  1  0.858453  0.534979  0.040499  1
  Si  Si28  1  0.350200  0.966050  0.036584  1
  Si  Si29  1  0.154553  0.468269  0.966989  1
  Si  Si30  1  0.644738  0.027424  0.536754  1
  Si  Si31  1  0.356473  0.972948  0.462179  1
  Si  Si32  1  0.855220  0.526650  0.462228  1
  Si  Si33  1  0.758329  0.622953  0.752181  1
  Si  Si34  1  0.238183  0.382245  0.245042  1
  Si  Si35  1  0.639722  0.025867  0.964563  1
