# generated using pymatgen
data_TbDy8Th3Co4
_symmetry_space_group_name_H-M   'P 1'
_cell_length_a   6.31215086
_cell_length_b   6.90343858
_cell_length_c   9.56218800
_cell_angle_alpha   90.00000000
_cell_angle_beta   90.00000000
_cell_angle_gamma   91.06729756
_symmetry_Int_Tables_number   1
_chemical_formula_structural   TbDy8Th3Co4
_chemical_formula_sum   'Tb1 Dy8 Th3 Co4'
_cell_volume   416.60526959
_cell_formula_units_Z   1
loop_
 _symmetry_equiv_pos_site_id
 _symmetry_equiv_pos_as_xyz
  1  'x, y, z'
loop_
 _atom_site_type_symbol
 _atom_site_label
 _atom_site_symmetry_multiplicity
 _atom_site_fract_x
 _atom_site_fract_y
 _atom_site_fract_z
 _atom_site_occupancy
  Tb  Tb0  1  0.644096  0.044826  0.250000  1
  Dy  Dy1  1  0.671598  0.326703  0.931107  1
  Dy  Dy2  1  0.175161  0.172972  0.428476  1
  Dy  Dy3  1  0.829781  0.827540  0.569358  1
  Dy  Dy4  1  0.175161  0.172972  0.071524  1
  Dy  Dy5  1  0.829781  0.827540  0.930642  1
  Dy  Dy6  1  0.671598  0.326703  0.568893  1
  Dy  Dy7  1  0.324842  0.672327  0.069420  1
  Dy  Dy8  1  0.324842  0.672327  0.430580  1
  Th  Th9  1  0.156320  0.445880  0.750000  1
  Th  Th10  1  0.346483  0.945496  0.750000  1
  Th  Th11  1  0.843271  0.552459  0.250000  1
  Co  Co12  1  0.534399  0.626682  0.750000  1
  Co  Co13  1  0.966584  0.126048  0.750000  1
  Co  Co14  1  0.039727  0.868921  0.250000  1
  Co  Co15  1  0.466358  0.390603  0.250000  1
