# generated using pymatgen
data_Er5Lu11(InPt)4
_symmetry_space_group_name_H-M   'P 1'
_cell_length_a   9.55474746
_cell_length_b   9.56449491
_cell_length_c   9.56435060
_cell_angle_alpha   59.91608591
_cell_angle_beta   59.87003400
_cell_angle_gamma   59.87081329
_symmetry_Int_Tables_number   1
_chemical_formula_structural   Er5Lu11(InPt)4
_chemical_formula_sum   'Er5 Lu11 In4 Pt4'
_cell_volume   616.44350226
_cell_formula_units_Z   1
loop_
 _symmetry_equiv_pos_site_id
 _symmetry_equiv_pos_as_xyz
  1  'x, y, z'
loop_
 _atom_site_type_symbol
 _atom_site_label
 _atom_site_symmetry_multiplicity
 _atom_site_fract_x
 _atom_site_fract_y
 _atom_site_fract_z
 _atom_site_occupancy
  Er  Er0  1  0.561104  0.938780  0.938773  1
  Er  Er1  1  0.563438  0.936230  0.562755  1
  Er  Er2  1  0.938071  0.561795  0.937348  1
  Er  Er3  1  0.563443  0.562744  0.936248  1
  Er  Er4  1  0.938050  0.937353  0.561836  1
  Lu  Lu5  1  0.350384  0.350787  0.350808  1
  Lu  Lu6  1  0.351061  0.351785  0.945388  1
  Lu  Lu7  1  0.351074  0.945397  0.351774  1
  Lu  Lu8  1  0.946756  0.350996  0.350975  1
  Lu  Lu9  1  0.811719  0.188840  0.188832  1
  Lu  Lu10  1  0.189495  0.810996  0.811001  1
  Lu  Lu11  1  0.188011  0.812087  0.189124  1
  Lu  Lu12  1  0.810816  0.190243  0.810790  1
  Lu  Lu13  1  0.188039  0.189117  0.812049  1
  Lu  Lu14  1  0.810796  0.810788  0.190243  1
  Lu  Lu15  1  0.937349  0.562355  0.562373  1
  In  In16  1  0.584083  0.582822  0.582818  1
  In  In17  1  0.582917  0.582539  0.251717  1
  In  In18  1  0.582924  0.251718  0.582530  1
  In  In19  1  0.250650  0.582677  0.582672  1
  Pt  Pt20  1  0.143599  0.142910  0.142913  1
  Pt  Pt21  1  0.142551  0.142808  0.571618  1
  Pt  Pt22  1  0.142547  0.571631  0.142807  1
  Pt  Pt23  1  0.571125  0.142603  0.142605  1
