# generated using pymatgen
data_Ce3Dy7(SiB4)4
_symmetry_space_group_name_H-M   'P 1'
_cell_length_a   7.26361321
_cell_length_b   7.26361321
_cell_length_c   8.19058701
_cell_angle_alpha   89.99715572
_cell_angle_beta   89.99715572
_cell_angle_gamma   90.13723638
_symmetry_Int_Tables_number   1
_chemical_formula_structural   Ce3Dy7(SiB4)4
_chemical_formula_sum   'Ce3 Dy7 Si4 B16'
_cell_volume   432.13475943
_cell_formula_units_Z   1
loop_
 _symmetry_equiv_pos_site_id
 _symmetry_equiv_pos_as_xyz
  1  'x, y, z'
loop_
 _atom_site_type_symbol
 _atom_site_label
 _atom_site_symmetry_multiplicity
 _atom_site_fract_x
 _atom_site_fract_y
 _atom_site_fract_z
 _atom_site_occupancy
  Ce  Ce0  1  0.681947  0.181947  0.228248  1
  Ce  Ce1  1  0.317527  0.817527  0.771646  1
  Ce  Ce2  1  0.318311  0.818311  0.229229  1
  Dy  Dy3  1  0.819942  0.679851  0.221063  1
  Dy  Dy4  1  0.819831  0.680093  0.778889  1
  Dy  Dy5  1  0.681604  0.181604  0.778593  1
  Dy  Dy6  1  0.180093  0.319831  0.778889  1
  Dy  Dy7  1  0.179851  0.319942  0.221063  1
  Dy  Dy8  1  0.999292  0.000853  0.500363  1
  Dy  Dy9  1  0.500853  0.499292  0.500363  1
  Si  Si10  1  0.114219  0.614219  0.500304  1
  Si  Si11  1  0.884705  0.384705  0.500223  1
  Si  Si12  1  0.385534  0.114998  0.500460  1
  Si  Si13  1  0.614998  0.885534  0.500460  1
  B  B14  1  0.172474  0.038867  0.999118  1
  B  B15  1  0.827066  0.961589  0.999403  1
  B  B16  1  0.959789  0.172515  0.999131  1
  B  B17  1  0.328249  0.539295  0.999221  1
  B  B18  1  0.039295  0.828249  0.999221  1
  B  B19  1  0.672515  0.459789  0.999131  1
  B  B20  1  0.538867  0.672474  0.999118  1
  B  B21  1  0.461589  0.327066  0.999403  1
  B  B22  1  0.091482  0.591482  0.999434  1
  B  B23  1  0.908672  0.408672  0.000648  1
  B  B24  1  0.409715  0.090735  0.999728  1
  B  B25  1  0.590735  0.909715  0.999728  1
  B  B26  1  0.999746  0.000156  0.159596  1
  B  B27  1  0.000587  0.000358  0.838866  1
  B  B28  1  0.500358  0.500587  0.838866  1
  B  B29  1  0.500156  0.499746  0.159596  1
