# generated using pymatgen
data_Er12Th4Mg3Co4Cu
_symmetry_space_group_name_H-M   'P 1'
_cell_length_a   9.50048233
_cell_length_b   9.50048299
_cell_length_c   9.50048300
_cell_angle_alpha   59.93924369
_cell_angle_beta   59.93924309
_cell_angle_gamma   59.93924292
_symmetry_Int_Tables_number   1
_chemical_formula_structural   Er12Th4Mg3Co4Cu
_chemical_formula_sum   'Er12 Th4 Mg3 Co4 Cu1'
_cell_volume   605.51253995
_cell_formula_units_Z   1
loop_
 _symmetry_equiv_pos_site_id
 _symmetry_equiv_pos_as_xyz
  1  'x, y, z'
loop_
 _atom_site_type_symbol
 _atom_site_label
 _atom_site_symmetry_multiplicity
 _atom_site_fract_x
 _atom_site_fract_y
 _atom_site_fract_z
 _atom_site_occupancy
  Er  Er0  1  0.062636  0.436843  0.436843  1
  Er  Er1  1  0.436562  0.063371  0.063371  1
  Er  Er2  1  0.436843  0.062636  0.436843  1
  Er  Er3  1  0.063371  0.436562  0.063371  1
  Er  Er4  1  0.436843  0.436843  0.062636  1
  Er  Er5  1  0.063371  0.063371  0.436562  1
  Er  Er6  1  0.178059  0.815436  0.815436  1
  Er  Er7  1  0.814687  0.184439  0.184439  1
  Er  Er8  1  0.815436  0.178059  0.815436  1
  Er  Er9  1  0.184439  0.814687  0.184439  1
  Er  Er10  1  0.815436  0.815436  0.178059  1
  Er  Er11  1  0.184439  0.184439  0.814687  1
  Th  Th12  1  0.594880  0.594880  0.594880  1
  Th  Th13  1  0.596550  0.596550  0.211444  1
  Th  Th14  1  0.596550  0.211444  0.596550  1
  Th  Th15  1  0.211444  0.596550  0.596550  1
  Mg  Mg16  1  0.830216  0.830216  0.514689  1
  Mg  Mg17  1  0.830216  0.514689  0.830216  1
  Mg  Mg18  1  0.514689  0.830216  0.830216  1
  Co  Co19  1  0.394013  0.394013  0.394013  1
  Co  Co20  1  0.394059  0.394059  0.816336  1
  Co  Co21  1  0.394059  0.816336  0.394059  1
  Co  Co22  1  0.816336  0.394059  0.394059  1
  Cu  Cu23  1  0.834868  0.834868  0.834868  1
