# generated using pymatgen
data_Li2Hf2ScNi9As7
_symmetry_space_group_name_H-M   'P 1'
_cell_length_a   9.54480451
_cell_length_b   9.53926620
_cell_length_c   3.81419800
_cell_angle_alpha   90.00000000
_cell_angle_beta   90.00000000
_cell_angle_gamma   119.24738581
_symmetry_Int_Tables_number   1
_chemical_formula_structural   Li2Hf2ScNi9As7
_chemical_formula_sum   'Li2 Hf2 Sc1 Ni9 As7'
_cell_volume   303.01196982
_cell_formula_units_Z   1
loop_
 _symmetry_equiv_pos_site_id
 _symmetry_equiv_pos_as_xyz
  1  'x, y, z'
loop_
 _atom_site_type_symbol
 _atom_site_label
 _atom_site_symmetry_multiplicity
 _atom_site_fract_x
 _atom_site_fract_y
 _atom_site_fract_z
 _atom_site_occupancy
  Li  Li0  1  0.789455  0.220654  0.500000  1
  Li  Li1  1  0.997860  0.001618  0.500000  1
  Hf  Hf2  1  0.773774  0.563517  0.500000  1
  Hf  Hf3  1  0.442747  0.212026  0.500000  1
  Sc  Sc4  1  0.322809  0.659571  0.000000  1
  Ni  Ni5  1  0.275176  0.382640  0.500000  1
  Ni  Ni6  1  0.624755  0.900461  0.500000  1
  Ni  Ni7  1  0.105930  0.719518  0.500000  1
  Ni  Ni8  1  0.504637  0.460050  0.000000  1
  Ni  Ni9  1  0.546387  0.043278  0.000000  1
  Ni  Ni10  1  0.954810  0.499696  0.000000  1
  Ni  Ni11  1  0.723889  0.760389  0.000000  1
  Ni  Ni12  1  0.246775  0.969655  0.000000  1
  Ni  Ni13  1  0.031016  0.275177  0.000000  1
  As  As14  1  0.980048  0.769376  0.000000  1
  As  As15  1  0.236181  0.213747  0.000000  1
  As  As16  1  0.789294  0.029775  0.000000  1
  As  As17  1  0.672272  0.329829  0.000000  1
  As  As18  1  0.527129  0.623548  0.500000  1
  As  As19  1  0.377589  0.907447  0.500000  1
  As  As20  1  0.077468  0.458023  0.500000  1
