# generated using pymatgen
data_Tb6Al24Ir5PdRu2
_symmetry_space_group_name_H-M   'P 1'
_cell_length_a   8.84545886
_cell_length_b   8.84545723
_cell_length_c   9.51471863
_cell_angle_alpha   89.91020725
_cell_angle_beta   90.08979297
_cell_angle_gamma   119.85531021
_symmetry_Int_Tables_number   1
_chemical_formula_structural   Tb6Al24Ir5PdRu2
_chemical_formula_sum   'Tb6 Al24 Ir5 Pd1 Ru2'
_cell_volume   645.65107084
_cell_formula_units_Z   1
loop_
 _symmetry_equiv_pos_site_id
 _symmetry_equiv_pos_as_xyz
  1  'x, y, z'
loop_
 _atom_site_type_symbol
 _atom_site_label
 _atom_site_symmetry_multiplicity
 _atom_site_fract_x
 _atom_site_fract_y
 _atom_site_fract_z
 _atom_site_occupancy
  Tb  Tb0  1  0.382355  0.189336  0.249740  1
  Tb  Tb1  1  0.808592  0.191408  0.247770  1
  Tb  Tb2  1  0.810664  0.617645  0.249740  1
  Tb  Tb3  1  0.617645  0.810664  0.750260  1
  Tb  Tb4  1  0.191408  0.808592  0.752230  1
  Tb  Tb5  1  0.189336  0.382355  0.750260  1
  Al  Al6  1  0.437651  0.874995  0.250064  1
  Al  Al7  1  0.125005  0.562349  0.250064  1
  Al  Al8  1  0.437286  0.562714  0.247898  1
  Al  Al9  1  0.562349  0.125005  0.749936  1
  Al  Al10  1  0.874995  0.437651  0.749936  1
  Al  Al11  1  0.562714  0.437286  0.752102  1
  Al  Al12  1  0.163470  0.836530  0.424752  1
  Al  Al13  1  0.158574  0.324321  0.422389  1
  Al  Al14  1  0.675679  0.841426  0.422389  1
  Al  Al15  1  0.836530  0.163470  0.575248  1
  Al  Al16  1  0.841426  0.675679  0.577611  1
  Al  Al17  1  0.324321  0.158574  0.577611  1
  Al  Al18  1  0.836855  0.163145  0.924429  1
  Al  Al19  1  0.836753  0.673959  0.925345  1
  Al  Al20  1  0.326041  0.163247  0.925345  1
  Al  Al21  1  0.163145  0.836855  0.075571  1
  Al  Al22  1  0.163247  0.326041  0.074655  1
  Al  Al23  1  0.673959  0.836753  0.074655  1
  Al  Al24  1  0.331575  0.668425  0.529861  1
  Al  Al25  1  0.668425  0.331575  0.470139  1
  Al  Al26  1  0.666514  0.333486  0.027299  1
  Al  Al27  1  0.333486  0.666514  0.972701  1
  Al  Al28  1  0.000603  0.999397  0.249732  1
  Al  Al29  1  0.999397  0.000603  0.750268  1
  Ir  Ir30  1  0.500000  0.000000  0.500000  1
  Ir  Ir31  1  0.000000  0.500000  0.500000  1
  Ir  Ir32  1  0.500000  0.000000  0.000000  1
  Ir  Ir33  1  0.000000  0.500000  0.000000  1
  Ir  Ir34  1  0.500000  0.500000  0.000000  1
  Pd  Pd35  1  0.500000  0.500000  0.500000  1
  Ru  Ru36  1  0.000000  0.000000  0.500000  1
  Ru  Ru37  1  0.000000  0.000000  0.000000  1
