# generated using pymatgen
data_La5Nd5(Bi3Cl)2
_symmetry_space_group_name_H-M   'P 1'
_cell_length_a   9.67961300
_cell_length_b   9.67261978
_cell_length_c   6.76173200
_cell_angle_alpha   90.00000000
_cell_angle_beta   90.00000000
_cell_angle_gamma   120.02391582
_symmetry_Int_Tables_number   1
_chemical_formula_structural   La5Nd5(Bi3Cl)2
_chemical_formula_sum   'La5 Nd5 Bi6 Cl2'
_cell_volume   548.13304410
_cell_formula_units_Z   1
loop_
 _symmetry_equiv_pos_site_id
 _symmetry_equiv_pos_as_xyz
  1  'x, y, z'
loop_
 _atom_site_type_symbol
 _atom_site_label
 _atom_site_symmetry_multiplicity
 _atom_site_fract_x
 _atom_site_fract_y
 _atom_site_fract_z
 _atom_site_occupancy
  La  La0  1  0.733563  0.734353  0.250000  1
  La  La1  1  0.999211  0.265647  0.250000  1
  La  La2  1  0.000521  0.732950  0.750000  1
  La  La3  1  0.267571  0.267050  0.750000  1
  La  La4  1  0.266138  0.000000  0.250000  1
  Nd  Nd5  1  0.667054  0.332969  0.999534  1
  Nd  Nd6  1  0.334084  0.667031  0.500466  1
  Nd  Nd7  1  0.667054  0.332969  0.500466  1
  Nd  Nd8  1  0.334084  0.667031  0.999534  1
  Nd  Nd9  1  0.731896  0.000000  0.750000  1
  Bi  Bi10  1  0.613859  0.615054  0.750000  1
  Bi  Bi11  1  0.000032  0.612528  0.250000  1
  Bi  Bi12  1  0.612330  0.000000  0.250000  1
  Bi  Bi13  1  0.389736  0.000000  0.750000  1
  Bi  Bi14  1  0.998806  0.384946  0.750000  1
  Bi  Bi15  1  0.387504  0.387472  0.250000  1
  Cl  Cl16  1  0.998280  0.000000  0.501395  1
  Cl  Cl17  1  0.998280  0.000000  0.998605  1
