# generated using pymatgen
data_Tb4InTe3
_symmetry_space_group_name_H-M   'P 1'
_cell_length_a   7.62317363
_cell_length_b   7.62317376
_cell_length_c   7.62317402
_cell_angle_alpha   131.88563889
_cell_angle_beta   131.88563903
_cell_angle_gamma   70.40970737
_symmetry_Int_Tables_number   1
_chemical_formula_structural   Tb4InTe3
_chemical_formula_sum   'Tb4 In1 Te3'
_cell_volume   240.60880836
_cell_formula_units_Z   1
loop_
 _symmetry_equiv_pos_site_id
 _symmetry_equiv_pos_as_xyz
  1  'x, y, z'
loop_
 _atom_site_type_symbol
 _atom_site_label
 _atom_site_symmetry_multiplicity
 _atom_site_fract_x
 _atom_site_fract_y
 _atom_site_fract_z
 _atom_site_occupancy
  Tb  Tb0  1  0.245058  0.245058  0.000000  1
  Tb  Tb1  1  0.754942  0.754942  0.000000  1
  Tb  Tb2  1  0.500000  0.000000  0.500000  1
  Tb  Tb3  1  0.000000  0.500000  0.500000  1
  In  In4  1  0.000000  0.000000  0.000000  1
  Te  Te5  1  0.500000  0.500000  0.000000  1
  Te  Te6  1  0.750000  0.250000  0.500000  1
  Te  Te7  1  0.250000  0.750000  0.500000  1
