# generated using pymatgen
data_Ti3VSi3Rh2
_symmetry_space_group_name_H-M   'P 1'
_cell_length_a   7.39712054
_cell_length_b   7.39712068
_cell_length_c   7.39711958
_cell_angle_alpha   126.82775280
_cell_angle_beta   124.01627867
_cell_angle_gamma   80.86044205
_symmetry_Int_Tables_number   1
_chemical_formula_structural   Ti3VSi3Rh2
_chemical_formula_sum   'Ti6 V2 Si6 Rh4'
_cell_volume   258.86436416
_cell_formula_units_Z   2
loop_
 _symmetry_equiv_pos_site_id
 _symmetry_equiv_pos_as_xyz
  1  'x, y, z'
loop_
 _atom_site_type_symbol
 _atom_site_label
 _atom_site_symmetry_multiplicity
 _atom_site_fract_x
 _atom_site_fract_y
 _atom_site_fract_z
 _atom_site_occupancy
  Ti  Ti0  1  0.964162  0.730479  0.266316  1
  Ti  Ti1  1  0.035838  0.302156  0.766316  1
  Ti  Ti2  1  0.245510  0.167722  0.422212  1
  Ti  Ti3  1  0.754490  0.176703  0.922212  1
  Ti  Ti4  1  0.561944  0.352325  0.290380  1
  Ti  Ti5  1  0.438056  0.728437  0.790380  1
  V  V6  1  0.500000  0.495725  0.995725  1
  V  V7  1  0.000000  0.495725  0.495725  1
  Si  Si8  1  0.782075  0.796651  0.514576  1
  Si  Si9  1  0.217925  0.732501  0.014576  1
  Si  Si10  1  0.340238  0.075035  0.750589  1
  Si  Si11  1  0.659762  0.410352  0.734798  1
  Si  Si12  1  0.175554  0.410352  0.250589  1
  Si  Si13  1  0.824446  0.075035  0.234798  1
  Rh  Rh14  1  0.163976  0.999943  0.909637  1
  Rh  Rh15  1  0.836024  0.745661  0.835967  1
  Rh  Rh16  1  0.409693  0.745661  0.409637  1
  Rh  Rh17  1  0.590307  0.999943  0.335967  1
