# generated using pymatgen
data_TaAs(Cl2F3)2
_symmetry_space_group_name_H-M   'P 1'
_cell_length_a   9.06272600
_cell_length_b   9.06272600
_cell_length_c   6.73558100
_cell_angle_alpha   90.00000000
_cell_angle_beta   90.00000000
_cell_angle_gamma   90.00000000
_symmetry_Int_Tables_number   1
_chemical_formula_structural   TaAs(Cl2F3)2
_chemical_formula_sum   'Ta2 As2 Cl8 F12'
_cell_volume   553.21349146
_cell_formula_units_Z   2
loop_
 _symmetry_equiv_pos_site_id
 _symmetry_equiv_pos_as_xyz
  1  'x, y, z'
loop_
 _atom_site_type_symbol
 _atom_site_label
 _atom_site_symmetry_multiplicity
 _atom_site_fract_x
 _atom_site_fract_y
 _atom_site_fract_z
 _atom_site_occupancy
  Ta  Ta0  1  0.500000  0.000000  0.674999  1
  Ta  Ta1  1  0.000000  0.500000  0.325001  1
  As  As2  1  0.500000  0.500000  0.000000  1
  As  As3  1  0.000000  0.000000  0.000000  1
  Cl  Cl4  1  0.463439  0.685508  0.179434  1
  Cl  Cl5  1  0.185508  0.036561  0.179434  1
  Cl  Cl6  1  0.685508  0.536561  0.820566  1
  Cl  Cl7  1  0.036561  0.814492  0.820566  1
  Cl  Cl8  1  0.963439  0.185508  0.820566  1
  Cl  Cl9  1  0.314492  0.463439  0.820566  1
  Cl  Cl10  1  0.536561  0.314492  0.179434  1
  Cl  Cl11  1  0.814492  0.963439  0.179434  1
  F  F12  1  0.500000  0.000000  0.387059  1
  F  F13  1  0.000000  0.500000  0.612941  1
  F  F14  1  0.430928  0.798440  0.675980  1
  F  F15  1  0.298440  0.069072  0.675980  1
  F  F16  1  0.701560  0.930928  0.675980  1
  F  F17  1  0.569072  0.201560  0.675980  1
  F  F18  1  0.069072  0.701560  0.324020  1
  F  F19  1  0.201560  0.430928  0.324020  1
  F  F20  1  0.798440  0.569072  0.324020  1
  F  F21  1  0.000000  0.500000  0.040711  1
  F  F22  1  0.500000  0.000000  0.959289  1
  F  F23  1  0.930928  0.298440  0.324020  1
