# generated using pymatgen
data_TbNdB4(OsRh)2
_symmetry_space_group_name_H-M   'P 1'
_cell_length_a   6.87901339
_cell_length_b   6.03800680
_cell_length_c   5.58842277
_cell_angle_alpha   72.43431257
_cell_angle_beta   56.80535469
_cell_angle_gamma   50.76033029
_symmetry_Int_Tables_number   1
_chemical_formula_structural   TbNdB4(OsRh)2
_chemical_formula_sum   'Tb1 Nd1 B4 Os2 Rh2'
_cell_volume   150.08483516
_cell_formula_units_Z   1
loop_
 _symmetry_equiv_pos_site_id
 _symmetry_equiv_pos_as_xyz
  1  'x, y, z'
loop_
 _atom_site_type_symbol
 _atom_site_label
 _atom_site_symmetry_multiplicity
 _atom_site_fract_x
 _atom_site_fract_y
 _atom_site_fract_z
 _atom_site_occupancy
  Tb  Tb0  1  0.000000  0.000000  0.000000  1
  Nd  Nd1  1  0.250000  0.250000  0.250000  1
  B  B2  1  0.306065  0.693935  0.306065  1
  B  B3  1  0.693935  0.306065  0.693935  1
  B  B4  1  0.575634  0.924366  0.575634  1
  B  B5  1  0.924366  0.575634  0.924366  1
  Os  Os6  1  0.614118  0.614118  0.885882  1
  Os  Os7  1  0.885882  0.885882  0.614118  1
  Rh  Rh8  1  0.632851  0.632851  0.367149  1
  Rh  Rh9  1  0.367149  0.367149  0.632851  1
