# generated using pymatgen
data_Tb4DyP12Ru15Rh4
_symmetry_space_group_name_H-M   'P 1'
_cell_length_a   12.61381247
_cell_length_b   12.57140678
_cell_length_c   3.97741800
_cell_angle_alpha   90.00000000
_cell_angle_beta   90.00000000
_cell_angle_gamma   120.19680863
_symmetry_Int_Tables_number   1
_chemical_formula_structural   Tb4DyP12Ru15Rh4
_chemical_formula_sum   'Tb4 Dy1 P12 Ru15 Rh4'
_cell_volume   545.12664895
_cell_formula_units_Z   1
loop_
 _symmetry_equiv_pos_site_id
 _symmetry_equiv_pos_as_xyz
  1  'x, y, z'
loop_
 _atom_site_type_symbol
 _atom_site_label
 _atom_site_symmetry_multiplicity
 _atom_site_fract_x
 _atom_site_fract_y
 _atom_site_fract_z
 _atom_site_occupancy
  Tb  Tb0  1  0.665905  0.333037  0.000000  1
  Tb  Tb1  1  0.334361  0.667339  0.000000  1
  Tb  Tb2  1  0.815940  0.000485  0.500000  1
  Tb  Tb3  1  0.183004  0.183541  0.500000  1
  Dy  Dy4  1  0.000550  0.816125  0.500000  1
  P  P5  1  0.627822  0.994522  0.000000  1
  P  P6  1  0.366006  0.371588  0.000000  1
  P  P7  1  0.001472  0.634011  0.000000  1
  P  P8  1  0.693466  0.523989  0.500000  1
  P  P9  1  0.830728  0.307191  0.500000  1
  P  P10  1  0.310385  0.832086  0.500000  1
  P  P11  1  0.522823  0.693293  0.500000  1
  P  P12  1  0.183237  0.999010  0.000000  1
  P  P13  1  0.816433  0.815367  0.000000  1
  P  P14  1  0.997645  0.183637  0.000000  1
  P  P15  1  0.474783  0.168763  0.500000  1
  P  P16  1  0.173572  0.476579  0.500000  1
  Ru  Ru17  1  0.622162  0.803251  0.000000  1
  Ru  Ru18  1  0.181283  0.378122  0.000000  1
  Ru  Ru19  1  0.376635  0.185405  0.000000  1
  Ru  Ru20  1  0.195674  0.815706  0.000000  1
  Ru  Ru21  1  0.807227  0.621755  0.000000  1
  Ru  Ru22  1  0.366340  0.490519  0.500000  1
  Ru  Ru23  1  0.510646  0.875372  0.500000  1
  Ru  Ru24  1  0.999527  0.999932  0.000000  1
  Ru  Ru25  1  0.717335  0.716121  0.500000  1
  Ru  Ru26  1  0.998657  0.283835  0.500000  1
  Ru  Ru27  1  0.449887  0.004089  0.000000  1
  Ru  Ru28  1  0.553864  0.549469  0.000000  1
  Ru  Ru29  1  0.997196  0.448393  0.000000  1
  Ru  Ru30  1  0.813250  0.192398  0.000000  1
  Ru  Ru31  1  0.282520  0.999457  0.500000  1
  Rh  Rh32  1  0.871092  0.506838  0.500000  1
  Rh  Rh33  1  0.494447  0.364455  0.500000  1
  Rh  Rh34  1  0.634534  0.130303  0.500000  1
  Rh  Rh35  1  0.129592  0.634013  0.500000  1
