# generated using pymatgen
data_LaNd3Cu8
_symmetry_space_group_name_H-M   'P 1'
_cell_length_a   3.96014600
_cell_length_b   3.96014600
_cell_length_c   15.48257900
_cell_angle_alpha   90.00000000
_cell_angle_beta   90.00000000
_cell_angle_gamma   90.00000000
_symmetry_Int_Tables_number   1
_chemical_formula_structural   LaNd3Cu8
_chemical_formula_sum   'La1 Nd3 Cu8'
_cell_volume   242.80951399
_cell_formula_units_Z   1
loop_
 _symmetry_equiv_pos_site_id
 _symmetry_equiv_pos_as_xyz
  1  'x, y, z'
loop_
 _atom_site_type_symbol
 _atom_site_label
 _atom_site_symmetry_multiplicity
 _atom_site_fract_x
 _atom_site_fract_y
 _atom_site_fract_z
 _atom_site_occupancy
  La  La0  1  0.500000  0.500000  0.000000  1
  Nd  Nd1  1  0.000000  0.000000  0.500000  1
  Nd  Nd2  1  0.500000  0.000000  0.748368  1
  Nd  Nd3  1  0.000000  0.500000  0.251632  1
  Cu  Cu4  1  0.000000  0.000000  0.918297  1
  Cu  Cu5  1  0.500000  0.500000  0.420096  1
  Cu  Cu6  1  0.000000  0.500000  0.828188  1
  Cu  Cu7  1  0.500000  0.000000  0.331513  1
  Cu  Cu8  1  0.000000  0.000000  0.081703  1
  Cu  Cu9  1  0.500000  0.500000  0.579904  1
  Cu  Cu10  1  0.500000  0.000000  0.171812  1
  Cu  Cu11  1  0.000000  0.500000  0.668487  1
