# generated using pymatgen
data_GdHoIn2(SbO4)4
_symmetry_space_group_name_H-M   'P 1'
_cell_length_a   5.37445981
_cell_length_b   7.55660911
_cell_length_c   7.63578018
_cell_angle_alpha   80.34825383
_cell_angle_beta   92.54747186
_cell_angle_gamma   88.30396229
_symmetry_Int_Tables_number   1
_chemical_formula_structural   GdHoIn2(SbO4)4
_chemical_formula_sum   'Gd1 Ho1 In2 Sb4 O16'
_cell_volume   305.20168245
_cell_formula_units_Z   1
loop_
 _symmetry_equiv_pos_site_id
 _symmetry_equiv_pos_as_xyz
  1  'x, y, z'
loop_
 _atom_site_type_symbol
 _atom_site_label
 _atom_site_symmetry_multiplicity
 _atom_site_fract_x
 _atom_site_fract_y
 _atom_site_fract_z
 _atom_site_occupancy
  Gd  Gd0  1  0.745715  0.380837  0.870815  1
  Ho  Ho1  1  0.255115  0.620486  0.129229  1
  In  In2  1  0.777673  0.870182  0.830423  1
  In  In3  1  0.222806  0.128812  0.170932  1
  Sb  Sb4  1  0.747945  0.811108  0.325666  1
  Sb  Sb5  1  0.252396  0.187897  0.673243  1
  Sb  Sb6  1  0.273223  0.691118  0.658594  1
  Sb  Sb7  1  0.726898  0.310277  0.341042  1
  O  O8  1  0.431032  0.886582  0.189034  1
  O  O9  1  0.568075  0.110849  0.810209  1
  O  O10  1  0.009530  0.617473  0.827288  1
  O  O11  1  0.994062  0.385837  0.175086  1
  O  O12  1  0.923649  0.812205  0.101312  1
  O  O13  1  0.080657  0.184798  0.899257  1
  O  O14  1  0.489018  0.674817  0.886131  1
  O  O15  1  0.506749  0.326923  0.116554  1
  O  O16  1  0.599386  0.565289  0.325780  1
  O  O17  1  0.395859  0.435533  0.671489  1
  O  O18  1  0.121761  0.939229  0.677575  1
  O  O19  1  0.877275  0.061070  0.320916  1
  O  O20  1  0.592087  0.806732  0.562700  1
  O  O21  1  0.409046  0.192300  0.437484  1
  O  O22  1  0.079493  0.690785  0.429232  1
  O  O23  1  0.920550  0.308862  0.570009  1
