# generated using pymatgen
data_Yb12Dy5Tm3Ge16
_symmetry_space_group_name_H-M   'P 1'
_cell_length_a   7.38950754
_cell_length_b   7.87777182
_cell_length_c   15.13438300
_cell_angle_alpha   90.01164422
_cell_angle_beta   89.97801060
_cell_angle_gamma   90.02335837
_symmetry_Int_Tables_number   1
_chemical_formula_structural   Yb12Dy5Tm3Ge16
_chemical_formula_sum   'Yb12 Dy5 Tm3 Ge16'
_cell_volume   881.01547584
_cell_formula_units_Z   1
loop_
 _symmetry_equiv_pos_site_id
 _symmetry_equiv_pos_as_xyz
  1  'x, y, z'
loop_
 _atom_site_type_symbol
 _atom_site_label
 _atom_site_symmetry_multiplicity
 _atom_site_fract_x
 _atom_site_fract_y
 _atom_site_fract_z
 _atom_site_occupancy
  Yb  Yb0  1  0.980983  0.813356  0.405704  1
  Yb  Yb1  1  0.481536  0.686298  0.094042  1
  Yb  Yb2  1  0.518931  0.313615  0.594724  1
  Yb  Yb3  1  0.018545  0.186223  0.905761  1
  Yb  Yb4  1  0.019333  0.186690  0.594971  1
  Yb  Yb5  1  0.519449  0.313229  0.905188  1
  Yb  Yb6  1  0.480446  0.686774  0.405304  1
  Yb  Yb7  1  0.980288  0.813017  0.094513  1
  Yb  Yb8  1  0.344586  0.020019  0.749953  1
  Yb  Yb9  1  0.844408  0.479809  0.750404  1
  Yb  Yb10  1  0.155488  0.520388  0.249940  1
  Yb  Yb11  1  0.655542  0.979827  0.249520  1
  Dy  Dy12  1  0.318490  0.172035  0.120836  1
  Dy  Dy13  1  0.818222  0.328404  0.378783  1
  Dy  Dy14  1  0.181657  0.671942  0.878926  1
  Dy  Dy15  1  0.681904  0.827823  0.621494  1
  Dy  Dy16  1  0.317866  0.171888  0.378637  1
  Tm  Tm17  1  0.818083  0.328599  0.121212  1
  Tm  Tm18  1  0.181953  0.671381  0.621694  1
  Tm  Tm19  1  0.682000  0.828365  0.878575  1
  Ge  Ge20  1  0.846317  0.533942  0.540726  1
  Ge  Ge21  1  0.346808  0.966226  0.959370  1
  Ge  Ge22  1  0.654292  0.033663  0.459894  1
  Ge  Ge23  1  0.153214  0.466081  0.040413  1
  Ge  Ge24  1  0.156312  0.466637  0.460624  1
  Ge  Ge25  1  0.657825  0.033975  0.039644  1
  Ge  Ge26  1  0.343242  0.965415  0.540503  1
  Ge  Ge27  1  0.842318  0.533962  0.960250  1
  Ge  Ge28  1  0.977626  0.876995  0.750517  1
  Ge  Ge29  1  0.477426  0.622641  0.749821  1
  Ge  Ge30  1  0.523006  0.378272  0.249136  1
  Ge  Ge31  1  0.021906  0.122786  0.249608  1
  Ge  Ge32  1  0.237013  0.386156  0.749692  1
  Ge  Ge33  1  0.737444  0.113539  0.750526  1
  Ge  Ge34  1  0.262182  0.885991  0.249645  1
  Ge  Ge35  1  0.763358  0.614034  0.249450  1
