# generated using pymatgen
data_Er6ScMoO12
_symmetry_space_group_name_H-M   'P 1'
_cell_length_a   6.56599650
_cell_length_b   6.56599561
_cell_length_c   6.56599569
_cell_angle_alpha   92.03409430
_cell_angle_beta   92.03408977
_cell_angle_gamma   92.03409734
_symmetry_Int_Tables_number   1
_chemical_formula_structural   Er6ScMoO12
_chemical_formula_sum   'Er6 Sc1 Mo1 O12'
_cell_volume   282.52707155
_cell_formula_units_Z   1
loop_
 _symmetry_equiv_pos_site_id
 _symmetry_equiv_pos_as_xyz
  1  'x, y, z'
loop_
 _atom_site_type_symbol
 _atom_site_label
 _atom_site_symmetry_multiplicity
 _atom_site_fract_x
 _atom_site_fract_y
 _atom_site_fract_z
 _atom_site_occupancy
  Er  Er0  1  0.745887  0.931041  0.439629  1
  Er  Er1  1  0.931041  0.439629  0.745887  1
  Er  Er2  1  0.439629  0.745887  0.931041  1
  Er  Er3  1  0.254113  0.068959  0.560371  1
  Er  Er4  1  0.068959  0.560371  0.254113  1
  Er  Er5  1  0.560371  0.254113  0.068959  1
  Sc  Sc6  1  0.500000  0.500000  0.500000  1
  Mo  Mo7  1  0.000000  0.000000  0.000000  1
  O  O8  1  0.593932  0.463947  0.807765  1
  O  O9  1  0.463947  0.807765  0.593932  1
  O  O10  1  0.807765  0.593932  0.463947  1
  O  O11  1  0.406068  0.536053  0.192235  1
  O  O12  1  0.536053  0.192235  0.406068  1
  O  O13  1  0.192235  0.406068  0.536053  1
  O  O14  1  0.069905  0.909568  0.312013  1
  O  O15  1  0.909568  0.312013  0.069905  1
  O  O16  1  0.687987  0.930095  0.090432  1
  O  O17  1  0.090432  0.687987  0.930095  1
  O  O18  1  0.930095  0.090432  0.687987  1
  O  O19  1  0.312013  0.069905  0.909568  1
