# generated using pymatgen
data_Sr2ScAlO5
_symmetry_space_group_name_H-M   'P 1'
_cell_length_a   5.70930320
_cell_length_b   5.96379505
_cell_length_c   8.56343832
_cell_angle_alpha   110.37803426
_cell_angle_beta   109.47244993
_cell_angle_gamma   89.99999470
_symmetry_Int_Tables_number   1
_chemical_formula_structural   Sr2ScAlO5
_chemical_formula_sum   'Sr4 Sc2 Al2 O10'
_cell_volume   255.46304179
_cell_formula_units_Z   2
loop_
 _symmetry_equiv_pos_site_id
 _symmetry_equiv_pos_as_xyz
  1  'x, y, z'
loop_
 _atom_site_type_symbol
 _atom_site_label
 _atom_site_symmetry_multiplicity
 _atom_site_fract_x
 _atom_site_fract_y
 _atom_site_fract_z
 _atom_site_occupancy
  Sr  Sr0  1  0.118488  0.637293  0.227108  1
  Sr  Sr1  1  0.891380  0.362707  0.772892  1
  Sr  Sr2  1  0.391380  0.910185  0.772892  1
  Sr  Sr3  1  0.618488  0.089815  0.227108  1
  Sc  Sc4  1  0.501136  0.500000  0.000000  1
  Sc  Sc5  1  0.001136  0.000000  0.000000  1
  Al  Al6  1  0.279781  0.328754  0.500000  1
  Al  Al7  1  0.779781  0.671246  0.500000  1
  O  O8  1  0.241746  0.741186  0.977720  1
  O  O9  1  0.264026  0.258814  0.022280  1
  O  O10  1  0.764026  0.263467  0.022280  1
  O  O11  1  0.741746  0.736533  0.977720  1
  O  O12  1  0.636940  0.711224  0.295852  1
  O  O13  1  0.341089  0.288776  0.704148  1
  O  O14  1  0.841089  0.915373  0.704148  1
  O  O15  1  0.136940  0.084627  0.295852  1
  O  O16  1  0.080913  0.567467  0.500000  1
  O  O17  1  0.580913  0.432533  0.500000  1
