# generated using pymatgen
data_Er6Al24ZnFe5RuPt
_symmetry_space_group_name_H-M   'P 1'
_cell_length_a   8.69199709
_cell_length_b   8.68343263
_cell_length_c   9.33278400
_cell_angle_alpha   90.11305512
_cell_angle_beta   89.79233194
_cell_angle_gamma   119.79422016
_symmetry_Int_Tables_number   1
_chemical_formula_structural   Er6Al24ZnFe5RuPt
_chemical_formula_sum   'Er6 Al24 Zn1 Fe5 Ru1 Pt1'
_cell_volume   611.28932132
_cell_formula_units_Z   1
loop_
 _symmetry_equiv_pos_site_id
 _symmetry_equiv_pos_as_xyz
  1  'x, y, z'
loop_
 _atom_site_type_symbol
 _atom_site_label
 _atom_site_symmetry_multiplicity
 _atom_site_fract_x
 _atom_site_fract_y
 _atom_site_fract_z
 _atom_site_occupancy
  Er  Er0  1  0.193474  0.388031  0.245636  1
  Er  Er1  1  0.806526  0.611969  0.754364  1
  Er  Er2  1  0.613216  0.805565  0.245430  1
  Er  Er3  1  0.386784  0.194435  0.754570  1
  Er  Er4  1  0.193568  0.802917  0.252513  1
  Er  Er5  1  0.806432  0.197083  0.747487  1
  Al  Al6  1  0.325589  0.673488  0.018344  1
  Al  Al7  1  0.674411  0.326512  0.981656  1
  Al  Al8  1  0.665507  0.342189  0.518843  1
  Al  Al9  1  0.334493  0.657811  0.481157  1
  Al  Al10  1  0.162195  0.320015  0.575297  1
  Al  Al11  1  0.837805  0.679985  0.424703  1
  Al  Al12  1  0.681744  0.833953  0.575034  1
  Al  Al13  1  0.852491  0.680916  0.078724  1
  Al  Al14  1  0.318256  0.166047  0.424966  1
  Al  Al15  1  0.147509  0.319084  0.921276  1
  Al  Al16  1  0.155090  0.836505  0.579247  1
  Al  Al17  1  0.317754  0.146541  0.079239  1
  Al  Al18  1  0.844910  0.163495  0.420753  1
  Al  Al19  1  0.682246  0.853459  0.920761  1
  Al  Al20  1  0.839441  0.160600  0.076810  1
  Al  Al21  1  0.160559  0.839400  0.923190  1
  Al  Al22  1  0.561599  0.121221  0.241338  1
  Al  Al23  1  0.438401  0.878779  0.758662  1
  Al  Al24  1  0.880662  0.439335  0.244818  1
  Al  Al25  1  0.119338  0.560665  0.755182  1
  Al  Al26  1  0.562186  0.437805  0.260225  1
  Al  Al27  1  0.437814  0.562195  0.739775  1
  Al  Al28  1  0.998675  0.999612  0.250279  1
  Al  Al29  1  0.001325  0.000388  0.749721  1
  Zn  Zn30  1  0.500000  0.500000  0.000000  1
  Fe  Fe31  1  0.500000  0.000000  0.000000  1
  Fe  Fe32  1  0.000000  0.500000  0.000000  1
  Fe  Fe33  1  0.500000  0.500000  0.500000  1
  Fe  Fe34  1  0.000000  0.000000  0.000000  1
  Fe  Fe35  1  0.000000  0.000000  0.500000  1
  Ru  Ru36  1  0.000000  0.500000  0.500000  1
  Pt  Pt37  1  0.500000  0.000000  0.500000  1
