# generated using pymatgen
data_TmTlSiS4
_symmetry_space_group_name_H-M   'P 1'
_cell_length_a   6.60485600
_cell_length_b   6.35526576
_cell_length_c   8.66273600
_cell_angle_alpha   72.32439423
_cell_angle_beta   90.00000000
_cell_angle_gamma   90.00000000
_symmetry_Int_Tables_number   1
_chemical_formula_structural   TmTlSiS4
_chemical_formula_sum   'Tm2 Tl2 Si2 S8'
_cell_volume   346.45730454
_cell_formula_units_Z   2
loop_
 _symmetry_equiv_pos_site_id
 _symmetry_equiv_pos_as_xyz
  1  'x, y, z'
loop_
 _atom_site_type_symbol
 _atom_site_label
 _atom_site_symmetry_multiplicity
 _atom_site_fract_x
 _atom_site_fract_y
 _atom_site_fract_z
 _atom_site_occupancy
  Tm  Tm0  1  0.500220  0.230802  0.450743  1
  Tm  Tm1  1  0.000220  0.769198  0.549257  1
  Tl  Tl2  1  0.978559  0.729988  0.065521  1
  Tl  Tl3  1  0.478559  0.270012  0.934479  1
  Si  Si4  1  0.462756  0.780259  0.327497  1
  Si  Si5  1  0.962756  0.219741  0.672503  1
  S  S6  1  0.464112  0.580351  0.172445  1
  S  S7  1  0.229358  0.024103  0.282876  1
  S  S8  1  0.729110  0.979756  0.302819  1
  S  S9  1  0.902884  0.425723  0.431990  1
  S  S10  1  0.402884  0.574277  0.568010  1
  S  S11  1  0.229110  0.020244  0.697181  1
  S  S12  1  0.729358  0.975897  0.717124  1
  S  S13  1  0.964112  0.419649  0.827555  1
