# generated using pymatgen
data_Ho2Tm3Sn3Bi
_symmetry_space_group_name_H-M   'P 1'
_cell_length_a   8.11493300
_cell_length_b   8.13376300
_cell_length_c   15.33561500
_cell_angle_alpha   90.00000000
_cell_angle_beta   90.00000000
_cell_angle_gamma   90.00000000
_symmetry_Int_Tables_number   1
_chemical_formula_structural   Ho2Tm3Sn3Bi
_chemical_formula_sum   'Ho8 Tm12 Sn12 Bi4'
_cell_volume   1012.22637528
_cell_formula_units_Z   4
loop_
 _symmetry_equiv_pos_site_id
 _symmetry_equiv_pos_as_xyz
  1  'x, y, z'
loop_
 _atom_site_type_symbol
 _atom_site_label
 _atom_site_symmetry_multiplicity
 _atom_site_fract_x
 _atom_site_fract_y
 _atom_site_fract_z
 _atom_site_occupancy
  Ho  Ho0  1  0.541232  0.325255  0.896837  1
  Ho  Ho1  1  0.041232  0.174745  0.603163  1
  Ho  Ho2  1  0.458768  0.674745  0.396837  1
  Ho  Ho3  1  0.958768  0.825255  0.103163  1
  Ho  Ho4  1  0.477298  0.674448  0.101466  1
  Ho  Ho5  1  0.977298  0.825552  0.398534  1
  Ho  Ho6  1  0.522702  0.325552  0.601466  1
  Ho  Ho7  1  0.022702  0.174448  0.898534  1
  Tm  Tm8  1  0.375060  0.840221  0.874192  1
  Tm  Tm9  1  0.875060  0.659779  0.625808  1
  Tm  Tm10  1  0.624940  0.159779  0.374192  1
  Tm  Tm11  1  0.124940  0.340221  0.125808  1
  Tm  Tm12  1  0.634944  0.162271  0.123970  1
  Tm  Tm13  1  0.134944  0.337729  0.376030  1
  Tm  Tm14  1  0.365056  0.837729  0.623970  1
  Tm  Tm15  1  0.865056  0.662271  0.876030  1
  Tm  Tm16  1  0.199728  0.501549  0.746973  1
  Tm  Tm17  1  0.699728  0.998451  0.753027  1
  Tm  Tm18  1  0.800272  0.498451  0.246973  1
  Tm  Tm19  1  0.300272  0.001549  0.253027  1
  Sn  Sn20  1  0.711597  0.965432  0.957933  1
  Sn  Sn21  1  0.211597  0.534568  0.542067  1
  Sn  Sn22  1  0.288403  0.034568  0.457933  1
  Sn  Sn23  1  0.788403  0.465432  0.042067  1
  Sn  Sn24  1  0.565091  0.622667  0.748286  1
  Sn  Sn25  1  0.065091  0.877333  0.751714  1
  Sn  Sn26  1  0.434909  0.377333  0.248286  1
  Sn  Sn27  1  0.934909  0.122667  0.251714  1
  Sn  Sn28  1  0.338831  0.149342  0.751244  1
  Sn  Sn29  1  0.838831  0.350658  0.748756  1
  Sn  Sn30  1  0.661169  0.850658  0.251244  1
  Sn  Sn31  1  0.161169  0.649342  0.248756  1
  Bi  Bi32  1  0.285018  0.033111  0.042589  1
  Bi  Bi33  1  0.785018  0.466889  0.457411  1
  Bi  Bi34  1  0.714982  0.966889  0.542589  1
  Bi  Bi35  1  0.214982  0.533111  0.957411  1
