# generated using pymatgen
data_Hf16NbCo4Pt3
_symmetry_space_group_name_H-M   'P 1'
_cell_length_a   8.70792765
_cell_length_b   8.62356130
_cell_length_c   8.62356100
_cell_angle_alpha   59.99999730
_cell_angle_beta   60.31997460
_cell_angle_gamma   60.31997071
_symmetry_Int_Tables_number   1
_chemical_formula_structural   Hf16NbCo4Pt3
_chemical_formula_sum   'Hf16 Nb1 Co4 Pt3'
_cell_volume   460.10470121
_cell_formula_units_Z   1
loop_
 _symmetry_equiv_pos_site_id
 _symmetry_equiv_pos_as_xyz
  1  'x, y, z'
loop_
 _atom_site_type_symbol
 _atom_site_label
 _atom_site_symmetry_multiplicity
 _atom_site_fract_x
 _atom_site_fract_y
 _atom_site_fract_z
 _atom_site_occupancy
  Hf  Hf0  1  0.070811  0.643063  0.643063  1
  Hf  Hf1  1  0.650537  0.050023  0.649720  1
  Hf  Hf2  1  0.650537  0.649720  0.050023  1
  Hf  Hf3  1  0.650537  0.649720  0.649720  1
  Hf  Hf4  1  0.811017  0.802698  0.193142  1
  Hf  Hf5  1  0.195711  0.195902  0.804193  1
  Hf  Hf6  1  0.811017  0.193142  0.802698  1
  Hf  Hf7  1  0.195711  0.804193  0.195902  1
  Hf  Hf8  1  0.195711  0.804193  0.804193  1
  Hf  Hf9  1  0.811017  0.193142  0.193142  1
  Hf  Hf10  1  0.436180  0.437131  0.063344  1
  Hf  Hf11  1  0.053609  0.072313  0.437039  1
  Hf  Hf12  1  0.436180  0.063344  0.437131  1
  Hf  Hf13  1  0.053609  0.437039  0.072313  1
  Hf  Hf14  1  0.053609  0.437039  0.437039  1
  Hf  Hf15  1  0.436180  0.063344  0.063344  1
  Nb  Nb16  1  0.736203  0.421266  0.421266  1
  Co  Co17  1  0.421405  0.859532  0.859532  1
  Co  Co18  1  0.863545  0.427666  0.854395  1
  Co  Co19  1  0.863545  0.854395  0.427666  1
  Co  Co20  1  0.863545  0.854395  0.854395  1
  Pt  Pt21  1  0.413262  0.762560  0.412089  1
  Pt  Pt22  1  0.413262  0.412089  0.762560  1
  Pt  Pt23  1  0.413262  0.412089  0.412089  1
