# generated using pymatgen
data_Pr6Al24Os4Ru3Pt
_symmetry_space_group_name_H-M   'P 1'
_cell_length_a   8.92436034
_cell_length_b   8.94102197
_cell_length_c   9.69561881
_cell_angle_alpha   89.99999967
_cell_angle_beta   89.92396027
_cell_angle_gamma   120.06178028
_symmetry_Int_Tables_number   1
_chemical_formula_structural   Pr6Al24Os4Ru3Pt
_chemical_formula_sum   'Pr6 Al24 Os4 Ru3 Pt1'
_cell_volume   669.57497044
_cell_formula_units_Z   1
loop_
 _symmetry_equiv_pos_site_id
 _symmetry_equiv_pos_as_xyz
  1  'x, y, z'
loop_
 _atom_site_type_symbol
 _atom_site_label
 _atom_site_symmetry_multiplicity
 _atom_site_fract_x
 _atom_site_fract_y
 _atom_site_fract_z
 _atom_site_occupancy
  Pr  Pr0  1  0.194000  0.382855  0.250542  1
  Pr  Pr1  1  0.806000  0.617145  0.749458  1
  Pr  Pr2  1  0.614063  0.807032  0.251610  1
  Pr  Pr3  1  0.385937  0.192968  0.748390  1
  Pr  Pr4  1  0.194000  0.811144  0.250542  1
  Pr  Pr5  1  0.806000  0.188856  0.749458  1
  Al  Al6  1  0.337424  0.668713  0.011786  1
  Al  Al7  1  0.662576  0.331287  0.988214  1
  Al  Al8  1  0.667440  0.333719  0.511107  1
  Al  Al9  1  0.332560  0.666281  0.488893  1
  Al  Al10  1  0.162665  0.325942  0.575373  1
  Al  Al11  1  0.837335  0.674058  0.424627  1
  Al  Al12  1  0.672673  0.836336  0.574631  1
  Al  Al13  1  0.833238  0.675707  0.076319  1
  Al  Al14  1  0.327327  0.163664  0.425369  1
  Al  Al15  1  0.166762  0.324293  0.923681  1
  Al  Al16  1  0.162665  0.836723  0.575373  1
  Al  Al17  1  0.326503  0.163252  0.075327  1
  Al  Al18  1  0.837335  0.163277  0.424627  1
  Al  Al19  1  0.673497  0.836748  0.924673  1
  Al  Al20  1  0.833238  0.157532  0.076319  1
  Al  Al21  1  0.166762  0.842468  0.923681  1
  Al  Al22  1  0.563080  0.125509  0.249474  1
  Al  Al23  1  0.436920  0.874491  0.750526  1
  Al  Al24  1  0.875544  0.437772  0.252989  1
  Al  Al25  1  0.124456  0.562228  0.747011  1
  Al  Al26  1  0.563080  0.437571  0.249474  1
  Al  Al27  1  0.436920  0.562429  0.750526  1
  Al  Al28  1  0.000149  0.000074  0.250048  1
  Al  Al29  1  0.999851  0.999926  0.749952  1
  Os  Os30  1  0.500000  0.000000  0.000000  1
  Os  Os31  1  0.500000  0.000000  0.500000  1
  Os  Os32  1  0.500000  0.500000  0.000000  1
  Os  Os33  1  0.500000  0.500000  0.500000  1
  Ru  Ru34  1  0.000000  0.500000  0.500000  1
  Ru  Ru35  1  0.000000  0.000000  0.000000  1
  Ru  Ru36  1  0.000000  0.000000  0.500000  1
  Pt  Pt37  1  0.000000  0.500000  0.000000  1
