# generated using pymatgen
data_Y16In6IrOs
_symmetry_space_group_name_H-M   'P 1'
_cell_length_a   10.45147400
_cell_length_b   10.45147401
_cell_length_c   7.13556200
_cell_angle_alpha   90.00000000
_cell_angle_beta   90.00000000
_cell_angle_gamma   119.99999998
_symmetry_Int_Tables_number   1
_chemical_formula_structural   Y16In6IrOs
_chemical_formula_sum   'Y16 In6 Ir1 Os1'
_cell_volume   675.01574831
_cell_formula_units_Z   1
loop_
 _symmetry_equiv_pos_site_id
 _symmetry_equiv_pos_as_xyz
  1  'x, y, z'
loop_
 _atom_site_type_symbol
 _atom_site_label
 _atom_site_symmetry_multiplicity
 _atom_site_fract_x
 _atom_site_fract_y
 _atom_site_fract_z
 _atom_site_occupancy
  Y  Y0  1  0.465542  0.534458  0.480910  1
  Y  Y1  1  0.068916  0.534458  0.480910  1
  Y  Y2  1  0.465542  0.931084  0.480910  1
  Y  Y3  1  0.534036  0.465964  0.979656  1
  Y  Y4  1  0.931928  0.465964  0.979656  1
  Y  Y5  1  0.534036  0.068072  0.979656  1
  Y  Y6  1  0.823694  0.176306  0.276171  1
  Y  Y7  1  0.352613  0.176306  0.276171  1
  Y  Y8  1  0.823694  0.647387  0.276171  1
  Y  Y9  1  0.176636  0.823364  0.776101  1
  Y  Y10  1  0.646727  0.823364  0.776101  1
  Y  Y11  1  0.176636  0.353273  0.776101  1
  Y  Y12  1  0.333333  0.666667  0.101656  1
  Y  Y13  1  0.666667  0.333333  0.599679  1
  Y  Y14  1  0.000000  0.000000  0.497091  1
  Y  Y15  1  0.000000  0.000000  0.997957  1
  In  In16  1  0.162689  0.837311  0.233584  1
  In  In17  1  0.674623  0.837311  0.233584  1
  In  In18  1  0.162689  0.325377  0.233584  1
  In  In19  1  0.836756  0.163244  0.732319  1
  In  In20  1  0.326487  0.163244  0.732319  1
  In  In21  1  0.836756  0.673513  0.732319  1
  Ir  Ir22  1  0.666667  0.333333  0.205964  1
  Os  Os23  1  0.333333  0.666667  0.705985  1
