# generated using pymatgen
data_Y3ErCd2Si3Ge
_symmetry_space_group_name_H-M   'P 1'
_cell_length_a   7.18457058
_cell_length_b   7.18457178
_cell_length_c   4.21298400
_cell_angle_alpha   90.00000000
_cell_angle_beta   90.00000000
_cell_angle_gamma   89.89999544
_symmetry_Int_Tables_number   1
_chemical_formula_structural   Y3ErCd2Si3Ge
_chemical_formula_sum   'Y3 Er1 Cd2 Si3 Ge1'
_cell_volume   217.46574264
_cell_formula_units_Z   1
loop_
 _symmetry_equiv_pos_site_id
 _symmetry_equiv_pos_as_xyz
  1  'x, y, z'
loop_
 _atom_site_type_symbol
 _atom_site_label
 _atom_site_symmetry_multiplicity
 _atom_site_fract_x
 _atom_site_fract_y
 _atom_site_fract_z
 _atom_site_occupancy
  Y  Y0  1  0.680597  0.177833  0.500000  1
  Y  Y1  1  0.322167  0.819403  0.500000  1
  Y  Y2  1  0.175744  0.324256  0.500000  1
  Er  Er3  1  0.822822  0.677178  0.500000  1
  Cd  Cd4  1  0.501802  0.503328  0.000000  1
  Cd  Cd5  1  0.996672  0.998198  0.000000  1
  Si  Si6  1  0.115808  0.617766  0.000000  1
  Si  Si7  1  0.882234  0.384192  0.000000  1
  Si  Si8  1  0.621284  0.878716  0.000000  1
  Ge  Ge9  1  0.380870  0.119130  0.000000  1
