# generated using pymatgen
data_TbErNi2Hg
_symmetry_space_group_name_H-M   'P 1'
_cell_length_a   7.24032917
_cell_length_b   7.24032862
_cell_length_c   3.63393900
_cell_angle_alpha   90.00000000
_cell_angle_beta   90.00000000
_cell_angle_gamma   148.16258264
_symmetry_Int_Tables_number   1
_chemical_formula_structural   TbErNi2Hg
_chemical_formula_sum   'Tb1 Er1 Ni2 Hg1'
_cell_volume   100.49061503
_cell_formula_units_Z   1
loop_
 _symmetry_equiv_pos_site_id
 _symmetry_equiv_pos_as_xyz
  1  'x, y, z'
loop_
 _atom_site_type_symbol
 _atom_site_label
 _atom_site_symmetry_multiplicity
 _atom_site_fract_x
 _atom_site_fract_y
 _atom_site_fract_z
 _atom_site_occupancy
  Tb  Tb0  1  0.363156  0.636844  0.500000  1
  Er  Er1  1  0.637857  0.362143  0.500000  1
  Ni  Ni2  1  0.799197  0.200803  0.000000  1
  Ni  Ni3  1  0.198542  0.801458  0.000000  1
  Hg  Hg4  1  0.001249  0.998751  0.000000  1
