# generated using pymatgen
data_TmTh3(Sc3Sn4)2
_symmetry_space_group_name_H-M   'P 1'
_cell_length_a   7.85208632
_cell_length_b   7.98830828
_cell_length_c   14.93923500
_cell_angle_alpha   90.01684092
_cell_angle_beta   89.98366957
_cell_angle_gamma   90.12142737
_symmetry_Int_Tables_number   1
_chemical_formula_structural   TmTh3(Sc3Sn4)2
_chemical_formula_sum   'Tm2 Th6 Sc12 Sn16'
_cell_volume   937.05963226
_cell_formula_units_Z   2
loop_
 _symmetry_equiv_pos_site_id
 _symmetry_equiv_pos_as_xyz
  1  'x, y, z'
loop_
 _atom_site_type_symbol
 _atom_site_label
 _atom_site_symmetry_multiplicity
 _atom_site_fract_x
 _atom_site_fract_y
 _atom_site_fract_z
 _atom_site_occupancy
  Tm  Tm0  1  0.486757  0.323599  0.406660  1
  Tm  Tm1  1  0.513243  0.676401  0.593340  1
  Th  Th2  1  0.988801  0.174398  0.095322  1
  Th  Th3  1  0.011199  0.825602  0.904678  1
  Th  Th4  1  0.509003  0.674387  0.906780  1
  Th  Th5  1  0.007439  0.827368  0.591669  1
  Th  Th6  1  0.490997  0.325613  0.093220  1
  Th  Th7  1  0.992561  0.172632  0.408331  1
  Sc  Sc8  1  0.170844  0.499645  0.749457  1
  Sc  Sc9  1  0.829156  0.500355  0.250543  1
  Sc  Sc10  1  0.327333  0.997496  0.250737  1
  Sc  Sc11  1  0.672667  0.002504  0.749263  1
  Sc  Sc12  1  0.339726  0.162066  0.626650  1
  Sc  Sc13  1  0.660274  0.837934  0.373350  1
  Sc  Sc14  1  0.154378  0.659852  0.374268  1
  Sc  Sc15  1  0.656039  0.841196  0.128090  1
  Sc  Sc16  1  0.845622  0.340148  0.625732  1
  Sc  Sc17  1  0.343961  0.158804  0.871910  1
  Sc  Sc18  1  0.838670  0.342774  0.872788  1
  Sc  Sc19  1  0.161330  0.657226  0.127212  1
  Sn  Sn20  1  0.034545  0.130391  0.749886  1
  Sn  Sn21  1  0.965455  0.869609  0.250114  1
  Sn  Sn22  1  0.465730  0.627530  0.251435  1
  Sn  Sn23  1  0.534270  0.372470  0.748565  1
  Sn  Sn24  1  0.317321  0.852372  0.745973  1
  Sn  Sn25  1  0.682679  0.147628  0.254027  1
  Sn  Sn26  1  0.190494  0.355056  0.252421  1
  Sn  Sn27  1  0.809506  0.644944  0.747579  1
  Sn  Sn28  1  0.192319  0.459287  0.544069  1
  Sn  Sn29  1  0.807681  0.540713  0.455931  1
  Sn  Sn30  1  0.322482  0.953166  0.457056  1
  Sn  Sn31  1  0.818773  0.548138  0.044116  1
  Sn  Sn32  1  0.677518  0.046834  0.542944  1
  Sn  Sn33  1  0.181227  0.451862  0.955884  1
  Sn  Sn34  1  0.684184  0.045654  0.956474  1
  Sn  Sn35  1  0.315816  0.954346  0.043526  1
