# generated using pymatgen
data_Ba3Sr3Sn8BiAu
_symmetry_space_group_name_H-M   'P 1'
_cell_length_a   9.08742013
_cell_length_b   9.11396271
_cell_length_c   9.17872020
_cell_angle_alpha   119.81218889
_cell_angle_beta   119.71688769
_cell_angle_gamma   89.92059586
_symmetry_Int_Tables_number   1
_chemical_formula_structural   Ba3Sr3Sn8BiAu
_chemical_formula_sum   'Ba3 Sr3 Sn8 Bi1 Au1'
_cell_volume   541.71195972
_cell_formula_units_Z   1
loop_
 _symmetry_equiv_pos_site_id
 _symmetry_equiv_pos_as_xyz
  1  'x, y, z'
loop_
 _atom_site_type_symbol
 _atom_site_label
 _atom_site_symmetry_multiplicity
 _atom_site_fract_x
 _atom_site_fract_y
 _atom_site_fract_z
 _atom_site_occupancy
  Ba  Ba0  1  0.340519  0.835944  0.000000  1
  Ba  Ba1  1  0.834311  0.658681  0.000000  1
  Ba  Ba2  1  0.165594  0.341329  0.000000  1
  Sr  Sr3  1  0.252454  0.252201  0.504295  1
  Sr  Sr4  1  0.748159  0.747905  0.495705  1
  Sr  Sr5  1  0.662251  0.167127  0.000000  1
  Sn  Sn6  1  0.338001  0.835290  0.385626  1
  Sn  Sn7  1  0.662013  0.165147  0.617287  1
  Sn  Sn8  1  0.044726  0.547861  0.382713  1
  Sn  Sn9  1  0.551840  0.336098  0.383571  1
  Sn  Sn10  1  0.168268  0.952526  0.616429  1
  Sn  Sn11  1  0.952374  0.449663  0.614374  1
  Sn  Sn12  1  0.449565  0.664716  0.615837  1
  Sn  Sn13  1  0.833729  0.048880  0.384163  1
  Bi  Bi14  1  0.993611  0.002792  0.000000  1
  Au  Au15  1  0.502588  0.493838  0.000000  1
