# generated using pymatgen
data_LiMnCr(NiP)3
_symmetry_space_group_name_H-M   'P 1'
_cell_length_a   5.95137394
_cell_length_b   5.83967307
_cell_length_c   3.48821300
_cell_angle_alpha   90.00000000
_cell_angle_beta   90.00000000
_cell_angle_gamma   119.72155597
_symmetry_Int_Tables_number   1
_chemical_formula_structural   LiMnCr(NiP)3
_chemical_formula_sum   'Li1 Mn1 Cr1 Ni3 P3'
_cell_volume   105.28126953
_cell_formula_units_Z   1
loop_
 _symmetry_equiv_pos_site_id
 _symmetry_equiv_pos_as_xyz
  1  'x, y, z'
loop_
 _atom_site_type_symbol
 _atom_site_label
 _atom_site_symmetry_multiplicity
 _atom_site_fract_x
 _atom_site_fract_y
 _atom_site_fract_z
 _atom_site_occupancy
  Li  Li0  1  0.999808  0.414394  0.500000  1
  Mn  Mn1  1  0.592133  0.590687  0.500000  1
  Cr  Cr2  1  0.407460  0.999427  0.500000  1
  Ni  Ni3  1  0.000063  0.736764  0.000000  1
  Ni  Ni4  1  0.245048  0.253092  0.000000  1
  Ni  Ni5  1  0.756346  0.007952  0.000000  1
  P  P6  1  0.347273  0.678153  0.000000  1
  P  P7  1  0.652517  0.328885  0.000000  1
  P  P8  1  0.999353  0.990644  0.500000  1
