# generated using pymatgen
data_Y13Th3(ZnCo)4
_symmetry_space_group_name_H-M   'P 1'
_cell_length_a   9.45065505
_cell_length_b   9.45736077
_cell_length_c   9.45736100
_cell_angle_alpha   59.99999568
_cell_angle_beta   59.97652116
_cell_angle_gamma   59.97652243
_symmetry_Int_Tables_number   1
_chemical_formula_structural   Y13Th3(ZnCo)4
_chemical_formula_sum   'Y13 Th3 Zn4 Co4'
_cell_volume   597.49271199
_cell_formula_units_Z   1
loop_
 _symmetry_equiv_pos_site_id
 _symmetry_equiv_pos_as_xyz
  1  'x, y, z'
loop_
 _atom_site_type_symbol
 _atom_site_label
 _atom_site_symmetry_multiplicity
 _atom_site_fract_x
 _atom_site_fract_y
 _atom_site_fract_z
 _atom_site_occupancy
  Y  Y0  1  0.191878  0.602708  0.602708  1
  Y  Y1  1  0.059901  0.440668  0.440668  1
  Y  Y2  1  0.440893  0.060193  0.060193  1
  Y  Y3  1  0.440893  0.060193  0.438721  1
  Y  Y4  1  0.059901  0.440668  0.058762  1
  Y  Y5  1  0.440893  0.438721  0.060193  1
  Y  Y6  1  0.059901  0.058762  0.440668  1
  Y  Y7  1  0.186331  0.813964  0.813964  1
  Y  Y8  1  0.814012  0.186016  0.186016  1
  Y  Y9  1  0.814012  0.186016  0.813955  1
  Y  Y10  1  0.186331  0.813964  0.185741  1
  Y  Y11  1  0.814012  0.813955  0.186016  1
  Y  Y12  1  0.186331  0.185741  0.813964  1
  Th  Th13  1  0.595640  0.599152  0.599152  1
  Th  Th14  1  0.595640  0.599152  0.206055  1
  Th  Th15  1  0.595640  0.206055  0.599152  1
  Zn  Zn16  1  0.831082  0.829624  0.829624  1
  Zn  Zn17  1  0.831082  0.829624  0.509669  1
  Zn  Zn18  1  0.831082  0.509669  0.829624  1
  Zn  Zn19  1  0.507928  0.830690  0.830690  1
  Co  Co20  1  0.400196  0.390840  0.390840  1
  Co  Co21  1  0.400196  0.390840  0.818124  1
  Co  Co22  1  0.400196  0.818124  0.390840  1
  Co  Co23  1  0.816023  0.394659  0.394659  1
