# generated using pymatgen
data_Sr2Eu2Bi2N
_symmetry_space_group_name_H-M   'P 1'
_cell_length_a   4.99763768
_cell_length_b   4.99627980
_cell_length_c   9.42312214
_cell_angle_alpha   105.36245906
_cell_angle_beta   105.37043906
_cell_angle_gamma   90.01126894
_symmetry_Int_Tables_number   1
_chemical_formula_structural   Sr2Eu2Bi2N
_chemical_formula_sum   'Sr2 Eu2 Bi2 N1'
_cell_volume   218.14094599
_cell_formula_units_Z   1
loop_
 _symmetry_equiv_pos_site_id
 _symmetry_equiv_pos_as_xyz
  1  'x, y, z'
loop_
 _atom_site_type_symbol
 _atom_site_label
 _atom_site_symmetry_multiplicity
 _atom_site_fract_x
 _atom_site_fract_y
 _atom_site_fract_z
 _atom_site_occupancy
  Sr  Sr0  1  0.164119  0.164095  0.328043  1
  Sr  Sr1  1  0.835877  0.835900  0.671959  1
  Eu  Eu2  1  0.500002  0.000000  0.999998  1
  Eu  Eu3  1  0.000002  0.500002  0.000002  1
  Bi  Bi4  1  0.636392  0.636359  0.272408  1
  Bi  Bi5  1  0.363606  0.363641  0.727591  1
  N  N6  1  0.999997  0.999997  0.999998  1
