# generated using pymatgen
data_Er10Si3Hg4Os
_symmetry_space_group_name_H-M   'P 1'
_cell_length_a   8.69812983
_cell_length_b   8.69812994
_cell_length_c   7.53226876
_cell_angle_alpha   90.26131933
_cell_angle_beta   90.26131890
_cell_angle_gamma   128.83620381
_symmetry_Int_Tables_number   1
_chemical_formula_structural   Er10Si3Hg4Os
_chemical_formula_sum   'Er10 Si3 Hg4 Os1'
_cell_volume   443.87267277
_cell_formula_units_Z   1
loop_
 _symmetry_equiv_pos_site_id
 _symmetry_equiv_pos_as_xyz
  1  'x, y, z'
loop_
 _atom_site_type_symbol
 _atom_site_label
 _atom_site_symmetry_multiplicity
 _atom_site_fract_x
 _atom_site_fract_y
 _atom_site_fract_z
 _atom_site_occupancy
  Er  Er0  1  0.061531  0.311327  0.317663  1
  Er  Er1  1  0.947618  0.690739  0.675448  1
  Er  Er2  1  0.447843  0.198412  0.831975  1
  Er  Er3  1  0.797864  0.546775  0.173045  1
  Er  Er4  1  0.546775  0.797864  0.173045  1
  Er  Er5  1  0.198412  0.447843  0.831975  1
  Er  Er6  1  0.690739  0.947618  0.675448  1
  Er  Er7  1  0.311327  0.061531  0.317663  1
  Er  Er8  1  0.006263  0.006263  0.006326  1
  Er  Er9  1  0.494654  0.494654  0.491814  1
  Si  Si10  1  0.622569  0.622569  0.875824  1
  Si  Si11  1  0.111259  0.111259  0.622169  1
  Si  Si12  1  0.881577  0.881577  0.387369  1
  Hg  Hg13  1  0.783863  0.214394  0.998660  1
  Hg  Hg14  1  0.214395  0.783863  0.998660  1
  Hg  Hg15  1  0.717639  0.283484  0.501055  1
  Hg  Hg16  1  0.283484  0.717639  0.501055  1
  Os  Os17  1  0.382190  0.382190  0.120805  1
