# generated using pymatgen
data_YSc(Si7Rh3)2
_symmetry_space_group_name_H-M   'P 1'
_cell_length_a   7.96757957
_cell_length_b   7.96758002
_cell_length_c   7.96758071
_cell_angle_alpha   57.13829390
_cell_angle_beta   57.13829404
_cell_angle_gamma   57.13828572
_symmetry_Int_Tables_number   1
_chemical_formula_structural   YSc(Si7Rh3)2
_chemical_formula_sum   'Y1 Sc1 Si14 Rh6'
_cell_volume   334.07159125
_cell_formula_units_Z   1
loop_
 _symmetry_equiv_pos_site_id
 _symmetry_equiv_pos_as_xyz
  1  'x, y, z'
loop_
 _atom_site_type_symbol
 _atom_site_label
 _atom_site_symmetry_multiplicity
 _atom_site_fract_x
 _atom_site_fract_y
 _atom_site_fract_z
 _atom_site_occupancy
  Y  Y0  1  0.000000  0.000000  0.000000  1
  Sc  Sc1  1  0.500000  0.500000  0.500000  1
  Si  Si2  1  0.750093  0.750093  0.750093  1
  Si  Si3  1  0.249907  0.249907  0.249907  1
  Si  Si4  1  0.850881  0.066865  0.671179  1
  Si  Si5  1  0.671179  0.850881  0.066865  1
  Si  Si6  1  0.066865  0.671179  0.850881  1
  Si  Si7  1  0.647477  0.826972  0.434996  1
  Si  Si8  1  0.434996  0.647477  0.826972  1
  Si  Si9  1  0.826972  0.434996  0.647477  1
  Si  Si10  1  0.173028  0.565004  0.352523  1
  Si  Si11  1  0.565004  0.352523  0.173028  1
  Si  Si12  1  0.352523  0.173028  0.565004  1
  Si  Si13  1  0.933135  0.328821  0.149119  1
  Si  Si14  1  0.328821  0.149119  0.933135  1
  Si  Si15  1  0.149119  0.933135  0.328821  1
  Rh  Rh16  1  0.072404  0.430528  0.748265  1
  Rh  Rh17  1  0.251735  0.927596  0.569472  1
  Rh  Rh18  1  0.569472  0.251735  0.927596  1
  Rh  Rh19  1  0.927596  0.569472  0.251735  1
  Rh  Rh20  1  0.430528  0.748265  0.072404  1
  Rh  Rh21  1  0.748265  0.072404  0.430528  1
