# generated using pymatgen
data_Dy5YSi4(GeRh6)2
_symmetry_space_group_name_H-M   'P 1'
_cell_length_a   5.58770500
_cell_length_b   5.58770297
_cell_length_c   15.24588800
_cell_angle_alpha   90.00000000
_cell_angle_beta   90.00000000
_cell_angle_gamma   119.99999426
_symmetry_Int_Tables_number   1
_chemical_formula_structural   Dy5YSi4(GeRh6)2
_chemical_formula_sum   'Dy5 Y1 Si4 Ge2 Rh12'
_cell_volume   412.24003220
_cell_formula_units_Z   1
loop_
 _symmetry_equiv_pos_site_id
 _symmetry_equiv_pos_as_xyz
  1  'x, y, z'
loop_
 _atom_site_type_symbol
 _atom_site_label
 _atom_site_symmetry_multiplicity
 _atom_site_fract_x
 _atom_site_fract_y
 _atom_site_fract_z
 _atom_site_occupancy
  Dy  Dy0  1  0.666667  0.333333  0.962552  1
  Dy  Dy1  1  0.666667  0.333333  0.537448  1
  Dy  Dy2  1  0.333333  0.666667  0.037512  1
  Dy  Dy3  1  0.666667  0.333333  0.750000  1
  Dy  Dy4  1  0.333333  0.666667  0.462488  1
  Y  Y5  1  0.333333  0.666667  0.250000  1
  Si  Si6  1  0.666667  0.333333  0.250000  1
  Si  Si7  1  0.000000  0.000000  0.250000  1
  Si  Si8  1  0.000000  0.000000  0.750000  1
  Si  Si9  1  0.333333  0.666667  0.750000  1
  Ge  Ge10  1  0.000000  0.000000  0.499983  1
  Ge  Ge11  1  0.000000  0.000000  0.000017  1
  Rh  Rh12  1  0.167448  0.334896  0.866905  1
  Rh  Rh13  1  0.167448  0.334896  0.633095  1
  Rh  Rh14  1  0.665104  0.832552  0.866905  1
  Rh  Rh15  1  0.334944  0.167472  0.366941  1
  Rh  Rh16  1  0.832528  0.665056  0.366941  1
  Rh  Rh17  1  0.832528  0.167472  0.366941  1
  Rh  Rh18  1  0.832528  0.167472  0.133059  1
  Rh  Rh19  1  0.334944  0.167472  0.133059  1
  Rh  Rh20  1  0.665104  0.832552  0.633095  1
  Rh  Rh21  1  0.167448  0.832552  0.633095  1
  Rh  Rh22  1  0.832528  0.665056  0.133059  1
  Rh  Rh23  1  0.167448  0.832552  0.866905  1
