# generated using pymatgen
data_Zr2Pa(GaNi)3
_symmetry_space_group_name_H-M   'P 1'
_cell_length_a   6.75688700
_cell_length_b   6.65819892
_cell_length_c   3.83176100
_cell_angle_alpha   90.00000000
_cell_angle_beta   90.00000000
_cell_angle_gamma   120.49152737
_symmetry_Int_Tables_number   1
_chemical_formula_structural   Zr2Pa(GaNi)3
_chemical_formula_sum   'Zr2 Pa1 Ga3 Ni3'
_cell_volume   148.54568695
_cell_formula_units_Z   1
loop_
 _symmetry_equiv_pos_site_id
 _symmetry_equiv_pos_as_xyz
  1  'x, y, z'
loop_
 _atom_site_type_symbol
 _atom_site_label
 _atom_site_symmetry_multiplicity
 _atom_site_fract_x
 _atom_site_fract_y
 _atom_site_fract_z
 _atom_site_occupancy
  Zr  Zr0  1  0.002315  0.412970  0.500000  1
  Zr  Zr1  1  0.589345  0.587030  0.500000  1
  Pa  Pa2  1  0.420047  0.000000  0.500000  1
  Ga  Ga3  1  0.765816  0.000000  0.000000  1
  Ga  Ga4  1  0.982966  0.735198  0.000000  1
  Ga  Ga5  1  0.247769  0.264802  0.000000  1
  Ni  Ni6  1  0.331422  0.679647  0.000000  1
  Ni  Ni7  1  0.651776  0.320353  0.000000  1
  Ni  Ni8  1  0.008544  0.000000  0.500000  1
