# generated using pymatgen
data_Hf18TiCr(Re3As)2
_symmetry_space_group_name_H-M   'P 1'
_cell_length_a   8.63144700
_cell_length_b   8.63149071
_cell_length_c   8.56114000
_cell_angle_alpha   89.99942815
_cell_angle_beta   90.00093314
_cell_angle_gamma   120.00006272
_symmetry_Int_Tables_number   1
_chemical_formula_structural   Hf18TiCr(Re3As)2
_chemical_formula_sum   'Hf18 Ti1 Cr1 Re6 As2'
_cell_volume   552.37163900
_cell_formula_units_Z   1
loop_
 _symmetry_equiv_pos_site_id
 _symmetry_equiv_pos_as_xyz
  1  'x, y, z'
loop_
 _atom_site_type_symbol
 _atom_site_label
 _atom_site_symmetry_multiplicity
 _atom_site_fract_x
 _atom_site_fract_y
 _atom_site_fract_z
 _atom_site_occupancy
  Hf  Hf0  1  0.805973  0.611957  0.547239  1
  Hf  Hf1  1  0.805969  0.194016  0.547254  1
  Hf  Hf2  1  0.388049  0.194007  0.547246  1
  Hf  Hf3  1  0.194027  0.388043  0.452761  1
  Hf  Hf4  1  0.194031  0.805984  0.452746  1
  Hf  Hf5  1  0.611951  0.805993  0.452754  1
  Hf  Hf6  1  0.191482  0.382992  0.048387  1
  Hf  Hf7  1  0.191499  0.808516  0.048388  1
  Hf  Hf8  1  0.617013  0.808527  0.048388  1
  Hf  Hf9  1  0.808518  0.617008  0.951613  1
  Hf  Hf10  1  0.808501  0.191484  0.951612  1
  Hf  Hf11  1  0.382987  0.191473  0.951612  1
  Hf  Hf12  1  0.458384  0.916713  0.751089  1
  Hf  Hf13  1  0.458399  0.541598  0.751103  1
  Hf  Hf14  1  0.083286  0.541604  0.751102  1
  Hf  Hf15  1  0.541616  0.083287  0.248911  1
  Hf  Hf16  1  0.541601  0.458402  0.248897  1
  Hf  Hf17  1  0.916714  0.458396  0.248898  1
  Ti  Ti18  1  0.000000  0.000000  0.500000  1
  Cr  Cr19  1  0.000000  0.000000  0.000000  1
  Re  Re20  1  0.108723  0.217413  0.751628  1
  Re  Re21  1  0.108729  0.891252  0.751610  1
  Re  Re22  1  0.782572  0.891275  0.751602  1
  Re  Re23  1  0.891277  0.782587  0.248372  1
  Re  Re24  1  0.891271  0.108748  0.248390  1
  Re  Re25  1  0.217428  0.108725  0.248398  1
  As  As26  1  0.666672  0.333338  0.752157  1
  As  As27  1  0.333328  0.666662  0.247843  1
