# generated using pymatgen
data_CrBi4Pt3F28
_symmetry_space_group_name_H-M   'P 1'
_cell_length_a   5.61609365
_cell_length_b   9.16675731
_cell_length_c   12.16246923
_cell_angle_alpha   61.84728737
_cell_angle_beta   90.11322453
_cell_angle_gamma   89.94898303
_symmetry_Int_Tables_number   1
_chemical_formula_structural   CrBi4Pt3F28
_chemical_formula_sum   'Cr1 Bi4 Pt3 F28'
_cell_volume   552.06157915
_cell_formula_units_Z   1
loop_
 _symmetry_equiv_pos_site_id
 _symmetry_equiv_pos_as_xyz
  1  'x, y, z'
loop_
 _atom_site_type_symbol
 _atom_site_label
 _atom_site_symmetry_multiplicity
 _atom_site_fract_x
 _atom_site_fract_y
 _atom_site_fract_z
 _atom_site_occupancy
  Cr  Cr0  1  0.758540  0.272175  0.957951  1
  Bi  Bi1  1  0.764986  0.818658  0.760850  1
  Bi  Bi2  1  0.265247  0.189059  0.740610  1
  Bi  Bi3  1  0.230266  0.186998  0.234745  1
  Bi  Bi4  1  0.736492  0.816890  0.260991  1
  Pt  Pt5  1  0.257750  0.729355  0.540991  1
  Pt  Pt6  1  0.242817  0.729031  0.040320  1
  Pt  Pt7  1  0.740433  0.272573  0.457969  1
  F  F8  1  0.428766  0.705615  0.912119  1
  F  F9  1  0.923434  0.294571  0.588017  1
  F  F10  1  0.574229  0.285271  0.076964  1
  F  F11  1  0.071752  0.707114  0.411911  1
  F  F12  1  0.439592  0.277622  0.540659  1
  F  F13  1  0.939475  0.719820  0.960519  1
  F  F14  1  0.559816  0.724270  0.458872  1
  F  F15  1  0.044831  0.274211  0.044111  1
  F  F16  1  0.773583  0.496240  0.866756  1
  F  F17  1  0.269402  0.486962  0.639265  1
  F  F18  1  0.235338  0.486879  0.137207  1
  F  F19  1  0.726646  0.514614  0.360204  1
  F  F20  1  0.756757  0.040952  0.050201  1
  F  F21  1  0.256456  0.974143  0.448328  1
  F  F22  1  0.241687  0.974237  0.949575  1
  F  F23  1  0.743388  0.026809  0.551123  1
  F  F24  1  0.962998  0.725708  0.629741  1
  F  F25  1  0.481782  0.268203  0.868412  1
  F  F26  1  0.035446  0.274479  0.369689  1
  F  F27  1  0.540053  0.730968  0.125688  1
  F  F28  1  0.063150  0.745747  0.173413  1
  F  F29  1  0.562692  0.256695  0.323537  1
  F  F30  1  0.941369  0.249968  0.839003  1
  F  F31  1  0.438253  0.743661  0.674932  1
  F  F32  1  0.400316  0.970047  0.227048  1
  F  F33  1  0.898841  0.029947  0.275253  1
  F  F34  1  0.597843  0.030588  0.772151  1
  F  F35  1  0.095574  0.969920  0.730874  1
