# generated using pymatgen
data_Ho6Al24FeRu4Pt3
_symmetry_space_group_name_H-M   'P 1'
_cell_length_a   8.80385828
_cell_length_b   8.78219459
_cell_length_c   9.48785619
_cell_angle_alpha   90.15102693
_cell_angle_beta   89.92362541
_cell_angle_gamma   119.53110701
_symmetry_Int_Tables_number   1
_chemical_formula_structural   Ho6Al24FeRu4Pt3
_chemical_formula_sum   'Ho6 Al24 Fe1 Ru4 Pt3'
_cell_volume   638.27226311
_cell_formula_units_Z   1
loop_
 _symmetry_equiv_pos_site_id
 _symmetry_equiv_pos_as_xyz
  1  'x, y, z'
loop_
 _atom_site_type_symbol
 _atom_site_label
 _atom_site_symmetry_multiplicity
 _atom_site_fract_x
 _atom_site_fract_y
 _atom_site_fract_z
 _atom_site_occupancy
  Ho  Ho0  1  0.189414  0.386720  0.251763  1
  Ho  Ho1  1  0.810586  0.613280  0.748237  1
  Ho  Ho2  1  0.615030  0.809929  0.250474  1
  Ho  Ho3  1  0.384970  0.190071  0.749526  1
  Ho  Ho4  1  0.192690  0.805407  0.250827  1
  Ho  Ho5  1  0.807310  0.194593  0.749173  1
  Al  Al6  1  0.327532  0.664184  0.028276  1
  Al  Al7  1  0.672468  0.335816  0.971724  1
  Al  Al8  1  0.669719  0.330565  0.525474  1
  Al  Al9  1  0.330281  0.669435  0.474526  1
  Al  Al10  1  0.155470  0.319848  0.575580  1
  Al  Al11  1  0.844530  0.680152  0.424420  1
  Al  Al12  1  0.681099  0.845280  0.575145  1
  Al  Al13  1  0.842171  0.676023  0.077518  1
  Al  Al14  1  0.318901  0.154720  0.424855  1
  Al  Al15  1  0.157829  0.323977  0.922482  1
  Al  Al16  1  0.160989  0.839435  0.576207  1
  Al  Al17  1  0.322286  0.161975  0.078481  1
  Al  Al18  1  0.839011  0.160565  0.423793  1
  Al  Al19  1  0.677714  0.838025  0.921519  1
  Al  Al20  1  0.841988  0.167452  0.078550  1
  Al  Al21  1  0.158012  0.832548  0.921450  1
  Al  Al22  1  0.562462  0.125233  0.253837  1
  Al  Al23  1  0.437538  0.874767  0.746163  1
  Al  Al24  1  0.877555  0.439613  0.250227  1
  Al  Al25  1  0.122445  0.560387  0.749773  1
  Al  Al26  1  0.564713  0.436522  0.250066  1
  Al  Al27  1  0.435287  0.563478  0.749934  1
  Al  Al28  1  0.997270  0.000342  0.256133  1
  Al  Al29  1  0.002730  0.999658  0.743867  1
  Fe  Fe30  1  0.000000  0.000000  0.500000  1
  Ru  Ru31  1  0.000000  0.500000  0.000000  1
  Ru  Ru32  1  0.500000  0.000000  0.500000  1
  Ru  Ru33  1  0.000000  0.500000  0.500000  1
  Ru  Ru34  1  0.000000  0.000000  0.000000  1
  Pt  Pt35  1  0.500000  0.000000  0.000000  1
  Pt  Pt36  1  0.500000  0.500000  0.000000  1
  Pt  Pt37  1  0.500000  0.500000  0.500000  1
