# generated using pymatgen
data_Tm6Co16Si11POs2
_symmetry_space_group_name_H-M   'P 1'
_cell_length_a   3.77744100
_cell_length_b   10.65903000
_cell_length_c   12.32081500
_cell_angle_alpha   90.00000000
_cell_angle_beta   90.00000000
_cell_angle_gamma   90.00000000
_symmetry_Int_Tables_number   1
_chemical_formula_structural   Tm6Co16Si11POs2
_chemical_formula_sum   'Tm6 Co16 Si11 P1 Os2'
_cell_volume   496.08353257
_cell_formula_units_Z   1
loop_
 _symmetry_equiv_pos_site_id
 _symmetry_equiv_pos_as_xyz
  1  'x, y, z'
loop_
 _atom_site_type_symbol
 _atom_site_label
 _atom_site_symmetry_multiplicity
 _atom_site_fract_x
 _atom_site_fract_y
 _atom_site_fract_z
 _atom_site_occupancy
  Tm  Tm0  1  0.000000  0.500000  0.527587  1
  Tm  Tm1  1  0.500000  0.000000  0.474649  1
  Tm  Tm2  1  0.500000  0.818070  0.204747  1
  Tm  Tm3  1  0.500000  0.181930  0.204747  1
  Tm  Tm4  1  0.000000  0.681419  0.795565  1
  Tm  Tm5  1  0.000000  0.318581  0.795565  1
  Co  Co6  1  0.500000  0.500000  0.695486  1
  Co  Co7  1  0.000000  0.000000  0.304238  1
  Co  Co8  1  0.000000  0.500000  0.981670  1
  Co  Co9  1  0.500000  0.000000  0.016571  1
  Co  Co10  1  0.500000  0.330680  0.992072  1
  Co  Co11  1  0.500000  0.669320  0.992072  1
  Co  Co12  1  0.000000  0.168874  0.006486  1
  Co  Co13  1  0.000000  0.831126  0.006486  1
  Co  Co14  1  0.500000  0.300084  0.431553  1
  Co  Co15  1  0.500000  0.699916  0.431553  1
  Co  Co16  1  0.000000  0.194614  0.571668  1
  Co  Co17  1  0.000000  0.805386  0.571668  1
  Co  Co18  1  0.500000  0.883746  0.705697  1
  Co  Co19  1  0.500000  0.116254  0.705697  1
  Co  Co20  1  0.000000  0.618836  0.293896  1
  Co  Co21  1  0.000000  0.381164  0.293896  1
  Si  Si22  1  0.500000  0.500000  0.880616  1
  Si  Si23  1  0.000000  0.000000  0.118561  1
  Si  Si24  1  0.500000  0.500000  0.344494  1
  Si  Si25  1  0.500000  0.304092  0.615635  1
  Si  Si26  1  0.500000  0.695908  0.615635  1
  Si  Si27  1  0.000000  0.194531  0.386396  1
  Si  Si28  1  0.000000  0.805469  0.386396  1
  Si  Si29  1  0.500000  0.849438  0.892458  1
  Si  Si30  1  0.500000  0.150562  0.892458  1
  Si  Si31  1  0.000000  0.650495  0.106590  1
  Si  Si32  1  0.000000  0.349505  0.106590  1
  P  P33  1  0.000000  0.000000  0.655030  1
  Os  Os34  1  0.500000  0.500000  0.151135  1
  Os  Os35  1  0.000000  0.000000  0.844438  1
