# generated using pymatgen
data_Nd5Th3(ZnIr)8
_symmetry_space_group_name_H-M   'P 1'
_cell_length_a   3.98263400
_cell_length_b   7.46059953
_cell_length_c   16.65631464
_cell_angle_alpha   90.01289179
_cell_angle_beta   90.00000000
_cell_angle_gamma   90.00000000
_symmetry_Int_Tables_number   1
_chemical_formula_structural   Nd5Th3(ZnIr)8
_chemical_formula_sum   'Nd5 Th3 Zn8 Ir8'
_cell_volume   494.90635548
_cell_formula_units_Z   1
loop_
 _symmetry_equiv_pos_site_id
 _symmetry_equiv_pos_as_xyz
  1  'x, y, z'
loop_
 _atom_site_type_symbol
 _atom_site_label
 _atom_site_symmetry_multiplicity
 _atom_site_fract_x
 _atom_site_fract_y
 _atom_site_fract_z
 _atom_site_occupancy
  Nd  Nd0  1  0.750000  0.944824  0.284270  1
  Nd  Nd1  1  0.750000  0.831688  0.061626  1
  Nd  Nd2  1  0.750000  0.449146  0.214334  1
  Nd  Nd3  1  0.250000  0.053366  0.715356  1
  Nd  Nd4  1  0.250000  0.551566  0.785417  1
  Th  Th5  1  0.250000  0.169828  0.939945  1
  Th  Th6  1  0.250000  0.671282  0.561682  1
  Th  Th7  1  0.750000  0.327909  0.438169  1
  Zn  Zn8  1  0.750000  0.006570  0.561180  1
  Zn  Zn9  1  0.250000  0.618674  0.346194  1
  Zn  Zn10  1  0.750000  0.381671  0.653839  1
  Zn  Zn11  1  0.250000  0.503239  0.059864  1
  Zn  Zn12  1  0.750000  0.509139  0.939951  1
  Zn  Zn13  1  0.250000  0.993000  0.438457  1
  Zn  Zn14  1  0.250000  0.116264  0.151544  1
  Zn  Zn15  1  0.750000  0.880847  0.846620  1
  Ir  Ir16  1  0.750000  0.743502  0.440454  1
  Ir  Ir17  1  0.250000  0.248579  0.319239  1
  Ir  Ir18  1  0.750000  0.247329  0.819887  1
  Ir  Ir19  1  0.750000  0.749432  0.680213  1
  Ir  Ir20  1  0.250000  0.255254  0.560265  1
  Ir  Ir21  1  0.250000  0.744638  0.187009  1
  Ir  Ir22  1  0.750000  0.251163  0.060202  1
  Ir  Ir23  1  0.250000  0.751090  0.934283  1
