# generated using pymatgen
data_Li3Y4Si6Rh
_symmetry_space_group_name_H-M   'P 1'
_cell_length_a   9.21024197
_cell_length_b   9.21023925
_cell_length_c   6.74207868
_cell_angle_alpha   90.55075841
_cell_angle_beta   89.44924111
_cell_angle_gamma   153.35293871
_symmetry_Int_Tables_number   1
_chemical_formula_structural   Li3Y4Si6Rh
_chemical_formula_sum   'Li3 Y4 Si6 Rh1'
_cell_volume   256.49010040
_cell_formula_units_Z   1
loop_
 _symmetry_equiv_pos_site_id
 _symmetry_equiv_pos_as_xyz
  1  'x, y, z'
loop_
 _atom_site_type_symbol
 _atom_site_label
 _atom_site_symmetry_multiplicity
 _atom_site_fract_x
 _atom_site_fract_y
 _atom_site_fract_z
 _atom_site_occupancy
  Li  Li0  1  0.190121  0.809879  0.439027  1
  Li  Li1  1  0.190474  0.809526  0.059358  1
  Li  Li2  1  0.811490  0.188510  0.938330  1
  Y  Y3  1  0.550445  0.449555  0.252267  1
  Y  Y4  1  0.448330  0.551670  0.749938  1
  Y  Y5  1  0.344148  0.655852  0.254336  1
  Y  Y6  1  0.655915  0.344085  0.740810  1
  Si  Si7  1  0.941172  0.058828  0.078658  1
  Si  Si8  1  0.059821  0.940179  0.928351  1
  Si  Si9  1  0.057873  0.942127  0.574464  1
  Si  Si10  1  0.935570  0.064430  0.435486  1
  Si  Si11  1  0.722328  0.277672  0.266206  1
  Si  Si12  1  0.283294  0.716706  0.722428  1
  Rh  Rh13  1  0.809017  0.190983  0.560340  1
