# generated using pymatgen
data_La12Sn3AuI12
_symmetry_space_group_name_H-M   'P 1'
_cell_length_a   11.22278567
_cell_length_b   11.22421069
_cell_length_c   11.22421001
_cell_angle_alpha   109.47379246
_cell_angle_beta   109.46864487
_cell_angle_gamma   109.46865141
_symmetry_Int_Tables_number   1
_chemical_formula_structural   La12Sn3AuI12
_chemical_formula_sum   'La12 Sn3 Au1 I12'
_cell_volume   1088.43917021
_cell_formula_units_Z   1
loop_
 _symmetry_equiv_pos_site_id
 _symmetry_equiv_pos_as_xyz
  1  'x, y, z'
loop_
 _atom_site_type_symbol
 _atom_site_label
 _atom_site_symmetry_multiplicity
 _atom_site_fract_x
 _atom_site_fract_y
 _atom_site_fract_z
 _atom_site_occupancy
  La  La0  1  0.477532  0.493379  0.235190  1
  La  La1  1  0.750000  0.242598  0.257402  1
  La  La2  1  0.750000  0.007664  0.492336  1
  La  La3  1  0.242336  0.484670  0.492336  1
  La  La4  1  0.257658  0.741811  0.235190  1
  La  La5  1  0.022468  0.264810  0.006621  1
  La  La6  1  0.007402  0.014806  0.257402  1
  La  La7  1  0.484154  0.741811  0.006621  1
  La  La8  1  0.492598  0.242598  0.485194  1
  La  La9  1  0.015846  0.493379  0.758189  1
  La  La10  1  0.257664  0.007664  0.015330  1
  La  La11  1  0.242342  0.264810  0.758189  1
  Sn  Sn12  1  0.250000  0.249696  0.250304  1
  Sn  Sn13  1  0.500304  0.000608  0.250304  1
  Sn  Sn14  1  0.999696  0.249696  0.499392  1
  Au  Au15  1  0.250000  0.500000  0.000000  1
  I  I16  1  0.250000  0.757524  0.742476  1
  I  I17  1  0.515034  0.507513  0.756991  1
  I  I18  1  0.984966  0.743009  0.992487  1
  I  I19  1  0.741958  0.249478  0.756991  1
  I  I20  1  0.992476  0.984950  0.742476  1
  I  I21  1  0.250000  0.993303  0.506697  1
  I  I22  1  0.756697  0.513396  0.506697  1
  I  I23  1  0.507520  0.249478  0.992487  1
  I  I24  1  0.758042  0.743009  0.250522  1
  I  I25  1  0.743303  0.993303  0.986604  1
  I  I26  1  0.992480  0.507513  0.250522  1
  I  I27  1  0.507524  0.757524  0.515050  1
