# generated using pymatgen
data_K3PuF7
_symmetry_space_group_name_H-M   'P 1'
_cell_length_a   6.08788609
_cell_length_b   6.08788556
_cell_length_c   7.15495163
_cell_angle_alpha   114.05587046
_cell_angle_beta   114.05586133
_cell_angle_gamma   88.35577545
_symmetry_Int_Tables_number   1
_chemical_formula_structural   K3PuF7
_chemical_formula_sum   'K3 Pu1 F7'
_cell_volume   218.09162134
_cell_formula_units_Z   1
loop_
 _symmetry_equiv_pos_site_id
 _symmetry_equiv_pos_as_xyz
  1  'x, y, z'
loop_
 _atom_site_type_symbol
 _atom_site_label
 _atom_site_symmetry_multiplicity
 _atom_site_fract_x
 _atom_site_fract_y
 _atom_site_fract_z
 _atom_site_occupancy
  K  K0  1  0.498436  0.498436  0.974866  1
  K  K1  1  0.769133  0.239001  0.509786  1
  K  K2  1  0.239001  0.769133  0.509786  1
  Pu  Pu3  1  0.964278  0.964278  0.978761  1
  F  F4  1  0.863557  0.863557  0.203988  1
  F  F5  1  0.950597  0.320881  0.227470  1
  F  F6  1  0.320881  0.950597  0.227470  1
  F  F7  1  0.640380  0.640380  0.740455  1
  F  F8  1  0.652547  0.089555  0.767528  1
  F  F9  1  0.089555  0.652547  0.767528  1
  F  F10  1  0.136641  0.136641  0.842360  1
