# generated using pymatgen
data_Ho3Mn2Sb3O14
_symmetry_space_group_name_H-M   'P 1'
_cell_length_a   7.23155665
_cell_length_b   7.23156569
_cell_length_c   7.23156300
_cell_angle_alpha   117.98679949
_cell_angle_beta   62.01309291
_cell_angle_gamma   117.98691469
_symmetry_Int_Tables_number   1
_chemical_formula_structural   Ho3Mn2Sb3O14
_chemical_formula_sum   'Ho3 Mn2 Sb3 O14'
_cell_volume   279.45234368
_cell_formula_units_Z   1
loop_
 _symmetry_equiv_pos_site_id
 _symmetry_equiv_pos_as_xyz
  1  'x, y, z'
loop_
 _atom_site_type_symbol
 _atom_site_label
 _atom_site_symmetry_multiplicity
 _atom_site_fract_x
 _atom_site_fract_y
 _atom_site_fract_z
 _atom_site_occupancy
  Ho  Ho0  1  0.999991  0.500001  0.000004  1
  Ho  Ho1  1  0.500004  0.000001  0.999997  1
  Ho  Ho2  1  0.499996  0.500003  0.500004  1
  Mn  Mn3  1  0.500000  0.500004  0.999996  1
  Mn  Mn4  1  0.000008  0.000003  0.500001  1
  Sb  Sb5  1  0.500001  0.999998  0.500000  1
  Sb  Sb6  1  0.000000  0.499998  0.500000  1
  Sb  Sb7  1  0.000001  0.000000  0.000001  1
  O  O8  1  0.619865  0.380129  0.119869  1
  O  O9  1  0.380129  0.619874  0.880126  1
  O  O10  1  0.083701  0.323020  0.176979  1
  O  O11  1  0.676980  0.916299  0.176979  1
  O  O12  1  0.676982  0.323017  0.583699  1
  O  O13  1  0.916298  0.676978  0.823019  1
  O  O14  1  0.323021  0.083698  0.823020  1
  O  O15  1  0.323019  0.676980  0.416304  1
  O  O16  1  0.640746  0.902066  0.597933  1
  O  O17  1  0.097935  0.359258  0.597934  1
  O  O18  1  0.097933  0.902064  0.140743  1
  O  O19  1  0.359261  0.097932  0.402064  1
  O  O20  1  0.902067  0.640744  0.402069  1
  O  O21  1  0.902064  0.097935  0.859261  1
