# generated using pymatgen
data_Tb4Hf3Sc3(Si5Ir2)4
_symmetry_space_group_name_H-M   'P 1'
_cell_length_a   12.46607800
_cell_length_b   12.46607767
_cell_length_c   4.14926000
_cell_angle_alpha   90.00000000
_cell_angle_beta   90.00000000
_cell_angle_gamma   89.98115125
_symmetry_Int_Tables_number   1
_chemical_formula_structural   Tb4Hf3Sc3(Si5Ir2)4
_chemical_formula_sum   'Tb4 Hf3 Sc3 Si20 Ir8'
_cell_volume   644.80781789
_cell_formula_units_Z   1
loop_
 _symmetry_equiv_pos_site_id
 _symmetry_equiv_pos_as_xyz
  1  'x, y, z'
loop_
 _atom_site_type_symbol
 _atom_site_label
 _atom_site_symmetry_multiplicity
 _atom_site_fract_x
 _atom_site_fract_y
 _atom_site_fract_z
 _atom_site_occupancy
  Tb  Tb0  1  0.884451  0.383484  0.500000  1
  Tb  Tb1  1  0.116516  0.615549  0.500000  1
  Tb  Tb2  1  0.383301  0.116699  0.500000  1
  Tb  Tb3  1  0.613791  0.886209  0.500000  1
  Hf  Hf4  1  0.674259  0.175046  0.500000  1
  Hf  Hf5  1  0.324954  0.825741  0.500000  1
  Hf  Hf6  1  0.174780  0.325220  0.500000  1
  Sc  Sc7  1  0.500263  0.500754  0.000000  1
  Sc  Sc8  1  0.999246  0.999737  0.000000  1
  Sc  Sc9  1  0.825575  0.674425  0.500000  1
  Si  Si10  1  0.566986  0.067756  0.000000  1
  Si  Si11  1  0.432244  0.933014  0.000000  1
  Si  Si12  1  0.066991  0.433009  0.000000  1
  Si  Si13  1  0.931992  0.568008  0.000000  1
  Si  Si14  1  0.664704  0.700215  0.000000  1
  Si  Si15  1  0.335182  0.300281  0.000000  1
  Si  Si16  1  0.164993  0.800023  0.000000  1
  Si  Si17  1  0.835575  0.199578  0.000000  1
  Si  Si18  1  0.300422  0.664425  0.000000  1
  Si  Si19  1  0.699977  0.335007  0.000000  1
  Si  Si20  1  0.199719  0.164818  0.000000  1
  Si  Si21  1  0.799785  0.835296  0.000000  1
  Si  Si22  1  0.651764  0.505421  0.500000  1
  Si  Si23  1  0.349065  0.489802  0.500000  1
  Si  Si24  1  0.150394  0.990937  0.500000  1
  Si  Si25  1  0.847896  0.007287  0.500000  1
  Si  Si26  1  0.492713  0.652104  0.500000  1
  Si  Si27  1  0.509063  0.349606  0.500000  1
  Si  Si28  1  0.010198  0.150935  0.500000  1
  Si  Si29  1  0.994579  0.848236  0.500000  1
  Ir  Ir30  1  0.743456  0.521095  0.000000  1
  Ir  Ir31  1  0.256143  0.478539  0.000000  1
  Ir  Ir32  1  0.243535  0.978610  0.000000  1
  Ir  Ir33  1  0.755860  0.022125  0.000000  1
  Ir  Ir34  1  0.477875  0.744140  0.000000  1
  Ir  Ir35  1  0.521390  0.256465  0.000000  1
  Ir  Ir36  1  0.021461  0.243857  0.000000  1
  Ir  Ir37  1  0.978905  0.756544  0.000000  1
