# generated using pymatgen
data_Tb4TaOs6W
_symmetry_space_group_name_H-M   'P 1'
_cell_length_a   5.27252023
_cell_length_b   5.27251982
_cell_length_c   9.06849700
_cell_angle_alpha   90.00000000
_cell_angle_beta   90.00000000
_cell_angle_gamma   115.71575768
_symmetry_Int_Tables_number   1
_chemical_formula_structural   Tb4TaOs6W
_chemical_formula_sum   'Tb4 Ta1 Os6 W1'
_cell_volume   227.13088877
_cell_formula_units_Z   1
loop_
 _symmetry_equiv_pos_site_id
 _symmetry_equiv_pos_as_xyz
  1  'x, y, z'
loop_
 _atom_site_type_symbol
 _atom_site_label
 _atom_site_symmetry_multiplicity
 _atom_site_fract_x
 _atom_site_fract_y
 _atom_site_fract_z
 _atom_site_occupancy
  Tb  Tb0  1  0.329970  0.670030  0.437489  1
  Tb  Tb1  1  0.669109  0.330891  0.566290  1
  Tb  Tb2  1  0.669109  0.330891  0.933710  1
  Tb  Tb3  1  0.329970  0.670030  0.062511  1
  Ta  Ta4  1  0.842705  0.157295  0.250000  1
  Os  Os5  1  0.002880  0.997120  0.502909  1
  Os  Os6  1  0.002880  0.997120  0.997091  1
  Os  Os7  1  0.823303  0.647633  0.250000  1
  Os  Os8  1  0.352367  0.176697  0.250000  1
  Os  Os9  1  0.173228  0.354059  0.750000  1
  Os  Os10  1  0.645941  0.826772  0.750000  1
  W  W11  1  0.158539  0.841461  0.750000  1
