# generated using pymatgen
data_Sr4TlPt4Pb
_symmetry_space_group_name_H-M   'P 1'
_cell_length_a   6.01433186
_cell_length_b   6.01433205
_cell_length_c   8.58289900
_cell_angle_alpha   78.34957416
_cell_angle_beta   78.34957379
_cell_angle_gamma   60.29499857
_symmetry_Int_Tables_number   1
_chemical_formula_structural   Sr4TlPt4Pb
_chemical_formula_sum   'Sr4 Tl1 Pt4 Pb1'
_cell_volume   262.20767232
_cell_formula_units_Z   1
loop_
 _symmetry_equiv_pos_site_id
 _symmetry_equiv_pos_as_xyz
  1  'x, y, z'
loop_
 _atom_site_type_symbol
 _atom_site_label
 _atom_site_symmetry_multiplicity
 _atom_site_fract_x
 _atom_site_fract_y
 _atom_site_fract_z
 _atom_site_occupancy
  Sr  Sr0  1  0.504059  0.792110  0.350981  1
  Sr  Sr1  1  0.207890  0.495941  0.149019  1
  Sr  Sr2  1  0.497216  0.205152  0.647021  1
  Sr  Sr3  1  0.794848  0.502784  0.852979  1
  Tl  Tl4  1  0.144810  0.855190  0.750000  1
  Pt  Pt5  1  0.276736  0.998178  0.999368  1
  Pt  Pt6  1  0.001822  0.723264  0.500632  1
  Pt  Pt7  1  0.718976  0.000096  0.998920  1
  Pt  Pt8  1  0.999904  0.281024  0.501080  1
  Pb  Pb9  1  0.853739  0.146261  0.250000  1
