# generated using pymatgen
data_NdP12Ru3Rh
_symmetry_space_group_name_H-M   'P 1'
_cell_length_a   7.03608775
_cell_length_b   7.02178645
_cell_length_c   7.02178682
_cell_angle_alpha   109.42993425
_cell_angle_beta   109.51248792
_cell_angle_gamma   109.51247809
_symmetry_Int_Tables_number   1
_chemical_formula_structural   NdP12Ru3Rh
_chemical_formula_sum   'Nd1 P12 Ru3 Rh1'
_cell_volume   266.92125805
_cell_formula_units_Z   1
loop_
 _symmetry_equiv_pos_site_id
 _symmetry_equiv_pos_as_xyz
  1  'x, y, z'
loop_
 _atom_site_type_symbol
 _atom_site_label
 _atom_site_symmetry_multiplicity
 _atom_site_fract_x
 _atom_site_fract_y
 _atom_site_fract_z
 _atom_site_occupancy
  Nd  Nd0  1  0.000000  0.000000  0.000000  1
  P  P1  1  0.354576  0.214234  0.855395  1
  P  P2  1  0.645424  0.785766  0.144605  1
  P  P3  1  0.644354  0.500640  0.856712  1
  P  P4  1  0.355646  0.499360  0.143288  1
  P  P5  1  0.212358  0.856712  0.356073  1
  P  P6  1  0.787642  0.143288  0.643927  1
  P  P7  1  0.500819  0.855395  0.641161  1
  P  P8  1  0.499181  0.144605  0.358839  1
  P  P9  1  0.859658  0.358839  0.214234  1
  P  P10  1  0.140342  0.641161  0.785766  1
  P  P11  1  0.856285  0.643927  0.500640  1
  P  P12  1  0.143715  0.356073  0.499360  1
  Ru  Ru13  1  0.000000  0.000000  0.500000  1
  Ru  Ru14  1  0.000000  0.500000  0.000000  1
  Ru  Ru15  1  0.500000  0.500000  0.500000  1
  Rh  Rh16  1  0.500000  0.000000  0.000000  1
