# generated using pymatgen
data_Sc4TcBr5
_symmetry_space_group_name_H-M   'P 1'
_cell_length_a   11.16893000
_cell_length_b   11.16893000
_cell_length_c   16.22913100
_cell_angle_alpha   90.00000000
_cell_angle_beta   90.00000000
_cell_angle_gamma   90.00000000
_symmetry_Int_Tables_number   1
_chemical_formula_structural   Sc4TcBr5
_chemical_formula_sum   'Sc32 Tc8 Br40'
_cell_volume   2024.50290351
_cell_formula_units_Z   8
loop_
 _symmetry_equiv_pos_site_id
 _symmetry_equiv_pos_as_xyz
  1  'x, y, z'
loop_
 _atom_site_type_symbol
 _atom_site_label
 _atom_site_symmetry_multiplicity
 _atom_site_fract_x
 _atom_site_fract_y
 _atom_site_fract_z
 _atom_site_occupancy
  Sc  Sc0  1  0.362836  0.637164  0.098951  1
  Sc  Sc1  1  0.862836  0.862836  0.598951  1
  Sc  Sc2  1  0.137164  0.137164  0.598951  1
  Sc  Sc3  1  0.637164  0.362836  0.098951  1
  Sc  Sc4  1  0.137164  0.862836  0.401049  1
  Sc  Sc5  1  0.637164  0.637164  0.901049  1
  Sc  Sc6  1  0.362836  0.362836  0.901049  1
  Sc  Sc7  1  0.862836  0.137164  0.401049  1
  Sc  Sc8  1  0.383607  0.178241  0.076498  1
  Sc  Sc9  1  0.883607  0.321759  0.576498  1
  Sc  Sc10  1  0.116393  0.678241  0.576498  1
  Sc  Sc11  1  0.616393  0.821759  0.076498  1
  Sc  Sc12  1  0.116393  0.321759  0.423502  1
  Sc  Sc13  1  0.616393  0.178241  0.923502  1
  Sc  Sc14  1  0.383607  0.821759  0.923502  1
  Sc  Sc15  1  0.883607  0.678241  0.423502  1
  Sc  Sc16  1  0.178241  0.383607  0.076498  1
  Sc  Sc17  1  0.321759  0.883607  0.576498  1
  Sc  Sc18  1  0.678241  0.116393  0.576498  1
  Sc  Sc19  1  0.821759  0.616393  0.076498  1
  Sc  Sc20  1  0.321759  0.116393  0.423502  1
  Sc  Sc21  1  0.178241  0.616393  0.923502  1
  Sc  Sc22  1  0.821759  0.383607  0.923502  1
  Sc  Sc23  1  0.678241  0.883607  0.423502  1
  Sc  Sc24  1  0.385808  0.385808  0.225947  1
  Sc  Sc25  1  0.885808  0.114192  0.725947  1
  Sc  Sc26  1  0.114192  0.885808  0.725947  1
  Sc  Sc27  1  0.614192  0.614192  0.225947  1
  Sc  Sc28  1  0.114192  0.114192  0.274053  1
  Sc  Sc29  1  0.614192  0.385808  0.774053  1
  Sc  Sc30  1  0.385808  0.614192  0.774053  1
  Sc  Sc31  1  0.885808  0.885808  0.274053  1
  Tc  Tc32  1  0.403841  0.403841  0.067498  1
  Tc  Tc33  1  0.903841  0.096159  0.567498  1
  Tc  Tc34  1  0.096159  0.903841  0.567498  1
  Tc  Tc35  1  0.596159  0.596159  0.067498  1
  Tc  Tc36  1  0.096159  0.096159  0.432502  1
  Tc  Tc37  1  0.596159  0.403841  0.932502  1
  Tc  Tc38  1  0.403841  0.596159  0.932502  1
  Tc  Tc39  1  0.903841  0.903841  0.432502  1
  Br  Br40  1  0.368414  0.131586  0.250000  1
  Br  Br41  1  0.868414  0.368414  0.750000  1
  Br  Br42  1  0.131586  0.631586  0.750000  1
  Br  Br43  1  0.631586  0.868414  0.250000  1
  Br  Br44  1  0.131586  0.368414  0.250000  1
  Br  Br45  1  0.631586  0.131586  0.750000  1
  Br  Br46  1  0.368414  0.868414  0.750000  1
  Br  Br47  1  0.868414  0.631586  0.250000  1
  Br  Br48  1  0.141836  0.141836  0.085398  1
  Br  Br49  1  0.641836  0.358164  0.585398  1
  Br  Br50  1  0.358164  0.641836  0.585398  1
  Br  Br51  1  0.858164  0.858164  0.085398  1
  Br  Br52  1  0.358164  0.358164  0.414602  1
  Br  Br53  1  0.858164  0.141836  0.914602  1
  Br  Br54  1  0.141836  0.858164  0.914602  1
  Br  Br55  1  0.641836  0.641836  0.414602  1
  Br  Br56  1  0.124705  0.875295  0.229797  1
  Br  Br57  1  0.624705  0.624705  0.729797  1
  Br  Br58  1  0.375295  0.375295  0.729797  1
  Br  Br59  1  0.875295  0.124705  0.229797  1
  Br  Br60  1  0.375295  0.624705  0.270203  1
  Br  Br61  1  0.875295  0.875295  0.770203  1
  Br  Br62  1  0.124705  0.124705  0.770203  1
  Br  Br63  1  0.624705  0.375295  0.270203  1
  Br  Br64  1  0.377593  0.894061  0.087261  1
  Br  Br65  1  0.877593  0.605939  0.587261  1
  Br  Br66  1  0.122407  0.394061  0.587261  1
  Br  Br67  1  0.622407  0.105939  0.087261  1
  Br  Br68  1  0.122407  0.605939  0.412739  1
  Br  Br69  1  0.622407  0.894061  0.912739  1
  Br  Br70  1  0.377593  0.105939  0.912739  1
  Br  Br71  1  0.877593  0.394061  0.412739  1
  Br  Br72  1  0.894061  0.377593  0.087261  1
  Br  Br73  1  0.605939  0.877593  0.587261  1
  Br  Br74  1  0.394061  0.122407  0.587261  1
  Br  Br75  1  0.105939  0.622407  0.087261  1
  Br  Br76  1  0.605939  0.122407  0.412739  1
  Br  Br77  1  0.894061  0.622407  0.912739  1
  Br  Br78  1  0.105939  0.377593  0.912739  1
  Br  Br79  1  0.394061  0.877593  0.412739  1
