# generated using pymatgen
data_Ho6Tm10MgCd3Pt4
_symmetry_space_group_name_H-M   'P 1'
_cell_length_a   9.59822866
_cell_length_b   9.59822843
_cell_length_c   9.59822906
_cell_angle_alpha   59.93552529
_cell_angle_beta   59.93552476
_cell_angle_gamma   59.93552031
_symmetry_Int_Tables_number   1
_chemical_formula_structural   Ho6Tm10MgCd3Pt4
_chemical_formula_sum   'Ho6 Tm10 Mg1 Cd3 Pt4'
_cell_volume   624.34220381
_cell_formula_units_Z   1
loop_
 _symmetry_equiv_pos_site_id
 _symmetry_equiv_pos_as_xyz
  1  'x, y, z'
loop_
 _atom_site_type_symbol
 _atom_site_label
 _atom_site_symmetry_multiplicity
 _atom_site_fract_x
 _atom_site_fract_y
 _atom_site_fract_z
 _atom_site_occupancy
  Ho  Ho0  1  0.185233  0.816096  0.816096  1
  Ho  Ho1  1  0.812948  0.187248  0.187248  1
  Ho  Ho2  1  0.816096  0.185233  0.816096  1
  Ho  Ho3  1  0.187248  0.812948  0.187248  1
  Ho  Ho4  1  0.816096  0.816096  0.185233  1
  Ho  Ho5  1  0.187248  0.187248  0.812948  1
  Tm  Tm6  1  0.599691  0.599691  0.599691  1
  Tm  Tm7  1  0.603463  0.603463  0.193137  1
  Tm  Tm8  1  0.603463  0.193137  0.603463  1
  Tm  Tm9  1  0.193137  0.603463  0.603463  1
  Tm  Tm10  1  0.059881  0.440771  0.440771  1
  Tm  Tm11  1  0.438298  0.062080  0.062080  1
  Tm  Tm12  1  0.440771  0.059881  0.440771  1
  Tm  Tm13  1  0.062080  0.438298  0.062080  1
  Tm  Tm14  1  0.440771  0.440771  0.059881  1
  Tm  Tm15  1  0.062080  0.062080  0.438298  1
  Mg  Mg16  1  0.826758  0.826758  0.826758  1
  Cd  Cd17  1  0.831144  0.831144  0.503758  1
  Cd  Cd18  1  0.831144  0.503758  0.831144  1
  Cd  Cd19  1  0.503758  0.831144  0.831144  1
  Pt  Pt20  1  0.393798  0.393798  0.393798  1
  Pt  Pt21  1  0.391703  0.391703  0.821486  1
  Pt  Pt22  1  0.391703  0.821486  0.391703  1
  Pt  Pt23  1  0.821486  0.391703  0.391703  1
