# generated using pymatgen
data_Ba2YbUO6
_symmetry_space_group_name_H-M   'P 1'
_cell_length_a   6.17846283
_cell_length_b   6.12592400
_cell_length_c   8.67179100
_cell_angle_alpha   90.00000000
_cell_angle_beta   90.12124142
_cell_angle_gamma   90.00000000
_symmetry_Int_Tables_number   1
_chemical_formula_structural   Ba2YbUO6
_chemical_formula_sum   'Ba4 Yb2 U2 O12'
_cell_volume   328.21609417
_cell_formula_units_Z   2
loop_
 _symmetry_equiv_pos_site_id
 _symmetry_equiv_pos_as_xyz
  1  'x, y, z'
loop_
 _atom_site_type_symbol
 _atom_site_label
 _atom_site_symmetry_multiplicity
 _atom_site_fract_x
 _atom_site_fract_y
 _atom_site_fract_z
 _atom_site_occupancy
  Ba  Ba0  1  0.494245  0.482985  0.249512  1
  Ba  Ba1  1  0.005766  0.982910  0.250486  1
  Ba  Ba2  1  0.994235  0.017089  0.749513  1
  Ba  Ba3  1  0.505752  0.517016  0.750487  1
  Yb  Yb4  1  0.499999  0.000002  0.999998  1
  Yb  Yb5  1  0.999998  0.500000  0.500002  1
  U  U6  1  0.999998  0.500001  0.999996  1
  U  U7  1  0.500001  0.999999  0.500002  1
  O  O8  1  0.256096  0.718814  0.035315  1
  O  O9  1  0.216955  0.241300  0.037968  1
  O  O10  1  0.931351  0.510570  0.236622  1
  O  O11  1  0.568635  0.010490  0.263378  1
  O  O12  1  0.283029  0.741258  0.462048  1
  O  O13  1  0.243910  0.218789  0.464672  1
  O  O14  1  0.756092  0.781210  0.535326  1
  O  O15  1  0.716972  0.258741  0.537950  1
  O  O16  1  0.431365  0.989513  0.736625  1
  O  O17  1  0.068645  0.489429  0.763380  1
  O  O18  1  0.783047  0.758696  0.962034  1
  O  O19  1  0.743901  0.281185  0.964686  1
