# generated using pymatgen
data_Ca3YRuRh3O14
_symmetry_space_group_name_H-M   'P 1'
_cell_length_a   7.23327173
_cell_length_b   7.23326934
_cell_length_c   7.28832282
_cell_angle_alpha   60.24954710
_cell_angle_beta   60.24955822
_cell_angle_gamma   60.00000304
_symmetry_Int_Tables_number   1
_chemical_formula_structural   Ca3YRuRh3O14
_chemical_formula_sum   'Ca3 Y1 Ru1 Rh3 O14'
_cell_volume   270.65118055
_cell_formula_units_Z   1
loop_
 _symmetry_equiv_pos_site_id
 _symmetry_equiv_pos_as_xyz
  1  'x, y, z'
loop_
 _atom_site_type_symbol
 _atom_site_label
 _atom_site_symmetry_multiplicity
 _atom_site_fract_x
 _atom_site_fract_y
 _atom_site_fract_z
 _atom_site_occupancy
  Ca  Ca0  1  0.625000  0.125000  0.625000  1
  Ca  Ca1  1  0.125000  0.625000  0.625000  1
  Ca  Ca2  1  0.625000  0.625000  0.625000  1
  Y  Y3  1  0.625000  0.625000  0.125000  1
  Ru  Ru4  1  0.125000  0.125000  0.625000  1
  Rh  Rh5  1  0.625000  0.125000  0.125000  1
  Rh  Rh6  1  0.125000  0.625000  0.125000  1
  Rh  Rh7  1  0.125000  0.125000  0.125000  1
  O  O8  1  0.195502  0.195502  0.801719  1
  O  O9  1  0.206014  0.795145  0.203694  1
  O  O10  1  0.454855  0.043986  0.046306  1
  O  O11  1  0.195502  0.807277  0.801719  1
  O  O12  1  0.054498  0.442723  0.448281  1
  O  O13  1  0.795145  0.795145  0.203694  1
  O  O14  1  0.454855  0.454855  0.046306  1
  O  O15  1  0.503083  0.503083  0.490750  1
  O  O16  1  0.054498  0.054498  0.448281  1
  O  O17  1  0.442723  0.054498  0.448281  1
  O  O18  1  0.043986  0.454855  0.046306  1
  O  O19  1  0.746917  0.746917  0.759250  1
  O  O20  1  0.807277  0.195502  0.801719  1
  O  O21  1  0.795145  0.206014  0.203694  1
