# generated using pymatgen
data_HfZr7Fe6(Co5P6)2
_symmetry_space_group_name_H-M   'P 1'
_cell_length_a   12.10302119
_cell_length_b   12.16145956
_cell_length_c   3.67642200
_cell_angle_alpha   90.00000000
_cell_angle_beta   90.00000000
_cell_angle_gamma   119.99573863
_symmetry_Int_Tables_number   1
_chemical_formula_structural   HfZr7Fe6(Co5P6)2
_chemical_formula_sum   'Hf1 Zr7 Fe6 Co10 P12'
_cell_volume   468.65594287
_cell_formula_units_Z   1
loop_
 _symmetry_equiv_pos_site_id
 _symmetry_equiv_pos_as_xyz
  1  'x, y, z'
loop_
 _atom_site_type_symbol
 _atom_site_label
 _atom_site_symmetry_multiplicity
 _atom_site_fract_x
 _atom_site_fract_y
 _atom_site_fract_z
 _atom_site_occupancy
  Hf  Hf0  1  0.000405  0.559506  0.000000  1
  Zr  Zr1  1  0.815785  0.815760  0.500000  1
  Zr  Zr2  1  0.441284  0.440471  0.000000  1
  Zr  Zr3  1  0.999463  0.185086  0.500000  1
  Zr  Zr4  1  0.558013  0.998491  0.000000  1
  Zr  Zr5  1  0.334908  0.667334  0.000000  1
  Zr  Zr6  1  0.666520  0.332607  0.000000  1
  Zr  Zr7  1  0.183482  0.001131  0.500000  1
  Fe  Fe8  1  0.626891  0.819214  0.000000  1
  Fe  Fe9  1  0.372381  0.192942  0.000000  1
  Fe  Fe10  1  0.000437  0.724866  0.500000  1
  Fe  Fe11  1  0.272919  0.276415  0.500000  1
  Fe  Fe12  1  0.876986  0.355729  0.500000  1
  Fe  Fe13  1  0.726209  0.001750  0.500000  1
  Co  Co14  1  0.820320  0.627470  0.000000  1
  Co  Co15  1  0.180476  0.808476  0.000000  1
  Co  Co16  1  0.355905  0.872452  0.500000  1
  Co  Co17  1  0.128771  0.486962  0.500000  1
  Co  Co18  1  0.644868  0.515941  0.500000  1
  Co  Co19  1  0.999846  0.000285  0.000000  1
  Co  Co20  1  0.519193  0.642872  0.500000  1
  Co  Co21  1  0.480632  0.123858  0.500000  1
  Co  Co22  1  0.189947  0.372949  0.000000  1
  Co  Co23  1  0.807081  0.179299  0.000000  1
  P  P24  1  0.997081  0.350452  0.000000  1
  P  P25  1  0.828345  0.518296  0.500000  1
  P  P26  1  0.693483  0.173949  0.500000  1
  P  P27  1  0.178031  0.177706  0.000000  1
  P  P28  1  0.650884  0.651575  0.000000  1
  P  P29  1  0.821120  0.997981  0.000000  1
  P  P30  1  0.522993  0.825911  0.500000  1
  P  P31  1  0.173101  0.693915  0.500000  1
  P  P32  1  0.349039  0.002005  0.000000  1
  P  P33  1  0.477197  0.303214  0.500000  1
  P  P34  1  0.999617  0.822887  0.000000  1
  P  P35  1  0.306385  0.480237  0.500000  1
