# generated using pymatgen
data_Nd6MgCo14P12RuRh2
_symmetry_space_group_name_H-M   'P 1'
_cell_length_a   3.80108500
_cell_length_b   10.84569500
_cell_length_c   12.65518500
_cell_angle_alpha   90.00000000
_cell_angle_beta   90.00000000
_cell_angle_gamma   90.00000000
_symmetry_Int_Tables_number   1
_chemical_formula_structural   Nd6MgCo14P12RuRh2
_chemical_formula_sum   'Nd6 Mg1 Co14 P12 Ru1 Rh2'
_cell_volume   521.71517227
_cell_formula_units_Z   1
loop_
 _symmetry_equiv_pos_site_id
 _symmetry_equiv_pos_as_xyz
  1  'x, y, z'
loop_
 _atom_site_type_symbol
 _atom_site_label
 _atom_site_symmetry_multiplicity
 _atom_site_fract_x
 _atom_site_fract_y
 _atom_site_fract_z
 _atom_site_occupancy
  Nd  Nd0  1  0.000000  0.500000  0.520724  1
  Nd  Nd1  1  0.500000  0.000000  0.479888  1
  Nd  Nd2  1  0.500000  0.816468  0.206277  1
  Nd  Nd3  1  0.500000  0.183532  0.206277  1
  Nd  Nd4  1  0.000000  0.684647  0.795640  1
  Nd  Nd5  1  0.000000  0.315353  0.795640  1
  Mg  Mg6  1  0.500000  0.500000  0.151970  1
  Co  Co7  1  0.000000  0.500000  0.988642  1
  Co  Co8  1  0.500000  0.000000  0.007892  1
  Co  Co9  1  0.500000  0.328583  0.995016  1
  Co  Co10  1  0.500000  0.671417  0.995016  1
  Co  Co11  1  0.000000  0.164785  0.002699  1
  Co  Co12  1  0.000000  0.835215  0.002699  1
  Co  Co13  1  0.500000  0.294956  0.433436  1
  Co  Co14  1  0.500000  0.705044  0.433436  1
  Co  Co15  1  0.000000  0.201008  0.570556  1
  Co  Co16  1  0.000000  0.798992  0.570556  1
  Co  Co17  1  0.500000  0.883805  0.708710  1
  Co  Co18  1  0.500000  0.116195  0.708710  1
  Co  Co19  1  0.000000  0.619661  0.294160  1
  Co  Co20  1  0.000000  0.380339  0.294160  1
  P  P21  1  0.500000  0.500000  0.893902  1
  P  P22  1  0.000000  0.000000  0.106237  1
  P  P23  1  0.500000  0.500000  0.349332  1
  P  P24  1  0.000000  0.000000  0.656915  1
  P  P25  1  0.500000  0.298946  0.613211  1
  P  P26  1  0.500000  0.701054  0.613211  1
  P  P27  1  0.000000  0.200051  0.389386  1
  P  P28  1  0.000000  0.799949  0.389386  1
  P  P29  1  0.500000  0.849013  0.892906  1
  P  P30  1  0.500000  0.150987  0.892906  1
  P  P31  1  0.000000  0.660304  0.099005  1
  P  P32  1  0.000000  0.339696  0.099005  1
  Ru  Ru33  1  0.000000  0.000000  0.842759  1
  Rh  Rh34  1  0.500000  0.500000  0.704890  1
  Rh  Rh35  1  0.000000  0.000000  0.294843  1
