# generated using pymatgen
data_SmMn4Tl3F28
_symmetry_space_group_name_H-M   'P 1'
_cell_length_a   5.40073225
_cell_length_b   8.67069629
_cell_length_c   11.65725300
_cell_angle_alpha   62.47729084
_cell_angle_beta   90.09387812
_cell_angle_gamma   90.03605284
_symmetry_Int_Tables_number   1
_chemical_formula_structural   SmMn4Tl3F28
_chemical_formula_sum   'Sm1 Mn4 Tl3 F28'
_cell_volume   484.10718701
_cell_formula_units_Z   1
loop_
 _symmetry_equiv_pos_site_id
 _symmetry_equiv_pos_as_xyz
  1  'x, y, z'
loop_
 _atom_site_type_symbol
 _atom_site_label
 _atom_site_symmetry_multiplicity
 _atom_site_fract_x
 _atom_site_fract_y
 _atom_site_fract_z
 _atom_site_occupancy
  Sm  Sm0  1  0.740337  0.811792  0.264492  1
  Mn  Mn1  1  0.761729  0.278022  0.953546  1
  Mn  Mn2  1  0.258992  0.723585  0.548174  1
  Mn  Mn3  1  0.242306  0.723131  0.041813  1
  Mn  Mn4  1  0.738476  0.272211  0.456802  1
  Tl  Tl5  1  0.763433  0.812391  0.763244  1
  Tl  Tl6  1  0.263469  0.188192  0.736716  1
  Tl  Tl7  1  0.234350  0.192974  0.236203  1
  F  F8  1  0.424198  0.700017  0.919162  1
  F  F9  1  0.919401  0.295510  0.579988  1
  F  F10  1  0.580817  0.302220  0.075642  1
  F  F11  1  0.073943  0.706167  0.422521  1
  F  F12  1  0.443965  0.278034  0.536246  1
  F  F13  1  0.947265  0.715609  0.963144  1
  F  F14  1  0.547445  0.719257  0.465470  1
  F  F15  1  0.055710  0.285596  0.031635  1
  F  F16  1  0.777769  0.517394  0.855928  1
  F  F17  1  0.274814  0.482138  0.640774  1
  F  F18  1  0.225340  0.482862  0.140039  1
  F  F19  1  0.720843  0.510729  0.362850  1
  F  F20  1  0.761575  0.040609  0.045085  1
  F  F21  1  0.259232  0.959266  0.462272  1
  F  F22  1  0.240958  0.960024  0.955519  1
  F  F23  1  0.739835  0.034915  0.543700  1
  F  F24  1  0.969203  0.721072  0.632772  1
  F  F25  1  0.471342  0.276075  0.869137  1
  F  F26  1  0.029528  0.278001  0.371630  1
  F  F27  1  0.527028  0.724732  0.127733  1
  F  F28  1  0.063347  0.737200  0.172035  1
  F  F29  1  0.560223  0.260378  0.323277  1
  F  F30  1  0.939583  0.261269  0.821905  1
  F  F31  1  0.438945  0.733035  0.680724  1
  F  F32  1  0.385538  0.971720  0.223874  1
  F  F33  1  0.894583  0.044389  0.275405  1
  F  F34  1  0.612054  0.034326  0.777887  1
  F  F35  1  0.112424  0.965156  0.722657  1
