# generated using pymatgen
data_Mn8Si4Mo12C3N
_symmetry_space_group_name_H-M   'P 1'
_cell_length_a   7.87691444
_cell_length_b   7.87983862
_cell_length_c   7.87977101
_cell_angle_alpha   59.99544602
_cell_angle_beta   59.99085871
_cell_angle_gamma   59.98955606
_symmetry_Int_Tables_number   1
_chemical_formula_structural   Mn8Si4Mo12C3N
_chemical_formula_sum   'Mn8 Si4 Mo12 C3 N1'
_cell_volume   345.77437691
_cell_formula_units_Z   1
loop_
 _symmetry_equiv_pos_site_id
 _symmetry_equiv_pos_as_xyz
  1  'x, y, z'
loop_
 _atom_site_type_symbol
 _atom_site_label
 _atom_site_symmetry_multiplicity
 _atom_site_fract_x
 _atom_site_fract_y
 _atom_site_fract_z
 _atom_site_occupancy
  Mn  Mn0  1  0.241076  0.919664  0.919678  1
  Mn  Mn1  1  0.919661  0.240534  0.919955  1
  Mn  Mn2  1  0.330343  0.330098  0.330054  1
  Mn  Mn3  1  0.330339  0.009466  0.330045  1
  Mn  Mn4  1  0.330337  0.330076  0.009433  1
  Mn  Mn5  1  0.008924  0.330336  0.330322  1
  Mn  Mn6  1  0.919657  0.919902  0.919946  1
  Mn  Mn7  1  0.919663  0.919924  0.240567  1
  Si  Si8  1  0.125000  0.125000  0.625000  1
  Si  Si9  1  0.125000  0.625000  0.125000  1
  Si  Si10  1  0.625000  0.125000  0.125000  1
  Si  Si11  1  0.125000  0.125000  0.125000  1
  Mo  Mo12  1  0.551055  0.551774  0.948583  1
  Mo  Mo13  1  0.947858  0.948353  0.551885  1
  Mo  Mo14  1  0.698945  0.698226  0.301417  1
  Mo  Mo15  1  0.302147  0.698088  0.698112  1
  Mo  Mo16  1  0.698952  0.301402  0.301409  1
  Mo  Mo17  1  0.302142  0.301647  0.698115  1
  Mo  Mo18  1  0.551029  0.948624  0.551726  1
  Mo  Mo19  1  0.302178  0.698063  0.301692  1
  Mo  Mo20  1  0.947822  0.551937  0.948308  1
  Mo  Mo21  1  0.947853  0.551912  0.551888  1
  Mo  Mo22  1  0.698971  0.301376  0.698274  1
  Mo  Mo23  1  0.551048  0.948598  0.948591  1
  C  C24  1  0.625000  0.625000  0.125000  1
  C  C25  1  0.625000  0.125000  0.625000  1
  C  C26  1  0.625000  0.625000  0.625000  1
  N  N27  1  0.125000  0.625000  0.625000  1
