# generated using pymatgen
data_Nb12Al8Fe3CuN4
_symmetry_space_group_name_H-M   'P 1'
_cell_length_a   8.18459625
_cell_length_b   8.18459777
_cell_length_c   8.18459575
_cell_angle_alpha   60.44458207
_cell_angle_beta   60.44458499
_cell_angle_gamma   60.44458048
_symmetry_Int_Tables_number   1
_chemical_formula_structural   Nb12Al8Fe3CuN4
_chemical_formula_sum   'Nb12 Al8 Fe3 Cu1 N4'
_cell_volume   391.57973018
_cell_formula_units_Z   1
loop_
 _symmetry_equiv_pos_site_id
 _symmetry_equiv_pos_as_xyz
  1  'x, y, z'
loop_
 _atom_site_type_symbol
 _atom_site_label
 _atom_site_symmetry_multiplicity
 _atom_site_fract_x
 _atom_site_fract_y
 _atom_site_fract_z
 _atom_site_occupancy
  Nb  Nb0  1  0.558543  0.941579  0.558543  1
  Nb  Nb1  1  0.308421  0.691457  0.691457  1
  Nb  Nb2  1  0.691306  0.308195  0.308195  1
  Nb  Nb3  1  0.308195  0.691306  0.308195  1
  Nb  Nb4  1  0.691457  0.691457  0.308421  1
  Nb  Nb5  1  0.308195  0.308195  0.691306  1
  Nb  Nb6  1  0.558543  0.558543  0.941579  1
  Nb  Nb7  1  0.941579  0.558543  0.558543  1
  Nb  Nb8  1  0.558694  0.941805  0.941805  1
  Nb  Nb9  1  0.941805  0.941805  0.558694  1
  Nb  Nb10  1  0.691457  0.308421  0.691457  1
  Nb  Nb11  1  0.941805  0.558694  0.941805  1
  Al  Al12  1  0.917797  0.917797  0.917797  1
  Al  Al13  1  0.001324  0.334532  0.334532  1
  Al  Al14  1  0.334532  0.001324  0.334532  1
  Al  Al15  1  0.334532  0.334532  0.001324  1
  Al  Al16  1  0.915468  0.248676  0.915468  1
  Al  Al17  1  0.915468  0.915468  0.248676  1
  Al  Al18  1  0.248676  0.915468  0.915468  1
  Al  Al19  1  0.332203  0.332203  0.332203  1
  Fe  Fe20  1  0.625000  0.125000  0.125000  1
  Fe  Fe21  1  0.125000  0.625000  0.125000  1
  Fe  Fe22  1  0.125000  0.125000  0.625000  1
  Cu  Cu23  1  0.125000  0.125000  0.125000  1
  N  N24  1  0.625000  0.625000  0.625000  1
  N  N25  1  0.125000  0.625000  0.625000  1
  N  N26  1  0.625000  0.125000  0.625000  1
  N  N27  1  0.625000  0.625000  0.125000  1
