# generated using pymatgen
data_Cr6H7
_symmetry_space_group_name_H-M   'P 1'
_cell_length_a   4.70798519
_cell_length_b   4.70759911
_cell_length_c   6.41735187
_cell_angle_alpha   111.51431220
_cell_angle_beta   111.52053898
_cell_angle_gamma   120.02115161
_symmetry_Int_Tables_number   1
_chemical_formula_structural   Cr6H7
_chemical_formula_sum   'Cr6 H7'
_cell_volume   83.66232116
_cell_formula_units_Z   1
loop_
 _symmetry_equiv_pos_site_id
 _symmetry_equiv_pos_as_xyz
  1  'x, y, z'
loop_
 _atom_site_type_symbol
 _atom_site_label
 _atom_site_symmetry_multiplicity
 _atom_site_fract_x
 _atom_site_fract_y
 _atom_site_fract_z
 _atom_site_occupancy
  Cr  Cr0  1  0.558676  0.706276  0.161400  1
  Cr  Cr1  1  0.034505  0.524162  0.637718  1
  Cr  Cr2  1  0.216840  0.048498  0.161714  1
  Cr  Cr3  1  0.375309  0.197908  0.644929  1
  Cr  Cr4  1  0.708868  0.865137  0.645009  1
  Cr  Cr5  1  0.901258  0.390649  0.161495  1
  H  H6  1  0.429440  0.919722  0.032080  1
  H  H7  1  0.921382  0.411586  0.886480  1
  H  H8  1  0.283170  0.135761  0.886102  1
  H  H9  1  0.462429  0.952539  0.399537  1
  H  H10  1  0.645658  0.773404  0.885952  1
  H  H11  1  0.796355  0.620889  0.399309  1
  H  H12  1  0.130937  0.286900  0.399499  1
