# generated using pymatgen
data_Y4Ho2TiAl23Os8
_symmetry_space_group_name_H-M   'P 1'
_cell_length_a   8.85677900
_cell_length_b   8.85959342
_cell_length_c   9.56439000
_cell_angle_alpha   90.00084282
_cell_angle_beta   90.00001246
_cell_angle_gamma   119.98939833
_symmetry_Int_Tables_number   1
_chemical_formula_structural   Y4Ho2TiAl23Os8
_chemical_formula_sum   'Y4 Ho2 Ti1 Al23 Os8'
_cell_volume   650.01577095
_cell_formula_units_Z   1
loop_
 _symmetry_equiv_pos_site_id
 _symmetry_equiv_pos_as_xyz
  1  'x, y, z'
loop_
 _atom_site_type_symbol
 _atom_site_label
 _atom_site_symmetry_multiplicity
 _atom_site_fract_x
 _atom_site_fract_y
 _atom_site_fract_z
 _atom_site_occupancy
  Y  Y0  1  0.612817  0.806354  0.250723  1
  Y  Y1  1  0.385751  0.192922  0.748256  1
  Y  Y2  1  0.193536  0.806352  0.250721  1
  Y  Y3  1  0.807174  0.192924  0.748257  1
  Ho  Ho4  1  0.193819  0.387637  0.250527  1
  Ho  Ho5  1  0.806926  0.613845  0.748155  1
  Ti  Ti6  1  0.333259  0.666518  0.991474  1
  Al  Al7  1  0.666741  0.333484  0.981754  1
  Al  Al8  1  0.666694  0.333387  0.516511  1
  Al  Al9  1  0.333284  0.666568  0.482322  1
  Al  Al10  1  0.162495  0.324990  0.574776  1
  Al  Al11  1  0.837086  0.674173  0.424999  1
  Al  Al12  1  0.675073  0.837438  0.575115  1
  Al  Al13  1  0.836815  0.673630  0.076186  1
  Al  Al14  1  0.325793  0.163005  0.424701  1
  Al  Al15  1  0.159715  0.319428  0.926510  1
  Al  Al16  1  0.162365  0.837438  0.575115  1
  Al  Al17  1  0.326291  0.163248  0.076495  1
  Al  Al18  1  0.837212  0.163005  0.424701  1
  Al  Al19  1  0.680580  0.840176  0.926163  1
  Al  Al20  1  0.836956  0.163247  0.076496  1
  Al  Al21  1  0.159597  0.840176  0.926163  1
  Al  Al22  1  0.561596  0.123193  0.253016  1
  Al  Al23  1  0.441038  0.882076  0.749958  1
  Al  Al24  1  0.877012  0.438308  0.253010  1
  Al  Al25  1  0.117705  0.559070  0.749993  1
  Al  Al26  1  0.561296  0.438309  0.253010  1
  Al  Al27  1  0.441366  0.559070  0.749993  1
  Al  Al28  1  0.000314  0.000628  0.249963  1
  Al  Al29  1  0.999707  0.999415  0.749319  1
  Os  Os30  1  0.499050  0.998100  0.002609  1
  Os  Os31  1  0.001927  0.500915  0.002666  1
  Os  Os32  1  0.499535  0.999073  0.502638  1
  Os  Os33  1  0.498987  0.500914  0.002668  1
  Os  Os34  1  0.000870  0.500492  0.502697  1
  Os  Os35  1  0.499622  0.500491  0.502699  1
  Os  Os36  1  0.999999  0.999999  0.000204  1
  Os  Os37  1  0.000001  0.000002  0.499439  1
