# generated using pymatgen
data_Ho7Er5Ir3Os
_symmetry_space_group_name_H-M   'P 1'
_cell_length_a   6.38869318
_cell_length_b   7.27146017
_cell_length_c   9.05138816
_cell_angle_alpha   90.00676776
_cell_angle_beta   90.02453492
_cell_angle_gamma   90.05507767
_symmetry_Int_Tables_number   1
_chemical_formula_structural   Ho7Er5Ir3Os
_chemical_formula_sum   'Ho7 Er5 Ir3 Os1'
_cell_volume   420.48315979
_cell_formula_units_Z   1
loop_
 _symmetry_equiv_pos_site_id
 _symmetry_equiv_pos_as_xyz
  1  'x, y, z'
loop_
 _atom_site_type_symbol
 _atom_site_label
 _atom_site_symmetry_multiplicity
 _atom_site_fract_x
 _atom_site_fract_y
 _atom_site_fract_z
 _atom_site_occupancy
  Ho  Ho0  1  0.325426  0.678759  0.062923  1
  Ho  Ho1  1  0.172499  0.175997  0.436912  1
  Ho  Ho2  1  0.672671  0.322160  0.562147  1
  Ho  Ho3  1  0.872890  0.534984  0.250043  1
  Ho  Ho4  1  0.627136  0.034226  0.249587  1
  Ho  Ho5  1  0.127883  0.465885  0.750170  1
  Ho  Ho6  1  0.372903  0.964810  0.750055  1
  Er  Er7  1  0.829964  0.823028  0.939606  1
  Er  Er8  1  0.671688  0.322642  0.937983  1
  Er  Er9  1  0.830536  0.823305  0.560651  1
  Er  Er10  1  0.326188  0.678026  0.436611  1
  Er  Er11  1  0.171049  0.175477  0.062828  1
  Ir  Ir12  1  0.458548  0.384827  0.248887  1
  Ir  Ir13  1  0.958179  0.115854  0.751528  1
  Ir  Ir14  1  0.543360  0.615370  0.749630  1
  Os  Os15  1  0.039078  0.884650  0.250442  1
