# generated using pymatgen
data_Sm6DyTm13Sn16
_symmetry_space_group_name_H-M   'P 1'
_cell_length_a   8.00825047
_cell_length_b   8.15589682
_cell_length_c   15.38642608
_cell_angle_alpha   90.02280477
_cell_angle_beta   90.11556714
_cell_angle_gamma   90.02075494
_symmetry_Int_Tables_number   1
_chemical_formula_structural   Sm6DyTm13Sn16
_chemical_formula_sum   'Sm6 Dy1 Tm13 Sn16'
_cell_volume   1004.95398937
_cell_formula_units_Z   1
loop_
 _symmetry_equiv_pos_site_id
 _symmetry_equiv_pos_as_xyz
  1  'x, y, z'
loop_
 _atom_site_type_symbol
 _atom_site_label
 _atom_site_symmetry_multiplicity
 _atom_site_fract_x
 _atom_site_fract_y
 _atom_site_fract_z
 _atom_site_occupancy
  Sm  Sm0  1  0.483001  0.678901  0.403902  1
  Sm  Sm1  1  0.982099  0.821018  0.096076  1
  Sm  Sm2  1  0.481674  0.677669  0.096051  1
  Sm  Sm3  1  0.982341  0.821924  0.403950  1
  Sm  Sm4  1  0.516179  0.321098  0.595962  1
  Sm  Sm5  1  0.017272  0.179350  0.903536  1
  Dy  Dy6  1  0.019154  0.178981  0.598166  1
  Tm  Tm7  1  0.363234  0.836679  0.876524  1
  Tm  Tm8  1  0.862378  0.663278  0.623680  1
  Tm  Tm9  1  0.636259  0.163164  0.376984  1
  Tm  Tm10  1  0.135031  0.336884  0.122500  1
  Tm  Tm11  1  0.635349  0.163725  0.122663  1
  Tm  Tm12  1  0.136565  0.336256  0.377183  1
  Tm  Tm13  1  0.363574  0.837669  0.624075  1
  Tm  Tm14  1  0.864489  0.662536  0.876775  1
  Tm  Tm15  1  0.521429  0.321733  0.901792  1
  Tm  Tm16  1  0.195923  0.503264  0.750415  1
  Tm  Tm17  1  0.695749  0.996416  0.750212  1
  Tm  Tm18  1  0.803902  0.495812  0.249765  1
  Tm  Tm19  1  0.303952  0.004204  0.249831  1
  Sn  Sn20  1  0.300094  0.039800  0.041511  1
  Sn  Sn21  1  0.800939  0.459300  0.458633  1
  Sn  Sn22  1  0.702351  0.962290  0.542472  1
  Sn  Sn23  1  0.205475  0.536215  0.957044  1
  Sn  Sn24  1  0.698501  0.961920  0.957693  1
  Sn  Sn25  1  0.198335  0.540285  0.542166  1
  Sn  Sn26  1  0.298546  0.040766  0.459498  1
  Sn  Sn27  1  0.796481  0.458120  0.040001  1
  Sn  Sn28  1  0.561393  0.620982  0.750410  1
  Sn  Sn29  1  0.061234  0.878208  0.749969  1
  Sn  Sn30  1  0.437390  0.377281  0.249951  1
  Sn  Sn31  1  0.937925  0.123092  0.250019  1
  Sn  Sn32  1  0.328770  0.147626  0.751294  1
  Sn  Sn33  1  0.826460  0.353258  0.749422  1
  Sn  Sn34  1  0.673289  0.854518  0.249601  1
  Sn  Sn35  1  0.173261  0.645778  0.250273  1
