# generated using pymatgen
data_KCdPO4
_symmetry_space_group_name_H-M   'P 1'
_cell_length_a   5.65727100
_cell_length_b   9.30082343
_cell_length_c   9.30190982
_cell_angle_alpha   89.39523336
_cell_angle_beta   90.00094383
_cell_angle_gamma   90.00130740
_symmetry_Int_Tables_number   1
_chemical_formula_structural   KCdPO4
_chemical_formula_sum   'K4 Cd4 P4 O16'
_cell_volume   489.41391644
_cell_formula_units_Z   4
loop_
 _symmetry_equiv_pos_site_id
 _symmetry_equiv_pos_as_xyz
  1  'x, y, z'
loop_
 _atom_site_type_symbol
 _atom_site_label
 _atom_site_symmetry_multiplicity
 _atom_site_fract_x
 _atom_site_fract_y
 _atom_site_fract_z
 _atom_site_occupancy
  K  K0  1  0.904803  0.989972  0.808563  1
  K  K1  1  0.404803  0.010034  0.191431  1
  K  K2  1  0.404302  0.510331  0.327710  1
  K  K3  1  0.904314  0.489682  0.672287  1
  Cd  Cd4  1  0.419573  0.669504  0.905895  1
  Cd  Cd5  1  0.364260  0.157045  0.575430  1
  Cd  Cd6  1  0.919575  0.330496  0.094110  1
  Cd  Cd7  1  0.864259  0.842954  0.424569  1
  P  P8  1  0.391933  0.794490  0.571503  1
  P  P9  1  0.891933  0.205510  0.428498  1
  P  P10  1  0.414534  0.299566  0.901720  1
  P  P11  1  0.914542  0.700431  0.098281  1
  O  O12  1  0.186510  0.730676  0.086101  1
  O  O13  1  0.686498  0.269322  0.913902  1
  O  O14  1  0.799887  0.819544  0.192813  1
  O  O15  1  0.299873  0.180455  0.807183  1
  O  O16  1  0.675251  0.282134  0.496838  1
  O  O17  1  0.175241  0.717862  0.503168  1
  O  O18  1  0.613981  0.696902  0.553403  1
  O  O19  1  0.113989  0.303099  0.446594  1
  O  O20  1  0.367254  0.448849  0.828885  1
  O  O21  1  0.867253  0.551149  0.171116  1
  O  O22  1  0.843312  0.170798  0.267500  1
  O  O23  1  0.343330  0.829201  0.732503  1
  O  O24  1  0.802352  0.708784  0.944372  1
  O  O25  1  0.302344  0.291211  0.055626  1
  O  O26  1  0.947749  0.061065  0.512619  1
  O  O27  1  0.447745  0.938934  0.487381  1
