# generated using pymatgen
data_PrGd2Ho3Ta2O14
_symmetry_space_group_name_H-M   'P 1'
_cell_length_a   6.50960246
_cell_length_b   6.52737823
_cell_length_c   7.57151476
_cell_angle_alpha   89.91920724
_cell_angle_beta   90.12616963
_cell_angle_gamma   108.90270467
_symmetry_Int_Tables_number   1
_chemical_formula_structural   PrGd2Ho3Ta2O14
_chemical_formula_sum   'Pr1 Gd2 Ho3 Ta2 O14'
_cell_volume   304.36741100
_cell_formula_units_Z   1
loop_
 _symmetry_equiv_pos_site_id
 _symmetry_equiv_pos_as_xyz
  1  'x, y, z'
loop_
 _atom_site_type_symbol
 _atom_site_label
 _atom_site_symmetry_multiplicity
 _atom_site_fract_x
 _atom_site_fract_y
 _atom_site_fract_z
 _atom_site_occupancy
  Pr  Pr0  1  0.511436  0.513179  0.500895  1
  Gd  Gd1  1  0.468456  0.466824  0.998553  1
  Gd  Gd2  1  0.998669  0.532953  0.242253  1
  Ho  Ho3  1  0.998886  0.465653  0.746067  1
  Ho  Ho4  1  0.534498  0.000038  0.758119  1
  Ho  Ho5  1  0.466430  0.998260  0.253619  1
  Ta  Ta6  1  0.001546  0.000714  0.500998  1
  Ta  Ta7  1  0.997441  0.997008  0.998757  1
  O  O8  1  0.931553  0.065160  0.749591  1
  O  O9  1  0.065906  0.938506  0.250287  1
  O  O10  1  0.360042  0.643522  0.241885  1
  O  O11  1  0.642978  0.355580  0.757037  1
  O  O12  1  0.365510  0.635273  0.756890  1
  O  O13  1  0.627790  0.361317  0.243794  1
  O  O14  1  0.325820  0.076037  0.973153  1
  O  O15  1  0.676812  0.928179  0.471319  1
  O  O16  1  0.314563  0.058496  0.540664  1
  O  O17  1  0.691844  0.951278  0.041878  1
  O  O18  1  0.066198  0.316484  0.465979  1
  O  O19  1  0.946620  0.691669  0.955778  1
  O  O20  1  0.926056  0.677719  0.531016  1
  O  O21  1  0.080945  0.326151  0.021469  1
