# generated using pymatgen
data_Rb8Na4Er3LuSb8
_symmetry_space_group_name_H-M   'P 1'
_cell_length_a   11.30693629
_cell_length_b   11.30693446
_cell_length_c   7.45599400
_cell_angle_alpha   90.00089628
_cell_angle_beta   89.99910183
_cell_angle_gamma   98.81053039
_symmetry_Int_Tables_number   1
_chemical_formula_structural   Rb8Na4Er3LuSb8
_chemical_formula_sum   'Rb8 Na4 Er3 Lu1 Sb8'
_cell_volume   941.97706326
_cell_formula_units_Z   1
loop_
 _symmetry_equiv_pos_site_id
 _symmetry_equiv_pos_as_xyz
  1  'x, y, z'
loop_
 _atom_site_type_symbol
 _atom_site_label
 _atom_site_symmetry_multiplicity
 _atom_site_fract_x
 _atom_site_fract_y
 _atom_site_fract_z
 _atom_site_occupancy
  Rb  Rb0  1  0.069957  0.430063  0.250341  1
  Rb  Rb1  1  0.430063  0.069957  0.749659  1
  Rb  Rb2  1  0.929184  0.570043  0.749383  1
  Rb  Rb3  1  0.570043  0.929184  0.250617  1
  Rb  Rb4  1  0.677424  0.323226  0.214689  1
  Rb  Rb5  1  0.822695  0.177237  0.713941  1
  Rb  Rb6  1  0.323226  0.677424  0.785311  1
  Rb  Rb7  1  0.177237  0.822695  0.286059  1
  Na  Na8  1  0.382802  0.382802  0.000000  1
  Na  Na9  1  0.117604  0.117604  0.500000  1
  Na  Na10  1  0.617314  0.617314  0.000000  1
  Na  Na11  1  0.882303  0.882303  0.500000  1
  Er  Er12  1  0.130541  0.130541  0.000000  1
  Er  Er13  1  0.370268  0.370268  0.500000  1
  Er  Er14  1  0.869018  0.869018  0.000000  1
  Lu  Lu15  1  0.630076  0.630076  0.500000  1
  Sb  Sb16  1  0.844582  0.653571  0.251784  1
  Sb  Sb17  1  0.653571  0.844582  0.748216  1
  Sb  Sb18  1  0.153770  0.346754  0.750009  1
  Sb  Sb19  1  0.346754  0.153770  0.249991  1
  Sb  Sb20  1  0.899103  0.100621  0.210360  1
  Sb  Sb21  1  0.601346  0.400497  0.709867  1
  Sb  Sb22  1  0.100621  0.899103  0.789640  1
  Sb  Sb23  1  0.400497  0.601346  0.290133  1
