# generated using pymatgen
data_MnBe3AgF9
_symmetry_space_group_name_H-M   'P 1'
_cell_length_a   6.58608600
_cell_length_b   6.58608432
_cell_length_c   9.83936200
_cell_angle_alpha   90.00000000
_cell_angle_beta   90.00000000
_cell_angle_gamma   119.99998836
_symmetry_Int_Tables_number   1
_chemical_formula_structural   MnBe3AgF9
_chemical_formula_sum   'Mn2 Be6 Ag2 F18'
_cell_volume   369.61731293
_cell_formula_units_Z   2
loop_
 _symmetry_equiv_pos_site_id
 _symmetry_equiv_pos_as_xyz
  1  'x, y, z'
loop_
 _atom_site_type_symbol
 _atom_site_label
 _atom_site_symmetry_multiplicity
 _atom_site_fract_x
 _atom_site_fract_y
 _atom_site_fract_z
 _atom_site_occupancy
  Mn  Mn0  1  0.333333  0.666667  0.000000  1
  Mn  Mn1  1  0.333333  0.666667  0.500000  1
  Be  Be2  1  0.237424  0.969951  0.250000  1
  Be  Be3  1  0.237424  0.267475  0.750000  1
  Be  Be4  1  0.732525  0.969951  0.750000  1
  Be  Be5  1  0.030049  0.762576  0.750000  1
  Be  Be6  1  0.030049  0.267475  0.250000  1
  Be  Be7  1  0.732525  0.762576  0.250000  1
  Ag  Ag8  1  0.666667  0.333333  0.000000  1
  Ag  Ag9  1  0.666667  0.333333  0.500000  1
  F  F10  1  0.046152  0.640288  0.618939  1
  F  F11  1  0.594136  0.953848  0.618939  1
  F  F12  1  0.359712  0.405864  0.618939  1
  F  F13  1  0.359712  0.953848  0.381061  1
  F  F14  1  0.234423  0.207230  0.250000  1
  F  F15  1  0.972806  0.765577  0.250000  1
  F  F16  1  0.792770  0.027194  0.250000  1
  F  F17  1  0.792770  0.765577  0.750000  1
  F  F18  1  0.972806  0.207230  0.750000  1
  F  F19  1  0.234423  0.027194  0.750000  1
  F  F20  1  0.359712  0.953848  0.118938  1
  F  F21  1  0.594136  0.640288  0.381061  1
  F  F22  1  0.046152  0.405864  0.381061  1
  F  F23  1  0.046152  0.405864  0.118938  1
  F  F24  1  0.594136  0.640288  0.118938  1
  F  F25  1  0.046152  0.640288  0.881061  1
  F  F26  1  0.594136  0.953848  0.881061  1
  F  F27  1  0.359712  0.405864  0.881061  1
