# generated using pymatgen
data_Ca4LuU5O18
_symmetry_space_group_name_H-M   'P 1'
_cell_length_a   6.85400861
_cell_length_b   7.56342357
_cell_length_c   8.48217800
_cell_angle_alpha   99.38480130
_cell_angle_beta   98.53675255
_cell_angle_gamma   107.77500814
_symmetry_Int_Tables_number   1
_chemical_formula_structural   Ca4LuU5O18
_chemical_formula_sum   'Ca4 Lu1 U5 O18'
_cell_volume   403.81934369
_cell_formula_units_Z   1
loop_
 _symmetry_equiv_pos_site_id
 _symmetry_equiv_pos_as_xyz
  1  'x, y, z'
loop_
 _atom_site_type_symbol
 _atom_site_label
 _atom_site_symmetry_multiplicity
 _atom_site_fract_x
 _atom_site_fract_y
 _atom_site_fract_z
 _atom_site_occupancy
  Ca  Ca0  1  0.596292  0.701121  0.196732  1
  Ca  Ca1  1  0.405909  0.302489  0.803228  1
  Ca  Ca2  1  0.208454  0.898972  0.419443  1
  Ca  Ca3  1  0.001620  0.505985  0.003801  1
  Lu  Lu4  1  0.798555  0.110794  0.578702  1
  U  U5  1  0.997259  0.997884  0.998737  1
  U  U6  1  0.789768  0.582080  0.590302  1
  U  U7  1  0.627263  0.204779  0.191765  1
  U  U8  1  0.375740  0.795461  0.805529  1
  U  U9  1  0.210131  0.421114  0.410498  1
  O  O10  1  0.815851  0.813053  0.483940  1
  O  O11  1  0.001994  0.251420  0.165483  1
  O  O12  1  0.672307  0.415598  0.064782  1
  O  O13  1  0.482193  0.996997  0.672768  1
  O  O14  1  0.861571  0.335941  0.428887  1
  O  O15  1  0.508144  0.404148  0.347491  1
  O  O16  1  0.256023  0.621642  0.279291  1
  O  O17  1  0.988153  0.836003  0.166601  1
  O  O18  1  0.657049  0.928322  0.004121  1
  O  O19  1  0.339259  0.069972  0.994466  1
  O  O20  1  0.995967  0.151760  0.820646  1
  O  O21  1  0.746969  0.368637  0.714850  1
  O  O22  1  0.492951  0.589966  0.655960  1
  O  O23  1  0.137195  0.661187  0.574572  1
  O  O24  1  0.552087  0.005325  0.330367  1
  O  O25  1  0.324731  0.583662  0.932878  1
  O  O26  1  0.991084  0.744489  0.833268  1
  O  O27  1  0.165482  0.201200  0.530894  1
