# generated using pymatgen
data_Tm4LuMo2C7
_symmetry_space_group_name_H-M   'P 1'
_cell_length_a   8.28791310
_cell_length_b   8.28791145
_cell_length_c   3.38385200
_cell_angle_alpha   90.00000000
_cell_angle_beta   90.00000000
_cell_angle_gamma   121.97981019
_symmetry_Int_Tables_number   1
_chemical_formula_structural   Tm4LuMo2C7
_chemical_formula_sum   'Tm4 Lu1 Mo2 C7'
_cell_volume   197.15950764
_cell_formula_units_Z   1
loop_
 _symmetry_equiv_pos_site_id
 _symmetry_equiv_pos_as_xyz
  1  'x, y, z'
loop_
 _atom_site_type_symbol
 _atom_site_label
 _atom_site_symmetry_multiplicity
 _atom_site_fract_x
 _atom_site_fract_y
 _atom_site_fract_z
 _atom_site_occupancy
  Tm  Tm0  1  0.076607  0.334358  0.500000  1
  Tm  Tm1  1  0.923393  0.665642  0.500000  1
  Tm  Tm2  1  0.665642  0.923393  0.500000  1
  Tm  Tm3  1  0.334358  0.076607  0.500000  1
  Lu  Lu4  1  0.500000  0.500000  0.000000  1
  Mo  Mo5  1  0.711989  0.288011  0.000000  1
  Mo  Mo6  1  0.288011  0.711989  0.000000  1
  C  C7  1  0.621378  0.378622  0.500000  1
  C  C8  1  0.378622  0.621378  0.500000  1
  C  C9  1  0.000000  0.000000  0.000000  1
  C  C10  1  0.168538  0.168538  0.000000  1
  C  C11  1  0.831462  0.831462  0.000000  1
  C  C12  1  0.000000  0.500000  0.000000  1
  C  C13  1  0.500000  0.000000  0.000000  1
