# generated using pymatgen
data_Dy5Ho3(CuP)12
_symmetry_space_group_name_H-M   'P 1'
_cell_length_a   3.85084500
_cell_length_b   10.68654201
_cell_length_c   12.95885702
_cell_angle_alpha   89.99410749
_cell_angle_beta   90.00000000
_cell_angle_gamma   90.00000000
_symmetry_Int_Tables_number   1
_chemical_formula_structural   Dy5Ho3(CuP)12
_chemical_formula_sum   'Dy5 Ho3 Cu12 P12'
_cell_volume   533.28569170
_cell_formula_units_Z   1
loop_
 _symmetry_equiv_pos_site_id
 _symmetry_equiv_pos_as_xyz
  1  'x, y, z'
loop_
 _atom_site_type_symbol
 _atom_site_label
 _atom_site_symmetry_multiplicity
 _atom_site_fract_x
 _atom_site_fract_y
 _atom_site_fract_z
 _atom_site_occupancy
  Dy  Dy0  1  0.250000  0.930070  0.793083  1
  Dy  Dy1  1  0.750000  0.429942  0.706998  1
  Dy  Dy2  1  0.250000  0.570030  0.292970  1
  Dy  Dy3  1  0.750000  0.070049  0.206975  1
  Dy  Dy4  1  0.250000  0.841356  0.503118  1
  Ho  Ho5  1  0.750000  0.341451  0.996863  1
  Ho  Ho6  1  0.250000  0.658528  0.003141  1
  Ho  Ho7  1  0.750000  0.158669  0.496871  1
  Cu  Cu8  1  0.250000  0.402562  0.513781  1
  Cu  Cu9  1  0.750000  0.902583  0.986238  1
  Cu  Cu10  1  0.250000  0.097429  0.013759  1
  Cu  Cu11  1  0.750000  0.597269  0.486211  1
  Cu  Cu12  1  0.250000  0.272980  0.332391  1
  Cu  Cu13  1  0.750000  0.772957  0.167549  1
  Cu  Cu14  1  0.250000  0.227030  0.832427  1
  Cu  Cu15  1  0.750000  0.726926  0.667779  1
  Cu  Cu16  1  0.250000  0.860502  0.279891  1
  Cu  Cu17  1  0.750000  0.360498  0.219726  1
  Cu  Cu18  1  0.250000  0.639508  0.780282  1
  Cu  Cu19  1  0.750000  0.139556  0.719775  1
  P  P20  1  0.250000  0.240235  0.643061  1
  P  P21  1  0.750000  0.740241  0.856949  1
  P  P22  1  0.250000  0.259771  0.143039  1
  P  P23  1  0.750000  0.759536  0.356470  1
  P  P24  1  0.250000  0.603844  0.600693  1
  P  P25  1  0.750000  0.104282  0.899519  1
  P  P26  1  0.250000  0.895737  0.100503  1
  P  P27  1  0.750000  0.395733  0.399495  1
  P  P28  1  0.250000  0.057728  0.369074  1
  P  P29  1  0.750000  0.557397  0.130752  1
  P  P30  1  0.250000  0.442602  0.869245  1
  P  P31  1  0.750000  0.942998  0.631374  1
