# generated using pymatgen
data_CaTbHo4(Si3Ru)8
_symmetry_space_group_name_H-M   'P 1'
_cell_length_a   10.12228867
_cell_length_b   10.11968763
_cell_length_c   8.13229756
_cell_angle_alpha   90.03465787
_cell_angle_beta   89.94790860
_cell_angle_gamma   132.59520425
_symmetry_Int_Tables_number   1
_chemical_formula_structural   CaTbHo4(Si3Ru)8
_chemical_formula_sum   'Ca1 Tb1 Ho4 Si24 Ru8'
_cell_volume   613.23570033
_cell_formula_units_Z   1
loop_
 _symmetry_equiv_pos_site_id
 _symmetry_equiv_pos_as_xyz
  1  'x, y, z'
loop_
 _atom_site_type_symbol
 _atom_site_label
 _atom_site_symmetry_multiplicity
 _atom_site_fract_x
 _atom_site_fract_y
 _atom_site_fract_z
 _atom_site_occupancy
  Ca  Ca0  1  0.500001  0.500010  0.499930  1
  Tb  Tb1  1  0.502029  0.002393  0.749872  1
  Ho  Ho2  1  0.000044  0.000017  0.000048  1
  Ho  Ho3  1  0.997909  0.498024  0.250097  1
  Ho  Ho4  1  0.498014  0.997664  0.250168  1
  Ho  Ho5  1  0.002452  0.502338  0.749898  1
  Si  Si6  1  0.795173  0.204385  0.499787  1
  Si  Si7  1  0.295352  0.705522  0.000189  1
  Si  Si8  1  0.205014  0.795765  0.499687  1
  Si  Si9  1  0.704768  0.294627  0.000364  1
  Si  Si10  1  0.333812  0.333336  0.831673  1
  Si  Si11  1  0.666329  0.666511  0.168183  1
  Si  Si12  1  0.168974  0.168797  0.334199  1
  Si  Si13  1  0.830860  0.831297  0.665950  1
  Si  Si14  1  0.123097  0.888911  0.728688  1
  Si  Si15  1  0.111443  0.877784  0.271713  1
  Si  Si16  1  0.610439  0.376854  0.229351  1
  Si  Si17  1  0.622348  0.388711  0.770011  1
  Si  Si18  1  0.876123  0.110000  0.271663  1
  Si  Si19  1  0.889185  0.123295  0.729022  1
  Si  Si20  1  0.388471  0.622361  0.770311  1
  Si  Si21  1  0.378716  0.611932  0.229276  1
  Si  Si22  1  0.347453  0.114188  0.505280  1
  Si  Si23  1  0.887189  0.654890  0.495028  1
  Si  Si24  1  0.387635  0.153379  0.006049  1
  Si  Si25  1  0.843940  0.610915  0.994515  1
  Si  Si26  1  0.652235  0.885701  0.493458  1
  Si  Si27  1  0.112922  0.345231  0.505669  1
  Si  Si28  1  0.612280  0.846334  0.995101  1
  Si  Si29  1  0.156177  0.389208  0.004796  1
  Ru  Ru30  1  0.672788  0.331491  0.499045  1
  Ru  Ru31  1  0.167066  0.828263  0.000800  1
  Ru  Ru32  1  0.327242  0.668468  0.499200  1
  Ru  Ru33  1  0.832912  0.171769  0.000952  1
  Ru  Ru34  1  0.124337  0.124039  0.628211  1
  Ru  Ru35  1  0.875535  0.875709  0.372045  1
  Ru  Ru36  1  0.372917  0.372631  0.124833  1
  Ru  Ru37  1  0.626819  0.627252  0.874941  1
