# generated using pymatgen
data_Sc4Co16Si7P5W4
_symmetry_space_group_name_H-M   'P 1'
_cell_length_a   3.65684800
_cell_length_b   10.37605585
_cell_length_c   11.90376809
_cell_angle_alpha   90.06812798
_cell_angle_beta   90.00000000
_cell_angle_gamma   90.00000000
_symmetry_Int_Tables_number   1
_chemical_formula_structural   Sc4Co16Si7P5W4
_chemical_formula_sum   'Sc4 Co16 Si7 P5 W4'
_cell_volume   451.67219873
_cell_formula_units_Z   1
loop_
 _symmetry_equiv_pos_site_id
 _symmetry_equiv_pos_as_xyz
  1  'x, y, z'
loop_
 _atom_site_type_symbol
 _atom_site_label
 _atom_site_symmetry_multiplicity
 _atom_site_fract_x
 _atom_site_fract_y
 _atom_site_fract_z
 _atom_site_occupancy
  Sc  Sc0  1  0.250000  0.579124  0.704411  1
  Sc  Sc1  1  0.250000  0.925589  0.202994  1
  Sc  Sc2  1  0.750000  0.425508  0.296994  1
  Sc  Sc3  1  0.750000  0.074874  0.797048  1
  Co  Co4  1  0.250000  0.411571  0.486568  1
  Co  Co5  1  0.250000  0.089465  0.985487  1
  Co  Co6  1  0.750000  0.593598  0.517532  1
  Co  Co7  1  0.750000  0.909278  0.011267  1
  Co  Co8  1  0.250000  0.211819  0.171123  1
  Co  Co9  1  0.250000  0.288208  0.670906  1
  Co  Co10  1  0.750000  0.783877  0.823382  1
  Co  Co11  1  0.750000  0.712253  0.329991  1
  Co  Co12  1  0.250000  0.882902  0.702548  1
  Co  Co13  1  0.250000  0.616421  0.203381  1
  Co  Co14  1  0.750000  0.115230  0.296634  1
  Co  Co15  1  0.750000  0.384009  0.796540  1
  Co  Co16  1  0.250000  0.463622  0.932625  1
  Co  Co17  1  0.250000  0.034678  0.433098  1
  Co  Co18  1  0.750000  0.535298  0.068597  1
  Co  Co19  1  0.750000  0.962426  0.569355  1
  Si  Si20  1  0.250000  0.419211  0.120873  1
  Si  Si21  1  0.250000  0.081175  0.620745  1
  Si  Si22  1  0.750000  0.578849  0.880769  1
  Si  Si23  1  0.750000  0.919289  0.379762  1
  Si  Si24  1  0.250000  0.261453  0.857891  1
  Si  Si25  1  0.250000  0.238186  0.358516  1
  Si  Si26  1  0.750000  0.738521  0.141717  1
  P  P27  1  0.750000  0.763592  0.639835  1
  P  P28  1  0.250000  0.593589  0.389872  1
  P  P29  1  0.250000  0.906563  0.889087  1
  P  P30  1  0.750000  0.408015  0.610622  1
  P  P31  1  0.750000  0.092360  0.109453  1
  W  W32  1  0.250000  0.704901  0.991563  1
  W  W33  1  0.250000  0.793983  0.493019  1
  W  W34  1  0.750000  0.294830  0.007591  1
  W  W35  1  0.750000  0.205734  0.508203  1
