# generated using pymatgen
data_Tb8Zr11Si16Os
_symmetry_space_group_name_H-M   'P 1'
_cell_length_a   7.31539079
_cell_length_b   7.31538971
_cell_length_c   13.40509857
_cell_angle_alpha   89.89317942
_cell_angle_beta   90.10682175
_cell_angle_gamma   89.96368496
_symmetry_Int_Tables_number   1
_chemical_formula_structural   Tb8Zr11Si16Os
_chemical_formula_sum   'Tb8 Zr11 Si16 Os1'
_cell_volume   717.37033344
_cell_formula_units_Z   1
loop_
 _symmetry_equiv_pos_site_id
 _symmetry_equiv_pos_as_xyz
  1  'x, y, z'
loop_
 _atom_site_type_symbol
 _atom_site_label
 _atom_site_symmetry_multiplicity
 _atom_site_fract_x
 _atom_site_fract_y
 _atom_site_fract_z
 _atom_site_occupancy
  Tb  Tb0  1  0.999171  0.345476  0.209932  1
  Tb  Tb1  1  0.005004  0.652833  0.716667  1
  Tb  Tb2  1  0.154056  0.495293  0.463626  1
  Tb  Tb3  1  0.501145  0.848019  0.033993  1
  Tb  Tb4  1  0.848019  0.501145  0.966007  1
  Tb  Tb5  1  0.495293  0.154056  0.536374  1
  Tb  Tb6  1  0.345476  0.999171  0.790068  1
  Tb  Tb7  1  0.652833  0.005004  0.283333  1
  Zr  Zr8  1  0.823977  0.823977  0.500000  1
  Zr  Zr9  1  0.323658  0.676090  0.247442  1
  Zr  Zr10  1  0.676090  0.323658  0.752558  1
  Zr  Zr11  1  0.144565  0.997900  0.371580  1
  Zr  Zr12  1  0.853784  0.005396  0.878518  1
  Zr  Zr13  1  0.502352  0.645482  0.626075  1
  Zr  Zr14  1  0.353714  0.497659  0.876318  1
  Zr  Zr15  1  0.497659  0.353714  0.123682  1
  Zr  Zr16  1  0.645482  0.502352  0.373925  1
  Zr  Zr17  1  0.997900  0.144565  0.628420  1
  Zr  Zr18  1  0.005396  0.853784  0.121482  1
  Si  Si19  1  0.359075  0.293723  0.314620  1
  Si  Si20  1  0.641151  0.706274  0.817998  1
  Si  Si21  1  0.206478  0.860240  0.566093  1
  Si  Si22  1  0.137524  0.794857  0.932070  1
  Si  Si23  1  0.794857  0.137524  0.067930  1
  Si  Si24  1  0.860240  0.206478  0.433907  1
  Si  Si25  1  0.293723  0.359075  0.685380  1
  Si  Si26  1  0.706274  0.641151  0.182002  1
  Si  Si27  1  0.291915  0.057757  0.179408  1
  Si  Si28  1  0.704214  0.947990  0.687697  1
  Si  Si29  1  0.447036  0.796372  0.436007  1
  Si  Si30  1  0.206154  0.546978  0.062323  1
  Si  Si31  1  0.546978  0.206154  0.937677  1
  Si  Si32  1  0.796372  0.447036  0.563993  1
  Si  Si33  1  0.057757  0.291915  0.820592  1
  Si  Si34  1  0.947990  0.704214  0.312303  1
  Os  Os35  1  0.176691  0.176691  0.000000  1
