# generated using pymatgen
data_Ta12Ga7Ni5N4
_symmetry_space_group_name_H-M   'P 1'
_cell_length_a   8.18263933
_cell_length_b   8.18263761
_cell_length_c   8.18263900
_cell_angle_alpha   60.10068912
_cell_angle_beta   60.10069662
_cell_angle_gamma   60.10069731
_symmetry_Int_Tables_number   1
_chemical_formula_structural   Ta12Ga7Ni5N4
_chemical_formula_sum   'Ta12 Ga7 Ni5 N4'
_cell_volume   388.28878912
_cell_formula_units_Z   1
loop_
 _symmetry_equiv_pos_site_id
 _symmetry_equiv_pos_as_xyz
  1  'x, y, z'
loop_
 _atom_site_type_symbol
 _atom_site_label
 _atom_site_symmetry_multiplicity
 _atom_site_fract_x
 _atom_site_fract_y
 _atom_site_fract_z
 _atom_site_occupancy
  Ta  Ta0  1  0.810315  0.810315  0.187738  1
  Ta  Ta1  1  0.186207  0.186207  0.813311  1
  Ta  Ta2  1  0.810315  0.187738  0.810315  1
  Ta  Ta3  1  0.186207  0.813311  0.186207  1
  Ta  Ta4  1  0.187738  0.810315  0.810315  1
  Ta  Ta5  1  0.813311  0.186207  0.186207  1
  Ta  Ta6  1  0.435010  0.435010  0.067120  1
  Ta  Ta7  1  0.055680  0.055680  0.443604  1
  Ta  Ta8  1  0.435010  0.067120  0.435010  1
  Ta  Ta9  1  0.055680  0.443604  0.055680  1
  Ta  Ta10  1  0.067120  0.435010  0.435010  1
  Ta  Ta11  1  0.443604  0.055680  0.055680  1
  Ga  Ga12  1  0.753905  0.415983  0.415983  1
  Ga  Ga13  1  0.415983  0.753905  0.415983  1
  Ga  Ga14  1  0.415983  0.415983  0.753905  1
  Ga  Ga15  1  0.416928  0.416928  0.416928  1
  Ga  Ga16  1  0.505935  0.834773  0.834773  1
  Ga  Ga17  1  0.834773  0.505935  0.834773  1
  Ga  Ga18  1  0.834773  0.834773  0.505935  1
  Ni  Ni19  1  0.130619  0.622895  0.622895  1
  Ni  Ni20  1  0.622895  0.130619  0.622895  1
  Ni  Ni21  1  0.622895  0.622895  0.130619  1
  Ni  Ni22  1  0.625319  0.625319  0.625319  1
  Ni  Ni23  1  0.836203  0.836203  0.836203  1
  N  N24  1  0.626059  0.122728  0.122728  1
  N  N25  1  0.122728  0.626059  0.122728  1
  N  N26  1  0.122728  0.122728  0.626059  1
  N  N27  1  0.126075  0.126075  0.126075  1
