# generated using pymatgen
data_Zr2CuAgF11
_symmetry_space_group_name_H-M   'P 1'
_cell_length_a   5.65432272
_cell_length_b   6.00581687
_cell_length_c   7.83962418
_cell_angle_alpha   111.53409261
_cell_angle_beta   96.18616292
_cell_angle_gamma   105.45449707
_symmetry_Int_Tables_number   1
_chemical_formula_structural   Zr2CuAgF11
_chemical_formula_sum   'Zr2 Cu1 Ag1 F11'
_cell_volume   232.32883157
_cell_formula_units_Z   1
loop_
 _symmetry_equiv_pos_site_id
 _symmetry_equiv_pos_as_xyz
  1  'x, y, z'
loop_
 _atom_site_type_symbol
 _atom_site_label
 _atom_site_symmetry_multiplicity
 _atom_site_fract_x
 _atom_site_fract_y
 _atom_site_fract_z
 _atom_site_occupancy
  Zr  Zr0  1  0.482573  0.272014  0.758066  1
  Zr  Zr1  1  0.517427  0.727986  0.241934  1
  Cu  Cu2  1  0.000000  0.500000  0.500000  1
  Ag  Ag3  1  0.000000  0.000000  0.000000  1
  F  F4  1  0.253222  0.813572  0.116863  1
  F  F5  1  0.198482  0.951029  0.711760  1
  F  F6  1  0.756345  0.478748  0.656485  1
  F  F7  1  0.746778  0.186428  0.883137  1
  F  F8  1  0.353863  0.342688  0.022284  1
  F  F9  1  0.801518  0.048971  0.288240  1
  F  F10  1  0.777743  0.600224  0.351585  1
  F  F11  1  0.222257  0.399776  0.648415  1
  F  F12  1  0.243655  0.521252  0.343515  1
  F  F13  1  0.500000  0.000000  0.500000  1
  F  F14  1  0.646137  0.657312  0.977716  1
