# generated using pymatgen
data_LiMn2(SiRu2)3
_symmetry_space_group_name_H-M   'P 1'
_cell_length_a   4.15893400
_cell_length_b   5.87932600
_cell_length_c   12.49345800
_cell_angle_alpha   90.00000000
_cell_angle_beta   90.00000000
_cell_angle_gamma   90.00000000
_symmetry_Int_Tables_number   1
_chemical_formula_structural   LiMn2(SiRu2)3
_chemical_formula_sum   'Li2 Mn4 Si6 Ru12'
_cell_volume   305.48664677
_cell_formula_units_Z   2
loop_
 _symmetry_equiv_pos_site_id
 _symmetry_equiv_pos_as_xyz
  1  'x, y, z'
loop_
 _atom_site_type_symbol
 _atom_site_label
 _atom_site_symmetry_multiplicity
 _atom_site_fract_x
 _atom_site_fract_y
 _atom_site_fract_z
 _atom_site_occupancy
  Li  Li0  1  0.000438  0.000000  0.665369  1
  Li  Li1  1  0.500438  0.500000  0.834631  1
  Mn  Mn2  1  0.999984  0.000000  0.996296  1
  Mn  Mn3  1  0.499657  0.500000  0.165926  1
  Mn  Mn4  1  0.999657  0.000000  0.334074  1
  Mn  Mn5  1  0.499984  0.500000  0.503704  1
  Si  Si6  1  0.999994  0.500000  0.991029  1
  Si  Si7  1  0.499635  0.000000  0.164217  1
  Si  Si8  1  0.999635  0.500000  0.335783  1
  Si  Si9  1  0.499994  0.000000  0.508971  1
  Si  Si10  1  0.000343  0.500000  0.669271  1
  Si  Si11  1  0.500344  0.000000  0.830729  1
  Ru  Ru12  1  0.499968  0.247379  0.003405  1
  Ru  Ru13  1  0.499968  0.752620  0.003405  1
  Ru  Ru14  1  0.999683  0.252349  0.167397  1
  Ru  Ru15  1  0.999683  0.747652  0.167397  1
  Ru  Ru16  1  0.499683  0.247653  0.332602  1
  Ru  Ru17  1  0.499683  0.752349  0.332602  1
  Ru  Ru18  1  0.999968  0.252621  0.496595  1
  Ru  Ru19  1  0.999968  0.747380  0.496595  1
  Ru  Ru20  1  0.500324  0.252858  0.666098  1
  Ru  Ru21  1  0.500324  0.747144  0.666098  1
  Ru  Ru22  1  0.000324  0.247144  0.833902  1
  Ru  Ru23  1  0.000324  0.752857  0.833902  1
