# generated using pymatgen
data_Cs(FeSe)3
_symmetry_space_group_name_H-M   'P 1'
_cell_length_a   9.48217600
_cell_length_b   9.48217474
_cell_length_c   4.29285900
_cell_angle_alpha   90.00000000
_cell_angle_beta   90.00000000
_cell_angle_gamma   119.99999044
_symmetry_Int_Tables_number   1
_chemical_formula_structural   Cs(FeSe)3
_chemical_formula_sum   'Cs2 Fe6 Se6'
_cell_volume   334.26681570
_cell_formula_units_Z   2
loop_
 _symmetry_equiv_pos_site_id
 _symmetry_equiv_pos_as_xyz
  1  'x, y, z'
loop_
 _atom_site_type_symbol
 _atom_site_label
 _atom_site_symmetry_multiplicity
 _atom_site_fract_x
 _atom_site_fract_y
 _atom_site_fract_z
 _atom_site_occupancy
  Cs  Cs0  1  0.333333  0.666667  0.250000  1
  Cs  Cs1  1  0.666667  0.333333  0.750000  1
  Fe  Fe2  1  0.141854  0.166157  0.250000  1
  Fe  Fe3  1  0.858146  0.833843  0.750000  1
  Fe  Fe4  1  0.833843  0.975697  0.250000  1
  Fe  Fe5  1  0.024303  0.858146  0.250000  1
  Fe  Fe6  1  0.975697  0.141854  0.750000  1
  Fe  Fe7  1  0.166157  0.024303  0.750000  1
  Se  Se8  1  0.953027  0.267592  0.250000  1
  Se  Se9  1  0.046973  0.732408  0.750000  1
  Se  Se10  1  0.732408  0.685435  0.250000  1
  Se  Se11  1  0.314565  0.046973  0.250000  1
  Se  Se12  1  0.685435  0.953027  0.750000  1
  Se  Se13  1  0.267592  0.314565  0.750000  1
