# generated using pymatgen
data_Ho7Er13(Ir2Ru)4
_symmetry_space_group_name_H-M   'P 1'
_cell_length_a   10.74993101
_cell_length_b   10.75015001
_cell_length_c   6.38879100
_cell_angle_alpha   90.00116387
_cell_angle_beta   89.99933774
_cell_angle_gamma   89.99652496
_symmetry_Int_Tables_number   1
_chemical_formula_structural   Ho7Er13(Ir2Ru)4
_chemical_formula_sum   'Ho7 Er13 Ir8 Ru4'
_cell_volume   738.31022213
_cell_formula_units_Z   1
loop_
 _symmetry_equiv_pos_site_id
 _symmetry_equiv_pos_as_xyz
  1  'x, y, z'
loop_
 _atom_site_type_symbol
 _atom_site_label
 _atom_site_symmetry_multiplicity
 _atom_site_fract_x
 _atom_site_fract_y
 _atom_site_fract_z
 _atom_site_occupancy
  Ho  Ho0  1  0.293242  0.086494  0.377024  1
  Ho  Ho1  1  0.293278  0.913634  0.876992  1
  Ho  Ho2  1  0.706695  0.086516  0.877004  1
  Ho  Ho3  1  0.706813  0.913581  0.377024  1
  Ho  Ho4  1  0.586461  0.793216  0.876972  1
  Ho  Ho5  1  0.586407  0.206795  0.376959  1
  Ho  Ho6  1  0.413555  0.793201  0.376989  1
  Er  Er7  1  0.413604  0.206635  0.877217  1
  Er  Er8  1  0.206377  0.413671  0.622836  1
  Er  Er9  1  0.206301  0.586297  0.122840  1
  Er  Er10  1  0.793674  0.413679  0.122814  1
  Er  Er11  1  0.793653  0.586236  0.622782  1
  Er  Er12  1  0.913729  0.706312  0.122783  1
  Er  Er13  1  0.913662  0.293657  0.622747  1
  Er  Er14  1  0.086298  0.706333  0.622769  1
  Er  Er15  1  0.086303  0.293699  0.122779  1
  Er  Er16  1  0.000001  0.999978  0.499966  1
  Er  Er17  1  0.000006  0.000041  0.000079  1
  Er  Er18  1  0.499932  0.499933  0.999894  1
  Er  Er19  1  0.499990  0.499984  0.500104  1
  Ir  Ir20  1  0.847825  0.152701  0.250222  1
  Ir  Ir21  1  0.847881  0.847302  0.750132  1
  Ir  Ir22  1  0.152333  0.152714  0.750286  1
  Ir  Ir23  1  0.152193  0.847317  0.250208  1
  Ir  Ir24  1  0.652596  0.347760  0.750255  1
  Ir  Ir25  1  0.652640  0.652158  0.250252  1
  Ir  Ir26  1  0.347400  0.347735  0.249913  1
  Ir  Ir27  1  0.347301  0.652199  0.750182  1
  Ru  Ru28  1  0.499921  0.000156  0.122149  1
  Ru  Ru29  1  0.499933  0.000087  0.622419  1
  Ru  Ru30  1  0.999993  0.500012  0.877670  1
  Ru  Ru31  1  0.000004  0.499969  0.377736  1
