# generated using pymatgen
data_YZnHgPt3
_symmetry_space_group_name_H-M   'P 1'
_cell_length_a   5.51500351
_cell_length_b   5.51500392
_cell_length_c   5.23591697
_cell_angle_alpha   58.22053732
_cell_angle_beta   58.22053042
_cell_angle_gamma   60.00000398
_symmetry_Int_Tables_number   1
_chemical_formula_structural   YZnHgPt3
_chemical_formula_sum   'Y1 Zn1 Hg1 Pt3'
_cell_volume   109.48356952
_cell_formula_units_Z   1
loop_
 _symmetry_equiv_pos_site_id
 _symmetry_equiv_pos_as_xyz
  1  'x, y, z'
loop_
 _atom_site_type_symbol
 _atom_site_label
 _atom_site_symmetry_multiplicity
 _atom_site_fract_x
 _atom_site_fract_y
 _atom_site_fract_z
 _atom_site_occupancy
  Y  Y0  1  0.005552  0.005552  0.983345  1
  Zn  Zn1  1  0.622467  0.622467  0.132597  1
  Hg  Hg2  1  0.251653  0.251653  0.245042  1
  Pt  Pt3  1  0.623340  0.123647  0.629671  1
  Pt  Pt4  1  0.623340  0.623340  0.629671  1
  Pt  Pt5  1  0.123647  0.623340  0.629671  1
