# generated using pymatgen
data_LaYU4(Ni3Sb4)2
_symmetry_space_group_name_H-M   'P 1'
_cell_length_a   8.18444459
_cell_length_b   8.18444444
_cell_length_c   8.18444416
_cell_angle_alpha   109.01663705
_cell_angle_beta   110.38426382
_cell_angle_gamma   109.01663219
_symmetry_Int_Tables_number   1
_chemical_formula_structural   LaYU4(Ni3Sb4)2
_chemical_formula_sum   'La1 Y1 U4 Ni6 Sb8'
_cell_volume   421.95182485
_cell_formula_units_Z   1
loop_
 _symmetry_equiv_pos_site_id
 _symmetry_equiv_pos_as_xyz
  1  'x, y, z'
loop_
 _atom_site_type_symbol
 _atom_site_label
 _atom_site_symmetry_multiplicity
 _atom_site_fract_x
 _atom_site_fract_y
 _atom_site_fract_z
 _atom_site_occupancy
  La  La0  1  0.625000  0.750000  0.375000  1
  Y  Y1  1  0.875000  0.250000  0.125000  1
  U  U2  1  0.251409  0.130195  0.878498  1
  U  U3  1  0.748303  0.369805  0.621213  1
  U  U4  1  0.121502  0.872911  0.251697  1
  U  U5  1  0.378787  0.627089  0.748591  1
  Ni  Ni6  1  0.375000  0.250000  0.625000  1
  Ni  Ni7  1  0.125000  0.750000  0.875000  1
  Ni  Ni8  1  0.246337  0.625880  0.378474  1
  Ni  Ni9  1  0.752595  0.874120  0.120457  1
  Ni  Ni10  1  0.621526  0.367862  0.247405  1
  Ni  Ni11  1  0.879543  0.132138  0.753663  1
  Sb  Sb12  1  0.664667  0.499796  0.997532  1
  Sb  Sb13  1  0.497737  0.000204  0.664871  1
  Sb  Sb14  1  0.001073  0.659791  0.501026  1
  Sb  Sb15  1  0.841235  0.840209  0.841281  1
  Sb  Sb16  1  0.498974  0.000047  0.158765  1
  Sb  Sb17  1  0.158719  0.499953  0.998927  1
  Sb  Sb18  1  0.002468  0.167134  0.502263  1
  Sb  Sb19  1  0.335129  0.332866  0.335333  1
