# generated using pymatgen
data_Pr3Lu3TcBi2
_symmetry_space_group_name_H-M   'P 1'
_cell_length_a   8.40682000
_cell_length_b   8.40681991
_cell_length_c   4.37030400
_cell_angle_alpha   90.00000000
_cell_angle_beta   90.00000000
_cell_angle_gamma   120.00000824
_symmetry_Int_Tables_number   1
_chemical_formula_structural   Pr3Lu3TcBi2
_chemical_formula_sum   'Pr3 Lu3 Tc1 Bi2'
_cell_volume   267.48888230
_cell_formula_units_Z   1
loop_
 _symmetry_equiv_pos_site_id
 _symmetry_equiv_pos_as_xyz
  1  'x, y, z'
loop_
 _atom_site_type_symbol
 _atom_site_label
 _atom_site_symmetry_multiplicity
 _atom_site_fract_x
 _atom_site_fract_y
 _atom_site_fract_z
 _atom_site_occupancy
  Pr  Pr0  1  0.607900  0.000000  0.000000  1
  Pr  Pr1  1  0.000000  0.607900  0.000000  1
  Pr  Pr2  1  0.392100  0.392100  0.000000  1
  Lu  Lu3  1  0.225122  0.000000  0.500000  1
  Lu  Lu4  1  0.000000  0.225122  0.500000  1
  Lu  Lu5  1  0.774878  0.774878  0.500000  1
  Tc  Tc6  1  0.000000  0.000000  0.000000  1
  Bi  Bi7  1  0.333333  0.666667  0.500000  1
  Bi  Bi8  1  0.666667  0.333333  0.500000  1
