# generated using pymatgen
data_Ho3Er2Fe12Co7P12
_symmetry_space_group_name_H-M   'P 1'
_cell_length_a   11.92225900
_cell_length_b   11.92226047
_cell_length_c   3.67440500
_cell_angle_alpha   90.00000000
_cell_angle_beta   90.00000000
_cell_angle_gamma   120.00000424
_symmetry_Int_Tables_number   1
_chemical_formula_structural   Ho3Er2Fe12Co7P12
_chemical_formula_sum   'Ho3 Er2 Fe12 Co7 P12'
_cell_volume   452.30854729
_cell_formula_units_Z   1
loop_
 _symmetry_equiv_pos_site_id
 _symmetry_equiv_pos_as_xyz
  1  'x, y, z'
loop_
 _atom_site_type_symbol
 _atom_site_label
 _atom_site_symmetry_multiplicity
 _atom_site_fract_x
 _atom_site_fract_y
 _atom_site_fract_z
 _atom_site_occupancy
  Ho  Ho0  1  0.814465  0.814465  0.500000  1
  Ho  Ho1  1  0.185535  0.000000  0.500000  1
  Ho  Ho2  1  0.000000  0.185535  0.500000  1
  Er  Er3  1  0.666667  0.333333  0.000000  1
  Er  Er4  1  0.333333  0.666667  0.000000  1
  Fe  Fe5  1  0.876759  0.358402  0.500000  1
  Fe  Fe6  1  0.641598  0.518357  0.500000  1
  Fe  Fe7  1  0.481643  0.123241  0.500000  1
  Fe  Fe8  1  0.358402  0.876759  0.500000  1
  Fe  Fe9  1  0.518357  0.641598  0.500000  1
  Fe  Fe10  1  0.123241  0.481643  0.500000  1
  Fe  Fe11  1  0.444251  0.444251  0.000000  1
  Fe  Fe12  1  0.555749  0.000000  0.000000  1
  Fe  Fe13  1  0.000000  0.555749  0.000000  1
  Fe  Fe14  1  0.285046  0.285046  0.500000  1
  Fe  Fe15  1  0.714954  0.000000  0.500000  1
  Fe  Fe16  1  0.000000  0.714954  0.500000  1
  Co  Co17  1  0.801519  0.179295  0.000000  1
  Co  Co18  1  0.820705  0.622223  0.000000  1
  Co  Co19  1  0.377777  0.198481  0.000000  1
  Co  Co20  1  0.179295  0.801519  0.000000  1
  Co  Co21  1  0.622223  0.820705  0.000000  1
  Co  Co22  1  0.198481  0.377777  0.000000  1
  Co  Co23  1  0.000000  0.000000  0.000000  1
  P  P24  1  0.684507  0.165085  0.500000  1
  P  P25  1  0.834915  0.519423  0.500000  1
  P  P26  1  0.480577  0.315493  0.500000  1
  P  P27  1  0.165085  0.684507  0.500000  1
  P  P28  1  0.519423  0.834915  0.500000  1
  P  P29  1  0.315493  0.480577  0.500000  1
  P  P30  1  0.182974  0.182974  0.000000  1
  P  P31  1  0.817026  0.000000  0.000000  1
  P  P32  1  0.000000  0.817026  0.000000  1
  P  P33  1  0.628998  0.628998  0.000000  1
  P  P34  1  0.371002  0.000000  0.000000  1
  P  P35  1  0.000000  0.371002  0.000000  1
