# generated using pymatgen
data_CaPuBe26
_symmetry_space_group_name_H-M   'P 1'
_cell_length_a   7.21447917
_cell_length_b   7.21447980
_cell_length_c   7.21448000
_cell_angle_alpha   59.99999907
_cell_angle_beta   59.99999621
_cell_angle_gamma   59.99999769
_symmetry_Int_Tables_number   1
_chemical_formula_structural   CaPuBe26
_chemical_formula_sum   'Ca1 Pu1 Be26'
_cell_volume   265.52169910
_cell_formula_units_Z   1
loop_
 _symmetry_equiv_pos_site_id
 _symmetry_equiv_pos_as_xyz
  1  'x, y, z'
loop_
 _atom_site_type_symbol
 _atom_site_label
 _atom_site_symmetry_multiplicity
 _atom_site_fract_x
 _atom_site_fract_y
 _atom_site_fract_z
 _atom_site_occupancy
  Ca  Ca0  1  0.250000  0.250000  0.250000  1
  Pu  Pu1  1  0.750000  0.750000  0.750000  1
  Be  Be2  1  0.500000  0.500000  0.500000  1
  Be  Be3  1  0.000000  0.000000  0.000000  1
  Be  Be4  1  0.207887  0.789121  0.438609  1
  Be  Be5  1  0.935617  0.292113  0.710879  1
  Be  Be6  1  0.710879  0.061391  0.935617  1
  Be  Be7  1  0.935617  0.061391  0.292113  1
  Be  Be8  1  0.061391  0.935617  0.710879  1
  Be  Be9  1  0.061391  0.292113  0.935617  1
  Be  Be10  1  0.710879  0.935617  0.292113  1
  Be  Be11  1  0.438609  0.789121  0.564383  1
  Be  Be12  1  0.564383  0.789121  0.207887  1
  Be  Be13  1  0.789121  0.564383  0.438609  1
  Be  Be14  1  0.564383  0.207887  0.438609  1
  Be  Be15  1  0.789121  0.438609  0.207887  1
  Be  Be16  1  0.438609  0.207887  0.789121  1
  Be  Be17  1  0.207887  0.564383  0.789121  1
  Be  Be18  1  0.207887  0.438609  0.564383  1
  Be  Be19  1  0.710879  0.292113  0.061391  1
  Be  Be20  1  0.292113  0.935617  0.061391  1
  Be  Be21  1  0.292113  0.061391  0.710879  1
  Be  Be22  1  0.935617  0.710879  0.061391  1
  Be  Be23  1  0.061391  0.710879  0.292113  1
  Be  Be24  1  0.292113  0.710879  0.935617  1
  Be  Be25  1  0.438609  0.564383  0.207887  1
  Be  Be26  1  0.789121  0.207887  0.564383  1
  Be  Be27  1  0.564383  0.438609  0.789121  1
