# generated using pymatgen
data_Al4Ag9Au7
_symmetry_space_group_name_H-M   'P 1'
_cell_length_a   6.97288118
_cell_length_b   6.99336458
_cell_length_c   7.17549806
_cell_angle_alpha   90.01463979
_cell_angle_beta   90.26441965
_cell_angle_gamma   90.17893725
_symmetry_Int_Tables_number   1
_chemical_formula_structural   Al4Ag9Au7
_chemical_formula_sum   'Al4 Ag9 Au7'
_cell_volume   349.89982656
_cell_formula_units_Z   1
loop_
 _symmetry_equiv_pos_site_id
 _symmetry_equiv_pos_as_xyz
  1  'x, y, z'
loop_
 _atom_site_type_symbol
 _atom_site_label
 _atom_site_symmetry_multiplicity
 _atom_site_fract_x
 _atom_site_fract_y
 _atom_site_fract_z
 _atom_site_occupancy
  Al  Al0  1  0.062328  0.070993  0.062919  1
  Al  Al1  1  0.432887  0.929764  0.567632  1
  Al  Al2  1  0.561357  0.431842  0.935254  1
  Al  Al3  1  0.940405  0.565064  0.437466  1
  Ag  Ag4  1  0.789294  0.950242  0.381741  1
  Ag  Ag5  1  0.379599  0.788658  0.953952  1
  Ag  Ag6  1  0.954760  0.383196  0.788400  1
  Ag  Ag7  1  0.545680  0.620124  0.291629  1
  Ag  Ag8  1  0.876823  0.710134  0.047746  1
  Ag  Ag9  1  0.043375  0.880970  0.709456  1
  Ag  Ag10  1  0.123182  0.210894  0.451435  1
  Ag  Ag11  1  0.619610  0.287485  0.547878  1
  Ag  Ag12  1  0.456565  0.115489  0.212650  1
  Au  Au13  1  0.683817  0.679912  0.683879  1
  Au  Au14  1  0.815541  0.322947  0.187673  1
  Au  Au15  1  0.181235  0.821599  0.310776  1
  Au  Au16  1  0.315142  0.177302  0.812981  1
  Au  Au17  1  0.285900  0.554120  0.616629  1
  Au  Au18  1  0.216480  0.445510  0.115007  1
  Au  Au19  1  0.716021  0.053755  0.884894  1
