# generated using pymatgen
data_YbOsI18
_symmetry_space_group_name_H-M   'P 1'
_cell_length_a   10.29695834
_cell_length_b   10.29695950
_cell_length_c   10.29696108
_cell_angle_alpha   97.43890466
_cell_angle_beta   97.43890505
_cell_angle_gamma   97.43891414
_symmetry_Int_Tables_number   1
_chemical_formula_structural   YbOsI18
_chemical_formula_sum   'Yb1 Os1 I18'
_cell_volume   1061.52107849
_cell_formula_units_Z   1
loop_
 _symmetry_equiv_pos_site_id
 _symmetry_equiv_pos_as_xyz
  1  'x, y, z'
loop_
 _atom_site_type_symbol
 _atom_site_label
 _atom_site_symmetry_multiplicity
 _atom_site_fract_x
 _atom_site_fract_y
 _atom_site_fract_z
 _atom_site_occupancy
  Yb  Yb0  1  0.000000  0.000000  0.000000  1
  Os  Os1  1  0.500000  0.500000  0.500000  1
  I  I2  1  0.725393  0.136600  0.593554  1
  I  I3  1  0.947463  0.012410  0.694399  1
  I  I4  1  0.593554  0.725393  0.136600  1
  I  I5  1  0.987590  0.305601  0.052537  1
  I  I6  1  0.694399  0.947463  0.012410  1
  I  I7  1  0.012410  0.694399  0.947463  1
  I  I8  1  0.052537  0.987590  0.305601  1
  I  I9  1  0.863400  0.406446  0.274607  1
  I  I10  1  0.305601  0.052537  0.987590  1
  I  I11  1  0.274607  0.863400  0.406446  1
  I  I12  1  0.136600  0.593554  0.725393  1
  I  I13  1  0.406446  0.274607  0.863400  1
  I  I14  1  0.765595  0.537767  0.511902  1
  I  I15  1  0.537767  0.511902  0.765595  1
  I  I16  1  0.234405  0.462233  0.488098  1
  I  I17  1  0.462233  0.488098  0.234405  1
  I  I18  1  0.511902  0.765595  0.537767  1
  I  I19  1  0.488098  0.234405  0.462233  1
