# generated using pymatgen
data_Ca3Er(OsC2)2
_symmetry_space_group_name_H-M   'P 1'
_cell_length_a   5.14979700
_cell_length_b   6.49636407
_cell_length_c   10.25729647
_cell_angle_alpha   90.60518326
_cell_angle_beta   90.00000000
_cell_angle_gamma   90.00000000
_symmetry_Int_Tables_number   1
_chemical_formula_structural   Ca3Er(OsC2)2
_chemical_formula_sum   'Ca6 Er2 Os4 C8'
_cell_volume   343.13826222
_cell_formula_units_Z   2
loop_
 _symmetry_equiv_pos_site_id
 _symmetry_equiv_pos_as_xyz
  1  'x, y, z'
loop_
 _atom_site_type_symbol
 _atom_site_label
 _atom_site_symmetry_multiplicity
 _atom_site_fract_x
 _atom_site_fract_y
 _atom_site_fract_z
 _atom_site_occupancy
  Ca  Ca0  1  0.750000  0.807129  0.053121  1
  Ca  Ca1  1  0.250000  0.192871  0.946879  1
  Ca  Ca2  1  0.250000  0.535086  0.219951  1
  Ca  Ca3  1  0.750000  0.464914  0.780049  1
  Ca  Ca4  1  0.750000  0.966602  0.723341  1
  Ca  Ca5  1  0.250000  0.033398  0.276659  1
  Er  Er6  1  0.250000  0.680875  0.553664  1
  Er  Er7  1  0.750000  0.319125  0.446336  1
  Os  Os8  1  0.250000  0.730166  0.849854  1
  Os  Os9  1  0.750000  0.269834  0.150146  1
  Os  Os10  1  0.750000  0.771517  0.357242  1
  Os  Os11  1  0.250000  0.228483  0.642758  1
  C  C12  1  0.250000  0.468136  0.753074  1
  C  C13  1  0.750000  0.531864  0.246926  1
  C  C14  1  0.750000  0.037008  0.266460  1
  C  C15  1  0.250000  0.962992  0.733540  1
  C  C16  1  0.250000  0.792527  0.026064  1
  C  C17  1  0.750000  0.207473  0.973936  1
  C  C18  1  0.750000  0.683067  0.532491  1
  C  C19  1  0.250000  0.316933  0.467509  1
