# generated using pymatgen
data_PrY4Th3(ReB6)4
_symmetry_space_group_name_H-M   'P 1'
_cell_length_a   3.76683500
_cell_length_b   9.27770557
_cell_length_c   11.71088202
_cell_angle_alpha   89.90601527
_cell_angle_beta   90.00000000
_cell_angle_gamma   90.00000000
_symmetry_Int_Tables_number   1
_chemical_formula_structural   PrY4Th3(ReB6)4
_chemical_formula_sum   'Pr1 Y4 Th3 Re4 B24'
_cell_volume   409.26650648
_cell_formula_units_Z   1
loop_
 _symmetry_equiv_pos_site_id
 _symmetry_equiv_pos_as_xyz
  1  'x, y, z'
loop_
 _atom_site_type_symbol
 _atom_site_label
 _atom_site_symmetry_multiplicity
 _atom_site_fract_x
 _atom_site_fract_y
 _atom_site_fract_z
 _atom_site_occupancy
  Pr  Pr0  1  0.000000  0.677430  0.586388  1
  Y  Y1  1  0.000000  0.444578  0.127138  1
  Y  Y2  1  0.000000  0.556381  0.871560  1
  Y  Y3  1  0.000000  0.942760  0.372219  1
  Y  Y4  1  0.000000  0.055864  0.628343  1
  Th  Th5  1  0.000000  0.821604  0.085610  1
  Th  Th6  1  0.000000  0.178356  0.913754  1
  Th  Th7  1  0.000000  0.323653  0.414380  1
  Re  Re8  1  0.000000  0.138490  0.180030  1
  Re  Re9  1  0.000000  0.863051  0.821254  1
  Re  Re10  1  0.000000  0.638733  0.319210  1
  Re  Re11  1  0.000000  0.359529  0.680008  1
  B  B12  1  0.500000  0.055719  0.070454  1
  B  B13  1  0.500000  0.944520  0.929825  1
  B  B14  1  0.500000  0.555234  0.430113  1
  B  B15  1  0.500000  0.444030  0.569618  1
  B  B16  1  0.500000  0.248973  0.083397  1
  B  B17  1  0.500000  0.750935  0.916498  1
  B  B18  1  0.500000  0.748416  0.416548  1
  B  B19  1  0.500000  0.251480  0.583276  1
  B  B20  1  0.500000  0.290169  0.233399  1
  B  B21  1  0.500000  0.709742  0.766947  1
  B  B22  1  0.500000  0.789976  0.266840  1
  B  B23  1  0.500000  0.209730  0.733149  1
  B  B24  1  0.500000  0.130345  0.313667  1
  B  B25  1  0.500000  0.869801  0.686614  1
  B  B26  1  0.500000  0.630540  0.186577  1
  B  B27  1  0.500000  0.369605  0.813188  1
  B  B28  1  0.500000  0.485243  0.286666  1
  B  B29  1  0.500000  0.514945  0.713600  1
  B  B30  1  0.500000  0.984935  0.213759  1
  B  B31  1  0.500000  0.015178  0.786412  1
  B  B32  1  0.500000  0.101061  0.471812  1
  B  B33  1  0.500000  0.898842  0.528396  1
  B  B34  1  0.500000  0.604214  0.028348  1
  B  B35  1  0.500000  0.395937  0.971007  1
