# generated using pymatgen
data_Dy9YCd3Tc
_symmetry_space_group_name_H-M   'P 1'
_cell_length_a   9.56053918
_cell_length_b   9.56053870
_cell_length_c   9.95580300
_cell_angle_alpha   90.00000000
_cell_angle_beta   90.00000000
_cell_angle_gamma   120.02225456
_symmetry_Int_Tables_number   1
_chemical_formula_structural   Dy9YCd3Tc
_chemical_formula_sum   'Dy18 Y2 Cd6 Tc2'
_cell_volume   787.90569667
_cell_formula_units_Z   2
loop_
 _symmetry_equiv_pos_site_id
 _symmetry_equiv_pos_as_xyz
  1  'x, y, z'
loop_
 _atom_site_type_symbol
 _atom_site_label
 _atom_site_symmetry_multiplicity
 _atom_site_fract_x
 _atom_site_fract_y
 _atom_site_fract_z
 _atom_site_occupancy
  Dy  Dy0  1  0.999990  0.000010  0.500030  1
  Dy  Dy1  1  0.999990  0.000010  0.999970  1
  Dy  Dy2  1  0.210052  0.789948  0.440725  1
  Dy  Dy3  1  0.210101  0.420151  0.440778  1
  Dy  Dy4  1  0.579849  0.789899  0.440778  1
  Dy  Dy5  1  0.789948  0.210052  0.559157  1
  Dy  Dy6  1  0.789903  0.579883  0.559171  1
  Dy  Dy7  1  0.420117  0.210097  0.559171  1
  Dy  Dy8  1  0.789948  0.210052  0.940843  1
  Dy  Dy9  1  0.789903  0.579883  0.940829  1
  Dy  Dy10  1  0.420117  0.210097  0.940829  1
  Dy  Dy11  1  0.210052  0.789948  0.059275  1
  Dy  Dy12  1  0.210101  0.420151  0.059222  1
  Dy  Dy13  1  0.579849  0.789899  0.059222  1
  Dy  Dy14  1  0.539675  0.460325  0.250000  1
  Dy  Dy15  1  0.539686  0.079362  0.250000  1
  Dy  Dy16  1  0.920638  0.460314  0.250000  1
  Dy  Dy17  1  0.460370  0.539630  0.750000  1
  Y  Y18  1  0.460317  0.920591  0.750000  1
  Y  Y19  1  0.079409  0.539683  0.750000  1
  Cd  Cd20  1  0.885423  0.114577  0.250000  1
  Cd  Cd21  1  0.885449  0.770864  0.250000  1
  Cd  Cd22  1  0.229136  0.114551  0.250000  1
  Cd  Cd23  1  0.114553  0.885447  0.750000  1
  Cd  Cd24  1  0.114584  0.229126  0.750000  1
  Cd  Cd25  1  0.770874  0.885416  0.750000  1
  Tc  Tc26  1  0.333362  0.666638  0.250000  1
  Tc  Tc27  1  0.666606  0.333394  0.750000  1
