# generated using pymatgen
data_CeY3(Si5Pt3)2
_symmetry_space_group_name_H-M   'P 1'
_cell_length_a   8.18403268
_cell_length_b   8.18847997
_cell_length_c   8.18848034
_cell_angle_alpha   136.30407382
_cell_angle_beta   104.76042753
_cell_angle_gamma   91.28103585
_symmetry_Int_Tables_number   1
_chemical_formula_structural   CeY3(Si5Pt3)2
_chemical_formula_sum   'Ce1 Y3 Si10 Pt6'
_cell_volume   348.61751229
_cell_formula_units_Z   1
loop_
 _symmetry_equiv_pos_site_id
 _symmetry_equiv_pos_as_xyz
  1  'x, y, z'
loop_
 _atom_site_type_symbol
 _atom_site_label
 _atom_site_symmetry_multiplicity
 _atom_site_fract_x
 _atom_site_fract_y
 _atom_site_fract_z
 _atom_site_occupancy
  Ce  Ce0  1  0.899908  0.129910  0.769998  1
  Y  Y1  1  0.641380  0.370141  0.271239  1
  Y  Y2  1  0.358591  0.629228  0.729363  1
  Y  Y3  1  0.100213  0.871274  0.228939  1
  Si  Si4  1  0.272283  0.520318  0.248645  1
  Si  Si5  1  0.727951  0.477749  0.750059  1
  Si  Si6  1  0.727951  0.977891  0.250202  1
  Si  Si7  1  0.272283  0.023638  0.751965  1
  Si  Si8  1  0.462047  0.112512  0.349535  1
  Si  Si9  1  0.537004  0.886284  0.650719  1
  Si  Si10  1  0.762747  0.611536  0.151212  1
  Si  Si11  1  0.236645  0.387537  0.849108  1
  Si  Si12  1  0.999954  0.249620  0.248309  1
  Si  Si13  1  0.999954  0.751645  0.750334  1
  Pt  Pt14  1  0.250571  0.137174  0.113396  1
  Pt  Pt15  1  0.749877  0.861360  0.888517  1
  Pt  Pt16  1  0.027064  0.638299  0.388765  1
  Pt  Pt17  1  0.975609  0.364721  0.610888  1
  Pt  Pt18  1  0.498985  0.248403  0.748222  1
  Pt  Pt19  1  0.498985  0.750762  0.250582  1
