# generated using pymatgen
data_Li4Dy4IrPt3
_symmetry_space_group_name_H-M   'P 1'
_cell_length_a   3.98320900
_cell_length_b   7.04102581
_cell_length_c   8.39070938
_cell_angle_alpha   90.29186432
_cell_angle_beta   90.00000000
_cell_angle_gamma   90.00000000
_symmetry_Int_Tables_number   1
_chemical_formula_structural   Li4Dy4IrPt3
_chemical_formula_sum   'Li4 Dy4 Ir1 Pt3'
_cell_volume   235.32175326
_cell_formula_units_Z   1
loop_
 _symmetry_equiv_pos_site_id
 _symmetry_equiv_pos_as_xyz
  1  'x, y, z'
loop_
 _atom_site_type_symbol
 _atom_site_label
 _atom_site_symmetry_multiplicity
 _atom_site_fract_x
 _atom_site_fract_y
 _atom_site_fract_z
 _atom_site_occupancy
  Li  Li0  1  0.250000  0.374488  0.558038  1
  Li  Li1  1  0.250000  0.873292  0.943532  1
  Li  Li2  1  0.750000  0.626353  0.441695  1
  Li  Li3  1  0.750000  0.126298  0.055555  1
  Dy  Dy4  1  0.250000  0.953235  0.321428  1
  Dy  Dy5  1  0.250000  0.448977  0.174047  1
  Dy  Dy6  1  0.750000  0.052182  0.685417  1
  Dy  Dy7  1  0.750000  0.538519  0.820960  1
  Ir  Ir8  1  0.250000  0.258027  0.872551  1
  Pt  Pt9  1  0.250000  0.756255  0.624877  1
  Pt  Pt10  1  0.750000  0.746248  0.127764  1
  Pt  Pt11  1  0.750000  0.246129  0.374133  1
