# generated using pymatgen
data_Pr5P12Ir9Ru10
_symmetry_space_group_name_H-M   'P 1'
_cell_length_a   12.72995020
_cell_length_b   12.69758301
_cell_length_c   4.01429700
_cell_angle_alpha   90.00000000
_cell_angle_beta   90.00000000
_cell_angle_gamma   119.84414816
_symmetry_Int_Tables_number   1
_chemical_formula_structural   Pr5P12Ir9Ru10
_chemical_formula_sum   'Pr5 P12 Ir9 Ru10'
_cell_volume   562.81777234
_cell_formula_units_Z   1
loop_
 _symmetry_equiv_pos_site_id
 _symmetry_equiv_pos_as_xyz
  1  'x, y, z'
loop_
 _atom_site_type_symbol
 _atom_site_label
 _atom_site_symmetry_multiplicity
 _atom_site_fract_x
 _atom_site_fract_y
 _atom_site_fract_z
 _atom_site_occupancy
  Pr  Pr0  1  0.667374  0.332395  0.000000  1
  Pr  Pr1  1  0.333452  0.666708  0.000000  1
  Pr  Pr2  1  0.812705  0.000755  0.500000  1
  Pr  Pr3  1  0.185362  0.187481  0.500000  1
  Pr  Pr4  1  0.000340  0.813792  0.500000  1
  P  P5  1  0.628510  0.996856  0.000000  1
  P  P6  1  0.366969  0.373633  0.000000  1
  P  P7  1  0.006810  0.633022  0.000000  1
  P  P8  1  0.690276  0.520655  0.500000  1
  P  P9  1  0.830085  0.305885  0.500000  1
  P  P10  1  0.312324  0.831483  0.500000  1
  P  P11  1  0.519176  0.687681  0.500000  1
  P  P12  1  0.183627  0.001603  0.000000  1
  P  P13  1  0.816301  0.816175  0.000000  1
  P  P14  1  0.996708  0.184340  0.000000  1
  P  P15  1  0.478827  0.167540  0.500000  1
  P  P16  1  0.168990  0.481407  0.500000  1
  Ir  Ir17  1  0.622160  0.801488  0.000000  1
  Ir  Ir18  1  0.180279  0.378416  0.000000  1
  Ir  Ir19  1  0.376941  0.184194  0.000000  1
  Ir  Ir20  1  0.198237  0.821548  0.000000  1
  Ir  Ir21  1  0.807134  0.622901  0.000000  1
  Ir  Ir22  1  0.871050  0.506682  0.500000  1
  Ir  Ir23  1  0.492522  0.362153  0.500000  1
  Ir  Ir24  1  0.635425  0.125824  0.500000  1
  Ir  Ir25  1  0.999365  0.000164  0.000000  1
  Ru  Ru26  1  0.125103  0.638907  0.500000  1
  Ru  Ru27  1  0.362663  0.487141  0.500000  1
  Ru  Ru28  1  0.511891  0.873240  0.500000  1
  Ru  Ru29  1  0.712938  0.711317  0.500000  1
  Ru  Ru30  1  0.000621  0.288329  0.500000  1
  Ru  Ru31  1  0.450384  0.001337  0.000000  1
  Ru  Ru32  1  0.551528  0.547459  0.000000  1
  Ru  Ru33  1  0.998949  0.449951  0.000000  1
  Ru  Ru34  1  0.816854  0.195751  0.000000  1
  Ru  Ru35  1  0.288119  0.001787  0.500000  1
