# generated using pymatgen
data_Ti12Be8Zn3CoN4
_symmetry_space_group_name_H-M   'P 1'
_cell_length_a   7.73328315
_cell_length_b   7.78927551
_cell_length_c   7.73328200
_cell_angle_alpha   60.23751141
_cell_angle_beta   60.00000494
_cell_angle_gamma   60.23750733
_symmetry_Int_Tables_number   1
_chemical_formula_structural   Ti12Be8Zn3CoN4
_chemical_formula_sum   'Ti12 Be8 Zn3 Co1 N4'
_cell_volume   330.56711461
_cell_formula_units_Z   1
loop_
 _symmetry_equiv_pos_site_id
 _symmetry_equiv_pos_as_xyz
  1  'x, y, z'
loop_
 _atom_site_type_symbol
 _atom_site_label
 _atom_site_symmetry_multiplicity
 _atom_site_fract_x
 _atom_site_fract_y
 _atom_site_fract_z
 _atom_site_occupancy
  Ti  Ti0  1  0.810295  0.811113  0.189296  1
  Ti  Ti1  1  0.201148  0.184816  0.807018  1
  Ti  Ti2  1  0.807018  0.184816  0.807018  1
  Ti  Ti3  1  0.189296  0.811113  0.189296  1
  Ti  Ti4  1  0.189296  0.811113  0.810295  1
  Ti  Ti5  1  0.807018  0.184816  0.201148  1
  Ti  Ti6  1  0.439705  0.438887  0.060704  1
  Ti  Ti7  1  0.048852  0.065184  0.442982  1
  Ti  Ti8  1  0.442982  0.065184  0.442982  1
  Ti  Ti9  1  0.060704  0.438887  0.060704  1
  Ti  Ti10  1  0.060704  0.438887  0.439705  1
  Ti  Ti11  1  0.442982  0.065184  0.048852  1
  Be  Be12  1  0.727200  0.412939  0.429931  1
  Be  Be13  1  0.422739  0.731784  0.422739  1
  Be  Be14  1  0.429931  0.412939  0.727200  1
  Be  Be15  1  0.429931  0.412939  0.429931  1
  Be  Be16  1  0.522800  0.837061  0.820069  1
  Be  Be17  1  0.827261  0.518216  0.827261  1
  Be  Be18  1  0.820069  0.837061  0.522800  1
  Be  Be19  1  0.820069  0.837061  0.820069  1
  Zn  Zn20  1  0.125000  0.625000  0.625000  1
  Zn  Zn21  1  0.625000  0.625000  0.125000  1
  Zn  Zn22  1  0.625000  0.625000  0.625000  1
  Co  Co23  1  0.625000  0.125000  0.625000  1
  N  N24  1  0.625000  0.125000  0.125000  1
  N  N25  1  0.125000  0.625000  0.125000  1
  N  N26  1  0.125000  0.125000  0.625000  1
  N  N27  1  0.125000  0.125000  0.125000  1
