# generated using pymatgen
data_Tm4Pd2RuPtO14
_symmetry_space_group_name_H-M   'P 1'
_cell_length_a   7.16377513
_cell_length_b   7.21590785
_cell_length_c   7.16575810
_cell_angle_alpha   60.22968919
_cell_angle_beta   60.00915120
_cell_angle_gamma   60.23870382
_symmetry_Int_Tables_number   1
_chemical_formula_structural   Tm4Pd2RuPtO14
_chemical_formula_sum   'Tm4 Pd2 Ru1 Pt1 O14'
_cell_volume   262.86854133
_cell_formula_units_Z   1
loop_
 _symmetry_equiv_pos_site_id
 _symmetry_equiv_pos_as_xyz
  1  'x, y, z'
loop_
 _atom_site_type_symbol
 _atom_site_label
 _atom_site_symmetry_multiplicity
 _atom_site_fract_x
 _atom_site_fract_y
 _atom_site_fract_z
 _atom_site_occupancy
  Tm  Tm0  1  0.125000  0.125000  0.625000  1
  Tm  Tm1  1  0.125000  0.125000  0.125000  1
  Tm  Tm2  1  0.625000  0.125000  0.125000  1
  Tm  Tm3  1  0.125000  0.625000  0.125000  1
  Pd  Pd4  1  0.625000  0.625000  0.625000  1
  Pd  Pd5  1  0.125000  0.625000  0.625000  1
  Ru  Ru6  1  0.625000  0.125000  0.625000  1
  Pt  Pt7  1  0.625000  0.625000  0.125000  1
  O  O8  1  0.532595  0.528676  0.970209  1
  O  O9  1  0.968519  0.528676  0.970209  1
  O  O10  1  0.288703  0.283498  0.714025  1
  O  O11  1  0.999744  0.000514  0.999997  1
  O  O12  1  0.280751  0.721159  0.717340  1
  O  O13  1  0.717405  0.721324  0.279791  1
  O  O14  1  0.714212  0.285142  0.286434  1
  O  O15  1  0.536226  0.966502  0.535975  1
  O  O16  1  0.713774  0.283498  0.714025  1
  O  O17  1  0.535788  0.964858  0.963566  1
  O  O18  1  0.961297  0.966502  0.535975  1
  O  O19  1  0.250256  0.249486  0.250003  1
  O  O20  1  0.281481  0.721324  0.279791  1
  O  O21  1  0.969249  0.528841  0.532660  1
