# generated using pymatgen
data_Gd7Er3(SiB4)4
_symmetry_space_group_name_H-M   'P 1'
_cell_length_a   7.24685302
_cell_length_b   7.24677401
_cell_length_c   8.14404702
_cell_angle_alpha   89.99437514
_cell_angle_beta   89.99444889
_cell_angle_gamma   89.99459197
_symmetry_Int_Tables_number   1
_chemical_formula_structural   Gd7Er3(SiB4)4
_chemical_formula_sum   'Gd7 Er3 Si4 B16'
_cell_volume   427.69526072
_cell_formula_units_Z   1
loop_
 _symmetry_equiv_pos_site_id
 _symmetry_equiv_pos_as_xyz
  1  'x, y, z'
loop_
 _atom_site_type_symbol
 _atom_site_label
 _atom_site_symmetry_multiplicity
 _atom_site_fract_x
 _atom_site_fract_y
 _atom_site_fract_z
 _atom_site_occupancy
  Gd  Gd0  1  0.319458  0.819457  0.774712  1
  Gd  Gd1  1  0.319557  0.819536  0.225675  1
  Gd  Gd2  1  0.819232  0.680564  0.226176  1
  Gd  Gd3  1  0.819648  0.680325  0.774030  1
  Gd  Gd4  1  0.680603  0.180599  0.774774  1
  Gd  Gd5  1  0.180335  0.319644  0.774009  1
  Gd  Gd6  1  0.180540  0.319261  0.226266  1
  Er  Er7  1  0.680386  0.180389  0.221090  1
  Er  Er8  1  0.999493  0.000436  0.499478  1
  Er  Er9  1  0.500443  0.499490  0.499479  1
  Si  Si10  1  0.114574  0.614567  0.499487  1
  Si  Si11  1  0.883881  0.383881  0.498634  1
  Si  Si12  1  0.385858  0.115846  0.498461  1
  Si  Si13  1  0.615837  0.885870  0.498462  1
  B  B14  1  0.172287  0.039411  0.000626  1
  B  B15  1  0.827194  0.961235  0.000529  1
  B  B16  1  0.960111  0.172748  0.000410  1
  B  B17  1  0.327774  0.539143  0.000553  1
  B  B18  1  0.039147  0.827784  0.000560  1
  B  B19  1  0.672738  0.460110  0.000417  1
  B  B20  1  0.539409  0.672281  0.000631  1
  B  B21  1  0.461235  0.327188  0.000523  1
  B  B22  1  0.090214  0.590217  0.000297  1
  B  B23  1  0.909729  0.409733  0.000187  1
  B  B24  1  0.410364  0.090070  0.001132  1
  B  B25  1  0.590080  0.910354  0.001140  1
  B  B26  1  0.999034  0.000623  0.161266  1
  B  B27  1  0.000029  0.000192  0.839865  1
  B  B28  1  0.500178  0.500014  0.839865  1
  B  B29  1  0.500632  0.499034  0.161266  1
