# generated using pymatgen
data_Rb2Rh2F11
_symmetry_space_group_name_H-M   'P 1'
_cell_length_a   5.20064500
_cell_length_b   7.43785203
_cell_length_c   13.79788600
_cell_angle_alpha   79.24183895
_cell_angle_beta   90.00000000
_cell_angle_gamma   90.00000000
_symmetry_Int_Tables_number   1
_chemical_formula_structural   Rb2Rh2F11
_chemical_formula_sum   'Rb4 Rh4 F22'
_cell_volume   524.34385148
_cell_formula_units_Z   2
loop_
 _symmetry_equiv_pos_site_id
 _symmetry_equiv_pos_as_xyz
  1  'x, y, z'
loop_
 _atom_site_type_symbol
 _atom_site_label
 _atom_site_symmetry_multiplicity
 _atom_site_fract_x
 _atom_site_fract_y
 _atom_site_fract_z
 _atom_site_occupancy
  Rb  Rb0  1  0.403079  0.226042  0.592455  1
  Rb  Rb1  1  0.596921  0.226042  0.092455  1
  Rb  Rb2  1  0.596921  0.773958  0.407545  1
  Rb  Rb3  1  0.403079  0.773958  0.907545  1
  Rh  Rh4  1  0.023256  0.283122  0.338540  1
  Rh  Rh5  1  0.976744  0.283122  0.838540  1
  Rh  Rh6  1  0.023256  0.716878  0.161460  1
  Rh  Rh7  1  0.976744  0.716878  0.661460  1
  F  F8  1  0.142019  0.500000  0.750000  1
  F  F9  1  0.857981  0.500000  0.250000  1
  F  F10  1  0.720738  0.852533  0.183306  1
  F  F11  1  0.678836  0.581383  0.636871  1
  F  F12  1  0.167847  0.789054  0.274747  1
  F  F13  1  0.831951  0.073252  0.922545  1
  F  F14  1  0.321164  0.418617  0.363129  1
  F  F15  1  0.168049  0.926748  0.077455  1
  F  F16  1  0.167847  0.210946  0.225253  1
  F  F17  1  0.279262  0.852533  0.683306  1
  F  F18  1  0.832153  0.210946  0.725253  1
  F  F19  1  0.678836  0.418617  0.863129  1
  F  F20  1  0.168049  0.073252  0.422545  1
  F  F21  1  0.137041  0.358636  0.949439  1
  F  F22  1  0.279262  0.147467  0.816694  1
  F  F23  1  0.862959  0.641364  0.050561  1
  F  F24  1  0.832153  0.789054  0.774747  1
  F  F25  1  0.720738  0.147467  0.316694  1
  F  F26  1  0.831951  0.926748  0.577455  1
  F  F27  1  0.862959  0.358636  0.449439  1
  F  F28  1  0.321164  0.581383  0.136871  1
  F  F29  1  0.137041  0.641364  0.550561  1
