# generated using pymatgen
data_Ca20(Si3Hg)3
_symmetry_space_group_name_H-M   'P 1'
_cell_length_a   7.70349900
_cell_length_b   7.70349900
_cell_length_c   15.07257000
_cell_angle_alpha   90.00000000
_cell_angle_beta   90.00000000
_cell_angle_gamma   90.00000000
_symmetry_Int_Tables_number   1
_chemical_formula_structural   Ca20(Si3Hg)3
_chemical_formula_sum   'Ca20 Si9 Hg3'
_cell_volume   894.46503924
_cell_formula_units_Z   1
loop_
 _symmetry_equiv_pos_site_id
 _symmetry_equiv_pos_as_xyz
  1  'x, y, z'
loop_
 _atom_site_type_symbol
 _atom_site_label
 _atom_site_symmetry_multiplicity
 _atom_site_fract_x
 _atom_site_fract_y
 _atom_site_fract_z
 _atom_site_occupancy
  Ca  Ca0  1  0.682630  0.168788  0.107834  1
  Ca  Ca1  1  0.175085  0.673443  0.613729  1
  Ca  Ca2  1  0.317370  0.831212  0.107834  1
  Ca  Ca3  1  0.824915  0.326557  0.613729  1
  Ca  Ca4  1  0.831212  0.682630  0.107834  1
  Ca  Ca5  1  0.326557  0.175085  0.613729  1
  Ca  Ca6  1  0.168788  0.317370  0.107834  1
  Ca  Ca7  1  0.673443  0.824915  0.613729  1
  Ca  Ca8  1  0.831212  0.317370  0.892166  1
  Ca  Ca9  1  0.326557  0.824915  0.386271  1
  Ca  Ca10  1  0.168788  0.682630  0.892166  1
  Ca  Ca11  1  0.673443  0.175085  0.386271  1
  Ca  Ca12  1  0.682630  0.831212  0.892166  1
  Ca  Ca13  1  0.175085  0.326557  0.386271  1
  Ca  Ca14  1  0.317370  0.168788  0.892166  1
  Ca  Ca15  1  0.824915  0.673443  0.386271  1
  Ca  Ca16  1  0.500000  0.500000  0.755427  1
  Ca  Ca17  1  0.000000  0.000000  0.246624  1
  Ca  Ca18  1  0.000000  0.000000  0.753376  1
  Ca  Ca19  1  0.500000  0.500000  0.244573  1
  Si  Si20  1  0.610420  0.113942  0.752174  1
  Si  Si21  1  0.113942  0.610420  0.247826  1
  Si  Si22  1  0.886058  0.389580  0.247826  1
  Si  Si23  1  0.389580  0.886058  0.752174  1
  Si  Si24  1  0.886058  0.610420  0.752174  1
  Si  Si25  1  0.389580  0.113942  0.247826  1
  Si  Si26  1  0.113942  0.389580  0.752174  1
  Si  Si27  1  0.610420  0.886058  0.247826  1
  Si  Si28  1  0.000000  0.000000  0.000000  1
  Hg  Hg29  1  0.500000  0.500000  0.500000  1
  Hg  Hg30  1  0.500000  0.500000  0.000000  1
  Hg  Hg31  1  0.000000  0.000000  0.500000  1
