# generated using pymatgen
data_HfNp2Al9
_symmetry_space_group_name_H-M   'P 1'
_cell_length_a   7.84866451
_cell_length_b   7.84866507
_cell_length_c   7.84866477
_cell_angle_alpha   45.02488390
_cell_angle_beta   45.02487527
_cell_angle_gamma   45.02488422
_symmetry_Int_Tables_number   1
_chemical_formula_structural   HfNp2Al9
_chemical_formula_sum   'Hf1 Np2 Al9'
_cell_volume   220.23402448
_cell_formula_units_Z   1
loop_
 _symmetry_equiv_pos_site_id
 _symmetry_equiv_pos_as_xyz
  1  'x, y, z'
loop_
 _atom_site_type_symbol
 _atom_site_label
 _atom_site_symmetry_multiplicity
 _atom_site_fract_x
 _atom_site_fract_y
 _atom_site_fract_z
 _atom_site_occupancy
  Hf  Hf0  1  0.221949  0.221949  0.221949  1
  Np  Np1  1  0.000010  0.000010  0.000010  1
  Np  Np2  1  0.779490  0.779490  0.779490  1
  Al  Al3  1  0.499655  0.499655  0.995299  1
  Al  Al4  1  0.995299  0.499655  0.499655  1
  Al  Al5  1  0.499655  0.995299  0.499655  1
  Al  Al6  1  0.711583  0.242907  0.711583  1
  Al  Al7  1  0.711583  0.711583  0.242907  1
  Al  Al8  1  0.242907  0.711583  0.711583  1
  Al  Al9  1  0.289406  0.759054  0.289406  1
  Al  Al10  1  0.289406  0.289406  0.759054  1
  Al  Al11  1  0.759054  0.289406  0.289406  1
