# generated using pymatgen
data_Ce2TcB8Os
_symmetry_space_group_name_H-M   'P 1'
_cell_length_a   6.01301939
_cell_length_b   11.64156334
_cell_length_c   3.64946100
_cell_angle_alpha   90.00000000
_cell_angle_beta   90.00000000
_cell_angle_gamma   90.05143663
_symmetry_Int_Tables_number   1
_chemical_formula_structural   Ce2TcB8Os
_chemical_formula_sum   'Ce4 Tc2 B16 Os2'
_cell_volume   255.46561966
_cell_formula_units_Z   2
loop_
 _symmetry_equiv_pos_site_id
 _symmetry_equiv_pos_as_xyz
  1  'x, y, z'
loop_
 _atom_site_type_symbol
 _atom_site_label
 _atom_site_symmetry_multiplicity
 _atom_site_fract_x
 _atom_site_fract_y
 _atom_site_fract_z
 _atom_site_occupancy
  Ce  Ce0  1  0.627876  0.349289  0.000000  1
  Ce  Ce1  1  0.372124  0.650711  0.000000  1
  Ce  Ce2  1  0.127807  0.149075  0.000000  1
  Ce  Ce3  1  0.872193  0.850925  0.000000  1
  Tc  Tc4  1  0.636825  0.091640  0.000000  1
  Tc  Tc5  1  0.363175  0.908360  0.000000  1
  B  B6  1  0.785805  0.185492  0.500000  1
  B  B7  1  0.214195  0.814508  0.500000  1
  B  B8  1  0.286873  0.314974  0.500000  1
  B  B9  1  0.713127  0.685026  0.500000  1
  B  B10  1  0.862366  0.031678  0.500000  1
  B  B11  1  0.137634  0.968322  0.500000  1
  B  B12  1  0.362709  0.468704  0.500000  1
  B  B13  1  0.637291  0.531296  0.500000  1
  B  B14  1  0.888470  0.453896  0.500000  1
  B  B15  1  0.111530  0.546104  0.500000  1
  B  B16  1  0.388331  0.045647  0.500000  1
  B  B17  1  0.611669  0.954353  0.500000  1
  B  B18  1  0.973377  0.309757  0.500000  1
  B  B19  1  0.026623  0.690243  0.500000  1
  B  B20  1  0.474799  0.190429  0.500000  1
  B  B21  1  0.525201  0.809571  0.500000  1
  Os  Os22  1  0.140666  0.406473  0.000000  1
  Os  Os23  1  0.859334  0.593527  0.000000  1
