# generated using pymatgen
data_Y13Ho2Pa(CdIr)4
_symmetry_space_group_name_H-M   'P 1'
_cell_length_a   9.69030982
_cell_length_b   9.69896991
_cell_length_c   9.69892915
_cell_angle_alpha   59.68805954
_cell_angle_beta   59.66237310
_cell_angle_gamma   59.66241647
_symmetry_Int_Tables_number   1
_chemical_formula_structural   Y13Ho2Pa(CdIr)4
_chemical_formula_sum   'Y13 Ho2 Pa1 Cd4 Ir4'
_cell_volume   639.75422498
_cell_formula_units_Z   1
loop_
 _symmetry_equiv_pos_site_id
 _symmetry_equiv_pos_as_xyz
  1  'x, y, z'
loop_
 _atom_site_type_symbol
 _atom_site_label
 _atom_site_symmetry_multiplicity
 _atom_site_fract_x
 _atom_site_fract_y
 _atom_site_fract_z
 _atom_site_occupancy
  Y  Y0  1  0.947136  0.351019  0.351022  1
  Y  Y1  1  0.810923  0.190156  0.190157  1
  Y  Y2  1  0.189977  0.810668  0.810668  1
  Y  Y3  1  0.190505  0.810856  0.190354  1
  Y  Y4  1  0.810868  0.189768  0.811058  1
  Y  Y5  1  0.190505  0.190360  0.810853  1
  Y  Y6  1  0.810867  0.811056  0.189765  1
  Y  Y7  1  0.940982  0.562880  0.562874  1
  Y  Y8  1  0.561131  0.939240  0.939238  1
  Y  Y9  1  0.562396  0.941085  0.562660  1
  Y  Y10  1  0.939029  0.561725  0.938420  1
  Y  Y11  1  0.562389  0.562658  0.941091  1
  Y  Y12  1  0.939029  0.938426  0.561723  1
  Ho  Ho13  1  0.350193  0.350251  0.949986  1
  Ho  Ho14  1  0.350188  0.949989  0.350258  1
  Pa  Pa15  1  0.341844  0.342332  0.342341  1
  Cd  Cd16  1  0.578669  0.579220  0.579219  1
  Cd  Cd17  1  0.578338  0.578751  0.255981  1
  Cd  Cd18  1  0.578344  0.255982  0.578743  1
  Cd  Cd19  1  0.256147  0.578576  0.578569  1
  Ir  Ir20  1  0.145051  0.142607  0.142603  1
  Ir  Ir21  1  0.148724  0.146262  0.568868  1
  Ir  Ir22  1  0.148733  0.568859  0.146268  1
  Ir  Ir23  1  0.568032  0.147276  0.147281  1
