# generated using pymatgen
data_Tb8Yb2Ga3Bi2Pt
_symmetry_space_group_name_H-M   'P 1'
_cell_length_a   8.79923015
_cell_length_b   8.79922980
_cell_length_c   8.83103309
_cell_angle_alpha   125.51995270
_cell_angle_beta   125.51994734
_cell_angle_gamma   80.43463466
_symmetry_Int_Tables_number   1
_chemical_formula_structural   Tb8Yb2Ga3Bi2Pt
_chemical_formula_sum   'Tb8 Yb2 Ga3 Bi2 Pt1'
_cell_volume   437.53828132
_cell_formula_units_Z   1
loop_
 _symmetry_equiv_pos_site_id
 _symmetry_equiv_pos_as_xyz
  1  'x, y, z'
loop_
 _atom_site_type_symbol
 _atom_site_label
 _atom_site_symmetry_multiplicity
 _atom_site_fract_x
 _atom_site_fract_y
 _atom_site_fract_z
 _atom_site_occupancy
  Tb  Tb0  1  0.790406  0.297944  0.807523  1
  Tb  Tb1  1  0.202056  0.709594  0.192477  1
  Tb  Tb2  1  0.482881  0.990420  0.192477  1
  Tb  Tb3  1  0.302641  0.469123  0.500000  1
  Tb  Tb4  1  0.030877  0.197359  0.500000  1
  Tb  Tb5  1  0.509580  0.017119  0.807523  1
  Tb  Tb6  1  0.700432  0.517795  0.500000  1
  Tb  Tb7  1  0.982205  0.799568  0.500000  1
  Yb  Yb8  1  0.002351  0.001726  0.004078  1
  Yb  Yb9  1  0.498274  0.497649  0.995922  1
  Ga  Ga10  1  0.133565  0.637179  0.770744  1
  Ga  Ga11  1  0.862821  0.366435  0.229256  1
  Ga  Ga12  1  0.634029  0.865971  0.500000  1
  Bi  Bi13  1  0.246895  0.253105  0.000000  1
  Bi  Bi14  1  0.746895  0.753105  0.000000  1
  Pt  Pt15  1  0.374091  0.125909  0.500000  1
