# generated using pymatgen
data_PrF37
_symmetry_space_group_name_H-M   'P 1'
_cell_length_a   6.29853461
_cell_length_b   10.67788513
_cell_length_c   10.67543311
_cell_angle_alpha   87.20554512
_cell_angle_beta   96.62121240
_cell_angle_gamma   73.00200432
_symmetry_Int_Tables_number   1
_chemical_formula_structural   PrF37
_chemical_formula_sum   'Pr1 F37'
_cell_volume   679.45757390
_cell_formula_units_Z   1
loop_
 _symmetry_equiv_pos_site_id
 _symmetry_equiv_pos_as_xyz
  1  'x, y, z'
loop_
 _atom_site_type_symbol
 _atom_site_label
 _atom_site_symmetry_multiplicity
 _atom_site_fract_x
 _atom_site_fract_y
 _atom_site_fract_z
 _atom_site_occupancy
  Pr  Pr0  1  0.201427  0.197946  0.185220  1
  F  F1  1  0.717306  0.869247  0.736415  1
  F  F2  1  0.299478  0.386831  0.883281  1
  F  F3  1  0.698815  0.627580  0.090948  1
  F  F4  1  0.325749  0.241995  0.569035  1
  F  F5  1  0.678984  0.759180  0.448892  1
  F  F6  1  0.857664  0.183873  0.827902  1
  F  F7  1  0.122270  0.786468  0.195999  1
  F  F8  1  0.663865  0.891121  0.012912  1
  F  F9  1  0.293861  0.152967  0.988846  1
  F  F10  1  0.781258  0.585998  0.830370  1
  F  F11  1  0.191963  0.408649  0.126671  1
  F  F12  1  0.440826  0.447461  0.824689  1
  F  F13  1  0.563212  0.563939  0.151409  1
  F  F14  1  0.765212  0.585223  0.696013  1
  F  F15  1  0.269259  0.358729  0.313648  1
  F  F16  1  0.783880  0.035483  0.506140  1
  F  F17  1  0.246009  0.025081  0.422006  1
  F  F18  1  0.308546  0.187093  0.690606  1
  F  F19  1  0.689624  0.787454  0.318256  1
  F  F20  1  0.842780  0.086599  0.622462  1
  F  F21  1  0.187749  0.924456  0.351269  1
  F  F22  1  0.813962  0.966383  0.996797  1
  F  F23  1  0.210935  0.008476  0.080491  1
  F  F24  1  0.902335  0.306293  0.809619  1
  F  F25  1  0.130190  0.653777  0.227325  1
  F  F26  1  0.163992  0.713097  0.926353  1
  F  F27  1  0.810921  0.263524  0.109168  1
  F  F28  1  0.479642  0.902022  0.710469  1
  F  F29  1  0.571195  0.068899  0.276807  1
  F  F30  1  0.115159  0.775109  0.583300  1
  F  F31  1  0.924815  0.253529  0.398891  1
  F  F32  1  0.193280  0.650806  0.655920  1
  F  F33  1  0.795224  0.384503  0.351112  1
  F  F34  1  0.287186  0.794352  0.880485  1
  F  F35  1  0.689337  0.165970  0.192540  1
  F  F36  1  0.486863  0.441208  0.536871  1
  F  F37  1  0.495226  0.558683  0.470865  1
