# generated using pymatgen
data_YLuScNi9
_symmetry_space_group_name_H-M   'P 1'
_cell_length_a   8.45907374
_cell_length_b   8.45907353
_cell_length_c   8.45907467
_cell_angle_alpha   33.68868108
_cell_angle_beta   33.68868332
_cell_angle_gamma   33.68868256
_symmetry_Int_Tables_number   1
_chemical_formula_structural   YLuScNi9
_chemical_formula_sum   'Y1 Lu1 Sc1 Ni9'
_cell_volume   165.91686479
_cell_formula_units_Z   1
loop_
 _symmetry_equiv_pos_site_id
 _symmetry_equiv_pos_as_xyz
  1  'x, y, z'
loop_
 _atom_site_type_symbol
 _atom_site_label
 _atom_site_symmetry_multiplicity
 _atom_site_fract_x
 _atom_site_fract_y
 _atom_site_fract_z
 _atom_site_occupancy
  Y  Y0  1  0.000591  0.000591  0.000591  1
  Lu  Lu1  1  0.858900  0.858900  0.858900  1
  Sc  Sc2  1  0.139518  0.139518  0.139518  1
  Ni  Ni3  1  0.414791  0.414791  0.918935  1
  Ni  Ni4  1  0.918935  0.414791  0.414791  1
  Ni  Ni5  1  0.499825  0.499825  0.499825  1
  Ni  Ni6  1  0.585333  0.081810  0.585333  1
  Ni  Ni7  1  0.585333  0.585333  0.081810  1
  Ni  Ni8  1  0.333419  0.333419  0.333419  1
  Ni  Ni9  1  0.414791  0.918935  0.414791  1
  Ni  Ni10  1  0.666752  0.666752  0.666752  1
  Ni  Ni11  1  0.081810  0.585333  0.585333  1
