# generated using pymatgen
data_Nd3YS4
_symmetry_space_group_name_H-M   'P 1'
_cell_length_a   13.23046979
_cell_length_b   13.23046950
_cell_length_c   13.23046826
_cell_angle_alpha   17.63800887
_cell_angle_beta   17.63801033
_cell_angle_gamma   17.63801306
_symmetry_Int_Tables_number   1
_chemical_formula_structural   Nd3YS4
_chemical_formula_sum   'Nd3 Y1 S4'
_cell_volume   185.59383797
_cell_formula_units_Z   1
loop_
 _symmetry_equiv_pos_site_id
 _symmetry_equiv_pos_as_xyz
  1  'x, y, z'
loop_
 _atom_site_type_symbol
 _atom_site_label
 _atom_site_symmetry_multiplicity
 _atom_site_fract_x
 _atom_site_fract_y
 _atom_site_fract_z
 _atom_site_occupancy
  Nd  Nd0  1  0.250804  0.250804  0.250804  1
  Nd  Nd1  1  0.500000  0.500000  0.500000  1
  Nd  Nd2  1  0.749196  0.749196  0.749196  1
  Y  Y3  1  0.000000  0.000000  0.000000  1
  S  S4  1  0.372030  0.372030  0.372030  1
  S  S5  1  0.124309  0.124309  0.124309  1
  S  S6  1  0.627970  0.627970  0.627970  1
  S  S7  1  0.875691  0.875691  0.875691  1
