# generated using pymatgen
data_Dy2LuMg3Ga2Ag
_symmetry_space_group_name_H-M   'P 1'
_cell_length_a   7.38404700
_cell_length_b   7.36142849
_cell_length_c   4.33324600
_cell_angle_alpha   90.00000000
_cell_angle_beta   90.00000000
_cell_angle_gamma   120.10169648
_symmetry_Int_Tables_number   1
_chemical_formula_structural   Dy2LuMg3Ga2Ag
_chemical_formula_sum   'Dy2 Lu1 Mg3 Ga2 Ag1'
_cell_volume   203.77671907
_cell_formula_units_Z   1
loop_
 _symmetry_equiv_pos_site_id
 _symmetry_equiv_pos_as_xyz
  1  'x, y, z'
loop_
 _atom_site_type_symbol
 _atom_site_label
 _atom_site_symmetry_multiplicity
 _atom_site_fract_x
 _atom_site_fract_y
 _atom_site_fract_z
 _atom_site_occupancy
  Dy  Dy0  1  0.000148  0.576632  0.000000  1
  Dy  Dy1  1  0.423516  0.423368  0.000000  1
  Lu  Lu2  1  0.577442  0.000000  0.000000  1
  Mg  Mg3  1  0.247335  0.000000  0.500000  1
  Mg  Mg4  1  0.999570  0.246254  0.500000  1
  Mg  Mg5  1  0.753316  0.753746  0.500000  1
  Ga  Ga6  1  0.334248  0.668084  0.500000  1
  Ga  Ga7  1  0.666165  0.331916  0.500000  1
  Ag  Ag8  1  0.998259  0.000000  0.000000  1
