# generated using pymatgen
data_Dy15Y(ScBi3)4
_symmetry_space_group_name_H-M   'P 1'
_cell_length_a   8.12886509
_cell_length_b   9.44092700
_cell_length_c   11.97736313
_cell_angle_alpha   90.00000000
_cell_angle_beta   89.98323842
_cell_angle_gamma   90.00000000
_symmetry_Int_Tables_number   1
_chemical_formula_structural   Dy15Y(ScBi3)4
_chemical_formula_sum   'Dy15 Y1 Sc4 Bi12'
_cell_volume   919.19097862
_cell_formula_units_Z   1
loop_
 _symmetry_equiv_pos_site_id
 _symmetry_equiv_pos_as_xyz
  1  'x, y, z'
loop_
 _atom_site_type_symbol
 _atom_site_label
 _atom_site_symmetry_multiplicity
 _atom_site_fract_x
 _atom_site_fract_y
 _atom_site_fract_z
 _atom_site_occupancy
  Dy  Dy0  1  0.185306  0.750000  0.720394  1
  Dy  Dy1  1  0.685306  0.750000  0.779605  1
  Dy  Dy2  1  0.814677  0.250000  0.279602  1
  Dy  Dy3  1  0.314701  0.250000  0.220393  1
  Dy  Dy4  1  0.303072  0.436479  0.941239  1
  Dy  Dy5  1  0.802947  0.063552  0.558838  1
  Dy  Dy6  1  0.696978  0.936439  0.058860  1
  Dy  Dy7  1  0.196974  0.563599  0.441141  1
  Dy  Dy8  1  0.696978  0.563561  0.058860  1
  Dy  Dy9  1  0.196974  0.936401  0.441141  1
  Dy  Dy10  1  0.303072  0.063521  0.941239  1
  Dy  Dy11  1  0.802947  0.436448  0.558838  1
  Dy  Dy12  1  0.354213  0.750000  0.215297  1
  Dy  Dy13  1  0.854222  0.750000  0.284698  1
  Dy  Dy14  1  0.645781  0.250000  0.784721  1
  Y  Y15  1  0.145848  0.250000  0.715121  1
  Sc  Sc16  1  0.025806  0.750000  0.988180  1
  Sc  Sc17  1  0.525741  0.750000  0.511841  1
  Sc  Sc18  1  0.974258  0.250000  0.011754  1
  Sc  Sc19  1  0.474222  0.250000  0.488188  1
  Bi  Bi20  1  0.434702  0.003493  0.668633  1
  Bi  Bi21  1  0.934513  0.496515  0.831426  1
  Bi  Bi22  1  0.565404  0.503563  0.331374  1
  Bi  Bi23  1  0.065405  0.996451  0.168616  1
  Bi  Bi24  1  0.565404  0.996437  0.331374  1
  Bi  Bi25  1  0.065405  0.503549  0.168616  1
  Bi  Bi26  1  0.434702  0.496507  0.668633  1
  Bi  Bi27  1  0.934513  0.003485  0.831426  1
  Bi  Bi28  1  0.404553  0.750000  0.957842  1
  Bi  Bi29  1  0.904516  0.750000  0.542143  1
  Bi  Bi30  1  0.595475  0.250000  0.042133  1
  Bi  Bi31  1  0.095381  0.250000  0.457835  1
