# generated using pymatgen
data_CsNb(WSe3)2
_symmetry_space_group_name_H-M   'P 1'
_cell_length_a   5.90158900
_cell_length_b   5.90159012
_cell_length_c   18.81738300
_cell_angle_alpha   90.00000000
_cell_angle_beta   90.00000000
_cell_angle_gamma   119.99999933
_symmetry_Int_Tables_number   1
_chemical_formula_structural   CsNb(WSe3)2
_chemical_formula_sum   'Cs2 Nb2 W4 Se12'
_cell_volume   567.58101890
_cell_formula_units_Z   2
loop_
 _symmetry_equiv_pos_site_id
 _symmetry_equiv_pos_as_xyz
  1  'x, y, z'
loop_
 _atom_site_type_symbol
 _atom_site_label
 _atom_site_symmetry_multiplicity
 _atom_site_fract_x
 _atom_site_fract_y
 _atom_site_fract_z
 _atom_site_occupancy
  Cs  Cs0  1  0.000000  0.000000  0.000000  1
  Cs  Cs1  1  0.000000  0.000000  0.500000  1
  Nb  Nb2  1  0.666667  0.333333  0.250000  1
  Nb  Nb3  1  0.333333  0.666667  0.750000  1
  W  W4  1  0.000000  0.000000  0.750000  1
  W  W5  1  0.000000  0.000000  0.250000  1
  W  W6  1  0.333333  0.666667  0.250000  1
  W  W7  1  0.666667  0.333333  0.750000  1
  Se  Se8  1  0.328439  0.993258  0.161551  1
  Se  Se9  1  0.006742  0.335181  0.161551  1
  Se  Se10  1  0.664819  0.671561  0.161551  1
  Se  Se11  1  0.335181  0.328439  0.661551  1
  Se  Se12  1  0.664819  0.671561  0.338449  1
  Se  Se13  1  0.671561  0.006742  0.661551  1
  Se  Se14  1  0.993258  0.664819  0.661551  1
  Se  Se15  1  0.993258  0.664819  0.838449  1
  Se  Se16  1  0.335181  0.328439  0.838449  1
  Se  Se17  1  0.006742  0.335181  0.338449  1
  Se  Se18  1  0.328439  0.993258  0.338449  1
  Se  Se19  1  0.671561  0.006742  0.838449  1
