# generated using pymatgen
data_NaU8S17
_symmetry_space_group_name_H-M   'P 1'
_cell_length_a   7.87621066
_cell_length_b   7.86767283
_cell_length_c   10.61144967
_cell_angle_alpha   79.43689416
_cell_angle_beta   79.58696001
_cell_angle_gamma   63.87707105
_symmetry_Int_Tables_number   1
_chemical_formula_structural   NaU8S17
_chemical_formula_sum   'Na1 U8 S17'
_cell_volume   576.65098002
_cell_formula_units_Z   1
loop_
 _symmetry_equiv_pos_site_id
 _symmetry_equiv_pos_as_xyz
  1  'x, y, z'
loop_
 _atom_site_type_symbol
 _atom_site_label
 _atom_site_symmetry_multiplicity
 _atom_site_fract_x
 _atom_site_fract_y
 _atom_site_fract_z
 _atom_site_occupancy
  Na  Na0  1  0.000000  0.000000  0.000000  1
  U  U1  1  0.183431  0.697225  0.698379  1
  U  U2  1  0.697273  0.183256  0.698362  1
  U  U3  1  0.816569  0.302775  0.301621  1
  U  U4  1  0.302727  0.816744  0.301638  1
  U  U5  1  0.798662  0.798430  0.460516  1
  U  U6  1  0.201338  0.201570  0.539484  1
  U  U7  1  0.318637  0.318413  0.012341  1
  U  U8  1  0.681363  0.681587  0.987659  1
  S  S9  1  0.179638  0.566923  0.468106  1
  S  S10  1  0.566910  0.179737  0.468045  1
  S  S11  1  0.820362  0.433077  0.531894  1
  S  S12  1  0.433090  0.820263  0.531955  1
  S  S13  1  0.056559  0.662751  0.950940  1
  S  S14  1  0.662797  0.056398  0.951203  1
  S  S15  1  0.943441  0.337249  0.049060  1
  S  S16  1  0.337203  0.943602  0.048797  1
  S  S17  1  0.787819  0.787599  0.719137  1
  S  S18  1  0.212181  0.212401  0.280863  1
  S  S19  1  0.940558  0.940861  0.242182  1
  S  S20  1  0.059442  0.059139  0.757818  1
  S  S21  1  0.698679  0.698719  0.249119  1
  S  S22  1  0.301321  0.301281  0.750881  1
  S  S23  1  0.480454  0.480177  0.171977  1
  S  S24  1  0.519546  0.519823  0.828023  1
  S  S25  1  0.000000  0.000000  0.500000  1
