# generated using pymatgen
data_ZrPa(Cr2P)4
_symmetry_space_group_name_H-M   'P 1'
_cell_length_a   6.98788230
_cell_length_b   6.98788230
_cell_length_c   3.82713900
_cell_angle_alpha   90.00000000
_cell_angle_beta   90.00000000
_cell_angle_gamma   88.02457475
_symmetry_Int_Tables_number   1
_chemical_formula_structural   ZrPa(Cr2P)4
_chemical_formula_sum   'Zr1 Pa1 Cr8 P4'
_cell_volume   186.77004427
_cell_formula_units_Z   1
loop_
 _symmetry_equiv_pos_site_id
 _symmetry_equiv_pos_as_xyz
  1  'x, y, z'
loop_
 _atom_site_type_symbol
 _atom_site_label
 _atom_site_symmetry_multiplicity
 _atom_site_fract_x
 _atom_site_fract_y
 _atom_site_fract_z
 _atom_site_occupancy
  Zr  Zr0  1  0.000000  0.000000  0.500000  1
  Pa  Pa1  1  0.500000  0.500000  0.000000  1
  Cr  Cr2  1  0.600490  0.150665  0.500000  1
  Cr  Cr3  1  0.399510  0.849335  0.500000  1
  Cr  Cr4  1  0.083777  0.342230  0.000000  1
  Cr  Cr5  1  0.916223  0.657770  0.000000  1
  Cr  Cr6  1  0.150665  0.600490  0.500000  1
  Cr  Cr7  1  0.849335  0.399510  0.500000  1
  Cr  Cr8  1  0.342230  0.083777  0.000000  1
  Cr  Cr9  1  0.657770  0.916223  0.000000  1
  P  P10  1  0.718560  0.718560  0.500000  1
  P  P11  1  0.281440  0.281440  0.500000  1
  P  P12  1  0.202765  0.797235  0.000000  1
  P  P13  1  0.797235  0.202765  0.000000  1
