# generated using pymatgen
data_Ca(Eu4Pt3)2
_symmetry_space_group_name_H-M   'P 1'
_cell_length_a   7.81973830
_cell_length_b   7.81973835
_cell_length_c   7.81973893
_cell_angle_alpha   70.87918090
_cell_angle_beta   70.87918305
_cell_angle_gamma   70.87918290
_symmetry_Int_Tables_number   1
_chemical_formula_structural   Ca(Eu4Pt3)2
_chemical_formula_sum   'Ca1 Eu8 Pt6'
_cell_volume   413.66093736
_cell_formula_units_Z   1
loop_
 _symmetry_equiv_pos_site_id
 _symmetry_equiv_pos_as_xyz
  1  'x, y, z'
loop_
 _atom_site_type_symbol
 _atom_site_label
 _atom_site_symmetry_multiplicity
 _atom_site_fract_x
 _atom_site_fract_y
 _atom_site_fract_z
 _atom_site_occupancy
  Ca  Ca0  1  0.000000  0.000000  0.000000  1
  Eu  Eu1  1  0.801514  0.801514  0.801514  1
  Eu  Eu2  1  0.198486  0.198486  0.198486  1
  Eu  Eu3  1  0.330955  0.604838  0.845871  1
  Eu  Eu4  1  0.845871  0.330955  0.604838  1
  Eu  Eu5  1  0.604838  0.845871  0.330955  1
  Eu  Eu6  1  0.669045  0.395162  0.154129  1
  Eu  Eu7  1  0.154129  0.669045  0.395162  1
  Eu  Eu8  1  0.395162  0.154129  0.669045  1
  Pt  Pt9  1  0.162281  0.956395  0.589610  1
  Pt  Pt10  1  0.589610  0.162281  0.956395  1
  Pt  Pt11  1  0.956395  0.589610  0.162281  1
  Pt  Pt12  1  0.837719  0.043605  0.410390  1
  Pt  Pt13  1  0.410390  0.837719  0.043605  1
  Pt  Pt14  1  0.043605  0.410390  0.837719  1
