# generated using pymatgen
data_Ca5La3(Si3Pd)4
_symmetry_space_group_name_H-M   'P 1'
_cell_length_a   8.31079300
_cell_length_b   8.29392459
_cell_length_c   8.58022300
_cell_angle_alpha   90.00000000
_cell_angle_beta   90.00000000
_cell_angle_gamma   120.06730531
_symmetry_Int_Tables_number   1
_chemical_formula_structural   Ca5La3(Si3Pd)4
_chemical_formula_sum   'Ca5 La3 Si12 Pd4'
_cell_volume   511.84304994
_cell_formula_units_Z   1
loop_
 _symmetry_equiv_pos_site_id
 _symmetry_equiv_pos_as_xyz
  1  'x, y, z'
loop_
 _atom_site_type_symbol
 _atom_site_label
 _atom_site_symmetry_multiplicity
 _atom_site_fract_x
 _atom_site_fract_y
 _atom_site_fract_z
 _atom_site_occupancy
  Ca  Ca0  1  0.498763  0.501229  0.750000  1
  Ca  Ca1  1  0.501335  0.499045  0.250000  1
  Ca  Ca2  1  0.002465  0.501229  0.750000  1
  Ca  Ca3  1  0.997709  0.499045  0.250000  1
  Ca  Ca4  1  0.498659  0.997320  0.750000  1
  La  La5  1  0.501328  0.002656  0.250000  1
  La  La6  1  0.999995  0.999989  0.750000  1
  La  La7  1  0.999986  0.999972  0.250000  1
  Si  Si8  1  0.835505  0.166013  0.000734  1
  Si  Si9  1  0.164530  0.833997  0.999603  1
  Si  Si10  1  0.330509  0.166013  0.000734  1
  Si  Si11  1  0.164530  0.833997  0.500397  1
  Si  Si12  1  0.669467  0.833997  0.999603  1
  Si  Si13  1  0.835505  0.166013  0.499266  1
  Si  Si14  1  0.834080  0.668160  0.000814  1
  Si  Si15  1  0.669467  0.833997  0.500397  1
  Si  Si16  1  0.165840  0.331679  0.999628  1
  Si  Si17  1  0.330509  0.166013  0.499266  1
  Si  Si18  1  0.165840  0.331679  0.500372  1
  Si  Si19  1  0.834080  0.668160  0.499186  1
  Pd  Pd20  1  0.666726  0.333452  0.994388  1
  Pd  Pd21  1  0.333223  0.666448  0.002635  1
  Pd  Pd22  1  0.333223  0.666448  0.497365  1
  Pd  Pd23  1  0.666726  0.333452  0.505612  1
