# generated using pymatgen
data_Ce3Y(GaRh)4
_symmetry_space_group_name_H-M   'P 1'
_cell_length_a   4.40952900
_cell_length_b   6.85323848
_cell_length_c   7.81641292
_cell_angle_alpha   89.39805990
_cell_angle_beta   90.00000000
_cell_angle_gamma   90.00000000
_symmetry_Int_Tables_number   1
_chemical_formula_structural   Ce3Y(GaRh)4
_chemical_formula_sum   'Ce3 Y1 Ga4 Rh4'
_cell_volume   236.19547559
_cell_formula_units_Z   1
loop_
 _symmetry_equiv_pos_site_id
 _symmetry_equiv_pos_as_xyz
  1  'x, y, z'
loop_
 _atom_site_type_symbol
 _atom_site_label
 _atom_site_symmetry_multiplicity
 _atom_site_fract_x
 _atom_site_fract_y
 _atom_site_fract_z
 _atom_site_occupancy
  Ce  Ce0  1  0.250000  0.963335  0.311489  1
  Ce  Ce1  1  0.250000  0.465538  0.182456  1
  Ce  Ce2  1  0.750000  0.036465  0.688622  1
  Y  Y3  1  0.750000  0.534060  0.806981  1
  Ga  Ga4  1  0.250000  0.357685  0.571088  1
  Ga  Ga5  1  0.250000  0.844699  0.927668  1
  Ga  Ga6  1  0.750000  0.645067  0.433622  1
  Ga  Ga7  1  0.750000  0.151433  0.068432  1
  Rh  Rh8  1  0.250000  0.238363  0.897498  1
  Rh  Rh9  1  0.250000  0.747921  0.601312  1
  Rh  Rh10  1  0.750000  0.759790  0.113410  1
  Rh  Rh11  1  0.750000  0.255644  0.397422  1
