# generated using pymatgen
data_Tb3Th(CBr)2
_symmetry_space_group_name_H-M   'P 1'
_cell_length_a   3.69603900
_cell_length_b   3.69603990
_cell_length_c   14.65223100
_cell_angle_alpha   90.00000000
_cell_angle_beta   90.00000000
_cell_angle_gamma   119.99998296
_symmetry_Int_Tables_number   1
_chemical_formula_structural   Tb3Th(CBr)2
_chemical_formula_sum   'Tb3 Th1 C2 Br2'
_cell_volume   173.34353934
_cell_formula_units_Z   1
loop_
 _symmetry_equiv_pos_site_id
 _symmetry_equiv_pos_as_xyz
  1  'x, y, z'
loop_
 _atom_site_type_symbol
 _atom_site_label
 _atom_site_symmetry_multiplicity
 _atom_site_fract_x
 _atom_site_fract_y
 _atom_site_fract_z
 _atom_site_occupancy
  Tb  Tb0  1  0.666667  0.333333  0.403303  1
  Tb  Tb1  1  0.666667  0.333333  0.090940  1
  Tb  Tb2  1  0.333333  0.666667  0.914724  1
  Th  Th3  1  0.333333  0.666667  0.589060  1
  C  C4  1  0.000000  0.000000  0.003679  1
  C  C5  1  0.000000  0.000000  0.489022  1
  Br  Br6  1  0.333333  0.666667  0.247859  1
  Br  Br7  1  0.666667  0.333333  0.761413  1
