# generated using pymatgen
data_Ce5Th3Si14
_symmetry_space_group_name_H-M   'P 1'
_cell_length_a   7.88732194
_cell_length_b   7.88732169
_cell_length_c   8.54701500
_cell_angle_alpha   90.00020746
_cell_angle_beta   89.99979432
_cell_angle_gamma   119.76957025
_symmetry_Int_Tables_number   1
_chemical_formula_structural   Ce5Th3Si14
_chemical_formula_sum   'Ce5 Th3 Si14'
_cell_volume   461.53852717
_cell_formula_units_Z   1
loop_
 _symmetry_equiv_pos_site_id
 _symmetry_equiv_pos_as_xyz
  1  'x, y, z'
loop_
 _atom_site_type_symbol
 _atom_site_label
 _atom_site_symmetry_multiplicity
 _atom_site_fract_x
 _atom_site_fract_y
 _atom_site_fract_z
 _atom_site_occupancy
  Ce  Ce0  1  0.258217  0.257945  0.999714  1
  Ce  Ce1  1  0.742055  0.741783  0.999714  1
  Ce  Ce2  1  0.742280  0.742220  0.500031  1
  Ce  Ce3  1  0.257780  0.257720  0.500031  1
  Ce  Ce4  1  0.251269  0.748731  0.496437  1
  Th  Th5  1  0.749303  0.250697  0.503797  1
  Th  Th6  1  0.749816  0.250184  0.996393  1
  Th  Th7  1  0.250601  0.749399  0.003721  1
  Si  Si8  1  0.063293  0.373120  0.250186  1
  Si  Si9  1  0.939840  0.630462  0.747765  1
  Si  Si10  1  0.583924  0.416076  0.249145  1
  Si  Si11  1  0.416186  0.583814  0.748104  1
  Si  Si12  1  0.411178  0.588822  0.252958  1
  Si  Si13  1  0.588904  0.411096  0.750924  1
  Si  Si14  1  0.059854  0.940146  0.249977  1
  Si  Si15  1  0.939518  0.060482  0.749880  1
  Si  Si16  1  0.626880  0.936707  0.250186  1
  Si  Si17  1  0.369538  0.060160  0.747765  1
  Si  Si18  1  0.928744  0.591339  0.252599  1
  Si  Si19  1  0.073139  0.410982  0.749036  1
  Si  Si20  1  0.408661  0.071256  0.252599  1
  Si  Si21  1  0.589018  0.926861  0.749036  1
