# generated using pymatgen
data_CrAg2Sn3S8
_symmetry_space_group_name_H-M   'P 1'
_cell_length_a   7.53474212
_cell_length_b   7.53474291
_cell_length_c   7.53474177
_cell_angle_alpha   61.26666473
_cell_angle_beta   61.26666439
_cell_angle_gamma   61.26666476
_symmetry_Int_Tables_number   1
_chemical_formula_structural   CrAg2Sn3S8
_chemical_formula_sum   'Cr1 Ag2 Sn3 S8'
_cell_volume   311.08986225
_cell_formula_units_Z   1
loop_
 _symmetry_equiv_pos_site_id
 _symmetry_equiv_pos_as_xyz
  1  'x, y, z'
loop_
 _atom_site_type_symbol
 _atom_site_label
 _atom_site_symmetry_multiplicity
 _atom_site_fract_x
 _atom_site_fract_y
 _atom_site_fract_z
 _atom_site_occupancy
  Cr  Cr0  1  0.000000  0.000000  0.000000  1
  Ag  Ag1  1  0.386920  0.386920  0.386920  1
  Ag  Ag2  1  0.613080  0.613080  0.613080  1
  Sn  Sn3  1  0.000000  0.500000  0.000000  1
  Sn  Sn4  1  0.000000  0.000000  0.500000  1
  Sn  Sn5  1  0.500000  0.000000  0.000000  1
  S  S6  1  0.774907  0.212314  0.774907  1
  S  S7  1  0.753748  0.753748  0.753748  1
  S  S8  1  0.787686  0.225093  0.225093  1
  S  S9  1  0.225093  0.225093  0.787686  1
  S  S10  1  0.225093  0.787686  0.225093  1
  S  S11  1  0.246252  0.246252  0.246252  1
  S  S12  1  0.212314  0.774907  0.774907  1
  S  S13  1  0.774907  0.774907  0.212314  1
