# generated using pymatgen
data_Ca8Co2CuN8
_symmetry_space_group_name_H-M   'P 1'
_cell_length_a   9.25357035
_cell_length_b   4.99439225
_cell_length_c   7.11603512
_cell_angle_alpha   90.00001391
_cell_angle_beta   74.53302361
_cell_angle_gamma   74.34387160
_symmetry_Int_Tables_number   1
_chemical_formula_structural   Ca8Co2CuN8
_chemical_formula_sum   'Ca8 Co2 Cu1 N8'
_cell_volume   304.28507266
_cell_formula_units_Z   1
loop_
 _symmetry_equiv_pos_site_id
 _symmetry_equiv_pos_as_xyz
  1  'x, y, z'
loop_
 _atom_site_type_symbol
 _atom_site_label
 _atom_site_symmetry_multiplicity
 _atom_site_fract_x
 _atom_site_fract_y
 _atom_site_fract_z
 _atom_site_occupancy
  Ca  Ca0  1  0.060852  0.969574  0.746508  1
  Ca  Ca1  1  0.939148  0.030426  0.253492  1
  Ca  Ca2  1  0.670647  0.664676  0.471349  1
  Ca  Ca3  1  0.329353  0.335324  0.528651  1
  Ca  Ca4  1  0.818007  0.590997  0.971946  1
  Ca  Ca5  1  0.181993  0.409003  0.028054  1
  Ca  Ca6  1  0.400057  0.799972  0.180780  1
  Ca  Ca7  1  0.599943  0.200028  0.819220  1
  Co  Co8  1  0.379518  0.810241  0.783206  1
  Co  Co9  1  0.620482  0.189759  0.216794  1
  Cu  Cu10  1  0.000000  0.500000  0.500000  1
  N  N11  1  0.210942  0.894528  0.994454  1
  N  N12  1  0.789058  0.105472  0.005546  1
  N  N13  1  0.350022  0.824989  0.552172  1
  N  N14  1  0.649978  0.175011  0.447828  1
  N  N15  1  0.562270  0.718865  0.834670  1
  N  N16  1  0.437730  0.281135  0.165330  1
  N  N17  1  0.938556  0.530721  0.268030  1
  N  N18  1  0.061444  0.469279  0.731970  1
