# generated using pymatgen
data_NdY7Sc12(GaSi3)4
_symmetry_space_group_name_H-M   'P 1'
_cell_length_a   7.15650153
_cell_length_b   7.42851160
_cell_length_c   14.19589123
_cell_angle_alpha   90.08297997
_cell_angle_beta   89.87516319
_cell_angle_gamma   90.19269816
_symmetry_Int_Tables_number   1
_chemical_formula_structural   NdY7Sc12(GaSi3)4
_chemical_formula_sum   'Nd1 Y7 Sc12 Ga4 Si12'
_cell_volume   754.67732206
_cell_formula_units_Z   1
loop_
 _symmetry_equiv_pos_site_id
 _symmetry_equiv_pos_as_xyz
  1  'x, y, z'
loop_
 _atom_site_type_symbol
 _atom_site_label
 _atom_site_symmetry_multiplicity
 _atom_site_fract_x
 _atom_site_fract_y
 _atom_site_fract_z
 _atom_site_occupancy
  Nd  Nd0  1  0.012416  0.172294  0.094784  1
  Y  Y1  1  0.988986  0.825594  0.899819  1
  Y  Y2  1  0.488877  0.677800  0.900131  1
  Y  Y3  1  0.988490  0.827644  0.600953  1
  Y  Y4  1  0.510484  0.320901  0.097007  1
  Y  Y5  1  0.008030  0.174575  0.400198  1
  Y  Y6  1  0.509855  0.324245  0.401970  1
  Y  Y7  1  0.490957  0.676366  0.601433  1
  Sc  Sc8  1  0.164005  0.501060  0.751049  1
  Sc  Sc9  1  0.835209  0.498407  0.250858  1
  Sc  Sc10  1  0.334272  0.000114  0.249224  1
  Sc  Sc11  1  0.664531  0.999749  0.750100  1
  Sc  Sc12  1  0.334925  0.174731  0.628715  1
  Sc  Sc13  1  0.666927  0.825662  0.374547  1
  Sc  Sc14  1  0.169423  0.672352  0.373751  1
  Sc  Sc15  1  0.667024  0.825946  0.126184  1
  Sc  Sc16  1  0.830128  0.324998  0.627389  1
  Sc  Sc17  1  0.331978  0.176415  0.874067  1
  Sc  Sc18  1  0.829910  0.325338  0.873332  1
  Sc  Sc19  1  0.173540  0.674056  0.123971  1
  Ga  Ga20  1  0.162227  0.460078  0.540115  1
  Ga  Ga21  1  0.838775  0.538503  0.462303  1
  Ga  Ga22  1  0.337643  0.960757  0.462693  1
  Ga  Ga23  1  0.838463  0.543119  0.037102  1
  Si  Si24  1  0.034312  0.117077  0.751238  1
  Si  Si25  1  0.964690  0.879232  0.250408  1
  Si  Si26  1  0.466151  0.613718  0.248906  1
  Si  Si27  1  0.534158  0.386187  0.751306  1
  Si  Si28  1  0.287321  0.872493  0.750946  1
  Si  Si29  1  0.710775  0.126720  0.250411  1
  Si  Si30  1  0.215040  0.372998  0.249683  1
  Si  Si31  1  0.788346  0.629668  0.751198  1
  Si  Si32  1  0.658358  0.036667  0.539775  1
  Si  Si33  1  0.158754  0.467627  0.958545  1
  Si  Si34  1  0.656481  0.036069  0.959967  1
  Si  Si35  1  0.348539  0.960844  0.035923  1
