# generated using pymatgen
data_ScTa(NiH3)2
_symmetry_space_group_name_H-M   'P 1'
_cell_length_a   5.39301895
_cell_length_b   5.39301888
_cell_length_c   4.24207300
_cell_angle_alpha   90.00000000
_cell_angle_beta   90.00000000
_cell_angle_gamma   142.64664163
_symmetry_Int_Tables_number   1
_chemical_formula_structural   ScTa(NiH3)2
_chemical_formula_sum   'Sc1 Ta1 Ni2 H6'
_cell_volume   74.85774475
_cell_formula_units_Z   1
loop_
 _symmetry_equiv_pos_site_id
 _symmetry_equiv_pos_as_xyz
  1  'x, y, z'
loop_
 _atom_site_type_symbol
 _atom_site_label
 _atom_site_symmetry_multiplicity
 _atom_site_fract_x
 _atom_site_fract_y
 _atom_site_fract_z
 _atom_site_occupancy
  Sc  Sc0  1  0.138567  0.861433  0.250000  1
  Ta  Ta1  1  0.862175  0.137825  0.750000  1
  Ni  Ni2  1  0.568958  0.431042  0.750000  1
  Ni  Ni3  1  0.426297  0.573703  0.250000  1
  H  H4  1  0.061179  0.938821  0.750000  1
  H  H5  1  0.920435  0.079565  0.250000  1
  H  H6  1  0.696238  0.303762  0.508336  1
  H  H7  1  0.314956  0.685044  0.526455  1
  H  H8  1  0.696238  0.303762  0.991664  1
  H  H9  1  0.314956  0.685044  0.973545  1
