# generated using pymatgen
data_Sc3InCuRu
_symmetry_space_group_name_H-M   'P 1'
_cell_length_a   3.25450900
_cell_length_b   3.25450900
_cell_length_c   10.77567700
_cell_angle_alpha   90.00000000
_cell_angle_beta   90.00000000
_cell_angle_gamma   90.00000000
_symmetry_Int_Tables_number   1
_chemical_formula_structural   Sc3InCuRu
_chemical_formula_sum   'Sc3 In1 Cu1 Ru1'
_cell_volume   114.13412632
_cell_formula_units_Z   1
loop_
 _symmetry_equiv_pos_site_id
 _symmetry_equiv_pos_as_xyz
  1  'x, y, z'
loop_
 _atom_site_type_symbol
 _atom_site_label
 _atom_site_symmetry_multiplicity
 _atom_site_fract_x
 _atom_site_fract_y
 _atom_site_fract_z
 _atom_site_occupancy
  Sc  Sc0  1  0.000000  0.000000  0.008796  1
  Sc  Sc1  1  0.000000  0.000000  0.695314  1
  Sc  Sc2  1  0.000000  0.000000  0.294796  1
  In  In3  1  0.500000  0.500000  0.496824  1
  Cu  Cu4  1  0.500000  0.500000  0.850018  1
  Ru  Ru5  1  0.500000  0.500000  0.154253  1
