# generated using pymatgen
data_Hf11Zr5Pd3Rh5N4
_symmetry_space_group_name_H-M   'P 1'
_cell_length_a   8.76817834
_cell_length_b   8.76817803
_cell_length_c   8.76645327
_cell_angle_alpha   60.04951462
_cell_angle_beta   60.04951565
_cell_angle_gamma   59.91632106
_symmetry_Int_Tables_number   1
_chemical_formula_structural   Hf11Zr5Pd3Rh5N4
_chemical_formula_sum   'Hf11 Zr5 Pd3 Rh5 N4'
_cell_volume   476.62462464
_cell_formula_units_Z   1
loop_
 _symmetry_equiv_pos_site_id
 _symmetry_equiv_pos_as_xyz
  1  'x, y, z'
loop_
 _atom_site_type_symbol
 _atom_site_label
 _atom_site_symmetry_multiplicity
 _atom_site_fract_x
 _atom_site_fract_y
 _atom_site_fract_z
 _atom_site_occupancy
  Hf  Hf0  1  0.113693  0.627811  0.627762  1
  Hf  Hf1  1  0.627811  0.113693  0.627762  1
  Hf  Hf2  1  0.627493  0.627493  0.113832  1
  Hf  Hf3  1  0.631339  0.631339  0.631757  1
  Hf  Hf4  1  0.819144  0.819144  0.180629  1
  Hf  Hf5  1  0.181699  0.181699  0.817916  1
  Hf  Hf6  1  0.818505  0.181424  0.818807  1
  Hf  Hf7  1  0.182239  0.817458  0.181649  1
  Hf  Hf8  1  0.181424  0.818505  0.818807  1
  Hf  Hf9  1  0.817458  0.182239  0.181649  1
  Hf  Hf10  1  0.432700  0.432700  0.069647  1
  Zr  Zr11  1  0.066553  0.066553  0.433162  1
  Zr  Zr12  1  0.433335  0.068681  0.433144  1
  Zr  Zr13  1  0.066721  0.433170  0.066515  1
  Zr  Zr14  1  0.068681  0.433335  0.433144  1
  Zr  Zr15  1  0.433170  0.066721  0.066515  1
  Pd  Pd16  1  0.757644  0.414949  0.415031  1
  Pd  Pd17  1  0.414949  0.757644  0.415031  1
  Pd  Pd18  1  0.415220  0.415220  0.759509  1
  Rh  Rh19  1  0.410809  0.410809  0.407375  1
  Rh  Rh20  1  0.467167  0.844437  0.845763  1
  Rh  Rh21  1  0.844437  0.467167  0.845763  1
  Rh  Rh22  1  0.845257  0.845257  0.466952  1
  Rh  Rh23  1  0.842896  0.842896  0.843442  1
  N  N24  1  0.628698  0.125974  0.121922  1
  N  N25  1  0.125974  0.628698  0.121922  1
  N  N26  1  0.122277  0.122277  0.631605  1
  N  N27  1  0.122703  0.122703  0.122983  1
