# generated using pymatgen
data_Dy3Tm2Sc3Au4
_symmetry_space_group_name_H-M   'P 1'
_cell_length_a   4.79556000
_cell_length_b   7.04133114
_cell_length_c   8.63904660
_cell_angle_alpha   89.90303301
_cell_angle_beta   90.00000000
_cell_angle_gamma   90.00000000
_symmetry_Int_Tables_number   1
_chemical_formula_structural   Dy3Tm2Sc3Au4
_chemical_formula_sum   'Dy3 Tm2 Sc3 Au4'
_cell_volume   291.71535696
_cell_formula_units_Z   1
loop_
 _symmetry_equiv_pos_site_id
 _symmetry_equiv_pos_as_xyz
  1  'x, y, z'
loop_
 _atom_site_type_symbol
 _atom_site_label
 _atom_site_symmetry_multiplicity
 _atom_site_fract_x
 _atom_site_fract_y
 _atom_site_fract_z
 _atom_site_occupancy
  Dy  Dy0  1  0.250000  0.480119  0.173880  1
  Dy  Dy1  1  0.250000  0.989703  0.320652  1
  Dy  Dy2  1  0.750000  0.019748  0.684457  1
  Tm  Tm3  1  0.750000  0.647352  0.421219  1
  Tm  Tm4  1  0.750000  0.516405  0.822589  1
  Sc  Sc5  1  0.250000  0.853939  0.925219  1
  Sc  Sc6  1  0.250000  0.353955  0.580340  1
  Sc  Sc7  1  0.750000  0.146866  0.075350  1
  Au  Au8  1  0.250000  0.243479  0.896001  1
  Au  Au9  1  0.250000  0.746429  0.609299  1
  Au  Au10  1  0.750000  0.756067  0.093731  1
  Au  Au11  1  0.750000  0.245941  0.397265  1
