# generated using pymatgen
data_Tb3Dy9GaCo4Sn
_symmetry_space_group_name_H-M   'P 1'
_cell_length_a   8.34271597
_cell_length_b   8.34271564
_cell_length_c   8.34885238
_cell_angle_alpha   107.12203915
_cell_angle_beta   109.11829170
_cell_angle_gamma   112.18602662
_symmetry_Int_Tables_number   1
_chemical_formula_structural   Tb3Dy9GaCo4Sn
_chemical_formula_sum   'Tb3 Dy9 Ga1 Co4 Sn1'
_cell_volume   446.58366852
_cell_formula_units_Z   1
loop_
 _symmetry_equiv_pos_site_id
 _symmetry_equiv_pos_as_xyz
  1  'x, y, z'
loop_
 _atom_site_type_symbol
 _atom_site_label
 _atom_site_symmetry_multiplicity
 _atom_site_fract_x
 _atom_site_fract_y
 _atom_site_fract_z
 _atom_site_occupancy
  Tb  Tb0  1  0.299002  0.267780  0.566781  1
  Tb  Tb1  1  0.701077  0.732138  0.433216  1
  Tb  Tb2  1  0.299341  0.732341  0.031681  1
  Dy  Dy3  1  0.701186  0.267519  0.968705  1
  Dy  Dy4  1  0.185355  0.511049  0.324904  1
  Dy  Dy5  1  0.186220  0.860844  0.675120  1
  Dy  Dy6  1  0.814276  0.488899  0.675120  1
  Dy  Dy7  1  0.813855  0.139549  0.324904  1
  Dy  Dy8  1  0.398007  0.218069  0.179643  1
  Dy  Dy9  1  0.037920  0.218007  0.820242  1
  Dy  Dy10  1  0.961575  0.781636  0.179643  1
  Dy  Dy11  1  0.602235  0.782321  0.820242  1
  Ga  Ga12  1  0.500432  0.499341  0.999773  1
  Co  Co13  1  0.158766  0.500096  0.658862  1
  Co  Co14  1  0.840976  0.499741  0.340717  1
  Co  Co15  1  0.999351  0.113970  0.113321  1
  Co  Co16  1  0.000103  0.886422  0.886525  1
  Sn  Sn17  1  0.500323  0.000279  0.500602  1
