# generated using pymatgen
data_Dy5P12Ru5Rh14
_symmetry_space_group_name_H-M   'P 1'
_cell_length_a   12.66270731
_cell_length_b   12.62736666
_cell_length_c   3.94246300
_cell_angle_alpha   90.00000000
_cell_angle_beta   90.00000000
_cell_angle_gamma   120.06698745
_symmetry_Int_Tables_number   1
_chemical_formula_structural   Dy5P12Ru5Rh14
_chemical_formula_sum   'Dy5 P12 Ru5 Rh14'
_cell_volume   545.56194449
_cell_formula_units_Z   1
loop_
 _symmetry_equiv_pos_site_id
 _symmetry_equiv_pos_as_xyz
  1  'x, y, z'
loop_
 _atom_site_type_symbol
 _atom_site_label
 _atom_site_symmetry_multiplicity
 _atom_site_fract_x
 _atom_site_fract_y
 _atom_site_fract_z
 _atom_site_occupancy
  Dy  Dy0  1  0.666190  0.330884  0.000000  1
  Dy  Dy1  1  0.334487  0.668158  0.000000  1
  Dy  Dy2  1  0.813986  0.000962  0.500000  1
  Dy  Dy3  1  0.184931  0.186363  0.500000  1
  Dy  Dy4  1  0.000011  0.812870  0.500000  1
  P  P5  1  0.635430  0.999489  0.000000  1
  P  P6  1  0.364646  0.364951  0.000000  1
  P  P7  1  0.000166  0.634928  0.000000  1
  P  P8  1  0.688602  0.519259  0.500000  1
  P  P9  1  0.829266  0.307528  0.500000  1
  P  P10  1  0.316498  0.834523  0.500000  1
  P  P11  1  0.519327  0.690790  0.500000  1
  P  P12  1  0.180589  0.000120  0.000000  1
  P  P13  1  0.818895  0.818217  0.000000  1
  P  P14  1  0.997164  0.181511  0.000000  1
  P  P15  1  0.478532  0.167452  0.500000  1
  P  P16  1  0.169159  0.480940  0.500000  1
  Ru  Ru17  1  0.512917  0.872870  0.500000  1
  Ru  Ru18  1  0.716059  0.716254  0.500000  1
  Ru  Ru19  1  0.000536  0.284489  0.500000  1
  Ru  Ru20  1  0.817520  0.195855  0.000000  1
  Ru  Ru21  1  0.281036  0.999623  0.500000  1
  Rh  Rh22  1  0.624266  0.804872  0.000000  1
  Rh  Rh23  1  0.182971  0.377685  0.000000  1
  Rh  Rh24  1  0.375864  0.182093  0.000000  1
  Rh  Rh25  1  0.194080  0.818316  0.000000  1
  Rh  Rh26  1  0.804274  0.621983  0.000000  1
  Rh  Rh27  1  0.869487  0.507486  0.500000  1
  Rh  Rh28  1  0.491608  0.360455  0.500000  1
  Rh  Rh29  1  0.635594  0.127323  0.500000  1
  Rh  Rh30  1  0.132380  0.641189  0.500000  1
  Rh  Rh31  1  0.361444  0.490918  0.500000  1
  Rh  Rh32  1  0.999708  0.000166  0.000000  1
  Rh  Rh33  1  0.452419  0.999071  0.000000  1
  Rh  Rh34  1  0.548172  0.547541  0.000000  1
  Rh  Rh35  1  0.001789  0.452864  0.000000  1
