# generated using pymatgen
data_LaPa2Zn4Pt3Rh
_symmetry_space_group_name_H-M   'P 1'
_cell_length_a   8.30552645
_cell_length_b   8.30552661
_cell_length_c   8.30552651
_cell_angle_alpha   153.18400443
_cell_angle_beta   121.99028965
_cell_angle_gamma   65.02419967
_symmetry_Int_Tables_number   1
_chemical_formula_structural   LaPa2Zn4Pt3Rh
_chemical_formula_sum   'La1 Pa2 Zn4 Pt3 Rh1'
_cell_volume   217.29016204
_cell_formula_units_Z   1
loop_
 _symmetry_equiv_pos_site_id
 _symmetry_equiv_pos_as_xyz
  1  'x, y, z'
loop_
 _atom_site_type_symbol
 _atom_site_label
 _atom_site_symmetry_multiplicity
 _atom_site_fract_x
 _atom_site_fract_y
 _atom_site_fract_z
 _atom_site_occupancy
  La  La0  1  0.498550  0.998550  0.500000  1
  Pa  Pa1  1  0.874747  0.874747  0.000000  1
  Pa  Pa2  1  0.130914  0.130914  0.000000  1
  Zn  Zn3  1  0.473792  0.676690  0.797102  1
  Zn  Zn4  1  0.879588  0.676690  0.202898  1
  Zn  Zn5  1  0.123488  0.324083  0.799404  1
  Zn  Zn6  1  0.524679  0.324083  0.200596  1
  Pt  Pt7  1  0.726134  0.226134  0.500000  1
  Pt  Pt8  1  0.818920  0.499861  0.319058  1
  Pt  Pt9  1  0.180803  0.499861  0.680942  1
  Rh  Rh10  1  0.268384  0.768384  0.500000  1
