# generated using pymatgen
data_Na3La9(YSn2)8
_symmetry_space_group_name_H-M   'P 1'
_cell_length_a   8.07014104
_cell_length_b   8.34467861
_cell_length_c   15.88323100
_cell_angle_alpha   90.01376662
_cell_angle_beta   90.00574368
_cell_angle_gamma   89.89366943
_symmetry_Int_Tables_number   1
_chemical_formula_structural   Na3La9(YSn2)8
_chemical_formula_sum   'Na3 La9 Y8 Sn16'
_cell_volume   1069.61831142
_cell_formula_units_Z   1
loop_
 _symmetry_equiv_pos_site_id
 _symmetry_equiv_pos_as_xyz
  1  'x, y, z'
loop_
 _atom_site_type_symbol
 _atom_site_label
 _atom_site_symmetry_multiplicity
 _atom_site_fract_x
 _atom_site_fract_y
 _atom_site_fract_z
 _atom_site_occupancy
  Na  Na0  1  0.331453  0.994344  0.752132  1
  Na  Na1  1  0.168195  0.497357  0.248900  1
  Na  Na2  1  0.667551  0.002957  0.249457  1
  La  La3  1  0.167137  0.323564  0.624132  1
  La  La4  1  0.499573  0.682993  0.597418  1
  La  La5  1  0.005908  0.824962  0.905160  1
  La  La6  1  0.493241  0.318230  0.097557  1
  La  La7  1  0.993793  0.184141  0.401128  1
  La  La8  1  0.494824  0.320726  0.401036  1
  La  La9  1  0.994539  0.181677  0.096845  1
  La  La10  1  0.501438  0.683042  0.904858  1
  La  La11  1  0.006134  0.823053  0.597056  1
  Y  Y12  1  0.660226  0.165892  0.626881  1
  Y  Y13  1  0.167046  0.324976  0.875611  1
  Y  Y14  1  0.337568  0.826608  0.126327  1
  Y  Y15  1  0.840531  0.670640  0.373644  1
  Y  Y16  1  0.340210  0.826674  0.370642  1
  Y  Y17  1  0.840167  0.671334  0.124916  1
  Y  Y18  1  0.658218  0.166234  0.875723  1
  Y  Y19  1  0.831606  0.499961  0.749747  1
  Sn  Sn20  1  0.675113  0.959020  0.462351  1
  Sn  Sn21  1  0.172514  0.539177  0.036450  1
  Sn  Sn22  1  0.326971  0.040605  0.966481  1
  Sn  Sn23  1  0.818229  0.465116  0.539775  1
  Sn  Sn24  1  0.335605  0.036034  0.531470  1
  Sn  Sn25  1  0.828801  0.464414  0.958691  1
  Sn  Sn26  1  0.673411  0.959295  0.037959  1
  Sn  Sn27  1  0.174438  0.545515  0.459960  1
  Sn  Sn28  1  0.470634  0.391071  0.754871  1
  Sn  Sn29  1  0.959932  0.115832  0.752549  1
  Sn  Sn30  1  0.538260  0.611569  0.248455  1
  Sn  Sn31  1  0.035090  0.888004  0.249309  1
  Sn  Sn32  1  0.705950  0.859616  0.751696  1
  Sn  Sn33  1  0.196621  0.634668  0.752574  1
  Sn  Sn34  1  0.293214  0.131713  0.249451  1
  Sn  Sn35  1  0.795860  0.368982  0.248791  1
