# generated using pymatgen
data_CsLa(ReH9)2
_symmetry_space_group_name_H-M   'P 1'
_cell_length_a   5.35351001
_cell_length_b   5.35363547
_cell_length_c   9.73403200
_cell_angle_alpha   93.35538301
_cell_angle_beta   86.63849169
_cell_angle_gamma   125.33347638
_symmetry_Int_Tables_number   1
_chemical_formula_structural   CsLa(ReH9)2
_chemical_formula_sum   'Cs1 La1 Re2 H18'
_cell_volume   227.10014448
_cell_formula_units_Z   1
loop_
 _symmetry_equiv_pos_site_id
 _symmetry_equiv_pos_as_xyz
  1  'x, y, z'
loop_
 _atom_site_type_symbol
 _atom_site_label
 _atom_site_symmetry_multiplicity
 _atom_site_fract_x
 _atom_site_fract_y
 _atom_site_fract_z
 _atom_site_occupancy
  Cs  Cs0  1  0.000000  0.000000  0.000000  1
  La  La1  1  0.000000  0.000000  0.500000  1
  Re  Re2  1  0.331821  0.666240  0.705891  1
  Re  Re3  1  0.668179  0.333760  0.294109  1
  H  H4  1  0.387092  0.611355  0.532621  1
  H  H5  1  0.612908  0.388645  0.467379  1
  H  H6  1  0.406981  0.591872  0.855165  1
  H  H7  1  0.593019  0.408128  0.144835  1
  H  H8  1  0.466097  0.957057  0.823387  1
  H  H9  1  0.958799  0.467683  0.176395  1
  H  H10  1  0.581856  0.015430  0.639277  1
  H  H11  1  0.017501  0.583828  0.360844  1
  H  H12  1  0.533903  0.042943  0.176613  1
  H  H13  1  0.041201  0.532317  0.823605  1
  H  H14  1  0.418144  0.984570  0.360723  1
  H  H15  1  0.982499  0.416172  0.639156  1
  H  H16  1  0.687455  0.733795  0.705306  1
  H  H17  1  0.735280  0.689389  0.294564  1
  H  H18  1  0.312545  0.266205  0.294694  1
  H  H19  1  0.264720  0.310611  0.705436  1
  H  H20  1  0.154449  0.844222  0.689341  1
  H  H21  1  0.845551  0.155778  0.310659  1
