# generated using pymatgen
data_Na2Bi3Pt2Pb
_symmetry_space_group_name_H-M   'P 1'
_cell_length_a   4.38322237
_cell_length_b   8.17390100
_cell_length_c   6.22191892
_cell_angle_alpha   89.99564659
_cell_angle_beta   110.22387785
_cell_angle_gamma   90.00036766
_symmetry_Int_Tables_number   1
_chemical_formula_structural   Na2Bi3Pt2Pb
_chemical_formula_sum   'Na2 Bi3 Pt2 Pb1'
_cell_volume   209.17589536
_cell_formula_units_Z   1
loop_
 _symmetry_equiv_pos_site_id
 _symmetry_equiv_pos_as_xyz
  1  'x, y, z'
loop_
 _atom_site_type_symbol
 _atom_site_label
 _atom_site_symmetry_multiplicity
 _atom_site_fract_x
 _atom_site_fract_y
 _atom_site_fract_z
 _atom_site_occupancy
  Na  Na0  1  0.433629  0.249921  0.369346  1
  Na  Na1  1  0.567144  0.749459  0.632183  1
  Bi  Bi2  1  0.851119  0.542850  0.205353  1
  Bi  Bi3  1  0.855480  0.956906  0.216683  1
  Bi  Bi4  1  0.144683  0.044969  0.784854  1
  Pt  Pt5  1  0.285168  0.752137  0.074152  1
  Pt  Pt6  1  0.719697  0.247938  0.935751  1
  Pb  Pb7  1  0.143080  0.455816  0.781679  1
