# generated using pymatgen
data_Dy8Tm2RuRh3
_symmetry_space_group_name_H-M   'P 1'
_cell_length_a   6.39285662
_cell_length_b   7.19598862
_cell_length_c   8.55330412
_cell_angle_alpha   96.77899725
_cell_angle_beta   111.67832546
_cell_angle_gamma   90.01263262
_symmetry_Int_Tables_number   1
_chemical_formula_structural   Dy8Tm2RuRh3
_chemical_formula_sum   'Dy8 Tm2 Ru1 Rh3'
_cell_volume   362.68131072
_cell_formula_units_Z   1
loop_
 _symmetry_equiv_pos_site_id
 _symmetry_equiv_pos_as_xyz
  1  'x, y, z'
loop_
 _atom_site_type_symbol
 _atom_site_label
 _atom_site_symmetry_multiplicity
 _atom_site_fract_x
 _atom_site_fract_y
 _atom_site_fract_z
 _atom_site_occupancy
  Dy  Dy0  1  0.793097  0.081373  0.812656  1
  Dy  Dy1  1  0.978522  0.418136  0.186796  1
  Dy  Dy2  1  0.207444  0.917994  0.183942  1
  Dy  Dy3  1  0.022085  0.584064  0.812262  1
  Dy  Dy4  1  0.208610  0.185544  0.565909  1
  Dy  Dy5  1  0.643991  0.313291  0.435401  1
  Dy  Dy6  1  0.794904  0.812755  0.438060  1
  Dy  Dy7  1  0.353716  0.688052  0.565602  1
  Tm  Tm8  1  0.422800  0.248299  0.998704  1
  Tm  Tm9  1  0.574959  0.750617  0.999514  1
  Ru  Ru10  1  0.181213  0.925628  0.782061  1
  Rh  Rh11  1  0.600228  0.425491  0.781661  1
  Rh  Rh12  1  0.816801  0.075050  0.218577  1
  Rh  Rh13  1  0.401630  0.573704  0.218853  1
