# generated using pymatgen
data_Tb2Al3Si2Ni3
_symmetry_space_group_name_H-M   'P 1'
_cell_length_a   8.09547427
_cell_length_b   8.09547384
_cell_length_c   8.09547376
_cell_angle_alpha   138.70029727
_cell_angle_beta   102.83095266
_cell_angle_gamma   91.52752542
_symmetry_Int_Tables_number   1
_chemical_formula_structural   Tb2Al3Si2Ni3
_chemical_formula_sum   'Tb4 Al6 Si4 Ni6'
_cell_volume   325.61901423
_cell_formula_units_Z   2
loop_
 _symmetry_equiv_pos_site_id
 _symmetry_equiv_pos_as_xyz
  1  'x, y, z'
loop_
 _atom_site_type_symbol
 _atom_site_label
 _atom_site_symmetry_multiplicity
 _atom_site_fract_x
 _atom_site_fract_y
 _atom_site_fract_z
 _atom_site_occupancy
  Tb  Tb0  1  0.623826  0.868358  0.755468  1
  Tb  Tb1  1  0.376174  0.131642  0.244532  1
  Tb  Tb2  1  0.887109  0.631642  0.255468  1
  Tb  Tb3  1  0.112891  0.368358  0.744532  1
  Al  Al4  1  0.000000  0.250000  0.250000  1
  Al  Al5  1  0.000000  0.750000  0.750000  1
  Al  Al6  1  0.258293  0.508293  0.250000  1
  Al  Al7  1  0.741707  0.991707  0.250000  1
  Al  Al8  1  0.741707  0.491707  0.750000  1
  Al  Al9  1  0.258293  0.008293  0.750000  1
  Si  Si10  1  0.459101  0.605898  0.853203  1
  Si  Si11  1  0.752696  0.105898  0.646797  1
  Si  Si12  1  0.247304  0.894102  0.353203  1
  Si  Si13  1  0.540899  0.394102  0.146797  1
  Ni  Ni14  1  0.999147  0.129769  0.869378  1
  Ni  Ni15  1  0.500000  0.750000  0.250000  1
  Ni  Ni16  1  0.260391  0.629769  0.630622  1
  Ni  Ni17  1  0.739609  0.370231  0.369378  1
  Ni  Ni18  1  0.000853  0.870231  0.130622  1
  Ni  Ni19  1  0.500000  0.250000  0.750000  1
