# generated using pymatgen
data_Dy18Y2Cd6CoRu
_symmetry_space_group_name_H-M   'P 1'
_cell_length_a   9.60586304
_cell_length_b   9.60586362
_cell_length_c   9.81665900
_cell_angle_alpha   90.00000000
_cell_angle_beta   90.00000000
_cell_angle_gamma   119.99016893
_symmetry_Int_Tables_number   1
_chemical_formula_structural   Dy18Y2Cd6CoRu
_chemical_formula_sum   'Dy18 Y2 Cd6 Co1 Ru1'
_cell_volume   784.53108851
_cell_formula_units_Z   1
loop_
 _symmetry_equiv_pos_site_id
 _symmetry_equiv_pos_as_xyz
  1  'x, y, z'
loop_
 _atom_site_type_symbol
 _atom_site_label
 _atom_site_symmetry_multiplicity
 _atom_site_fract_x
 _atom_site_fract_y
 _atom_site_fract_z
 _atom_site_occupancy
  Dy  Dy0  1  0.999986  0.000014  0.499961  1
  Dy  Dy1  1  0.999986  0.000014  0.000039  1
  Dy  Dy2  1  0.212158  0.787842  0.435990  1
  Dy  Dy3  1  0.212279  0.424400  0.436064  1
  Dy  Dy4  1  0.575600  0.787721  0.436064  1
  Dy  Dy5  1  0.790590  0.209410  0.559995  1
  Dy  Dy6  1  0.790482  0.581173  0.560063  1
  Dy  Dy7  1  0.418827  0.209518  0.560063  1
  Dy  Dy8  1  0.790590  0.209410  0.940005  1
  Dy  Dy9  1  0.790482  0.581173  0.939937  1
  Dy  Dy10  1  0.418827  0.209518  0.939937  1
  Dy  Dy11  1  0.212158  0.787842  0.064010  1
  Dy  Dy12  1  0.212279  0.424400  0.063936  1
  Dy  Dy13  1  0.575600  0.787721  0.063936  1
  Dy  Dy14  1  0.541648  0.458352  0.250000  1
  Dy  Dy15  1  0.541680  0.083321  0.250000  1
  Dy  Dy16  1  0.916679  0.458320  0.250000  1
  Dy  Dy17  1  0.458436  0.541564  0.750000  1
  Y  Y18  1  0.458323  0.916579  0.750000  1
  Y  Y19  1  0.083421  0.541677  0.750000  1
  Cd  Cd20  1  0.885268  0.114732  0.250000  1
  Cd  Cd21  1  0.885286  0.770531  0.250000  1
  Cd  Cd22  1  0.229469  0.114714  0.250000  1
  Cd  Cd23  1  0.114660  0.885340  0.750000  1
  Cd  Cd24  1  0.114792  0.229452  0.750000  1
  Cd  Cd25  1  0.770548  0.885208  0.750000  1
  Co  Co26  1  0.333338  0.666662  0.250000  1
  Ru  Ru27  1  0.666602  0.333398  0.750000  1
