# generated using pymatgen
data_Dy4TmMg3Rh4
_symmetry_space_group_name_H-M   'P 1'
_cell_length_a   4.17121200
_cell_length_b   7.15479823
_cell_length_c   8.67136450
_cell_angle_alpha   88.70305179
_cell_angle_beta   90.00000000
_cell_angle_gamma   90.00000000
_symmetry_Int_Tables_number   1
_chemical_formula_structural   Dy4TmMg3Rh4
_chemical_formula_sum   'Dy4 Tm1 Mg3 Rh4'
_cell_volume   258.72346734
_cell_formula_units_Z   1
loop_
 _symmetry_equiv_pos_site_id
 _symmetry_equiv_pos_as_xyz
  1  'x, y, z'
loop_
 _atom_site_type_symbol
 _atom_site_label
 _atom_site_symmetry_multiplicity
 _atom_site_fract_x
 _atom_site_fract_y
 _atom_site_fract_z
 _atom_site_occupancy
  Dy  Dy0  1  0.250000  0.543847  0.162396  1
  Dy  Dy1  1  0.750000  0.469450  0.827405  1
  Dy  Dy2  1  0.250000  0.018816  0.318080  1
  Dy  Dy3  1  0.750000  0.957995  0.682288  1
  Tm  Tm4  1  0.750000  0.363845  0.439399  1
  Mg  Mg5  1  0.250000  0.136971  0.942814  1
  Mg  Mg6  1  0.750000  0.866060  0.059398  1
  Mg  Mg7  1  0.250000  0.647513  0.567045  1
  Rh  Rh8  1  0.750000  0.745289  0.374563  1
  Rh  Rh9  1  0.250000  0.242155  0.624260  1
  Rh  Rh10  1  0.750000  0.251205  0.127741  1
  Rh  Rh11  1  0.250000  0.756856  0.874611  1
