# generated using pymatgen
data_Ca2HgB2Pt7
_symmetry_space_group_name_H-M   'P 1'
_cell_length_a   5.61390700
_cell_length_b   5.61390668
_cell_length_c   7.46347200
_cell_angle_alpha   90.00000000
_cell_angle_beta   90.00000000
_cell_angle_gamma   119.99999597
_symmetry_Int_Tables_number   1
_chemical_formula_structural   Ca2HgB2Pt7
_chemical_formula_sum   'Ca2 Hg1 B2 Pt7'
_cell_volume   203.70512729
_cell_formula_units_Z   1
loop_
 _symmetry_equiv_pos_site_id
 _symmetry_equiv_pos_as_xyz
  1  'x, y, z'
loop_
 _atom_site_type_symbol
 _atom_site_label
 _atom_site_symmetry_multiplicity
 _atom_site_fract_x
 _atom_site_fract_y
 _atom_site_fract_z
 _atom_site_occupancy
  Ca  Ca0  1  0.000000  0.000000  0.000000  1
  Ca  Ca1  1  0.000000  0.000000  0.500000  1
  Hg  Hg2  1  0.666667  0.333334  0.500000  1
  B  B3  1  0.666667  0.333334  0.000000  1
  B  B4  1  0.333334  0.666667  0.000000  1
  Pt  Pt5  1  0.498862  0.997724  0.194210  1
  Pt  Pt6  1  0.002276  0.501138  0.194210  1
  Pt  Pt7  1  0.498861  0.501138  0.194210  1
  Pt  Pt8  1  0.333334  0.666667  0.500000  1
  Pt  Pt9  1  0.498862  0.997724  0.805790  1
  Pt  Pt10  1  0.002276  0.501138  0.805790  1
  Pt  Pt11  1  0.498861  0.501138  0.805790  1
