# generated using pymatgen
data_Sc12Si12IrOs3
_symmetry_space_group_name_H-M   'P 1'
_cell_length_a   4.03219100
_cell_length_b   10.26832432
_cell_length_c   11.67530952
_cell_angle_alpha   90.05831713
_cell_angle_beta   90.00000000
_cell_angle_gamma   90.00000000
_symmetry_Int_Tables_number   1
_chemical_formula_structural   Sc12Si12IrOs3
_chemical_formula_sum   'Sc12 Si12 Ir1 Os3'
_cell_volume   483.40245435
_cell_formula_units_Z   1
loop_
 _symmetry_equiv_pos_site_id
 _symmetry_equiv_pos_as_xyz
  1  'x, y, z'
loop_
 _atom_site_type_symbol
 _atom_site_label
 _atom_site_symmetry_multiplicity
 _atom_site_fract_x
 _atom_site_fract_y
 _atom_site_fract_z
 _atom_site_occupancy
  Sc  Sc0  1  0.250000  0.877843  0.020038  1
  Sc  Sc1  1  0.250000  0.622811  0.519296  1
  Sc  Sc2  1  0.750000  0.123049  0.981387  1
  Sc  Sc3  1  0.750000  0.377716  0.480710  1
  Sc  Sc4  1  0.250000  0.920125  0.603205  1
  Sc  Sc5  1  0.250000  0.580341  0.103818  1
  Sc  Sc6  1  0.750000  0.079831  0.396247  1
  Sc  Sc7  1  0.750000  0.420042  0.895970  1
  Sc  Sc8  1  0.250000  0.658753  0.798704  1
  Sc  Sc9  1  0.250000  0.840710  0.298702  1
  Sc  Sc10  1  0.750000  0.341034  0.201304  1
  Sc  Sc11  1  0.750000  0.158512  0.700712  1
  Si  Si12  1  0.250000  0.014043  0.822265  1
  Si  Si13  1  0.250000  0.486368  0.321223  1
  Si  Si14  1  0.750000  0.986223  0.178594  1
  Si  Si15  1  0.750000  0.513455  0.678864  1
  Si  Si16  1  0.250000  0.250364  0.841496  1
  Si  Si17  1  0.250000  0.249039  0.342100  1
  Si  Si18  1  0.750000  0.749388  0.157807  1
  Si  Si19  1  0.750000  0.750451  0.657618  1
  Si  Si20  1  0.250000  0.194686  0.545887  1
  Si  Si21  1  0.250000  0.305804  0.045728  1
  Si  Si22  1  0.750000  0.806207  0.454256  1
  Si  Si23  1  0.750000  0.693406  0.954378  1
  Ir  Ir24  1  0.750000  0.889336  0.823467  1
  Os  Os25  1  0.250000  0.390641  0.676496  1
  Os  Os26  1  0.250000  0.109741  0.176225  1
  Os  Os27  1  0.750000  0.610080  0.323503  1
