# generated using pymatgen
data_Tb3Pr2Bi3Pb
_symmetry_space_group_name_H-M   'P 1'
_cell_length_a   8.39099400
_cell_length_b   8.37231200
_cell_length_c   15.66446200
_cell_angle_alpha   90.00000000
_cell_angle_beta   90.00000000
_cell_angle_gamma   90.00000000
_symmetry_Int_Tables_number   1
_chemical_formula_structural   Tb3Pr2Bi3Pb
_chemical_formula_sum   'Tb12 Pr8 Bi12 Pb4'
_cell_volume   1100.46009392
_cell_formula_units_Z   4
loop_
 _symmetry_equiv_pos_site_id
 _symmetry_equiv_pos_as_xyz
  1  'x, y, z'
loop_
 _atom_site_type_symbol
 _atom_site_label
 _atom_site_symmetry_multiplicity
 _atom_site_fract_x
 _atom_site_fract_y
 _atom_site_fract_z
 _atom_site_occupancy
  Tb  Tb0  1  0.641362  0.150948  0.623831  1
  Tb  Tb1  1  0.141362  0.349052  0.876169  1
  Tb  Tb2  1  0.358638  0.849052  0.123831  1
  Tb  Tb3  1  0.858638  0.650948  0.376169  1
  Tb  Tb4  1  0.358638  0.849052  0.376169  1
  Tb  Tb5  1  0.858638  0.650948  0.123831  1
  Tb  Tb6  1  0.641362  0.150948  0.876169  1
  Tb  Tb7  1  0.141362  0.349052  0.623831  1
  Tb  Tb8  1  0.809003  0.503582  0.750000  1
  Tb  Tb9  1  0.309003  0.996418  0.750000  1
  Tb  Tb10  1  0.190997  0.496418  0.250000  1
  Tb  Tb11  1  0.690997  0.003582  0.250000  1
  Pr  Pr12  1  0.475223  0.679208  0.595782  1
  Pr  Pr13  1  0.975223  0.820792  0.904218  1
  Pr  Pr14  1  0.524777  0.320792  0.095782  1
  Pr  Pr15  1  0.024777  0.179208  0.404218  1
  Pr  Pr16  1  0.524777  0.320792  0.404218  1
  Pr  Pr17  1  0.024777  0.179208  0.095782  1
  Pr  Pr18  1  0.475223  0.679208  0.904218  1
  Pr  Pr19  1  0.975223  0.820792  0.595782  1
  Bi  Bi20  1  0.707145  0.958906  0.453873  1
  Bi  Bi21  1  0.207145  0.541094  0.046127  1
  Bi  Bi22  1  0.292855  0.041094  0.953873  1
  Bi  Bi23  1  0.792855  0.458906  0.546127  1
  Bi  Bi24  1  0.292855  0.041094  0.546127  1
  Bi  Bi25  1  0.792855  0.458906  0.953873  1
  Bi  Bi26  1  0.707145  0.958906  0.046127  1
  Bi  Bi27  1  0.207145  0.541094  0.453873  1
  Bi  Bi28  1  0.443969  0.370926  0.750000  1
  Bi  Bi29  1  0.943969  0.129074  0.750000  1
  Bi  Bi30  1  0.556031  0.629074  0.250000  1
  Bi  Bi31  1  0.056031  0.870926  0.250000  1
  Pb  Pb32  1  0.660368  0.845277  0.750000  1
  Pb  Pb33  1  0.160368  0.654723  0.750000  1
  Pb  Pb34  1  0.339632  0.154723  0.250000  1
  Pb  Pb35  1  0.839632  0.345277  0.250000  1
