# generated using pymatgen
data_Li2Zr(BrO3)6
_symmetry_space_group_name_H-M   'P 1'
_cell_length_a   5.53111100
_cell_length_b   9.27224120
_cell_length_c   9.27223200
_cell_angle_alpha   59.99993292
_cell_angle_beta   90.00006215
_cell_angle_gamma   89.99984570
_symmetry_Int_Tables_number   1
_chemical_formula_structural   Li2Zr(BrO3)6
_chemical_formula_sum   'Li2 Zr1 Br6 O18'
_cell_volume   411.82406604
_cell_formula_units_Z   1
loop_
 _symmetry_equiv_pos_site_id
 _symmetry_equiv_pos_as_xyz
  1  'x, y, z'
loop_
 _atom_site_type_symbol
 _atom_site_label
 _atom_site_symmetry_multiplicity
 _atom_site_fract_x
 _atom_site_fract_y
 _atom_site_fract_z
 _atom_site_occupancy
  Li  Li0  1  0.730555  0.333333  0.333334  1
  Li  Li1  1  0.217873  0.666668  0.666666  1
  Zr  Zr2  1  0.668285  0.000000  0.000000  1
  Br  Br3  1  0.818693  0.972197  0.659368  1
  Br  Br4  1  0.818693  0.368435  0.972197  1
  Br  Br5  1  0.818692  0.659368  0.368435  1
  Br  Br6  1  0.328831  0.018276  0.324146  1
  Br  Br7  1  0.328832  0.657578  0.018275  1
  Br  Br8  1  0.328832  0.324148  0.657577  1
  O  O9  1  0.482645  0.255800  0.550516  1
  O  O10  1  0.482644  0.193684  0.255798  1
  O  O11  1  0.482645  0.550517  0.193685  1
  O  O12  1  0.988169  0.739798  0.457585  1
  O  O13  1  0.988171  0.802617  0.739798  1
  O  O14  1  0.988172  0.457584  0.802618  1
  O  O15  1  0.889381  0.050323  0.794821  1
  O  O16  1  0.889381  0.154856  0.050323  1
  O  O17  1  0.889381  0.794820  0.154857  1
  O  O18  1  0.446680  0.928039  0.209992  1
  O  O19  1  0.446681  0.861968  0.928039  1
  O  O20  1  0.446680  0.209993  0.861968  1
  O  O21  1  0.945233  0.115400  0.482251  1
  O  O22  1  0.945232  0.402348  0.115400  1
  O  O23  1  0.945233  0.482251  0.402350  1
  O  O24  1  0.430996  0.884481  0.513735  1
  O  O25  1  0.430996  0.601785  0.884480  1
  O  O26  1  0.430996  0.513735  0.601785  1
