# generated using pymatgen
data_NdRe3Si2Os
_symmetry_space_group_name_H-M   'P 1'
_cell_length_a   7.41649284
_cell_length_b   7.41649451
_cell_length_c   4.07612900
_cell_angle_alpha   90.00000000
_cell_angle_beta   90.00000000
_cell_angle_gamma   148.02868379
_symmetry_Int_Tables_number   1
_chemical_formula_structural   NdRe3Si2Os
_chemical_formula_sum   'Nd1 Re3 Si2 Os1'
_cell_volume   118.71531568
_cell_formula_units_Z   1
loop_
 _symmetry_equiv_pos_site_id
 _symmetry_equiv_pos_as_xyz
  1  'x, y, z'
loop_
 _atom_site_type_symbol
 _atom_site_label
 _atom_site_symmetry_multiplicity
 _atom_site_fract_x
 _atom_site_fract_y
 _atom_site_fract_z
 _atom_site_occupancy
  Nd  Nd0  1  0.001518  0.998482  0.000000  1
  Re  Re1  1  0.305477  0.694523  0.000000  1
  Re  Re2  1  0.811720  0.188280  0.500000  1
  Re  Re3  1  0.694807  0.305193  0.000000  1
  Si  Si4  1  0.413013  0.586987  0.500000  1
  Si  Si5  1  0.588479  0.411521  0.500000  1
  Os  Os6  1  0.184987  0.815013  0.500000  1
