# generated using pymatgen
data_Ba3Sr5Yb4(WN4)4
_symmetry_space_group_name_H-M   'P 1'
_cell_length_a   10.69580680
_cell_length_b   10.33751234
_cell_length_c   7.97725548
_cell_angle_alpha   69.35142121
_cell_angle_beta   65.58874726
_cell_angle_gamma   44.67042750
_symmetry_Int_Tables_number   1
_chemical_formula_structural   Ba3Sr5Yb4(WN4)4
_chemical_formula_sum   'Ba3 Sr5 Yb4 W4 N16'
_cell_volume   562.27594206
_cell_formula_units_Z   1
loop_
 _symmetry_equiv_pos_site_id
 _symmetry_equiv_pos_as_xyz
  1  'x, y, z'
loop_
 _atom_site_type_symbol
 _atom_site_label
 _atom_site_symmetry_multiplicity
 _atom_site_fract_x
 _atom_site_fract_y
 _atom_site_fract_z
 _atom_site_occupancy
  Ba  Ba0  1  0.356258  0.367558  0.139162  1
  Ba  Ba1  1  0.677042  0.330116  0.324725  1
  Ba  Ba2  1  0.888797  0.887885  0.118927  1
  Sr  Sr3  1  0.555398  0.940242  0.942462  1
  Sr  Sr4  1  0.920834  0.557410  0.571054  1
  Sr  Sr5  1  0.309118  0.690473  0.692360  1
  Sr  Sr6  1  0.120648  0.104670  0.877475  1
  Sr  Sr7  1  0.138944  0.134580  0.359220  1
  Yb  Yb8  1  0.342613  0.336636  0.671060  1
  Yb  Yb9  1  0.921651  0.893398  0.604754  1
  Yb  Yb10  1  0.645841  0.674400  0.334883  1
  Yb  Yb11  1  0.578822  0.603625  0.896499  1
  W  W12  1  0.483894  0.005089  0.499771  1
  W  W13  1  0.009852  0.491812  0.002778  1
  W  W14  1  0.764101  0.238746  0.755664  1
  W  W15  1  0.245923  0.764421  0.239827  1
  N  N16  1  0.074681  0.628157  0.835851  1
  N  N17  1  0.706327  0.289268  0.994449  1
  N  N18  1  0.673469  0.956234  0.551122  1
  N  N19  1  0.460202  0.832661  0.641666  1
  N  N20  1  0.272530  0.582074  0.433417  1
  N  N21  1  0.728660  0.436192  0.583121  1
  N  N22  1  0.011895  0.019052  0.694553  1
  N  N23  1  0.549480  0.976142  0.248523  1
  N  N24  1  0.427071  0.771412  0.198515  1
  N  N25  1  0.954511  0.539004  0.243428  1
  N  N26  1  0.276566  0.704784  0.020460  1
  N  N27  1  0.812449  0.557355  0.950623  1
  N  N28  1  0.219677  0.237995  0.977217  1
  N  N29  1  0.612907  0.205296  0.752358  1
  N  N30  1  0.248230  0.243900  0.549255  1
  N  N31  1  0.011611  0.999412  0.294823  1
