# generated using pymatgen
data_Tb4Cu3Si2Pd25
_symmetry_space_group_name_H-M   'P 1'
_cell_length_a   8.86725461
_cell_length_b   8.86725461
_cell_length_c   7.05513887
_cell_angle_alpha   90.13505475
_cell_angle_beta   90.13505475
_cell_angle_gamma   90.82420717
_symmetry_Int_Tables_number   1
_chemical_formula_structural   Tb4Cu3Si2Pd25
_chemical_formula_sum   'Tb4 Cu3 Si2 Pd25'
_cell_volume   554.67237907
_cell_formula_units_Z   1
loop_
 _symmetry_equiv_pos_site_id
 _symmetry_equiv_pos_as_xyz
  1  'x, y, z'
loop_
 _atom_site_type_symbol
 _atom_site_label
 _atom_site_symmetry_multiplicity
 _atom_site_fract_x
 _atom_site_fract_y
 _atom_site_fract_z
 _atom_site_occupancy
  Tb  Tb0  1  0.503333  0.003333  0.931555  1
  Tb  Tb1  1  0.996667  0.496667  0.068445  1
  Tb  Tb2  1  0.001388  0.998612  0.500000  1
  Tb  Tb3  1  0.498612  0.501388  0.500000  1
  Cu  Cu4  1  0.250000  0.750000  0.000000  1
  Cu  Cu5  1  0.250000  0.250000  0.000000  1
  Cu  Cu6  1  0.750000  0.750000  0.000000  1
  Si  Si7  1  0.500575  0.000575  0.443797  1
  Si  Si8  1  0.999425  0.499425  0.556203  1
  Pd  Pd9  1  0.333268  0.833268  0.619508  1
  Pd  Pd10  1  0.333482  0.164748  0.615458  1
  Pd  Pd11  1  0.664748  0.833482  0.615458  1
  Pd  Pd12  1  0.666531  0.166531  0.619266  1
  Pd  Pd13  1  0.166732  0.666732  0.380492  1
  Pd  Pd14  1  0.166518  0.335252  0.384542  1
  Pd  Pd15  1  0.835252  0.666518  0.384542  1
  Pd  Pd16  1  0.833469  0.333469  0.380734  1
  Pd  Pd17  1  0.497695  0.768938  0.251980  1
  Pd  Pd18  1  0.497941  0.232684  0.253339  1
  Pd  Pd19  1  0.268938  0.997695  0.251980  1
  Pd  Pd20  1  0.732684  0.997941  0.253339  1
  Pd  Pd21  1  0.002305  0.731062  0.748020  1
  Pd  Pd22  1  0.002059  0.267316  0.746661  1
  Pd  Pd23  1  0.231062  0.502305  0.748020  1
  Pd  Pd24  1  0.767316  0.502059  0.746661  1
  Pd  Pd25  1  0.493912  0.347696  0.857983  1
  Pd  Pd26  1  0.499186  0.659960  0.863416  1
  Pd  Pd27  1  0.847696  0.993912  0.857983  1
  Pd  Pd28  1  0.159960  0.999186  0.863416  1
  Pd  Pd29  1  0.006088  0.152304  0.142017  1
  Pd  Pd30  1  0.000814  0.840040  0.136584  1
  Pd  Pd31  1  0.652304  0.506088  0.142017  1
  Pd  Pd32  1  0.340040  0.500814  0.136584  1
  Pd  Pd33  1  0.750000  0.250000  0.000000  1
