# generated using pymatgen
data_Er10Tl7InAgPt3
_symmetry_space_group_name_H-M   'P 1'
_cell_length_a   3.60643000
_cell_length_b   8.23358803
_cell_length_c   18.44248723
_cell_angle_alpha   90.17181546
_cell_angle_beta   90.00000000
_cell_angle_gamma   90.00000000
_symmetry_Int_Tables_number   1
_chemical_formula_structural   Er10Tl7InAgPt3
_chemical_formula_sum   'Er10 Tl7 In1 Ag1 Pt3'
_cell_volume   547.62615095
_cell_formula_units_Z   1
loop_
 _symmetry_equiv_pos_site_id
 _symmetry_equiv_pos_as_xyz
  1  'x, y, z'
loop_
 _atom_site_type_symbol
 _atom_site_label
 _atom_site_symmetry_multiplicity
 _atom_site_fract_x
 _atom_site_fract_y
 _atom_site_fract_z
 _atom_site_occupancy
  Er  Er0  1  0.000000  0.119082  0.421464  1
  Er  Er1  1  0.000000  0.886464  0.587748  1
  Er  Er2  1  0.000000  0.387098  0.911329  1
  Er  Er3  1  0.000000  0.617328  0.085678  1
  Er  Er4  1  0.000000  0.257645  0.214469  1
  Er  Er5  1  0.000000  0.754197  0.779466  1
  Er  Er6  1  0.000000  0.254612  0.720352  1
  Er  Er7  1  0.000000  0.721312  0.281996  1
  Er  Er8  1  0.000000  0.000232  0.999350  1
  Er  Er9  1  0.000000  0.504096  0.499930  1
  Tl  Tl10  1  0.500000  0.412156  0.355242  1
  Tl  Tl11  1  0.500000  0.579225  0.645952  1
  Tl  Tl12  1  0.500000  0.078355  0.853567  1
  Tl  Tl13  1  0.500000  0.922717  0.148270  1
  Tl  Tl14  1  0.500000  0.295053  0.060778  1
  Tl  Tl15  1  0.500000  0.707889  0.935156  1
  Tl  Tl16  1  0.500000  0.209844  0.566035  1
  In  In17  1  0.500000  0.796094  0.434525  1
  Ag  Ag18  1  0.500000  0.024338  0.302387  1
  Pt  Pt19  1  0.500000  0.972050  0.697955  1
  Pt  Pt20  1  0.500000  0.472429  0.801508  1
  Pt  Pt21  1  0.500000  0.527787  0.196842  1
