# generated using pymatgen
data_LuHfMn3Ni9P7
_symmetry_space_group_name_H-M   'P 1'
_cell_length_a   9.06760800
_cell_length_b   9.06760947
_cell_length_c   3.60805700
_cell_angle_alpha   90.00000000
_cell_angle_beta   90.00000000
_cell_angle_gamma   120.00000193
_symmetry_Int_Tables_number   1
_chemical_formula_structural   LuHfMn3Ni9P7
_chemical_formula_sum   'Lu1 Hf1 Mn3 Ni9 P7'
_cell_volume   256.91505688
_cell_formula_units_Z   1
loop_
 _symmetry_equiv_pos_site_id
 _symmetry_equiv_pos_as_xyz
  1  'x, y, z'
loop_
 _atom_site_type_symbol
 _atom_site_label
 _atom_site_symmetry_multiplicity
 _atom_site_fract_x
 _atom_site_fract_y
 _atom_site_fract_z
 _atom_site_occupancy
  Lu  Lu0  1  0.000000  0.000000  0.500000  1
  Hf  Hf1  1  0.666667  0.333333  0.000000  1
  Mn  Mn2  1  0.556550  0.763999  0.500000  1
  Mn  Mn3  1  0.236001  0.792551  0.500000  1
  Mn  Mn4  1  0.207449  0.443450  0.500000  1
  Ni  Ni5  1  0.770113  0.726642  0.000000  1
  Ni  Ni6  1  0.273358  0.043473  0.000000  1
  Ni  Ni7  1  0.956527  0.229887  0.000000  1
  Ni  Ni8  1  0.489868  0.947352  0.000000  1
  Ni  Ni9  1  0.052648  0.542516  0.000000  1
  Ni  Ni10  1  0.457484  0.510132  0.000000  1
  Ni  Ni11  1  0.716582  0.106941  0.500000  1
  Ni  Ni12  1  0.893059  0.609642  0.500000  1
  Ni  Ni13  1  0.390358  0.283418  0.500000  1
  P  P14  1  0.453423  0.078866  0.500000  1
  P  P15  1  0.921134  0.374557  0.500000  1
  P  P16  1  0.625443  0.546577  0.500000  1
  P  P17  1  0.741912  0.957831  0.000000  1
  P  P18  1  0.042169  0.784081  0.000000  1
  P  P19  1  0.215919  0.258088  0.000000  1
  P  P20  1  0.333333  0.666667  0.000000  1
