# generated using pymatgen
data_ErZn3PdAu
_symmetry_space_group_name_H-M   'P 1'
_cell_length_a   5.22103856
_cell_length_b   5.22103923
_cell_length_c   5.23426204
_cell_angle_alpha   60.08352623
_cell_angle_beta   60.08352463
_cell_angle_gamma   59.99998971
_symmetry_Int_Tables_number   1
_chemical_formula_structural   ErZn3PdAu
_chemical_formula_sum   'Er1 Zn3 Pd1 Au1'
_cell_volume   101.01861839
_cell_formula_units_Z   1
loop_
 _symmetry_equiv_pos_site_id
 _symmetry_equiv_pos_as_xyz
  1  'x, y, z'
loop_
 _atom_site_type_symbol
 _atom_site_label
 _atom_site_symmetry_multiplicity
 _atom_site_fract_x
 _atom_site_fract_y
 _atom_site_fract_z
 _atom_site_occupancy
  Er  Er0  1  0.998792  0.998792  0.003623  1
  Zn  Zn1  1  0.624488  0.130345  0.620679  1
  Zn  Zn2  1  0.130345  0.624488  0.620679  1
  Zn  Zn3  1  0.624488  0.624488  0.620679  1
  Pd  Pd4  1  0.627459  0.627459  0.117625  1
  Au  Au5  1  0.244428  0.244428  0.266716  1
