# generated using pymatgen
data_Rb2CaPuO6
_symmetry_space_group_name_H-M   'P 1'
_cell_length_a   6.18320955
_cell_length_b   6.18320935
_cell_length_c   6.18320900
_cell_angle_alpha   90.00001853
_cell_angle_beta   119.99999168
_cell_angle_gamma   119.99999593
_symmetry_Int_Tables_number   1
_chemical_formula_structural   Rb2CaPuO6
_chemical_formula_sum   'Rb2 Ca1 Pu1 O6'
_cell_volume   167.15788063
_cell_formula_units_Z   1
loop_
 _symmetry_equiv_pos_site_id
 _symmetry_equiv_pos_as_xyz
  1  'x, y, z'
loop_
 _atom_site_type_symbol
 _atom_site_label
 _atom_site_symmetry_multiplicity
 _atom_site_fract_x
 _atom_site_fract_y
 _atom_site_fract_z
 _atom_site_occupancy
  Rb  Rb0  1  0.500000  0.749999  0.249998  1
  Rb  Rb1  1  0.500000  0.250000  0.750001  1
  Ca  Ca2  1  0.000000  0.500001  0.500000  1
  Pu  Pu3  1  0.000000  0.000000  0.000000  1
  O  O4  1  0.000000  0.227030  0.227030  1
  O  O5  1  0.454059  0.227030  0.227030  1
  O  O6  1  0.000000  0.772971  0.227030  1
  O  O7  1  0.000000  0.227032  0.772971  1
  O  O8  1  0.000000  0.772970  0.772971  1
  O  O9  1  0.545941  0.772970  0.772971  1
