# generated using pymatgen
data_LiHo4Co19As12
_symmetry_space_group_name_H-M   'P 1'
_cell_length_a   3.78955100
_cell_length_b   10.67415695
_cell_length_c   12.20667758
_cell_angle_alpha   89.88616426
_cell_angle_beta   90.00000000
_cell_angle_gamma   90.00000000
_symmetry_Int_Tables_number   1
_chemical_formula_structural   LiHo4Co19As12
_chemical_formula_sum   'Li1 Ho4 Co19 As12'
_cell_volume   493.76233363
_cell_formula_units_Z   1
loop_
 _symmetry_equiv_pos_site_id
 _symmetry_equiv_pos_as_xyz
  1  'x, y, z'
loop_
 _atom_site_type_symbol
 _atom_site_label
 _atom_site_symmetry_multiplicity
 _atom_site_fract_x
 _atom_site_fract_y
 _atom_site_fract_z
 _atom_site_occupancy
  Li  Li0  1  0.250000  0.700541  0.991136  1
  Ho  Ho1  1  0.250000  0.579889  0.700412  1
  Ho  Ho2  1  0.250000  0.921929  0.202036  1
  Ho  Ho3  1  0.750000  0.419716  0.298998  1
  Ho  Ho4  1  0.750000  0.078031  0.798526  1
  Co  Co5  1  0.250000  0.787926  0.492663  1
  Co  Co6  1  0.750000  0.293037  0.009011  1
  Co  Co7  1  0.750000  0.212143  0.506970  1
  Co  Co8  1  0.250000  0.406444  0.487592  1
  Co  Co9  1  0.250000  0.094238  0.987370  1
  Co  Co10  1  0.750000  0.592573  0.513732  1
  Co  Co11  1  0.750000  0.910467  0.013699  1
  Co  Co12  1  0.250000  0.218323  0.176649  1
  Co  Co13  1  0.250000  0.283274  0.676251  1
  Co  Co14  1  0.750000  0.784884  0.820243  1
  Co  Co15  1  0.750000  0.715665  0.326640  1
  Co  Co16  1  0.250000  0.884613  0.696513  1
  Co  Co17  1  0.250000  0.618566  0.199709  1
  Co  Co18  1  0.750000  0.117360  0.301975  1
  Co  Co19  1  0.750000  0.380567  0.802047  1
  Co  Co20  1  0.250000  0.465323  0.931428  1
  Co  Co21  1  0.250000  0.031806  0.431445  1
  Co  Co22  1  0.750000  0.531973  0.067618  1
  Co  Co23  1  0.750000  0.969885  0.566798  1
  As  As24  1  0.250000  0.418704  0.114660  1
  As  As25  1  0.250000  0.083850  0.613587  1
  As  As26  1  0.750000  0.581437  0.882693  1
  As  As27  1  0.750000  0.916597  0.385694  1
  As  As28  1  0.250000  0.266123  0.868215  1
  As  As29  1  0.250000  0.232006  0.368700  1
  As  As30  1  0.750000  0.732688  0.135231  1
  As  As31  1  0.750000  0.769400  0.630073  1
  As  As32  1  0.250000  0.600678  0.392831  1
  As  As33  1  0.250000  0.897670  0.891632  1
  As  As34  1  0.750000  0.398182  0.608918  1
  As  As35  1  0.750000  0.103492  0.108308  1
