# generated using pymatgen
data_NdCr4AgO14
_symmetry_space_group_name_H-M   'P 1'
_cell_length_a   7.41688044
_cell_length_b   7.41687987
_cell_length_c   7.41687970
_cell_angle_alpha   111.26737393
_cell_angle_beta   108.58068116
_cell_angle_gamma   108.58067942
_symmetry_Int_Tables_number   1
_chemical_formula_structural   NdCr4AgO14
_chemical_formula_sum   'Nd1 Cr4 Ag1 O14'
_cell_volume   313.84882135
_cell_formula_units_Z   1
loop_
 _symmetry_equiv_pos_site_id
 _symmetry_equiv_pos_as_xyz
  1  'x, y, z'
loop_
 _atom_site_type_symbol
 _atom_site_label
 _atom_site_symmetry_multiplicity
 _atom_site_fract_x
 _atom_site_fract_y
 _atom_site_fract_z
 _atom_site_occupancy
  Nd  Nd0  1  0.000000  0.990308  0.990308  1
  Cr  Cr1  1  0.543882  0.954130  0.172761  1
  Cr  Cr2  1  0.456117  0.628878  0.410248  1
  Cr  Cr3  1  0.218630  0.172761  0.628878  1
  Cr  Cr4  1  0.781370  0.410248  0.954130  1
  Ag  Ag5  1  0.000000  0.569772  0.569772  1
  O  O6  1  0.303842  0.912126  0.008892  1
  O  O7  1  0.678246  0.915071  0.036135  1
  O  O8  1  0.819265  0.518856  0.204620  1
  O  O9  1  0.321753  0.357888  0.236824  1
  O  O10  1  0.500000  0.761254  0.261254  1
  O  O11  1  0.121063  0.036135  0.357888  1
  O  O12  1  0.685763  0.204620  0.385355  1
  O  O13  1  0.314236  0.699592  0.518858  1
  O  O14  1  0.696158  0.705051  0.608284  1
  O  O15  1  0.096766  0.008892  0.705051  1
  O  O16  1  0.180735  0.385356  0.699592  1
  O  O17  1  0.500000  0.261254  0.761254  1
  O  O18  1  0.903234  0.608284  0.912126  1
  O  O19  1  0.878937  0.236824  0.915071  1
