# generated using pymatgen
data_Yb3HoNi13Pt
_symmetry_space_group_name_H-M   'P 1'
_cell_length_a   4.89529210
_cell_length_b   4.89529146
_cell_length_c   12.42950496
_cell_angle_alpha   78.64295471
_cell_angle_beta   78.64295824
_cell_angle_gamma   59.99999235
_symmetry_Int_Tables_number   1
_chemical_formula_structural   Yb3HoNi13Pt
_chemical_formula_sum   'Yb3 Ho1 Ni13 Pt1'
_cell_volume   251.19641098
_cell_formula_units_Z   1
loop_
 _symmetry_equiv_pos_site_id
 _symmetry_equiv_pos_as_xyz
  1  'x, y, z'
loop_
 _atom_site_type_symbol
 _atom_site_label
 _atom_site_symmetry_multiplicity
 _atom_site_fract_x
 _atom_site_fract_y
 _atom_site_fract_z
 _atom_site_occupancy
  Yb  Yb0  1  0.051647  0.051647  0.845060  1
  Yb  Yb1  1  0.852405  0.852405  0.442782  1
  Yb  Yb2  1  0.146358  0.146358  0.560929  1
  Ho  Ho3  1  0.949349  0.949349  0.151954  1
  Ni  Ni4  1  0.720849  0.720849  0.837450  1
  Ni  Ni5  1  0.279397  0.279397  0.161811  1
  Ni  Ni6  1  0.612919  0.612919  0.161242  1
  Ni  Ni7  1  0.387099  0.387099  0.838705  1
  Ni  Ni8  1  0.000599  0.500192  0.999017  1
  Ni  Ni9  1  0.500192  0.000599  0.999017  1
  Ni  Ni10  1  0.500192  0.500192  0.999017  1
  Ni  Ni11  1  0.390805  0.390805  0.323026  1
  Ni  Ni12  1  0.895362  0.390805  0.323026  1
  Ni  Ni13  1  0.390805  0.895362  0.323026  1
  Ni  Ni14  1  0.608988  0.608988  0.677842  1
  Ni  Ni15  1  0.104182  0.608988  0.677842  1
  Ni  Ni16  1  0.608988  0.104182  0.677842  1
  Pt  Pt17  1  0.499863  0.499863  0.500411  1
