# generated using pymatgen
data_CaEu5(SbI3)2
_symmetry_space_group_name_H-M   'P 1'
_cell_length_a   11.43664164
_cell_length_b   11.42038814
_cell_length_c   11.42037386
_cell_angle_alpha   109.45497424
_cell_angle_beta   109.50299084
_cell_angle_gamma   109.39805491
_symmetry_Int_Tables_number   1
_chemical_formula_structural   CaEu5(SbI3)2
_chemical_formula_sum   'Ca2 Eu10 Sb4 I12'
_cell_volume   1149.06897155
_cell_formula_units_Z   2
loop_
 _symmetry_equiv_pos_site_id
 _symmetry_equiv_pos_as_xyz
  1  'x, y, z'
loop_
 _atom_site_type_symbol
 _atom_site_label
 _atom_site_symmetry_multiplicity
 _atom_site_fract_x
 _atom_site_fract_y
 _atom_site_fract_z
 _atom_site_occupancy
  Ca  Ca0  1  0.260497  0.010627  0.020437  1
  Ca  Ca1  1  0.239501  0.259938  0.750128  1
  Eu  Eu2  1  0.485264  0.491585  0.241870  1
  Eu  Eu3  1  0.750295  0.242371  0.257718  1
  Eu  Eu4  1  0.749706  0.007423  0.492077  1
  Eu  Eu5  1  0.242783  0.484434  0.492223  1
  Eu  Eu6  1  0.257217  0.749440  0.241652  1
  Eu  Eu7  1  0.014737  0.256607  0.006322  1
  Eu  Eu8  1  0.007981  0.014420  0.257472  1
  Eu  Eu9  1  0.492019  0.749490  0.006439  1
  Eu  Eu10  1  0.492294  0.242272  0.485140  1
  Eu  Eu11  1  0.007705  0.492845  0.749976  1
  Sb  Sb12  1  0.249856  0.247823  0.247819  1
  Sb  Sb13  1  0.498018  0.999865  0.247800  1
  Sb  Sb14  1  0.001983  0.249783  0.501848  1
  Sb  Sb15  1  0.250144  0.497964  0.997967  1
  I  I16  1  0.249288  0.753746  0.751396  1
  I  I17  1  0.498517  0.496477  0.751440  1
  I  I18  1  0.001484  0.752924  0.997960  1
  I  I19  1  0.749323  0.250342  0.751355  1
  I  I20  1  0.006838  0.001390  0.751391  1
  I  I21  1  0.250713  0.002109  0.504458  1
  I  I22  1  0.750676  0.502031  0.501017  1
  I  I23  1  0.493161  0.244552  0.994551  1
  I  I24  1  0.751125  0.748718  0.249936  1
  I  I25  1  0.748876  0.998812  0.997594  1
  I  I26  1  0.998934  0.501088  0.249859  1
  I  I27  1  0.501065  0.750925  0.502153  1
