# generated using pymatgen
data_TbDyAlZnRh2
_symmetry_space_group_name_H-M   'P 1'
_cell_length_a   4.08007200
_cell_length_b   6.98884683
_cell_length_c   8.12591760
_cell_angle_alpha   90.08747969
_cell_angle_beta   90.00000000
_cell_angle_gamma   90.00000000
_symmetry_Int_Tables_number   1
_chemical_formula_structural   TbDyAlZnRh2
_chemical_formula_sum   'Tb2 Dy2 Al2 Zn2 Rh4'
_cell_volume   231.71025605
_cell_formula_units_Z   2
loop_
 _symmetry_equiv_pos_site_id
 _symmetry_equiv_pos_as_xyz
  1  'x, y, z'
loop_
 _atom_site_type_symbol
 _atom_site_label
 _atom_site_symmetry_multiplicity
 _atom_site_fract_x
 _atom_site_fract_y
 _atom_site_fract_z
 _atom_site_occupancy
  Tb  Tb0  1  0.250000  0.539773  0.186581  1
  Tb  Tb1  1  0.750000  0.460227  0.813419  1
  Dy  Dy2  1  0.250000  0.040473  0.320169  1
  Dy  Dy3  1  0.750000  0.959527  0.679831  1
  Al  Al4  1  0.250000  0.136076  0.938705  1
  Al  Al5  1  0.750000  0.863924  0.061295  1
  Zn  Zn6  1  0.250000  0.636920  0.563879  1
  Zn  Zn7  1  0.750000  0.363080  0.436121  1
  Rh  Rh8  1  0.750000  0.747710  0.370396  1
  Rh  Rh9  1  0.250000  0.252290  0.629604  1
  Rh  Rh10  1  0.750000  0.233601  0.112522  1
  Rh  Rh11  1  0.250000  0.766399  0.887478  1
