# generated using pymatgen
data_Li4La6PPd12
_symmetry_space_group_name_H-M   'P 1'
_cell_length_a   8.46846476
_cell_length_b   8.46846549
_cell_length_c   8.46846500
_cell_angle_alpha   109.47122186
_cell_angle_beta   109.47122360
_cell_angle_gamma   109.47121932
_symmetry_Int_Tables_number   1
_chemical_formula_structural   Li4La6PPd12
_chemical_formula_sum   'Li4 La6 P1 Pd12'
_cell_volume   467.51139166
_cell_formula_units_Z   1
loop_
 _symmetry_equiv_pos_site_id
 _symmetry_equiv_pos_as_xyz
  1  'x, y, z'
loop_
 _atom_site_type_symbol
 _atom_site_label
 _atom_site_symmetry_multiplicity
 _atom_site_fract_x
 _atom_site_fract_y
 _atom_site_fract_z
 _atom_site_occupancy
  Li  Li0  1  0.000000  0.000000  0.500000  1
  Li  Li1  1  0.000000  0.500000  0.000000  1
  Li  Li2  1  0.500000  0.000000  0.000000  1
  Li  Li3  1  0.500000  0.500000  0.500000  1
  La  La4  1  0.692627  0.692627  0.000000  1
  La  La5  1  0.307373  0.000000  0.307373  1
  La  La6  1  0.000000  0.307373  0.307373  1
  La  La7  1  0.307373  0.307373  0.000000  1
  La  La8  1  0.692627  0.000000  0.692627  1
  La  La9  1  0.000000  0.692627  0.692627  1
  P  P10  1  0.000000  0.000000  0.000000  1
  Pd  Pd11  1  0.331644  0.331644  0.663288  1
  Pd  Pd12  1  0.668356  0.000000  0.331644  1
  Pd  Pd13  1  0.000000  0.668356  0.331644  1
  Pd  Pd14  1  0.668356  0.331644  0.000000  1
  Pd  Pd15  1  0.331644  0.663288  0.331644  1
  Pd  Pd16  1  0.000000  0.331644  0.668356  1
  Pd  Pd17  1  0.331644  0.668356  0.000000  1
  Pd  Pd18  1  0.331644  0.000000  0.668356  1
  Pd  Pd19  1  0.663288  0.331644  0.331644  1
  Pd  Pd20  1  0.668356  0.668356  0.336712  1
  Pd  Pd21  1  0.668356  0.336712  0.668356  1
  Pd  Pd22  1  0.336712  0.668356  0.668356  1
