# generated using pymatgen
data_Ta3TcB3Os2
_symmetry_space_group_name_H-M   'P 1'
_cell_length_a   3.14502200
_cell_length_b   9.08439700
_cell_length_c   15.69855900
_cell_angle_alpha   90.00000000
_cell_angle_beta   90.00000000
_cell_angle_gamma   90.00000000
_symmetry_Int_Tables_number   1
_chemical_formula_structural   Ta3TcB3Os2
_chemical_formula_sum   'Ta12 Tc4 B12 Os8'
_cell_volume   448.51769595
_cell_formula_units_Z   4
loop_
 _symmetry_equiv_pos_site_id
 _symmetry_equiv_pos_as_xyz
  1  'x, y, z'
loop_
 _atom_site_type_symbol
 _atom_site_label
 _atom_site_symmetry_multiplicity
 _atom_site_fract_x
 _atom_site_fract_y
 _atom_site_fract_z
 _atom_site_occupancy
  Ta  Ta0  1  0.000000  0.799442  0.494757  1
  Ta  Ta1  1  0.000000  0.200558  0.505243  1
  Ta  Ta2  1  0.000000  0.299442  0.005243  1
  Ta  Ta3  1  0.000000  0.700558  0.994757  1
  Ta  Ta4  1  0.000000  0.513825  0.593962  1
  Ta  Ta5  1  0.000000  0.486175  0.406038  1
  Ta  Ta6  1  0.000000  0.013825  0.906038  1
  Ta  Ta7  1  0.000000  0.986175  0.093962  1
  Ta  Ta8  1  0.000000  0.684696  0.205697  1
  Ta  Ta9  1  0.000000  0.315304  0.794303  1
  Ta  Ta10  1  0.000000  0.184696  0.294303  1
  Ta  Ta11  1  0.000000  0.815304  0.705697  1
  Tc  Tc12  1  0.500000  0.718203  0.357565  1
  Tc  Tc13  1  0.500000  0.281797  0.642435  1
  Tc  Tc14  1  0.500000  0.218203  0.142435  1
  Tc  Tc15  1  0.500000  0.781797  0.857565  1
  B  B16  1  0.500000  0.605510  0.496840  1
  B  B17  1  0.500000  0.394490  0.503160  1
  B  B18  1  0.500000  0.105510  0.003160  1
  B  B19  1  0.500000  0.894490  0.996840  1
  B  B20  1  0.000000  0.612134  0.833148  1
  B  B21  1  0.000000  0.387866  0.166852  1
  B  B22  1  0.000000  0.112134  0.666852  1
  B  B23  1  0.000000  0.887866  0.333148  1
  B  B24  1  0.500000  0.713652  0.600027  1
  B  B25  1  0.500000  0.286348  0.399973  1
  B  B26  1  0.500000  0.213652  0.899973  1
  B  B27  1  0.500000  0.786348  0.100027  1
  Os  Os28  1  0.500000  0.518725  0.094837  1
  Os  Os29  1  0.500000  0.481275  0.905163  1
  Os  Os30  1  0.500000  0.018725  0.405163  1
  Os  Os31  1  0.500000  0.981275  0.594837  1
  Os  Os32  1  0.500000  0.566170  0.733248  1
  Os  Os33  1  0.500000  0.433830  0.266752  1
  Os  Os34  1  0.500000  0.066170  0.766752  1
  Os  Os35  1  0.500000  0.933830  0.233248  1
