# generated using pymatgen
data_Lu2Sc18(BiSb3)3
_symmetry_space_group_name_H-M   'P 1'
_cell_length_a   7.67960925
_cell_length_b   8.86656586
_cell_length_c   11.27828038
_cell_angle_alpha   90.03878606
_cell_angle_beta   89.91015617
_cell_angle_gamma   90.03246198
_symmetry_Int_Tables_number   1
_chemical_formula_structural   Lu2Sc18(BiSb3)3
_chemical_formula_sum   'Lu2 Sc18 Bi3 Sb9'
_cell_volume   767.95673191
_cell_formula_units_Z   1
loop_
 _symmetry_equiv_pos_site_id
 _symmetry_equiv_pos_as_xyz
  1  'x, y, z'
loop_
 _atom_site_type_symbol
 _atom_site_label
 _atom_site_symmetry_multiplicity
 _atom_site_fract_x
 _atom_site_fract_y
 _atom_site_fract_z
 _atom_site_occupancy
  Lu  Lu0  1  0.316800  0.756551  0.281338  1
  Lu  Lu1  1  0.686430  0.247352  0.718181  1
  Sc  Sc2  1  0.022756  0.247200  0.513613  1
  Sc  Sc3  1  0.975913  0.752802  0.490065  1
  Sc  Sc4  1  0.475206  0.755245  0.010872  1
  Sc  Sc5  1  0.525173  0.244665  0.988874  1
  Sc  Sc6  1  0.352486  0.244099  0.282511  1
  Sc  Sc7  1  0.650705  0.753236  0.717045  1
  Sc  Sc8  1  0.146083  0.752652  0.783158  1
  Sc  Sc9  1  0.850672  0.243848  0.215684  1
  Sc  Sc10  1  0.181928  0.246166  0.780342  1
  Sc  Sc11  1  0.815861  0.756490  0.218730  1
  Sc  Sc12  1  0.193889  0.062685  0.060637  1
  Sc  Sc13  1  0.805829  0.937176  0.939173  1
  Sc  Sc14  1  0.307238  0.937011  0.561597  1
  Sc  Sc15  1  0.809381  0.564670  0.938134  1
  Sc  Sc16  1  0.692684  0.063084  0.438724  1
  Sc  Sc17  1  0.192053  0.434977  0.059328  1
  Sc  Sc18  1  0.691803  0.435121  0.442197  1
  Sc  Sc19  1  0.306932  0.564753  0.560604  1
  Bi  Bi20  1  0.062499  0.493296  0.325537  1
  Bi  Bi21  1  0.568989  0.494758  0.173444  1
  Bi  Bi22  1  0.431073  0.505220  0.826795  1
  Sb  Sb23  1  0.404429  0.250052  0.535987  1
  Sb  Sb24  1  0.595206  0.749960  0.464236  1
  Sb  Sb25  1  0.090026  0.750008  0.037853  1
  Sb  Sb26  1  0.910058  0.249923  0.962086  1
  Sb  Sb27  1  0.061791  0.006919  0.327342  1
  Sb  Sb28  1  0.937912  0.993134  0.673406  1
  Sb  Sb29  1  0.431880  0.994685  0.827024  1
  Sb  Sb30  1  0.938178  0.506804  0.672950  1
  Sb  Sb31  1  0.568136  0.005458  0.172532  1
