# generated using pymatgen
data_Nd5US10
_symmetry_space_group_name_H-M   'P 1'
_cell_length_a   7.54983600
_cell_length_b   8.11205000
_cell_length_c   12.04236800
_cell_angle_alpha   90.00000000
_cell_angle_beta   90.00000000
_cell_angle_gamma   90.00000000
_symmetry_Int_Tables_number   1
_chemical_formula_structural   Nd5US10
_chemical_formula_sum   'Nd10 U2 S20'
_cell_volume   737.53057869
_cell_formula_units_Z   2
loop_
 _symmetry_equiv_pos_site_id
 _symmetry_equiv_pos_as_xyz
  1  'x, y, z'
loop_
 _atom_site_type_symbol
 _atom_site_label
 _atom_site_symmetry_multiplicity
 _atom_site_fract_x
 _atom_site_fract_y
 _atom_site_fract_z
 _atom_site_occupancy
  Nd  Nd0  1  0.926097  0.750000  0.492092  1
  Nd  Nd1  1  0.426097  0.250000  0.007908  1
  Nd  Nd2  1  0.479266  0.000359  0.321367  1
  Nd  Nd3  1  0.979266  0.999641  0.178633  1
  Nd  Nd4  1  0.522762  0.500374  0.676078  1
  Nd  Nd5  1  0.022762  0.499626  0.823922  1
  Nd  Nd6  1  0.522762  0.999626  0.676078  1
  Nd  Nd7  1  0.022762  0.000374  0.823922  1
  Nd  Nd8  1  0.479266  0.499641  0.321367  1
  Nd  Nd9  1  0.979266  0.500359  0.178633  1
  U  U10  1  0.063709  0.250000  0.508191  1
  U  U11  1  0.563709  0.750000  0.991809  1
  S  S12  1  0.174153  0.750000  0.308983  1
  S  S13  1  0.674153  0.250000  0.191017  1
  S  S14  1  0.830071  0.250000  0.683229  1
  S  S15  1  0.330071  0.750000  0.816771  1
  S  S16  1  0.538413  0.750000  0.497767  1
  S  S17  1  0.038413  0.250000  0.002233  1
  S  S18  1  0.449660  0.250000  0.498185  1
  S  S19  1  0.949660  0.750000  0.001815  1
  S  S20  1  0.804910  0.750000  0.716364  1
  S  S21  1  0.304910  0.250000  0.783636  1
  S  S22  1  0.197234  0.250000  0.287139  1
  S  S23  1  0.697234  0.750000  0.212861  1
  S  S24  1  0.163880  0.529438  0.599570  1
  S  S25  1  0.663880  0.470562  0.900430  1
  S  S26  1  0.841968  0.052736  0.404839  1
  S  S27  1  0.341968  0.947264  0.095161  1
  S  S28  1  0.841968  0.447264  0.404839  1
  S  S29  1  0.341968  0.552736  0.095161  1
  S  S30  1  0.163880  0.970562  0.599570  1
  S  S31  1  0.663880  0.029438  0.900430  1
