# generated using pymatgen
data_La4Hg2Rh3Au
_symmetry_space_group_name_H-M   'P 1'
_cell_length_a   7.90485478
_cell_length_b   7.90485460
_cell_length_c   3.93252800
_cell_angle_alpha   90.00000000
_cell_angle_beta   90.00000000
_cell_angle_gamma   89.53930648
_symmetry_Int_Tables_number   1
_chemical_formula_structural   La4Hg2Rh3Au
_chemical_formula_sum   'La4 Hg2 Rh3 Au1'
_cell_volume   245.72286277
_cell_formula_units_Z   1
loop_
 _symmetry_equiv_pos_site_id
 _symmetry_equiv_pos_as_xyz
  1  'x, y, z'
loop_
 _atom_site_type_symbol
 _atom_site_label
 _atom_site_symmetry_multiplicity
 _atom_site_fract_x
 _atom_site_fract_y
 _atom_site_fract_z
 _atom_site_occupancy
  La  La0  1  0.832414  0.689569  0.500000  1
  La  La1  1  0.323032  0.823032  0.500000  1
  La  La2  1  0.652346  0.152346  0.500000  1
  La  La3  1  0.189569  0.332414  0.500000  1
  Hg  Hg4  1  0.003174  0.000364  0.000000  1
  Hg  Hg5  1  0.500364  0.503174  0.000000  1
  Rh  Rh6  1  0.363575  0.134400  0.000000  1
  Rh  Rh7  1  0.634400  0.863575  0.000000  1
  Rh  Rh8  1  0.129997  0.629997  0.000000  1
  Au  Au9  1  0.871130  0.371130  0.000000  1
