# generated using pymatgen
data_La5Pr(YAu5)2
_symmetry_space_group_name_H-M   'P 1'
_cell_length_a   8.33110765
_cell_length_b   8.33242466
_cell_length_c   8.32782700
_cell_angle_alpha   66.09916324
_cell_angle_beta   66.10049025
_cell_angle_gamma   66.06047440
_symmetry_Int_Tables_number   1
_chemical_formula_structural   La5Pr(YAu5)2
_chemical_formula_sum   'La5 Pr1 Y2 Au10'
_cell_volume   462.58186625
_cell_formula_units_Z   1
loop_
 _symmetry_equiv_pos_site_id
 _symmetry_equiv_pos_as_xyz
  1  'x, y, z'
loop_
 _atom_site_type_symbol
 _atom_site_label
 _atom_site_symmetry_multiplicity
 _atom_site_fract_x
 _atom_site_fract_y
 _atom_site_fract_z
 _atom_site_occupancy
  La  La0  1  0.622391  0.892642  0.184367  1
  La  La1  1  0.184576  0.622701  0.892716  1
  La  La2  1  0.107230  0.815624  0.378057  1
  La  La3  1  0.378033  0.107744  0.814910  1
  La  La4  1  0.815371  0.377591  0.107456  1
  Pr  Pr5  1  0.892306  0.185231  0.622249  1
  Y  Y6  1  0.657151  0.655713  0.656612  1
  Y  Y7  1  0.343093  0.343013  0.343693  1
  Au  Au8  1  0.000053  0.000521  0.999132  1
  Au  Au9  1  0.499997  0.499771  0.500281  1
  Au  Au10  1  0.804507  0.804542  0.803582  1
  Au  Au11  1  0.195648  0.195836  0.196498  1
  Au  Au12  1  0.940393  0.546644  0.322234  1
  Au  Au13  1  0.322027  0.940450  0.546653  1
  Au  Au14  1  0.546903  0.321990  0.940074  1
  Au  Au15  1  0.059493  0.452878  0.677865  1
  Au  Au16  1  0.677863  0.059397  0.453789  1
  Au  Au17  1  0.452963  0.677710  0.059832  1
