# generated using pymatgen
data_ReW2Br9
_symmetry_space_group_name_H-M   'P 1'
_cell_length_a   8.72289297
_cell_length_b   11.18589300
_cell_length_c   9.35215300
_cell_angle_alpha   90.00000000
_cell_angle_beta   110.82837659
_cell_angle_gamma   90.00000000
_symmetry_Int_Tables_number   1
_chemical_formula_structural   ReW2Br9
_chemical_formula_sum   'Re2 W4 Br18'
_cell_volume   852.88735161
_cell_formula_units_Z   2
loop_
 _symmetry_equiv_pos_site_id
 _symmetry_equiv_pos_as_xyz
  1  'x, y, z'
loop_
 _atom_site_type_symbol
 _atom_site_label
 _atom_site_symmetry_multiplicity
 _atom_site_fract_x
 _atom_site_fract_y
 _atom_site_fract_z
 _atom_site_occupancy
  Re  Re0  1  0.827418  0.250000  0.139182  1
  Re  Re1  1  0.172581  0.750000  0.860818  1
  W  W2  1  0.831756  0.130985  0.364047  1
  W  W3  1  0.831756  0.369014  0.364047  1
  W  W4  1  0.168244  0.630985  0.635953  1
  W  W5  1  0.168244  0.869015  0.635953  1
  Br  Br6  1  0.447104  0.750000  0.046466  1
  Br  Br7  1  0.095457  0.250000  0.114246  1
  Br  Br8  1  0.828421  0.017714  0.124073  1
  Br  Br9  1  0.828421  0.482286  0.124073  1
  Br  Br10  1  0.541661  0.087770  0.304669  1
  Br  Br11  1  0.541661  0.412230  0.304669  1
  Br  Br12  1  0.139372  0.750000  0.392712  1
  Br  Br13  1  0.143052  0.089017  0.475783  1
  Br  Br14  1  0.143052  0.410982  0.475783  1
  Br  Br15  1  0.856947  0.589017  0.524216  1
  Br  Br16  1  0.856947  0.910983  0.524216  1
  Br  Br17  1  0.860628  0.250000  0.607288  1
  Br  Br18  1  0.458339  0.587769  0.695331  1
  Br  Br19  1  0.458339  0.912231  0.695331  1
  Br  Br20  1  0.171579  0.517714  0.875927  1
  Br  Br21  1  0.171579  0.982287  0.875927  1
  Br  Br22  1  0.904542  0.750000  0.885754  1
  Br  Br23  1  0.552896  0.250000  0.953534  1
