# generated using pymatgen
data_Y2Mn3Re14C3
_symmetry_space_group_name_H-M   'P 1'
_cell_length_a   6.94397930
_cell_length_b   6.94397941
_cell_length_c   6.94398021
_cell_angle_alpha   82.39466977
_cell_angle_beta   82.39467311
_cell_angle_gamma   82.39465861
_symmetry_Int_Tables_number   1
_chemical_formula_structural   Y2Mn3Re14C3
_chemical_formula_sum   'Y2 Mn3 Re14 C3'
_cell_volume   326.71107724
_cell_formula_units_Z   1
loop_
 _symmetry_equiv_pos_site_id
 _symmetry_equiv_pos_as_xyz
  1  'x, y, z'
loop_
 _atom_site_type_symbol
 _atom_site_label
 _atom_site_symmetry_multiplicity
 _atom_site_fract_x
 _atom_site_fract_y
 _atom_site_fract_z
 _atom_site_occupancy
  Y  Y0  1  0.648431  0.648431  0.648431  1
  Y  Y1  1  0.351569  0.351569  0.351569  1
  Mn  Mn2  1  0.000000  0.000000  0.500000  1
  Mn  Mn3  1  0.500000  0.000000  0.000000  1
  Mn  Mn4  1  0.000000  0.500000  0.000000  1
  Re  Re5  1  0.721708  0.278292  0.000000  1
  Re  Re6  1  0.000000  0.721708  0.278292  1
  Re  Re7  1  0.278292  0.000000  0.721708  1
  Re  Re8  1  0.000000  0.278292  0.721708  1
  Re  Re9  1  0.721708  0.000000  0.278292  1
  Re  Re10  1  0.278292  0.721708  0.000000  1
  Re  Re11  1  0.346317  0.346317  0.860380  1
  Re  Re12  1  0.860380  0.346317  0.346317  1
  Re  Re13  1  0.346317  0.860380  0.346317  1
  Re  Re14  1  0.653683  0.653683  0.139620  1
  Re  Re15  1  0.139620  0.653683  0.653683  1
  Re  Re16  1  0.653683  0.139620  0.653683  1
  Re  Re17  1  0.898819  0.898819  0.898819  1
  Re  Re18  1  0.101181  0.101181  0.101181  1
  C  C19  1  0.500000  0.500000  0.000000  1
  C  C20  1  0.000000  0.500000  0.500000  1
  C  C21  1  0.500000  0.000000  0.500000  1
