# generated using pymatgen
data_La4DyY5Ir4
_symmetry_space_group_name_H-M   'P 1'
_cell_length_a   6.60761713
_cell_length_b   7.25374297
_cell_length_c   8.89956080
_cell_angle_alpha   96.82006323
_cell_angle_beta   111.79166366
_cell_angle_gamma   89.99999323
_symmetry_Int_Tables_number   1
_chemical_formula_structural   La4DyY5Ir4
_chemical_formula_sum   'La4 Dy1 Y5 Ir4'
_cell_volume   392.82138348
_cell_formula_units_Z   1
loop_
 _symmetry_equiv_pos_site_id
 _symmetry_equiv_pos_as_xyz
  1  'x, y, z'
loop_
 _atom_site_type_symbol
 _atom_site_label
 _atom_site_symmetry_multiplicity
 _atom_site_fract_x
 _atom_site_fract_y
 _atom_site_fract_z
 _atom_site_occupancy
  La  La0  1  0.784878  0.083277  0.807394  1
  La  La1  1  0.977483  0.416723  0.192606  1
  La  La2  1  0.215252  0.916631  0.192522  1
  La  La3  1  0.022730  0.583369  0.807478  1
  Dy  Dy4  1  0.569801  0.750000  0.000000  1
  Y  Y5  1  0.208572  0.183469  0.566102  1
  Y  Y6  1  0.642468  0.316531  0.433898  1
  Y  Y7  1  0.791204  0.816496  0.433901  1
  Y  Y8  1  0.357304  0.683504  0.566099  1
  Y  Y9  1  0.429934  0.250000  0.000000  1
  Ir  Ir10  1  0.591335  0.423864  0.774159  1
  Ir  Ir11  1  0.817174  0.076136  0.225841  1
  Ir  Ir12  1  0.408908  0.577043  0.225952  1
  Ir  Ir13  1  0.182957  0.922957  0.774048  1
