# generated using pymatgen
data_Sm5(CoO6)2
_symmetry_space_group_name_H-M   'P 1'
_cell_length_a   6.88631054
_cell_length_b   6.88630966
_cell_length_c   7.40033101
_cell_angle_alpha   74.53777619
_cell_angle_beta   74.53777784
_cell_angle_gamma   50.26570811
_symmetry_Int_Tables_number   1
_chemical_formula_structural   Sm5(CoO6)2
_chemical_formula_sum   'Sm5 Co2 O12'
_cell_volume   257.90645579
_cell_formula_units_Z   1
loop_
 _symmetry_equiv_pos_site_id
 _symmetry_equiv_pos_as_xyz
  1  'x, y, z'
loop_
 _atom_site_type_symbol
 _atom_site_label
 _atom_site_symmetry_multiplicity
 _atom_site_fract_x
 _atom_site_fract_y
 _atom_site_fract_z
 _atom_site_occupancy
  Sm  Sm0  1  0.308095  0.308095  0.354575  1
  Sm  Sm1  1  0.691905  0.691905  0.645425  1
  Sm  Sm2  1  0.692876  0.692876  0.162881  1
  Sm  Sm3  1  0.307124  0.307124  0.837119  1
  Sm  Sm4  1  0.000000  0.000000  0.500000  1
  Co  Co5  1  0.756599  0.243401  0.000000  1
  Co  Co6  1  0.243401  0.756599  0.000000  1
  O  O7  1  0.095825  0.597103  0.578365  1
  O  O8  1  0.999040  0.999040  0.166792  1
  O  O9  1  0.402897  0.904175  0.421635  1
  O  O10  1  0.500339  0.500339  0.167903  1
  O  O11  1  0.100358  0.587851  0.076184  1
  O  O12  1  0.904175  0.402897  0.421635  1
  O  O13  1  0.000960  0.000960  0.833208  1
  O  O14  1  0.597103  0.095824  0.578365  1
  O  O15  1  0.499661  0.499661  0.832097  1
  O  O16  1  0.587851  0.100358  0.076184  1
  O  O17  1  0.412149  0.899642  0.923816  1
  O  O18  1  0.899642  0.412149  0.923816  1
