# generated using pymatgen
data_Sr6YLu(BO3)6
_symmetry_space_group_name_H-M   'P 1'
_cell_length_a   7.84284305
_cell_length_b   7.84284459
_cell_length_c   7.84284401
_cell_angle_alpha   105.09454785
_cell_angle_beta   105.09455138
_cell_angle_gamma   105.09454382
_symmetry_Int_Tables_number   1
_chemical_formula_structural   Sr6YLu(BO3)6
_chemical_formula_sum   'Sr6 Y1 Lu1 B6 O18'
_cell_volume   420.90144199
_cell_formula_units_Z   1
loop_
 _symmetry_equiv_pos_site_id
 _symmetry_equiv_pos_as_xyz
  1  'x, y, z'
loop_
 _atom_site_type_symbol
 _atom_site_label
 _atom_site_symmetry_multiplicity
 _atom_site_fract_x
 _atom_site_fract_y
 _atom_site_fract_z
 _atom_site_occupancy
  Sr  Sr0  1  0.648598  0.263564  0.156263  1
  Sr  Sr1  1  0.156263  0.648598  0.263563  1
  Sr  Sr2  1  0.736436  0.843737  0.351402  1
  Sr  Sr3  1  0.263564  0.156263  0.648598  1
  Sr  Sr4  1  0.843737  0.351402  0.736436  1
  Sr  Sr5  1  0.351402  0.736436  0.843737  1
  Y  Y6  1  0.000000  0.000000  0.000000  1
  Lu  Lu7  1  0.500000  0.500000  0.500000  1
  B  B8  1  0.294463  0.378987  0.038515  1
  B  B9  1  0.378987  0.038516  0.294463  1
  B  B10  1  0.038516  0.294463  0.378987  1
  B  B11  1  0.961484  0.705537  0.621013  1
  B  B12  1  0.621013  0.961484  0.705537  1
  B  B13  1  0.705537  0.621013  0.961484  1
  O  O14  1  0.729878  0.813124  0.018559  1
  O  O15  1  0.811013  0.550271  0.074185  1
  O  O16  1  0.981441  0.270122  0.186876  1
  O  O17  1  0.449728  0.925814  0.188987  1
  O  O18  1  0.433724  0.498530  0.211747  1
  O  O19  1  0.186876  0.981441  0.270122  1
  O  O20  1  0.498530  0.211747  0.433723  1
  O  O21  1  0.925814  0.188988  0.449728  1
  O  O22  1  0.211747  0.433724  0.498530  1
  O  O23  1  0.788253  0.566276  0.501470  1
  O  O24  1  0.074186  0.811012  0.550272  1
  O  O25  1  0.501470  0.788253  0.566277  1
  O  O26  1  0.813124  0.018559  0.729878  1
  O  O27  1  0.566276  0.501470  0.788253  1
  O  O28  1  0.550272  0.074186  0.811013  1
  O  O29  1  0.018559  0.729878  0.813124  1
  O  O30  1  0.188987  0.449729  0.925815  1
  O  O31  1  0.270122  0.186876  0.981441  1
