# generated using pymatgen
data_LaPr(SiPt2)2
_symmetry_space_group_name_H-M   'P 1'
_cell_length_a   4.15083691
_cell_length_b   4.23563000
_cell_length_c   9.37619268
_cell_angle_alpha   90.00000000
_cell_angle_beta   102.78832406
_cell_angle_gamma   90.00000000
_symmetry_Int_Tables_number   1
_chemical_formula_structural   LaPr(SiPt2)2
_chemical_formula_sum   'La1 Pr1 Si2 Pt4'
_cell_volume   160.75757423
_cell_formula_units_Z   1
loop_
 _symmetry_equiv_pos_site_id
 _symmetry_equiv_pos_as_xyz
  1  'x, y, z'
loop_
 _atom_site_type_symbol
 _atom_site_label
 _atom_site_symmetry_multiplicity
 _atom_site_fract_x
 _atom_site_fract_y
 _atom_site_fract_z
 _atom_site_occupancy
  La  La0  1  0.399073  0.750000  0.798149  1
  Pr  Pr1  1  0.602677  0.250000  0.205353  1
  Si  Si2  1  0.820888  0.250000  0.641776  1
  Si  Si3  1  0.178246  0.750000  0.356492  1
  Pt  Pt4  1  0.951622  0.250000  0.903245  1
  Pt  Pt5  1  0.048496  0.750000  0.096993  1
  Pt  Pt6  1  0.251085  0.250000  0.502168  1
  Pt  Pt7  1  0.747912  0.750000  0.495825  1
