# generated using pymatgen
data_Ta3GaCuN
_symmetry_space_group_name_H-M   'P 1'
_cell_length_a   6.97175300
_cell_length_b   6.97175300
_cell_length_c   6.97175300
_cell_angle_alpha   90.00000000
_cell_angle_beta   90.00000000
_cell_angle_gamma   90.00000000
_symmetry_Int_Tables_number   1
_chemical_formula_structural   Ta3GaCuN
_chemical_formula_sum   'Ta12 Ga4 Cu4 N4'
_cell_volume   338.86442422
_cell_formula_units_Z   4
loop_
 _symmetry_equiv_pos_site_id
 _symmetry_equiv_pos_as_xyz
  1  'x, y, z'
loop_
 _atom_site_type_symbol
 _atom_site_label
 _atom_site_symmetry_multiplicity
 _atom_site_fract_x
 _atom_site_fract_y
 _atom_site_fract_z
 _atom_site_occupancy
  Ta  Ta0  1  0.792170  0.957383  0.374533  1
  Ta  Ta1  1  0.707830  0.042617  0.874533  1
  Ta  Ta2  1  0.207830  0.457383  0.125467  1
  Ta  Ta3  1  0.292170  0.542617  0.625467  1
  Ta  Ta4  1  0.957383  0.374533  0.792170  1
  Ta  Ta5  1  0.042617  0.874533  0.707830  1
  Ta  Ta6  1  0.457383  0.125467  0.207830  1
  Ta  Ta7  1  0.542617  0.625467  0.292170  1
  Ta  Ta8  1  0.374533  0.792170  0.957383  1
  Ta  Ta9  1  0.874533  0.707830  0.042617  1
  Ta  Ta10  1  0.125467  0.207830  0.457383  1
  Ta  Ta11  1  0.625467  0.292170  0.542617  1
  Ga  Ga12  1  0.572686  0.427314  0.927314  1
  Ga  Ga13  1  0.427314  0.927314  0.572686  1
  Ga  Ga14  1  0.927314  0.572686  0.427314  1
  Ga  Ga15  1  0.072686  0.072686  0.072686  1
  Cu  Cu16  1  0.179182  0.820818  0.320818  1
  Cu  Cu17  1  0.320818  0.179182  0.820818  1
  Cu  Cu18  1  0.820818  0.320818  0.179182  1
  Cu  Cu19  1  0.679182  0.679182  0.679182  1
  N  N20  1  0.876358  0.123642  0.623642  1
  N  N21  1  0.623642  0.876358  0.123642  1
  N  N22  1  0.123642  0.623642  0.876358  1
  N  N23  1  0.376358  0.376358  0.376358  1
