# generated using pymatgen
data_Ba2AsOsF14
_symmetry_space_group_name_H-M   'P 1'
_cell_length_a   4.90399352
_cell_length_b   7.73194587
_cell_length_c   7.98035100
_cell_angle_alpha   106.78057811
_cell_angle_beta   100.75860217
_cell_angle_gamma   90.55930491
_symmetry_Int_Tables_number   1
_chemical_formula_structural   Ba2AsOsF14
_chemical_formula_sum   'Ba2 As1 Os1 F14'
_cell_volume   283.96410069
_cell_formula_units_Z   1
loop_
 _symmetry_equiv_pos_site_id
 _symmetry_equiv_pos_as_xyz
  1  'x, y, z'
loop_
 _atom_site_type_symbol
 _atom_site_label
 _atom_site_symmetry_multiplicity
 _atom_site_fract_x
 _atom_site_fract_y
 _atom_site_fract_z
 _atom_site_occupancy
  Ba  Ba0  1  0.180131  0.340196  0.790710  1
  Ba  Ba1  1  0.818725  0.657857  0.209593  1
  As  As2  1  0.351851  0.188477  0.291085  1
  Os  Os3  1  0.648609  0.811773  0.709246  1
  F  F4  1  0.143990  0.180631  0.082212  1
  F  F5  1  0.429217  0.792605  0.477416  1
  F  F6  1  0.556426  0.204933  0.506084  1
  F  F7  1  0.493755  0.033272  0.813022  1
  F  F8  1  0.497390  0.984000  0.195594  1
  F  F9  1  0.362206  0.675855  0.758138  1
  F  F10  1  0.870614  0.819695  0.935255  1
  F  F11  1  0.280910  0.583373  0.096534  1
  F  F12  1  0.087907  0.062513  0.340594  1
  F  F13  1  0.201983  0.391675  0.394177  1
  F  F14  1  0.719395  0.416695  0.903127  1
  F  F15  1  0.808587  0.593163  0.596797  1
  F  F16  1  0.617438  0.315261  0.246834  1
  F  F17  1  0.930865  0.948024  0.653583  1
