# generated using pymatgen
data_La8Cd5Hg3Rh8
_symmetry_space_group_name_H-M   'P 1'
_cell_length_a   7.79233187
_cell_length_b   4.17675800
_cell_length_c   17.45915100
_cell_angle_alpha   90.00000000
_cell_angle_beta   90.44485137
_cell_angle_gamma   90.00000000
_symmetry_Int_Tables_number   1
_chemical_formula_structural   La8Cd5Hg3Rh8
_chemical_formula_sum   'La8 Cd5 Hg3 Rh8'
_cell_volume   568.22035149
_cell_formula_units_Z   1
loop_
 _symmetry_equiv_pos_site_id
 _symmetry_equiv_pos_as_xyz
  1  'x, y, z'
loop_
 _atom_site_type_symbol
 _atom_site_label
 _atom_site_symmetry_multiplicity
 _atom_site_fract_x
 _atom_site_fract_y
 _atom_site_fract_z
 _atom_site_occupancy
  La  La0  1  0.058687  0.250001  0.283170  1
  La  La1  1  0.443017  0.750000  0.784354  1
  La  La2  1  0.556209  0.250001  0.218158  1
  La  La3  1  0.943997  0.750000  0.716677  1
  La  La4  1  0.166271  0.250001  0.059902  1
  La  La5  1  0.336659  0.750000  0.559635  1
  La  La6  1  0.662875  0.250001  0.439502  1
  La  La7  1  0.836682  0.750000  0.940414  1
  Cd  Cd8  1  0.881559  0.750000  0.151652  1
  Cd  Cd9  1  0.995708  0.250001  0.562314  1
  Cd  Cd10  1  0.507231  0.750000  0.064640  1
  Cd  Cd11  1  0.497235  0.250001  0.938155  1
  Cd  Cd12  1  0.003195  0.750000  0.436198  1
  Hg  Hg13  1  0.116427  0.250001  0.847475  1
  Hg  Hg14  1  0.382973  0.750000  0.346570  1
  Hg  Hg15  1  0.617000  0.250001  0.653615  1
  Rh  Rh16  1  0.258279  0.250001  0.442881  1
  Rh  Rh17  1  0.243182  0.750000  0.944515  1
  Rh  Rh18  1  0.761107  0.250001  0.058313  1
  Rh  Rh19  1  0.739799  0.750000  0.555225  1
  Rh  Rh20  1  0.233907  0.250001  0.687647  1
  Rh  Rh21  1  0.258843  0.750000  0.186097  1
  Rh  Rh22  1  0.734101  0.250001  0.813546  1
  Rh  Rh23  1  0.765056  0.750000  0.309345  1
