# generated using pymatgen
data_Pr6Er2Sc12Si15Os
_symmetry_space_group_name_H-M   'P 1'
_cell_length_a   7.20501498
_cell_length_b   7.55173429
_cell_length_c   14.15602189
_cell_angle_alpha   89.71576096
_cell_angle_beta   90.10083071
_cell_angle_gamma   90.25920397
_symmetry_Int_Tables_number   1
_chemical_formula_structural   Pr6Er2Sc12Si15Os
_chemical_formula_sum   'Pr6 Er2 Sc12 Si15 Os1'
_cell_volume   770.21570673
_cell_formula_units_Z   1
loop_
 _symmetry_equiv_pos_site_id
 _symmetry_equiv_pos_as_xyz
  1  'x, y, z'
loop_
 _atom_site_type_symbol
 _atom_site_label
 _atom_site_symmetry_multiplicity
 _atom_site_fract_x
 _atom_site_fract_y
 _atom_site_fract_z
 _atom_site_occupancy
  Pr  Pr0  1  0.011212  0.177064  0.098161  1
  Pr  Pr1  1  0.990196  0.829052  0.901155  1
  Pr  Pr2  1  0.488825  0.671438  0.904906  1
  Pr  Pr3  1  0.990031  0.827625  0.595430  1
  Pr  Pr4  1  0.510812  0.328254  0.095445  1
  Pr  Pr5  1  0.012250  0.177658  0.404380  1
  Er  Er6  1  0.510573  0.323268  0.403443  1
  Er  Er7  1  0.487813  0.677606  0.597090  1
  Sc  Sc8  1  0.153969  0.491050  0.748870  1
  Sc  Sc9  1  0.840119  0.497983  0.251538  1
  Sc  Sc10  1  0.339919  0.003549  0.251574  1
  Sc  Sc11  1  0.668011  0.001101  0.748582  1
  Sc  Sc12  1  0.318749  0.172822  0.626889  1
  Sc  Sc13  1  0.670668  0.825025  0.374131  1
  Sc  Sc14  1  0.173803  0.675431  0.375281  1
  Sc  Sc15  1  0.671988  0.827938  0.128135  1
  Sc  Sc16  1  0.836079  0.318771  0.626958  1
  Sc  Sc17  1  0.317920  0.170472  0.870701  1
  Sc  Sc18  1  0.835794  0.318894  0.870644  1
  Sc  Sc19  1  0.173764  0.677021  0.127234  1
  Si  Si20  1  0.969355  0.876194  0.251474  1
  Si  Si21  1  0.470437  0.617222  0.252281  1
  Si  Si22  1  0.528193  0.385903  0.747206  1
  Si  Si23  1  0.290113  0.874157  0.747106  1
  Si  Si24  1  0.708391  0.125934  0.252496  1
  Si  Si25  1  0.216539  0.378044  0.253024  1
  Si  Si26  1  0.775875  0.619655  0.746432  1
  Si  Si27  1  0.162634  0.469745  0.538035  1
  Si  Si28  1  0.841540  0.535390  0.460675  1
  Si  Si29  1  0.352090  0.964442  0.459659  1
  Si  Si30  1  0.851103  0.539551  0.039355  1
  Si  Si31  1  0.648112  0.035467  0.538511  1
  Si  Si32  1  0.152834  0.466783  0.962638  1
  Si  Si33  1  0.649727  0.035644  0.961227  1
  Si  Si34  1  0.349997  0.964086  0.040489  1
  Os  Os35  1  0.030566  0.119760  0.748847  1
