# generated using pymatgen
data_Ho3Co5P6Ir3W
_symmetry_space_group_name_H-M   'P 1'
_cell_length_a   3.78408000
_cell_length_b   10.78616100
_cell_length_c   12.51078300
_cell_angle_alpha   90.00000000
_cell_angle_beta   90.00000000
_cell_angle_gamma   90.00000000
_symmetry_Int_Tables_number   1
_chemical_formula_structural   Ho3Co5P6Ir3W
_chemical_formula_sum   'Ho6 Co10 P12 Ir6 W2'
_cell_volume   510.63631711
_cell_formula_units_Z   2
loop_
 _symmetry_equiv_pos_site_id
 _symmetry_equiv_pos_as_xyz
  1  'x, y, z'
loop_
 _atom_site_type_symbol
 _atom_site_label
 _atom_site_symmetry_multiplicity
 _atom_site_fract_x
 _atom_site_fract_y
 _atom_site_fract_z
 _atom_site_occupancy
  Ho  Ho0  1  0.000000  0.500000  0.521330  1
  Ho  Ho1  1  0.500000  0.000000  0.478670  1
  Ho  Ho2  1  0.500000  0.816781  0.195421  1
  Ho  Ho3  1  0.500000  0.183219  0.195421  1
  Ho  Ho4  1  0.000000  0.683219  0.804579  1
  Ho  Ho5  1  0.000000  0.316781  0.804579  1
  Co  Co6  1  0.000000  0.500000  0.990415  1
  Co  Co7  1  0.500000  0.000000  0.009585  1
  Co  Co8  1  0.500000  0.879024  0.716056  1
  Co  Co9  1  0.500000  0.120976  0.716056  1
  Co  Co10  1  0.000000  0.620976  0.283944  1
  Co  Co11  1  0.000000  0.379024  0.283944  1
  Co  Co12  1  0.500000  0.332089  0.993155  1
  Co  Co13  1  0.500000  0.667911  0.993155  1
  Co  Co14  1  0.000000  0.167911  0.006845  1
  Co  Co15  1  0.000000  0.832089  0.006845  1
  P  P16  1  0.500000  0.309334  0.624689  1
  P  P17  1  0.500000  0.690666  0.624689  1
  P  P18  1  0.000000  0.190666  0.375311  1
  P  P19  1  0.000000  0.809334  0.375311  1
  P  P20  1  0.500000  0.500000  0.892422  1
  P  P21  1  0.000000  0.000000  0.107578  1
  P  P22  1  0.500000  0.844257  0.894887  1
  P  P23  1  0.500000  0.155743  0.894887  1
  P  P24  1  0.000000  0.655743  0.105113  1
  P  P25  1  0.000000  0.344257  0.105113  1
  P  P26  1  0.500000  0.500000  0.342135  1
  P  P27  1  0.000000  0.000000  0.657865  1
  Ir  Ir28  1  0.500000  0.298190  0.426245  1
  Ir  Ir29  1  0.500000  0.701810  0.426245  1
  Ir  Ir30  1  0.000000  0.201810  0.573755  1
  Ir  Ir31  1  0.000000  0.798190  0.573755  1
  Ir  Ir32  1  0.500000  0.500000  0.706132  1
  Ir  Ir33  1  0.000000  0.000000  0.293868  1
  W  W34  1  0.500000  0.500000  0.153361  1
  W  W35  1  0.000000  0.000000  0.846639  1
