# generated using pymatgen
data_Nd4Gd8Fe2Br17
_symmetry_space_group_name_H-M   'P 1'
_cell_length_a   9.30378164
_cell_length_b   11.21083075
_cell_length_c   11.26632800
_cell_angle_alpha   93.52262769
_cell_angle_beta   104.72696154
_cell_angle_gamma   114.14147720
_symmetry_Int_Tables_number   1
_chemical_formula_structural   Nd4Gd8Fe2Br17
_chemical_formula_sum   'Nd4 Gd8 Fe2 Br17'
_cell_volume   1018.72906617
_cell_formula_units_Z   1
loop_
 _symmetry_equiv_pos_site_id
 _symmetry_equiv_pos_as_xyz
  1  'x, y, z'
loop_
 _atom_site_type_symbol
 _atom_site_label
 _atom_site_symmetry_multiplicity
 _atom_site_fract_x
 _atom_site_fract_y
 _atom_site_fract_z
 _atom_site_occupancy
  Nd  Nd0  1  0.064062  0.520013  0.322006  1
  Nd  Nd1  1  0.983820  0.808584  0.580360  1
  Nd  Nd2  1  0.636978  0.237272  0.286543  1
  Nd  Nd3  1  0.019264  0.188682  0.424903  1
  Gd  Gd4  1  0.223098  0.671629  0.986443  1
  Gd  Gd5  1  0.259885  0.991349  0.894671  1
  Gd  Gd6  1  0.362890  0.761457  0.712246  1
  Gd  Gd7  1  0.938497  0.482412  0.677392  1
  Gd  Gd8  1  0.743912  0.010458  0.108566  1
  Gd  Gd9  1  0.153678  0.286454  0.146918  1
  Gd  Gd10  1  0.771765  0.326308  0.006535  1
  Gd  Gd11  1  0.838884  0.711363  0.853059  1
  Fe  Fe12  1  0.103023  0.737592  0.786738  1
  Fe  Fe13  1  0.897330  0.261910  0.214022  1
  Br  Br14  1  0.787578  0.525839  0.423827  1
  Br  Br15  1  0.645846  0.422667  0.762292  1
  Br  Br16  1  0.843238  0.895816  0.324007  1
  Br  Br17  1  0.325900  0.215798  0.364695  1
  Br  Br18  1  0.157117  0.101626  0.680645  1
  Br  Br19  1  0.583944  0.050159  0.847929  1
  Br  Br20  1  0.761131  0.188417  0.542517  1
  Br  Br21  1  0.546814  0.710116  0.950455  1
  Br  Br22  1  0.356251  0.577152  0.229537  1
  Br  Br23  1  0.213791  0.475352  0.581951  1
  Br  Br24  1  0.055105  0.373126  0.898163  1
  Br  Br25  1  0.447427  0.288720  0.043711  1
  Br  Br26  1  0.999816  0.999011  0.999445  1
  Br  Br27  1  0.251268  0.822541  0.468225  1
  Br  Br28  1  0.413268  0.944454  0.148741  1
  Br  Br29  1  0.671539  0.785219  0.637938  1
  Br  Br30  1  0.942883  0.628508  0.095519  1
