# generated using pymatgen
data_Nd4Ho16(Bi3Sb)3
_symmetry_space_group_name_H-M   'P 1'
_cell_length_a   8.29558200
_cell_length_b   9.46584000
_cell_length_c   12.12433001
_cell_angle_alpha   90.00000000
_cell_angle_beta   89.99613584
_cell_angle_gamma   90.00000000
_symmetry_Int_Tables_number   1
_chemical_formula_structural   Nd4Ho16(Bi3Sb)3
_chemical_formula_sum   'Nd4 Ho16 Bi9 Sb3'
_cell_volume   952.05879192
_cell_formula_units_Z   1
loop_
 _symmetry_equiv_pos_site_id
 _symmetry_equiv_pos_as_xyz
  1  'x, y, z'
loop_
 _atom_site_type_symbol
 _atom_site_label
 _atom_site_symmetry_multiplicity
 _atom_site_fract_x
 _atom_site_fract_y
 _atom_site_fract_z
 _atom_site_occupancy
  Nd  Nd0  1  0.171796  0.750000  0.224293  1
  Nd  Nd1  1  0.328059  0.750000  0.724296  1
  Nd  Nd2  1  0.826721  0.250000  0.772826  1
  Nd  Nd3  1  0.670502  0.250000  0.276930  1
  Ho  Ho4  1  0.813033  0.565353  0.063845  1
  Ho  Ho5  1  0.685849  0.938042  0.563414  1
  Ho  Ho6  1  0.188649  0.059750  0.935322  1
  Ho  Ho7  1  0.314206  0.438198  0.436894  1
  Ho  Ho8  1  0.188649  0.440250  0.935322  1
  Ho  Ho9  1  0.314206  0.061802  0.436894  1
  Ho  Ho10  1  0.813033  0.934647  0.063845  1
  Ho  Ho11  1  0.685849  0.561958  0.563414  1
  Ho  Ho12  1  0.473561  0.750000  0.003219  1
  Ho  Ho13  1  0.026003  0.750000  0.503304  1
  Ho  Ho14  1  0.522651  0.250000  0.996260  1
  Ho  Ho15  1  0.974298  0.250000  0.496528  1
  Ho  Ho16  1  0.661049  0.750000  0.290858  1
  Ho  Ho17  1  0.838759  0.750000  0.790629  1
  Ho  Ho18  1  0.338737  0.250000  0.709302  1
  Ho  Ho19  1  0.164711  0.250000  0.211649  1
  Bi  Bi20  1  0.902795  0.250000  0.032864  1
  Bi  Bi21  1  0.935288  0.507272  0.328017  1
  Bi  Bi22  1  0.564772  0.992694  0.827871  1
  Bi  Bi23  1  0.064675  0.007249  0.671898  1
  Bi  Bi24  1  0.435457  0.492867  0.172096  1
  Bi  Bi25  1  0.064675  0.492751  0.671898  1
  Bi  Bi26  1  0.435457  0.007133  0.172096  1
  Bi  Bi27  1  0.935288  0.992728  0.328017  1
  Bi  Bi28  1  0.564772  0.507306  0.827871  1
  Sb  Sb29  1  0.403164  0.750000  0.467952  1
  Sb  Sb30  1  0.096636  0.750000  0.967900  1
  Sb  Sb31  1  0.596704  0.250000  0.532473  1
