# generated using pymatgen
data_Yb2TlAg(Ru2O7)2
_symmetry_space_group_name_H-M   'P 1'
_cell_length_a   7.23445325
_cell_length_b   7.25047199
_cell_length_c   7.37369400
_cell_angle_alpha   59.43618904
_cell_angle_beta   59.36123981
_cell_angle_gamma   58.98887799
_symmetry_Int_Tables_number   1
_chemical_formula_structural   Yb2TlAg(Ru2O7)2
_chemical_formula_sum   'Yb2 Tl1 Ag1 Ru4 O14'
_cell_volume   268.88459760
_cell_formula_units_Z   1
loop_
 _symmetry_equiv_pos_site_id
 _symmetry_equiv_pos_as_xyz
  1  'x, y, z'
loop_
 _atom_site_type_symbol
 _atom_site_label
 _atom_site_symmetry_multiplicity
 _atom_site_fract_x
 _atom_site_fract_y
 _atom_site_fract_z
 _atom_site_occupancy
  Yb  Yb0  1  0.125000  0.125000  0.125000  1
  Yb  Yb1  1  0.125000  0.125000  0.625000  1
  Tl  Tl2  1  0.125000  0.625000  0.125000  1
  Ag  Ag3  1  0.625000  0.125000  0.125000  1
  Ru  Ru4  1  0.625000  0.625000  0.625000  1
  Ru  Ru5  1  0.125000  0.625000  0.625000  1
  Ru  Ru6  1  0.625000  0.625000  0.125000  1
  Ru  Ru7  1  0.625000  0.125000  0.625000  1
  O  O8  1  0.992375  0.985034  0.011295  1
  O  O9  1  0.257625  0.264966  0.238705  1
  O  O10  1  0.295280  0.296405  0.704158  1
  O  O11  1  0.554773  0.561693  0.941767  1
  O  O12  1  0.698724  0.304250  0.691094  1
  O  O13  1  0.698724  0.304250  0.305932  1
  O  O14  1  0.301224  0.700365  0.694127  1
  O  O15  1  0.301224  0.700365  0.304284  1
  O  O16  1  0.695227  0.688307  0.308233  1
  O  O17  1  0.948776  0.549635  0.555873  1
  O  O18  1  0.551276  0.945750  0.944068  1
  O  O19  1  0.954720  0.953595  0.545842  1
  O  O20  1  0.948776  0.549635  0.945716  1
  O  O21  1  0.551276  0.945750  0.558906  1
