# generated using pymatgen
data_LiPaSnSe4
_symmetry_space_group_name_H-M   'P 1'
_cell_length_a   8.45289026
_cell_length_b   8.45289112
_cell_length_c   8.45289100
_cell_angle_alpha   119.48051081
_cell_angle_beta   121.01204163
_cell_angle_gamma   89.57912483
_symmetry_Int_Tables_number   1
_chemical_formula_structural   LiPaSnSe4
_chemical_formula_sum   'Li2 Pa2 Sn2 Se8'
_cell_volume   425.37359079
_cell_formula_units_Z   2
loop_
 _symmetry_equiv_pos_site_id
 _symmetry_equiv_pos_as_xyz
  1  'x, y, z'
loop_
 _atom_site_type_symbol
 _atom_site_label
 _atom_site_symmetry_multiplicity
 _atom_site_fract_x
 _atom_site_fract_y
 _atom_site_fract_z
 _atom_site_occupancy
  Li  Li0  1  0.865738  0.615738  0.250000  1
  Li  Li1  1  0.134262  0.384262  0.750000  1
  Pa  Pa2  1  0.500000  0.000000  0.000000  1
  Pa  Pa3  1  0.500000  0.500000  0.500000  1
  Sn  Sn4  1  0.500000  0.000000  0.500000  1
  Sn  Sn5  1  0.000000  0.000000  0.000000  1
  Se  Se6  1  0.726804  0.726797  0.499993  1
  Se  Se7  1  0.726804  0.226811  0.000007  1
  Se  Se8  1  0.727056  0.750212  0.976844  1
  Se  Se9  1  0.273368  0.750212  0.523156  1
  Se  Se10  1  0.273196  0.273203  0.500007  1
  Se  Se11  1  0.273196  0.773189  0.999993  1
  Se  Se12  1  0.272944  0.249788  0.023156  1
  Se  Se13  1  0.726632  0.249788  0.476844  1
