# generated using pymatgen
data_Li3Zr5Co2(Ni7P6)2
_symmetry_space_group_name_H-M   'P 1'
_cell_length_a   11.93915734
_cell_length_b   11.93280000
_cell_length_c   3.66513600
_cell_angle_alpha   90.00000000
_cell_angle_beta   90.00000000
_cell_angle_gamma   119.81462366
_symmetry_Int_Tables_number   1
_chemical_formula_structural   Li3Zr5Co2(Ni7P6)2
_chemical_formula_sum   'Li3 Zr5 Co2 Ni14 P12'
_cell_volume   453.04880334
_cell_formula_units_Z   1
loop_
 _symmetry_equiv_pos_site_id
 _symmetry_equiv_pos_as_xyz
  1  'x, y, z'
loop_
 _atom_site_type_symbol
 _atom_site_label
 _atom_site_symmetry_multiplicity
 _atom_site_fract_x
 _atom_site_fract_y
 _atom_site_fract_z
 _atom_site_occupancy
  Li  Li0  1  0.440807  0.440237  0.000000  1
  Li  Li1  1  0.560675  0.001428  0.000000  1
  Li  Li2  1  0.999467  0.559711  0.000000  1
  Zr  Zr3  1  0.667938  0.334254  0.000000  1
  Zr  Zr4  1  0.334327  0.666971  0.000000  1
  Zr  Zr5  1  0.817929  0.817862  0.500000  1
  Zr  Zr6  1  0.182412  0.998878  0.500000  1
  Zr  Zr7  1  0.999427  0.182244  0.500000  1
  Co  Co8  1  0.619269  0.817109  0.000000  1
  Co  Co9  1  0.280492  0.280524  0.500000  1
  Ni  Ni10  1  0.197318  0.378263  0.000000  1
  Ni  Ni11  1  0.183162  0.803227  0.000000  1
  Ni  Ni12  1  0.815335  0.621209  0.000000  1
  Ni  Ni13  1  0.803131  0.181934  0.000000  1
  Ni  Ni14  1  0.378177  0.196565  0.000000  1
  Ni  Ni15  1  0.124180  0.481485  0.500000  1
  Ni  Ni16  1  0.360101  0.877257  0.500000  1
  Ni  Ni17  1  0.517846  0.642254  0.500000  1
  Ni  Ni18  1  0.640284  0.518642  0.500000  1
  Ni  Ni19  1  0.879106  0.360543  0.500000  1
  Ni  Ni20  1  0.481762  0.123523  0.500000  1
  Ni  Ni21  1  0.000358  0.000573  0.000000  1
  Ni  Ni22  1  0.717450  0.998864  0.500000  1
  Ni  Ni23  1  0.000650  0.717521  0.500000  1
  P  P24  1  0.639975  0.643187  0.000000  1
  P  P25  1  0.359081  0.999691  0.000000  1
  P  P26  1  0.999459  0.358235  0.000000  1
  P  P27  1  0.480381  0.313533  0.500000  1
  P  P28  1  0.687764  0.171097  0.500000  1
  P  P29  1  0.829933  0.517980  0.500000  1
  P  P30  1  0.519311  0.830532  0.500000  1
  P  P31  1  0.170612  0.686842  0.500000  1
  P  P32  1  0.820125  0.997632  0.000000  1
  P  P33  1  0.999406  0.821494  0.000000  1
  P  P34  1  0.313845  0.480413  0.500000  1
  P  P35  1  0.178505  0.178288  0.000000  1
