# generated using pymatgen
data_YHo5Zn23P
_symmetry_space_group_name_H-M   'P 1'
_cell_length_a   9.01390139
_cell_length_b   9.01387947
_cell_length_c   9.01360100
_cell_angle_alpha   60.00120177
_cell_angle_beta   60.00142901
_cell_angle_gamma   59.99773284
_symmetry_Int_Tables_number   1
_chemical_formula_structural   YHo5Zn23P
_chemical_formula_sum   'Y1 Ho5 Zn23 P1'
_cell_volume   517.85607281
_cell_formula_units_Z   1
loop_
 _symmetry_equiv_pos_site_id
 _symmetry_equiv_pos_as_xyz
  1  'x, y, z'
loop_
 _atom_site_type_symbol
 _atom_site_label
 _atom_site_symmetry_multiplicity
 _atom_site_fract_x
 _atom_site_fract_y
 _atom_site_fract_z
 _atom_site_occupancy
  Y  Y0  1  0.288252  0.288251  0.711751  1
  Ho  Ho1  1  0.711719  0.288165  0.288290  1
  Ho  Ho2  1  0.711733  0.288158  0.711833  1
  Ho  Ho3  1  0.712032  0.712033  0.287967  1
  Ho  Ho4  1  0.288166  0.711720  0.711825  1
  Ho  Ho5  1  0.288159  0.711736  0.288272  1
  Zn  Zn6  1  0.624982  0.125001  0.125015  1
  Zn  Zn7  1  0.125002  0.624981  0.125000  1
  Zn  Zn8  1  0.124809  0.124797  0.624697  1
  Zn  Zn9  1  0.124797  0.124812  0.125695  1
  Zn  Zn10  1  0.375307  0.874307  0.875187  1
  Zn  Zn11  1  0.874308  0.375307  0.875201  1
  Zn  Zn12  1  0.874988  0.875003  0.375016  1
  Zn  Zn13  1  0.875003  0.874986  0.874994  1
  Zn  Zn14  1  0.500193  0.999773  0.000227  1
  Zn  Zn15  1  0.500193  0.999774  0.499808  1
  Zn  Zn16  1  0.500074  0.500074  0.999926  1
  Zn  Zn17  1  0.999773  0.500193  0.499807  1
  Zn  Zn18  1  0.999774  0.500193  0.000226  1
  Zn  Zn19  1  0.000073  0.000074  0.499926  1
  Zn  Zn20  1  0.000010  0.000009  0.999990  1
  Zn  Zn21  1  0.011492  0.329505  0.329511  1
  Zn  Zn22  1  0.329504  0.011493  0.329491  1
  Zn  Zn23  1  0.329541  0.329521  0.011858  1
  Zn  Zn24  1  0.329520  0.329542  0.329082  1
  Zn  Zn25  1  0.988140  0.670916  0.670461  1
  Zn  Zn26  1  0.670917  0.988140  0.670482  1
  Zn  Zn27  1  0.670486  0.670506  0.988509  1
  Zn  Zn28  1  0.670505  0.670484  0.670497  1
  P  P29  1  0.500547  0.500547  0.499453  1
