# generated using pymatgen
data_Nd12CuOs2Pt
_symmetry_space_group_name_H-M   'P 1'
_cell_length_a   6.52261206
_cell_length_b   7.39220811
_cell_length_c   9.84557000
_cell_angle_alpha   90.00000000
_cell_angle_beta   90.00000000
_cell_angle_gamma   90.20593687
_symmetry_Int_Tables_number   1
_chemical_formula_structural   Nd12CuOs2Pt
_chemical_formula_sum   'Nd12 Cu1 Os2 Pt1'
_cell_volume   474.71591635
_cell_formula_units_Z   1
loop_
 _symmetry_equiv_pos_site_id
 _symmetry_equiv_pos_as_xyz
  1  'x, y, z'
loop_
 _atom_site_type_symbol
 _atom_site_label
 _atom_site_symmetry_multiplicity
 _atom_site_fract_x
 _atom_site_fract_y
 _atom_site_fract_z
 _atom_site_occupancy
  Nd  Nd0  1  0.333742  0.674687  0.061508  1
  Nd  Nd1  1  0.172050  0.181743  0.434776  1
  Nd  Nd2  1  0.663887  0.324838  0.561994  1
  Nd  Nd3  1  0.828238  0.818451  0.935401  1
  Nd  Nd4  1  0.663887  0.324838  0.938006  1
  Nd  Nd5  1  0.828238  0.818451  0.564599  1
  Nd  Nd6  1  0.333742  0.674687  0.438492  1
  Nd  Nd7  1  0.172050  0.181743  0.065224  1
  Nd  Nd8  1  0.858762  0.529582  0.250000  1
  Nd  Nd9  1  0.633599  0.039110  0.250000  1
  Nd  Nd10  1  0.140373  0.476549  0.750000  1
  Nd  Nd11  1  0.369966  0.959000  0.750000  1
  Cu  Cu12  1  0.939840  0.114792  0.750000  1
  Os  Os13  1  0.438419  0.383259  0.250000  1
  Os  Os14  1  0.562052  0.615390  0.750000  1
  Pt  Pt15  1  0.061158  0.882882  0.250000  1
