# generated using pymatgen
data_Sm2Fe3Co8NiP7
_symmetry_space_group_name_H-M   'P 1'
_cell_length_a   9.04786861
_cell_length_b   9.04982084
_cell_length_c   3.66057500
_cell_angle_alpha   90.00000000
_cell_angle_beta   90.00000000
_cell_angle_gamma   120.09528118
_symmetry_Int_Tables_number   1
_chemical_formula_structural   Sm2Fe3Co8NiP7
_chemical_formula_sum   'Sm2 Fe3 Co8 Ni1 P7'
_cell_volume   259.32741624
_cell_formula_units_Z   1
loop_
 _symmetry_equiv_pos_site_id
 _symmetry_equiv_pos_as_xyz
  1  'x, y, z'
loop_
 _atom_site_type_symbol
 _atom_site_label
 _atom_site_symmetry_multiplicity
 _atom_site_fract_x
 _atom_site_fract_y
 _atom_site_fract_z
 _atom_site_occupancy
  Sm  Sm0  1  0.333336  0.668004  0.000000  1
  Sm  Sm1  1  0.667196  0.333053  0.500000  1
  Fe  Fe2  1  0.214858  0.121705  0.500000  1
  Fe  Fe3  1  0.877934  0.094074  0.500000  1
  Fe  Fe4  1  0.906305  0.784215  0.500000  1
  Co  Co5  1  0.630416  0.059285  0.000000  1
  Co  Co6  1  0.940381  0.569955  0.000000  1
  Co  Co7  1  0.154416  0.882704  0.000000  1
  Co  Co8  1  0.118299  0.273552  0.000000  1
  Co  Co9  1  0.727751  0.845477  0.000000  1
  Co  Co10  1  0.382197  0.950953  0.500000  1
  Co  Co11  1  0.047400  0.431233  0.500000  1
  Co  Co12  1  0.568130  0.615767  0.500000  1
  Ni  Ni13  1  0.430853  0.370319  0.000000  1
  P  P14  1  0.408428  0.105285  0.000000  1
  P  P15  1  0.890700  0.297630  0.000000  1
  P  P16  1  0.706320  0.596226  0.000000  1
  P  P17  1  0.107277  0.708650  0.500000  1
  P  P18  1  0.286832  0.400234  0.500000  1
  P  P19  1  0.601516  0.891473  0.500000  1
  P  P20  1  0.999454  0.000208  0.000000  1
