# generated using pymatgen
data_Ti2Co4SiMo2P3
_symmetry_space_group_name_H-M   'P 1'
_cell_length_a   3.58341200
_cell_length_b   6.03052721
_cell_length_c   6.87396867
_cell_angle_alpha   89.88167422
_cell_angle_beta   90.00000000
_cell_angle_gamma   90.00000000
_symmetry_Int_Tables_number   1
_chemical_formula_structural   Ti2Co4SiMo2P3
_chemical_formula_sum   'Ti2 Co4 Si1 Mo2 P3'
_cell_volume   148.54520839
_cell_formula_units_Z   1
loop_
 _symmetry_equiv_pos_site_id
 _symmetry_equiv_pos_as_xyz
  1  'x, y, z'
loop_
 _atom_site_type_symbol
 _atom_site_label
 _atom_site_symmetry_multiplicity
 _atom_site_fract_x
 _atom_site_fract_y
 _atom_site_fract_z
 _atom_site_occupancy
  Ti  Ti0  1  0.750000  0.024629  0.674784  1
  Ti  Ti1  1  0.750000  0.523759  0.823801  1
  Co  Co2  1  0.250000  0.858984  0.928882  1
  Co  Co3  1  0.250000  0.355979  0.566488  1
  Co  Co4  1  0.750000  0.147283  0.057423  1
  Co  Co5  1  0.750000  0.639851  0.446195  1
  Si  Si6  1  0.750000  0.774070  0.125562  1
  Mo  Mo7  1  0.250000  0.974250  0.331549  1
  Mo  Mo8  1  0.250000  0.469456  0.171258  1
  P  P9  1  0.250000  0.228416  0.880118  1
  P  P10  1  0.250000  0.729492  0.619337  1
  P  P11  1  0.750000  0.273831  0.374602  1
