# generated using pymatgen
data_Tm8TlPb3Au8
_symmetry_space_group_name_H-M   'P 1'
_cell_length_a   8.08763800
_cell_length_b   8.08763800
_cell_length_c   7.21244900
_cell_angle_alpha   90.00000000
_cell_angle_beta   90.00000000
_cell_angle_gamma   90.00000000
_symmetry_Int_Tables_number   1
_chemical_formula_structural   Tm8TlPb3Au8
_chemical_formula_sum   'Tm8 Tl1 Pb3 Au8'
_cell_volume   471.76548432
_cell_formula_units_Z   1
loop_
 _symmetry_equiv_pos_site_id
 _symmetry_equiv_pos_as_xyz
  1  'x, y, z'
loop_
 _atom_site_type_symbol
 _atom_site_label
 _atom_site_symmetry_multiplicity
 _atom_site_fract_x
 _atom_site_fract_y
 _atom_site_fract_z
 _atom_site_occupancy
  Tm  Tm0  1  0.682045  0.323729  0.498708  1
  Tm  Tm1  1  0.317955  0.676271  0.498708  1
  Tm  Tm2  1  0.176271  0.182045  0.001292  1
  Tm  Tm3  1  0.823729  0.817955  0.001292  1
  Tm  Tm4  1  0.847777  0.841036  0.498226  1
  Tm  Tm5  1  0.152223  0.158964  0.498226  1
  Tm  Tm6  1  0.341036  0.652223  0.001774  1
  Tm  Tm7  1  0.658964  0.347777  0.001774  1
  Tl  Tl8  1  0.000000  0.500000  0.250000  1
  Pb  Pb9  1  0.500000  0.000000  0.250000  1
  Pb  Pb10  1  0.000000  0.500000  0.750000  1
  Pb  Pb11  1  0.500000  0.000000  0.750000  1
  Au  Au12  1  0.873457  0.128122  0.224954  1
  Au  Au13  1  0.126543  0.871878  0.224954  1
  Au  Au14  1  0.374887  0.371460  0.724423  1
  Au  Au15  1  0.625113  0.628540  0.724423  1
  Au  Au16  1  0.128540  0.874887  0.775577  1
  Au  Au17  1  0.871460  0.125113  0.775577  1
  Au  Au18  1  0.628122  0.626543  0.275046  1
  Au  Au19  1  0.371878  0.373457  0.275046  1
