# generated using pymatgen
data_Nd2YSi5AsPd20
_symmetry_space_group_name_H-M   'P 1'
_cell_length_a   8.75391941
_cell_length_b   8.79233579
_cell_length_c   8.79233556
_cell_angle_alpha   59.71114587
_cell_angle_beta   60.14443275
_cell_angle_gamma   60.14443032
_symmetry_Int_Tables_number   1
_chemical_formula_structural   Nd2YSi5AsPd20
_chemical_formula_sum   'Nd2 Y1 Si5 As1 Pd20'
_cell_volume   478.49740459
_cell_formula_units_Z   1
loop_
 _symmetry_equiv_pos_site_id
 _symmetry_equiv_pos_as_xyz
  1  'x, y, z'
loop_
 _atom_site_type_symbol
 _atom_site_label
 _atom_site_symmetry_multiplicity
 _atom_site_fract_x
 _atom_site_fract_y
 _atom_site_fract_z
 _atom_site_occupancy
  Nd  Nd0  1  0.249815  0.250185  0.250185  1
  Nd  Nd1  1  0.749815  0.750185  0.750185  1
  Y  Y2  1  0.000876  0.999124  0.999124  1
  Si  Si3  1  0.266803  0.733197  0.733197  1
  Si  Si4  1  0.266024  0.733976  0.266219  1
  Si  Si5  1  0.733781  0.266219  0.733976  1
  Si  Si6  1  0.266024  0.266219  0.733976  1
  Si  Si7  1  0.733781  0.733976  0.266219  1
  As  As8  1  0.735880  0.264120  0.264120  1
  Pd  Pd9  1  0.346907  0.998818  0.998818  1
  Pd  Pd10  1  0.655458  0.998818  0.998818  1
  Pd  Pd11  1  0.001182  0.344542  0.653093  1
  Pd  Pd12  1  0.001182  0.653093  0.344542  1
  Pd  Pd13  1  0.006413  0.347960  0.993587  1
  Pd  Pd14  1  0.652040  0.993587  0.347960  1
  Pd  Pd15  1  0.999726  0.655266  0.000274  1
  Pd  Pd16  1  0.344734  0.000274  0.655266  1
  Pd  Pd17  1  0.006413  0.993587  0.347960  1
  Pd  Pd18  1  0.999726  0.000274  0.655266  1
  Pd  Pd19  1  0.652040  0.347960  0.993587  1
  Pd  Pd20  1  0.344734  0.655266  0.000274  1
  Pd  Pd21  1  0.379360  0.387994  0.387994  1
  Pd  Pd22  1  0.613973  0.615344  0.615344  1
  Pd  Pd23  1  0.384656  0.386027  0.844662  1
  Pd  Pd24  1  0.384656  0.844662  0.386027  1
  Pd  Pd25  1  0.612006  0.620640  0.155348  1
  Pd  Pd26  1  0.612006  0.155348  0.620640  1
  Pd  Pd27  1  0.844652  0.387994  0.387994  1
  Pd  Pd28  1  0.155338  0.615344  0.615344  1
