# generated using pymatgen
data_CePa(Al5Os)4
_symmetry_space_group_name_H-M   'P 1'
_cell_length_a   6.86381762
_cell_length_b   6.86381378
_cell_length_c   9.15494200
_cell_angle_alpha   90.00000000
_cell_angle_beta   90.00000000
_cell_angle_gamma   97.35448027
_symmetry_Int_Tables_number   1
_chemical_formula_structural   CePa(Al5Os)4
_chemical_formula_sum   'Ce1 Pa1 Al20 Os4'
_cell_volume   427.75902543
_cell_formula_units_Z   1
loop_
 _symmetry_equiv_pos_site_id
 _symmetry_equiv_pos_as_xyz
  1  'x, y, z'
loop_
 _atom_site_type_symbol
 _atom_site_label
 _atom_site_symmetry_multiplicity
 _atom_site_fract_x
 _atom_site_fract_y
 _atom_site_fract_z
 _atom_site_occupancy
  Ce  Ce0  1  0.127101  0.872902  0.250000  1
  Pa  Pa1  1  0.872561  0.127438  0.750000  1
  Al  Al2  1  0.516973  0.781346  0.750000  1
  Al  Al3  1  0.781410  0.516691  0.250000  1
  Al  Al4  1  0.483309  0.218590  0.250000  1
  Al  Al5  1  0.218654  0.483027  0.750000  1
  Al  Al6  1  0.623287  0.376713  0.953387  1
  Al  Al7  1  0.375708  0.624292  0.044622  1
  Al  Al8  1  0.623287  0.376713  0.546613  1
  Al  Al9  1  0.375708  0.624292  0.455378  1
  Al  Al10  1  0.409821  0.146390  0.750000  1
  Al  Al11  1  0.147375  0.413522  0.250000  1
  Al  Al12  1  0.586478  0.852625  0.250000  1
  Al  Al13  1  0.853610  0.590179  0.750000  1
  Al  Al14  1  0.843760  0.156240  0.396543  1
  Al  Al15  1  0.154476  0.845524  0.603048  1
  Al  Al16  1  0.843760  0.156240  0.103457  1
  Al  Al17  1  0.154476  0.845524  0.896952  1
  Al  Al18  1  0.779513  0.777827  0.000403  1
  Al  Al19  1  0.779513  0.777827  0.499597  1
  Al  Al20  1  0.222173  0.220487  0.000403  1
  Al  Al21  1  0.222173  0.220487  0.499597  1
  Os  Os22  1  0.502996  0.000558  0.997743  1
  Os  Os23  1  0.999442  0.497004  0.997743  1
  Os  Os24  1  0.502996  0.000558  0.502257  1
  Os  Os25  1  0.999442  0.497004  0.502257  1
