# generated using pymatgen
data_Sr4PtRh3I2
_symmetry_space_group_name_H-M   'P 1'
_cell_length_a   4.34488500
_cell_length_b   4.34488407
_cell_length_c   18.48338800
_cell_angle_alpha   90.00000000
_cell_angle_beta   90.00000000
_cell_angle_gamma   119.99999948
_symmetry_Int_Tables_number   1
_chemical_formula_structural   Sr4PtRh3I2
_chemical_formula_sum   'Sr4 Pt1 Rh3 I2'
_cell_volume   302.18207100
_cell_formula_units_Z   1
loop_
 _symmetry_equiv_pos_site_id
 _symmetry_equiv_pos_as_xyz
  1  'x, y, z'
loop_
 _atom_site_type_symbol
 _atom_site_label
 _atom_site_symmetry_multiplicity
 _atom_site_fract_x
 _atom_site_fract_y
 _atom_site_fract_z
 _atom_site_occupancy
  Sr  Sr0  1  0.000000  0.000000  0.111720  1
  Sr  Sr1  1  0.000000  0.000000  0.889770  1
  Sr  Sr2  1  0.000000  0.000000  0.606168  1
  Sr  Sr3  1  0.000000  0.000000  0.391793  1
  Pt  Pt4  1  0.333333  0.666667  0.499730  1
  Rh  Rh5  1  0.666667  0.333333  0.498493  1
  Rh  Rh6  1  0.666667  0.333333  0.001916  1
  Rh  Rh7  1  0.333333  0.666667  0.999984  1
  I  I8  1  0.333333  0.666667  0.251490  1
  I  I9  1  0.666667  0.333333  0.748937  1
