# generated using pymatgen
data_Hf4OsRhO
_symmetry_space_group_name_H-M   'P 1'
_cell_length_a   8.73475052
_cell_length_b   8.73475036
_cell_length_c   8.73475200
_cell_angle_alpha   60.00000137
_cell_angle_beta   60.00000198
_cell_angle_gamma   60.00000290
_symmetry_Int_Tables_number   1
_chemical_formula_structural   Hf4OsRhO
_chemical_formula_sum   'Hf16 Os4 Rh4 O4'
_cell_volume   471.23398556
_cell_formula_units_Z   4
loop_
 _symmetry_equiv_pos_site_id
 _symmetry_equiv_pos_as_xyz
  1  'x, y, z'
loop_
 _atom_site_type_symbol
 _atom_site_label
 _atom_site_symmetry_multiplicity
 _atom_site_fract_x
 _atom_site_fract_y
 _atom_site_fract_z
 _atom_site_occupancy
  Hf  Hf0  1  0.108851  0.630383  0.630383  1
  Hf  Hf1  1  0.630383  0.108851  0.630383  1
  Hf  Hf2  1  0.630383  0.630383  0.108851  1
  Hf  Hf3  1  0.630383  0.630383  0.630383  1
  Hf  Hf4  1  0.807955  0.807955  0.192045  1
  Hf  Hf5  1  0.192045  0.192045  0.807955  1
  Hf  Hf6  1  0.807955  0.192045  0.807955  1
  Hf  Hf7  1  0.192045  0.807955  0.192045  1
  Hf  Hf8  1  0.192045  0.807955  0.807955  1
  Hf  Hf9  1  0.807955  0.192045  0.192045  1
  Hf  Hf10  1  0.434193  0.434193  0.065807  1
  Hf  Hf11  1  0.065807  0.065807  0.434193  1
  Hf  Hf12  1  0.434193  0.065807  0.434193  1
  Hf  Hf13  1  0.065807  0.434193  0.065807  1
  Hf  Hf14  1  0.065807  0.434193  0.434193  1
  Hf  Hf15  1  0.434193  0.065807  0.065807  1
  Os  Os16  1  0.755976  0.414675  0.414675  1
  Os  Os17  1  0.414675  0.755976  0.414675  1
  Os  Os18  1  0.414675  0.414675  0.755976  1
  Os  Os19  1  0.414675  0.414675  0.414675  1
  Rh  Rh20  1  0.460730  0.846423  0.846423  1
  Rh  Rh21  1  0.846423  0.460730  0.846423  1
  Rh  Rh22  1  0.846423  0.846423  0.460730  1
  Rh  Rh23  1  0.846423  0.846423  0.846423  1
  O  O24  1  0.622130  0.125957  0.125957  1
  O  O25  1  0.125957  0.622130  0.125957  1
  O  O26  1  0.125957  0.125957  0.622130  1
  O  O27  1  0.125957  0.125957  0.125957  1
