# generated using pymatgen
data_SmU3(NbN2)4
_symmetry_space_group_name_H-M   'P 1'
_cell_length_a   3.28011800
_cell_length_b   5.70861812
_cell_length_c   10.99145422
_cell_angle_alpha   90.02313244
_cell_angle_beta   90.00000000
_cell_angle_gamma   90.00000000
_symmetry_Int_Tables_number   1
_chemical_formula_structural   SmU3(NbN2)4
_chemical_formula_sum   'Sm1 U3 Nb4 N8'
_cell_volume   205.81431550
_cell_formula_units_Z   1
loop_
 _symmetry_equiv_pos_site_id
 _symmetry_equiv_pos_as_xyz
  1  'x, y, z'
loop_
 _atom_site_type_symbol
 _atom_site_label
 _atom_site_symmetry_multiplicity
 _atom_site_fract_x
 _atom_site_fract_y
 _atom_site_fract_z
 _atom_site_occupancy
  Sm  Sm0  1  0.250000  0.579220  0.854552  1
  U  U1  1  0.750000  0.425230  0.141504  1
  U  U2  1  0.750000  0.924504  0.356732  1
  U  U3  1  0.250000  0.079035  0.643929  1
  Nb  Nb4  1  0.250000  0.922750  0.101569  1
  Nb  Nb5  1  0.750000  0.074247  0.903706  1
  Nb  Nb6  1  0.750000  0.576694  0.598587  1
  Nb  Nb7  1  0.250000  0.424565  0.400528  1
  N  N8  1  0.250000  0.659210  0.245505  1
  N  N9  1  0.750000  0.326953  0.747923  1
  N  N10  1  0.750000  0.848178  0.740498  1
  N  N11  1  0.250000  0.159834  0.256842  1
  N  N12  1  0.250000  0.766589  0.503878  1
  N  N13  1  0.750000  0.233072  0.495268  1
  N  N14  1  0.750000  0.737584  0.008367  1
  N  N15  1  0.250000  0.262337  0.000613  1
