# generated using pymatgen
data_RbSr3Mg2(ReN4)2
_symmetry_space_group_name_H-M   'P 1'
_cell_length_a   6.04968400
_cell_length_b   6.45491493
_cell_length_c   6.81603561
_cell_angle_alpha   74.58974362
_cell_angle_beta   90.00000000
_cell_angle_gamma   90.00000000
_symmetry_Int_Tables_number   1
_chemical_formula_structural   RbSr3Mg2(ReN4)2
_chemical_formula_sum   'Rb1 Sr3 Mg2 Re2 N8'
_cell_volume   256.59822962
_cell_formula_units_Z   1
loop_
 _symmetry_equiv_pos_site_id
 _symmetry_equiv_pos_as_xyz
  1  'x, y, z'
loop_
 _atom_site_type_symbol
 _atom_site_label
 _atom_site_symmetry_multiplicity
 _atom_site_fract_x
 _atom_site_fract_y
 _atom_site_fract_z
 _atom_site_occupancy
  Rb  Rb0  1  0.250000  0.239824  0.073578  1
  Sr  Sr1  1  0.750000  0.766318  0.935444  1
  Sr  Sr2  1  0.750000  0.778986  0.431427  1
  Sr  Sr3  1  0.250000  0.213303  0.578575  1
  Mg  Mg4  1  0.750000  0.310272  0.294289  1
  Mg  Mg5  1  0.250000  0.683385  0.704719  1
  Re  Re6  1  0.250000  0.705891  0.204630  1
  Re  Re7  1  0.750000  0.293547  0.793613  1
  N  N8  1  0.511979  0.475356  0.740627  1
  N  N9  1  0.998255  0.540649  0.251140  1
  N  N10  1  0.501745  0.540649  0.251140  1
  N  N11  1  0.988021  0.475356  0.740627  1
  N  N12  1  0.750000  0.118610  0.609554  1
  N  N13  1  0.250000  0.868455  0.396311  1
  N  N14  1  0.750000  0.131084  0.065260  1
  N  N15  1  0.250000  0.858315  0.929068  1
