# generated using pymatgen
data_Ba5(PaH8)3
_symmetry_space_group_name_H-M   'P 1'
_cell_length_a   7.19018100
_cell_length_b   7.44724500
_cell_length_c   7.19018100
_cell_angle_alpha   90.00000000
_cell_angle_beta   90.00000000
_cell_angle_gamma   90.00000000
_symmetry_Int_Tables_number   1
_chemical_formula_structural   Ba5(PaH8)3
_chemical_formula_sum   'Ba5 Pa3 H24'
_cell_volume   385.01290603
_cell_formula_units_Z   1
loop_
 _symmetry_equiv_pos_site_id
 _symmetry_equiv_pos_as_xyz
  1  'x, y, z'
loop_
 _atom_site_type_symbol
 _atom_site_label
 _atom_site_symmetry_multiplicity
 _atom_site_fract_x
 _atom_site_fract_y
 _atom_site_fract_z
 _atom_site_occupancy
  Ba  Ba0  1  0.252161  0.996096  0.500000  1
  Ba  Ba1  1  0.747839  0.996096  0.500000  1
  Ba  Ba2  1  0.000000  0.503904  0.247839  1
  Ba  Ba3  1  0.000000  0.503904  0.752161  1
  Ba  Ba4  1  0.500000  0.750000  0.000000  1
  Pa  Pa5  1  0.000000  0.014986  0.000000  1
  Pa  Pa6  1  0.500000  0.485014  0.500000  1
  Pa  Pa7  1  0.500000  0.250000  0.000000  1
  H  H8  1  0.000000  0.148478  0.268917  1
  H  H9  1  0.500000  0.228451  0.674194  1
  H  H10  1  0.500000  0.743572  0.357712  1
  H  H11  1  0.764838  0.634543  0.500000  1
  H  H12  1  0.235162  0.634543  0.500000  1
  H  H13  1  0.364804  0.461382  0.798095  1
  H  H14  1  0.635196  0.461382  0.798095  1
  H  H15  1  0.298095  0.038618  0.135196  1
  H  H16  1  0.174194  0.271549  0.000000  1
  H  H17  1  0.857712  0.756428  0.000000  1
  H  H18  1  0.298095  0.038618  0.864804  1
  H  H19  1  0.825806  0.271549  0.000000  1
  H  H20  1  0.701905  0.038618  0.135196  1
  H  H21  1  0.701905  0.038618  0.864804  1
  H  H22  1  0.142288  0.756428  0.000000  1
  H  H23  1  0.000000  0.865457  0.735162  1
  H  H24  1  0.000000  0.148478  0.731083  1
  H  H25  1  0.000000  0.865457  0.264838  1
  H  H26  1  0.635196  0.461382  0.201905  1
  H  H27  1  0.364804  0.461382  0.201905  1
  H  H28  1  0.768917  0.351522  0.500000  1
  H  H29  1  0.231083  0.351522  0.500000  1
  H  H30  1  0.500000  0.743572  0.642288  1
  H  H31  1  0.500000  0.228451  0.325806  1
