# generated using pymatgen
data_PrV4Bi3F28
_symmetry_space_group_name_H-M   'P 1'
_cell_length_a   5.60430336
_cell_length_b   9.15264502
_cell_length_c   12.11234555
_cell_angle_alpha   62.45124496
_cell_angle_beta   90.05685155
_cell_angle_gamma   89.94802653
_symmetry_Int_Tables_number   1
_chemical_formula_structural   PrV4Bi3F28
_chemical_formula_sum   'Pr1 V4 Bi3 F28'
_cell_volume   550.84843797
_cell_formula_units_Z   1
loop_
 _symmetry_equiv_pos_site_id
 _symmetry_equiv_pos_as_xyz
  1  'x, y, z'
loop_
 _atom_site_type_symbol
 _atom_site_label
 _atom_site_symmetry_multiplicity
 _atom_site_fract_x
 _atom_site_fract_y
 _atom_site_fract_z
 _atom_site_occupancy
  Pr  Pr0  1  0.742826  0.805775  0.267867  1
  V  V1  1  0.754995  0.273194  0.956236  1
  V  V2  1  0.254938  0.726532  0.545007  1
  V  V3  1  0.246466  0.726803  0.041462  1
  V  V4  1  0.745358  0.272246  0.457060  1
  Bi  Bi5  1  0.759383  0.810801  0.767306  1
  Bi  Bi6  1  0.258485  0.190674  0.731435  1
  Bi  Bi7  1  0.238096  0.188666  0.231374  1
  F  F8  1  0.440610  0.710251  0.919567  1
  F  F9  1  0.939821  0.290175  0.579303  1
  F  F10  1  0.560668  0.289857  0.078037  1
  F  F11  1  0.060793  0.710175  0.422458  1
  F  F12  1  0.459878  0.281453  0.543637  1
  F  F13  1  0.959743  0.719527  0.955456  1
  F  F14  1  0.535597  0.717106  0.458172  1
  F  F15  1  0.041899  0.281374  0.042807  1
  F  F16  1  0.768322  0.497854  0.867065  1
  F  F17  1  0.265975  0.501371  0.634825  1
  F  F18  1  0.233480  0.502911  0.131037  1
  F  F19  1  0.733182  0.499613  0.367931  1
  F  F20  1  0.762377  0.047001  0.047984  1
  F  F21  1  0.261054  0.952433  0.454001  1
  F  F22  1  0.239854  0.952758  0.952322  1
  F  F23  1  0.738509  0.046559  0.547863  1
  F  F24  1  0.978628  0.733723  0.632842  1
  F  F25  1  0.480765  0.266265  0.867430  1
  F  F26  1  0.019656  0.268283  0.368649  1
  F  F27  1  0.520491  0.733021  0.131216  1
  F  F28  1  0.053798  0.743871  0.165365  1
  F  F29  1  0.554055  0.254771  0.334446  1
  F  F30  1  0.947631  0.253685  0.833210  1
  F  F31  1  0.446921  0.745152  0.668372  1
  F  F32  1  0.398060  0.971936  0.225985  1
  F  F33  1  0.910593  0.033558  0.272559  1
  F  F34  1  0.593246  0.028976  0.772995  1
  F  F35  1  0.093847  0.971646  0.726720  1
