# generated using pymatgen
data_CeYTc3Ge4
_symmetry_space_group_name_H-M   'P 1'
_cell_length_a   8.31213200
_cell_length_b   5.78536138
_cell_length_c   7.03971201
_cell_angle_alpha   76.21569023
_cell_angle_beta   90.00000000
_cell_angle_gamma   90.00000000
_symmetry_Int_Tables_number   1
_chemical_formula_structural   CeYTc3Ge4
_chemical_formula_sum   'Ce2 Y2 Tc6 Ge8'
_cell_volume   328.78068452
_cell_formula_units_Z   2
loop_
 _symmetry_equiv_pos_site_id
 _symmetry_equiv_pos_as_xyz
  1  'x, y, z'
loop_
 _atom_site_type_symbol
 _atom_site_label
 _atom_site_symmetry_multiplicity
 _atom_site_fract_x
 _atom_site_fract_y
 _atom_site_fract_z
 _atom_site_occupancy
  Ce  Ce0  1  0.555275  0.080897  0.244340  1
  Ce  Ce1  1  0.055275  0.419103  0.755660  1
  Y  Y2  1  0.436928  0.929129  0.751149  1
  Y  Y3  1  0.936928  0.570871  0.248851  1
  Tc  Tc4  1  0.214472  0.118203  0.108504  1
  Tc  Tc5  1  0.714472  0.381797  0.891496  1
  Tc  Tc6  1  0.797001  0.892745  0.886659  1
  Tc  Tc7  1  0.297001  0.607255  0.113341  1
  Tc  Tc8  1  0.000098  0.995409  0.498653  1
  Tc  Tc9  1  0.500098  0.504591  0.501347  1
  Ge  Ge10  1  0.906246  0.111233  0.133983  1
  Ge  Ge11  1  0.406246  0.388767  0.866017  1
  Ge  Ge12  1  0.097748  0.870223  0.880644  1
  Ge  Ge13  1  0.597748  0.629777  0.119356  1
  Ge  Ge14  1  0.743907  0.218861  0.582390  1
  Ge  Ge15  1  0.243907  0.281139  0.417610  1
  Ge  Ge16  1  0.248326  0.773543  0.415293  1
  Ge  Ge17  1  0.748326  0.726457  0.584707  1
