# generated using pymatgen
data_Er2Tm3Ga6P6Ir19
_symmetry_space_group_name_H-M   'P 1'
_cell_length_a   12.94365000
_cell_length_b   12.94365024
_cell_length_c   3.97112000
_cell_angle_alpha   90.00000000
_cell_angle_beta   90.00000000
_cell_angle_gamma   119.99999938
_symmetry_Int_Tables_number   1
_chemical_formula_structural   Er2Tm3Ga6P6Ir19
_chemical_formula_sum   'Er2 Tm3 Ga6 P6 Ir19'
_cell_volume   576.17866825
_cell_formula_units_Z   1
loop_
 _symmetry_equiv_pos_site_id
 _symmetry_equiv_pos_as_xyz
  1  'x, y, z'
loop_
 _atom_site_type_symbol
 _atom_site_label
 _atom_site_symmetry_multiplicity
 _atom_site_fract_x
 _atom_site_fract_y
 _atom_site_fract_z
 _atom_site_occupancy
  Er  Er0  1  0.666667  0.333333  0.000000  1
  Er  Er1  1  0.333333  0.666667  0.000000  1
  Tm  Tm2  1  0.816688  0.812084  0.500000  1
  Tm  Tm3  1  0.187916  0.004604  0.500000  1
  Tm  Tm4  1  0.995396  0.183312  0.500000  1
  Ga  Ga5  1  0.677068  0.158723  0.500000  1
  Ga  Ga6  1  0.841277  0.518346  0.500000  1
  Ga  Ga7  1  0.481654  0.322932  0.500000  1
  Ga  Ga8  1  0.635685  0.637415  0.000000  1
  Ga  Ga9  1  0.362585  0.998271  0.000000  1
  Ga  Ga10  1  0.001729  0.364315  0.000000  1
  P  P11  1  0.180228  0.697263  0.500000  1
  P  P12  1  0.517034  0.819772  0.500000  1
  P  P13  1  0.302737  0.482966  0.500000  1
  P  P14  1  0.175224  0.180975  0.000000  1
  P  P15  1  0.819025  0.994248  0.000000  1
  P  P16  1  0.005752  0.824776  0.000000  1
  Ir  Ir17  1  0.809503  0.169180  0.000000  1
  Ir  Ir18  1  0.830820  0.640324  0.000000  1
  Ir  Ir19  1  0.359676  0.190497  0.000000  1
  Ir  Ir20  1  0.182302  0.793951  0.000000  1
  Ir  Ir21  1  0.611649  0.817698  0.000000  1
  Ir  Ir22  1  0.206049  0.388351  0.000000  1
  Ir  Ir23  1  0.446475  0.440575  0.000000  1
  Ir  Ir24  1  0.559425  0.005900  0.000000  1
  Ir  Ir25  1  0.994100  0.553525  0.000000  1
  Ir  Ir26  1  0.267600  0.280413  0.500000  1
  Ir  Ir27  1  0.719587  0.987187  0.500000  1
  Ir  Ir28  1  0.012813  0.732400  0.500000  1
  Ir  Ir29  1  0.872861  0.348612  0.500000  1
  Ir  Ir30  1  0.651388  0.524250  0.500000  1
  Ir  Ir31  1  0.475750  0.127139  0.500000  1
  Ir  Ir32  1  0.371403  0.868704  0.500000  1
  Ir  Ir33  1  0.497303  0.628597  0.500000  1
  Ir  Ir34  1  0.131296  0.502697  0.500000  1
  Ir  Ir35  1  0.000000  0.000000  0.000000  1
