# generated using pymatgen
data_Al(AsSe2)3
_symmetry_space_group_name_H-M   'P 1'
_cell_length_a   7.34497483
_cell_length_b   7.34497405
_cell_length_c   9.46876859
_cell_angle_alpha   85.22937314
_cell_angle_beta   85.22937320
_cell_angle_gamma   29.62768300
_symmetry_Int_Tables_number   1
_chemical_formula_structural   Al(AsSe2)3
_chemical_formula_sum   'Al1 As3 Se6'
_cell_volume   251.59737419
_cell_formula_units_Z   1
loop_
 _symmetry_equiv_pos_site_id
 _symmetry_equiv_pos_as_xyz
  1  'x, y, z'
loop_
 _atom_site_type_symbol
 _atom_site_label
 _atom_site_symmetry_multiplicity
 _atom_site_fract_x
 _atom_site_fract_y
 _atom_site_fract_z
 _atom_site_occupancy
  Al  Al0  1  0.201153  0.201153  0.855581  1
  As  As1  1  0.791400  0.791400  0.129402  1
  As  As2  1  0.625222  0.625222  0.556180  1
  As  As3  1  0.379760  0.379760  0.439781  1
  Se  Se4  1  0.051592  0.051592  0.717650  1
  Se  Se5  1  0.960357  0.960357  0.297551  1
  Se  Se6  1  0.769744  0.769744  0.677050  1
  Se  Se7  1  0.224204  0.224204  0.345717  1
  Se  Se8  1  0.360357  0.360357  0.962907  1
  Se  Se9  1  0.636211  0.636211  0.018181  1
