# generated using pymatgen
data_LiFe4SnO8
_symmetry_space_group_name_H-M   'P 1'
_cell_length_a   6.05483701
_cell_length_b   6.06772307
_cell_length_c   9.89005100
_cell_angle_alpha   90.00000000
_cell_angle_beta   90.00000000
_cell_angle_gamma   119.92289254
_symmetry_Int_Tables_number   1
_chemical_formula_structural   LiFe4SnO8
_chemical_formula_sum   'Li2 Fe8 Sn2 O16'
_cell_volume   314.91568202
_cell_formula_units_Z   2
loop_
 _symmetry_equiv_pos_site_id
 _symmetry_equiv_pos_as_xyz
  1  'x, y, z'
loop_
 _atom_site_type_symbol
 _atom_site_label
 _atom_site_symmetry_multiplicity
 _atom_site_fract_x
 _atom_site_fract_y
 _atom_site_fract_z
 _atom_site_occupancy
  Li  Li0  1  0.000019  0.000033  0.822771  1
  Li  Li1  1  0.999981  0.999967  0.322771  1
  Fe  Fe2  1  0.832879  0.665735  0.602130  1
  Fe  Fe3  1  0.832722  0.166733  0.602095  1
  Fe  Fe4  1  0.167121  0.334265  0.102130  1
  Fe  Fe5  1  0.334075  0.166759  0.602102  1
  Fe  Fe6  1  0.167278  0.833267  0.102095  1
  Fe  Fe7  1  0.665925  0.833241  0.102102  1
  Fe  Fe8  1  0.666023  0.331315  0.916040  1
  Fe  Fe9  1  0.333977  0.668685  0.416040  1
  Sn  Sn10  1  0.666961  0.334071  0.322567  1
  Sn  Sn11  1  0.333039  0.665929  0.822567  1
  O  O12  1  0.481228  0.962941  0.972616  1
  O  O13  1  0.482321  0.519983  0.973696  1
  O  O14  1  0.518772  0.037059  0.472616  1
  O  O15  1  0.037550  0.520123  0.973561  1
  O  O16  1  0.517679  0.480017  0.473696  1
  O  O17  1  0.962450  0.479877  0.473561  1
  O  O18  1  0.665991  0.331676  0.707253  1
  O  O19  1  0.334009  0.668324  0.207253  1
  O  O20  1  0.162141  0.324254  0.716141  1
  O  O21  1  0.162133  0.837767  0.716242  1
  O  O22  1  0.837859  0.675746  0.216141  1
  O  O23  1  0.675673  0.837775  0.716232  1
  O  O24  1  0.837867  0.162233  0.216242  1
  O  O25  1  0.324327  0.162225  0.216232  1
  O  O26  1  0.000166  0.000433  0.006553  1
  O  O27  1  0.999834  0.999567  0.506553  1
