# generated using pymatgen
data_CaPr16Ho3Sn16
_symmetry_space_group_name_H-M   'P 1'
_cell_length_a   8.26756502
_cell_length_b   8.43036057
_cell_length_c   16.10196900
_cell_angle_alpha   90.00000000
_cell_angle_beta   90.00000000
_cell_angle_gamma   89.82946073
_symmetry_Int_Tables_number   1
_chemical_formula_structural   CaPr16Ho3Sn16
_chemical_formula_sum   'Ca1 Pr16 Ho3 Sn16'
_cell_volume   1122.27898711
_cell_formula_units_Z   1
loop_
 _symmetry_equiv_pos_site_id
 _symmetry_equiv_pos_as_xyz
  1  'x, y, z'
loop_
 _atom_site_type_symbol
 _atom_site_label
 _atom_site_symmetry_multiplicity
 _atom_site_fract_x
 _atom_site_fract_y
 _atom_site_fract_z
 _atom_site_occupancy
  Ca  Ca0  1  0.198115  0.500875  0.750000  1
  Pr  Pr1  1  0.367644  0.836028  0.879586  1
  Pr  Pr2  1  0.868973  0.663402  0.620205  1
  Pr  Pr3  1  0.632893  0.162004  0.379035  1
  Pr  Pr4  1  0.132717  0.336264  0.121905  1
  Pr  Pr5  1  0.632893  0.162004  0.120965  1
  Pr  Pr6  1  0.132717  0.336264  0.378095  1
  Pr  Pr7  1  0.367644  0.836028  0.620414  1
  Pr  Pr8  1  0.868973  0.663402  0.879795  1
  Pr  Pr9  1  0.516158  0.318542  0.902190  1
  Pr  Pr10  1  0.017043  0.183311  0.598194  1
  Pr  Pr11  1  0.482449  0.681006  0.400736  1
  Pr  Pr12  1  0.982762  0.818196  0.098775  1
  Pr  Pr13  1  0.482449  0.681006  0.099264  1
  Pr  Pr14  1  0.982762  0.818196  0.401225  1
  Pr  Pr15  1  0.516158  0.318542  0.597810  1
  Pr  Pr16  1  0.017043  0.183311  0.901806  1
  Ho  Ho17  1  0.697700  0.999839  0.750000  1
  Ho  Ho18  1  0.800785  0.498626  0.250000  1
  Ho  Ho19  1  0.300937  0.001028  0.250000  1
  Sn  Sn20  1  0.292506  0.033702  0.044202  1
  Sn  Sn21  1  0.793053  0.465051  0.456163  1
  Sn  Sn22  1  0.707500  0.966527  0.544723  1
  Sn  Sn23  1  0.207643  0.536964  0.960227  1
  Sn  Sn24  1  0.707500  0.966527  0.955277  1
  Sn  Sn25  1  0.207643  0.536964  0.539773  1
  Sn  Sn26  1  0.292506  0.033702  0.455798  1
  Sn  Sn27  1  0.793053  0.465051  0.043837  1
  Sn  Sn28  1  0.568531  0.617105  0.750000  1
  Sn  Sn29  1  0.062950  0.890383  0.750000  1
  Sn  Sn30  1  0.436742  0.383421  0.250000  1
  Sn  Sn31  1  0.936638  0.115913  0.250000  1
  Sn  Sn32  1  0.326922  0.139156  0.750000  1
  Sn  Sn33  1  0.815795  0.352832  0.750000  1
  Sn  Sn34  1  0.675772  0.853047  0.250000  1
  Sn  Sn35  1  0.176428  0.645783  0.250000  1
