# generated using pymatgen
data_LiNdPt4
_symmetry_space_group_name_H-M   'P 1'
_cell_length_a   5.40207956
_cell_length_b   5.40207926
_cell_length_c   5.40208100
_cell_angle_alpha   59.99999545
_cell_angle_beta   59.99999728
_cell_angle_gamma   59.99999636
_symmetry_Int_Tables_number   1
_chemical_formula_structural   LiNdPt4
_chemical_formula_sum   'Li1 Nd1 Pt4'
_cell_volume   111.47256270
_cell_formula_units_Z   1
loop_
 _symmetry_equiv_pos_site_id
 _symmetry_equiv_pos_as_xyz
  1  'x, y, z'
loop_
 _atom_site_type_symbol
 _atom_site_label
 _atom_site_symmetry_multiplicity
 _atom_site_fract_x
 _atom_site_fract_y
 _atom_site_fract_z
 _atom_site_occupancy
  Li  Li0  1  0.750000  0.750000  0.750000  1
  Nd  Nd1  1  0.500000  0.500000  0.500000  1
  Pt  Pt2  1  0.124443  0.626671  0.124443  1
  Pt  Pt3  1  0.124443  0.124443  0.626671  1
  Pt  Pt4  1  0.626671  0.124443  0.124443  1
  Pt  Pt5  1  0.124443  0.124443  0.124443  1
