# generated using pymatgen
data_Dy2Al9OsRh2
_symmetry_space_group_name_H-M   'P 1'
_cell_length_a   7.52253534
_cell_length_b   7.52253534
_cell_length_c   9.49393200
_cell_angle_alpha   90.00000000
_cell_angle_beta   90.00000000
_cell_angle_gamma   118.23997614
_symmetry_Int_Tables_number   1
_chemical_formula_structural   Dy2Al9OsRh2
_chemical_formula_sum   'Dy4 Al18 Os2 Rh4'
_cell_volume   473.30103140
_cell_formula_units_Z   2
loop_
 _symmetry_equiv_pos_site_id
 _symmetry_equiv_pos_as_xyz
  1  'x, y, z'
loop_
 _atom_site_type_symbol
 _atom_site_label
 _atom_site_symmetry_multiplicity
 _atom_site_fract_x
 _atom_site_fract_y
 _atom_site_fract_z
 _atom_site_occupancy
  Dy  Dy0  1  0.992520  0.683256  0.750000  1
  Dy  Dy1  1  0.007480  0.316744  0.250000  1
  Dy  Dy2  1  0.683256  0.992520  0.750000  1
  Dy  Dy3  1  0.316744  0.007480  0.250000  1
  Al  Al4  1  0.136734  0.136734  0.750000  1
  Al  Al5  1  0.863266  0.863266  0.250000  1
  Al  Al6  1  0.002690  0.338832  0.575556  1
  Al  Al7  1  0.997310  0.661168  0.424444  1
  Al  Al8  1  0.997310  0.661168  0.075556  1
  Al  Al9  1  0.338832  0.002690  0.924444  1
  Al  Al10  1  0.002690  0.338832  0.924444  1
  Al  Al11  1  0.661168  0.997310  0.075556  1
  Al  Al12  1  0.661168  0.997310  0.424444  1
  Al  Al13  1  0.338832  0.002690  0.575556  1
  Al  Al14  1  0.331178  0.331178  0.042807  1
  Al  Al15  1  0.668822  0.668822  0.957193  1
  Al  Al16  1  0.668822  0.668822  0.542807  1
  Al  Al17  1  0.331178  0.331178  0.457193  1
  Al  Al18  1  0.341667  0.556040  0.750000  1
  Al  Al19  1  0.658333  0.443960  0.250000  1
  Al  Al20  1  0.556040  0.341667  0.750000  1
  Al  Al21  1  0.443960  0.658333  0.250000  1
  Os  Os22  1  0.000000  0.000000  0.500000  1
  Os  Os23  1  0.000000  0.000000  0.000000  1
  Rh  Rh24  1  0.671549  0.328451  0.500000  1
  Rh  Rh25  1  0.328451  0.671549  0.500000  1
  Rh  Rh26  1  0.328451  0.671549  0.000000  1
  Rh  Rh27  1  0.671549  0.328451  0.000000  1
