# generated using pymatgen
data_CaPr2In3Sn2Rh
_symmetry_space_group_name_H-M   'P 1'
_cell_length_a   7.67076323
_cell_length_b   7.76938234
_cell_length_c   4.59393100
_cell_angle_alpha   90.00000000
_cell_angle_beta   90.00000000
_cell_angle_gamma   120.42621333
_symmetry_Int_Tables_number   1
_chemical_formula_structural   CaPr2In3Sn2Rh
_chemical_formula_sum   'Ca1 Pr2 In3 Sn2 Rh1'
_cell_volume   236.07983462
_cell_formula_units_Z   1
loop_
 _symmetry_equiv_pos_site_id
 _symmetry_equiv_pos_as_xyz
  1  'x, y, z'
loop_
 _atom_site_type_symbol
 _atom_site_label
 _atom_site_symmetry_multiplicity
 _atom_site_fract_x
 _atom_site_fract_y
 _atom_site_fract_z
 _atom_site_occupancy
  Ca  Ca0  1  0.000000  0.607602  0.500000  1
  Pr  Pr1  1  0.396260  0.395012  0.500000  1
  Pr  Pr2  1  0.603740  0.998752  0.500000  1
  In  In3  1  0.769398  0.767769  0.000000  1
  In  In4  1  0.000000  0.230342  0.000000  1
  In  In5  1  0.230602  0.998371  0.000000  1
  Sn  Sn6  1  0.333345  0.665059  0.000000  1
  Sn  Sn7  1  0.666655  0.331713  0.000000  1
  Rh  Rh8  1  0.000000  0.005381  0.500000  1
