# generated using pymatgen
data_SnHg3(SeCl3)2
_symmetry_space_group_name_H-M   'P 1'
_cell_length_a   7.74056600
_cell_length_b   6.76317201
_cell_length_c   13.51683132
_cell_angle_alpha   88.24461841
_cell_angle_beta   90.00000000
_cell_angle_gamma   90.00000000
_symmetry_Int_Tables_number   1
_chemical_formula_structural   SnHg3(SeCl3)2
_chemical_formula_sum   'Sn2 Hg6 Se4 Cl12'
_cell_volume   707.28458161
_cell_formula_units_Z   2
loop_
 _symmetry_equiv_pos_site_id
 _symmetry_equiv_pos_as_xyz
  1  'x, y, z'
loop_
 _atom_site_type_symbol
 _atom_site_label
 _atom_site_symmetry_multiplicity
 _atom_site_fract_x
 _atom_site_fract_y
 _atom_site_fract_z
 _atom_site_occupancy
  Sn  Sn0  1  0.000000  0.500000  0.000000  1
  Sn  Sn1  1  0.500000  0.500000  0.500000  1
  Hg  Hg2  1  0.294923  0.006197  0.738627  1
  Hg  Hg3  1  0.000000  0.000000  0.500000  1
  Hg  Hg4  1  0.794923  0.993803  0.761373  1
  Hg  Hg5  1  0.705077  0.993803  0.261373  1
  Hg  Hg6  1  0.205077  0.006197  0.238627  1
  Hg  Hg7  1  0.500000  0.000000  0.000000  1
  Se  Se8  1  0.963512  0.177824  0.331072  1
  Se  Se9  1  0.036488  0.822176  0.668928  1
  Se  Se10  1  0.536488  0.177824  0.831072  1
  Se  Se11  1  0.463512  0.822176  0.168928  1
  Cl  Cl12  1  0.149923  0.806769  0.941741  1
  Cl  Cl13  1  0.649923  0.193231  0.558259  1
  Cl  Cl14  1  0.275621  0.362786  0.065824  1
  Cl  Cl15  1  0.224379  0.362786  0.565824  1
  Cl  Cl16  1  0.550338  0.648339  0.662963  1
  Cl  Cl17  1  0.949662  0.648339  0.162963  1
  Cl  Cl18  1  0.449662  0.351661  0.337037  1
  Cl  Cl19  1  0.724379  0.637214  0.934176  1
  Cl  Cl20  1  0.350077  0.806769  0.441741  1
  Cl  Cl21  1  0.050338  0.351661  0.837037  1
  Cl  Cl22  1  0.850077  0.193231  0.058259  1
  Cl  Cl23  1  0.775621  0.637214  0.434176  1
