# generated using pymatgen
data_Y7Co6AgSn22
_symmetry_space_group_name_H-M   'P 1'
_cell_length_a   9.69046900
_cell_length_b   9.69046983
_cell_length_c   9.99056100
_cell_angle_alpha   90.00000000
_cell_angle_beta   90.00000000
_cell_angle_gamma   120.00000058
_symmetry_Int_Tables_number   1
_chemical_formula_structural   Y7Co6AgSn22
_chemical_formula_sum   'Y7 Co6 Ag1 Sn22'
_cell_volume   812.47524115
_cell_formula_units_Z   1
loop_
 _symmetry_equiv_pos_site_id
 _symmetry_equiv_pos_as_xyz
  1  'x, y, z'
loop_
 _atom_site_type_symbol
 _atom_site_label
 _atom_site_symmetry_multiplicity
 _atom_site_fract_x
 _atom_site_fract_y
 _atom_site_fract_z
 _atom_site_occupancy
  Y  Y0  1  0.000000  0.000000  0.000000  1
  Y  Y1  1  0.044029  0.522014  0.306754  1
  Y  Y2  1  0.477986  0.955971  0.306754  1
  Y  Y3  1  0.477986  0.522014  0.306754  1
  Y  Y4  1  0.955971  0.477986  0.693246  1
  Y  Y5  1  0.522014  0.044029  0.693246  1
  Y  Y6  1  0.522014  0.477986  0.693246  1
  Co  Co7  1  0.167898  0.832102  0.803893  1
  Co  Co8  1  0.664204  0.832102  0.803893  1
  Co  Co9  1  0.167898  0.335796  0.803893  1
  Co  Co10  1  0.832102  0.167898  0.196107  1
  Co  Co11  1  0.335796  0.167898  0.196107  1
  Co  Co12  1  0.832102  0.664204  0.196107  1
  Ag  Ag13  1  0.000000  0.000000  0.500000  1
  Sn  Sn14  1  0.114134  0.885866  0.275896  1
  Sn  Sn15  1  0.771732  0.885866  0.275896  1
  Sn  Sn16  1  0.114134  0.228268  0.275896  1
  Sn  Sn17  1  0.885866  0.114134  0.724104  1
  Sn  Sn18  1  0.228268  0.114134  0.724104  1
  Sn  Sn19  1  0.885866  0.771732  0.724104  1
  Sn  Sn20  1  0.345896  0.000000  0.000000  1
  Sn  Sn21  1  0.654104  0.654104  0.000000  1
  Sn  Sn22  1  0.000000  0.345896  0.000000  1
  Sn  Sn23  1  0.345896  0.345896  0.000000  1
  Sn  Sn24  1  0.000000  0.654104  0.000000  1
  Sn  Sn25  1  0.654104  0.000000  0.000000  1
  Sn  Sn26  1  0.783020  0.566039  0.452113  1
  Sn  Sn27  1  0.783020  0.216980  0.452113  1
  Sn  Sn28  1  0.433961  0.216980  0.452113  1
  Sn  Sn29  1  0.216980  0.433961  0.547887  1
  Sn  Sn30  1  0.216980  0.783020  0.547887  1
  Sn  Sn31  1  0.566039  0.783020  0.547887  1
  Sn  Sn32  1  0.666667  0.333333  0.182814  1
  Sn  Sn33  1  0.333333  0.666667  0.817186  1
  Sn  Sn34  1  0.666667  0.333333  0.883382  1
  Sn  Sn35  1  0.333333  0.666667  0.116618  1
