# generated using pymatgen
data_Y6Sc2InAu9
_symmetry_space_group_name_H-M   'P 1'
_cell_length_a   8.00387498
_cell_length_b   8.00387546
_cell_length_c   8.00387396
_cell_angle_alpha   65.57523472
_cell_angle_beta   65.57523428
_cell_angle_gamma   65.57522865
_symmetry_Int_Tables_number   1
_chemical_formula_structural   Y6Sc2InAu9
_chemical_formula_sum   'Y6 Sc2 In1 Au9'
_cell_volume   406.47994906
_cell_formula_units_Z   1
loop_
 _symmetry_equiv_pos_site_id
 _symmetry_equiv_pos_as_xyz
  1  'x, y, z'
loop_
 _atom_site_type_symbol
 _atom_site_label
 _atom_site_symmetry_multiplicity
 _atom_site_fract_x
 _atom_site_fract_y
 _atom_site_fract_z
 _atom_site_occupancy
  Y  Y0  1  0.898836  0.184076  0.622138  1
  Y  Y1  1  0.622138  0.898836  0.184076  1
  Y  Y2  1  0.184076  0.622138  0.898836  1
  Y  Y3  1  0.101164  0.815924  0.377862  1
  Y  Y4  1  0.377862  0.101164  0.815924  1
  Y  Y5  1  0.815924  0.377862  0.101164  1
  Sc  Sc6  1  0.663711  0.663711  0.663711  1
  Sc  Sc7  1  0.336289  0.336289  0.336289  1
  In  In8  1  0.500000  0.500000  0.500000  1
  Au  Au9  1  0.000000  0.000000  0.000000  1
  Au  Au10  1  0.807579  0.807579  0.807579  1
  Au  Au11  1  0.192421  0.192421  0.192421  1
  Au  Au12  1  0.933074  0.548338  0.323560  1
  Au  Au13  1  0.323560  0.933074  0.548338  1
  Au  Au14  1  0.548338  0.323560  0.933074  1
  Au  Au15  1  0.066926  0.451662  0.676440  1
  Au  Au16  1  0.676440  0.066926  0.451662  1
  Au  Au17  1  0.451662  0.676440  0.066926  1
