# generated using pymatgen
data_GeSb7PtAu3
_symmetry_space_group_name_H-M   'P 1'
_cell_length_a   6.67429011
_cell_length_b   6.67429090
_cell_length_c   6.67429000
_cell_angle_alpha   91.14001752
_cell_angle_beta   88.85998234
_cell_angle_gamma   91.14001057
_symmetry_Int_Tables_number   1
_chemical_formula_structural   GeSb7PtAu3
_chemical_formula_sum   'Ge1 Sb7 Pt1 Au3'
_cell_volume   297.13970634
_cell_formula_units_Z   1
loop_
 _symmetry_equiv_pos_site_id
 _symmetry_equiv_pos_as_xyz
  1  'x, y, z'
loop_
 _atom_site_type_symbol
 _atom_site_label
 _atom_site_symmetry_multiplicity
 _atom_site_fract_x
 _atom_site_fract_y
 _atom_site_fract_z
 _atom_site_occupancy
  Ge  Ge0  1  0.382824  0.117176  0.882824  1
  Sb  Sb1  1  0.119312  0.870142  0.374690  1
  Sb  Sb2  1  0.874690  0.380688  0.129858  1
  Sb  Sb3  1  0.629858  0.625310  0.619312  1
  Sb  Sb4  1  0.366060  0.373045  0.381132  1
  Sb  Sb5  1  0.126955  0.618868  0.866060  1
  Sb  Sb6  1  0.881132  0.133940  0.626955  1
  Sb  Sb7  1  0.615939  0.884061  0.115939  1
  Pt  Pt8  1  0.999182  0.500818  0.499182  1
  Au  Au9  1  0.496440  0.488918  0.996528  1
  Au  Au10  1  0.496528  0.003560  0.511082  1
  Au  Au11  1  0.011082  0.003472  0.996440  1
