# generated using pymatgen
data_Ho16Cd2Hg2PdPt3
_symmetry_space_group_name_H-M   'P 1'
_cell_length_a   9.63078704
_cell_length_b   9.63732245
_cell_length_c   9.63450100
_cell_angle_alpha   60.00968749
_cell_angle_beta   59.98724595
_cell_angle_gamma   60.03883568
_symmetry_Int_Tables_number   1
_chemical_formula_structural   Ho16Cd2Hg2PdPt3
_chemical_formula_sum   'Ho16 Cd2 Hg2 Pd1 Pt3'
_cell_volume   632.48407816
_cell_formula_units_Z   1
loop_
 _symmetry_equiv_pos_site_id
 _symmetry_equiv_pos_as_xyz
  1  'x, y, z'
loop_
 _atom_site_type_symbol
 _atom_site_label
 _atom_site_symmetry_multiplicity
 _atom_site_fract_x
 _atom_site_fract_y
 _atom_site_fract_z
 _atom_site_occupancy
  Ho  Ho0  1  0.352926  0.354671  0.351388  1
  Ho  Ho1  1  0.352926  0.354671  0.941016  1
  Ho  Ho2  1  0.357718  0.930990  0.355647  1
  Ho  Ho3  1  0.931738  0.358616  0.354824  1
  Ho  Ho4  1  0.812910  0.188528  0.189497  1
  Ho  Ho5  1  0.188479  0.811716  0.810290  1
  Ho  Ho6  1  0.188479  0.811716  0.189516  1
  Ho  Ho7  1  0.812910  0.188528  0.809065  1
  Ho  Ho8  1  0.189110  0.189289  0.810801  1
  Ho  Ho9  1  0.812169  0.809997  0.188917  1
  Ho  Ho10  1  0.934994  0.564327  0.564724  1
  Ho  Ho11  1  0.564345  0.934525  0.935341  1
  Ho  Ho12  1  0.564345  0.934525  0.565789  1
  Ho  Ho13  1  0.934994  0.564327  0.935955  1
  Ho  Ho14  1  0.565176  0.566104  0.934360  1
  Ho  Ho15  1  0.936272  0.936338  0.563695  1
  Cd  Cd16  1  0.579760  0.253717  0.583260  1
  Cd  Cd17  1  0.253624  0.579724  0.583325  1
  Hg  Hg18  1  0.584946  0.584986  0.589593  1
  Hg  Hg19  1  0.584946  0.584986  0.240475  1
  Pd  Pd20  1  0.567840  0.141793  0.145184  1
  Pt  Pt21  1  0.143889  0.143569  0.147499  1
  Pt  Pt22  1  0.143889  0.143569  0.565044  1
  Pt  Pt23  1  0.141614  0.568791  0.144798  1
