# generated using pymatgen
data_Yb2Si5Rh3
_symmetry_space_group_name_H-M   'P 1'
_cell_length_a   8.22789323
_cell_length_b   8.22789302
_cell_length_c   5.60956375
_cell_angle_alpha   70.84034326
_cell_angle_beta   70.84034079
_cell_angle_gamma   94.78380859
_symmetry_Int_Tables_number   1
_chemical_formula_structural   Yb2Si5Rh3
_chemical_formula_sum   'Yb4 Si10 Rh6'
_cell_volume   330.98784929
_cell_formula_units_Z   2
loop_
 _symmetry_equiv_pos_site_id
 _symmetry_equiv_pos_as_xyz
  1  'x, y, z'
loop_
 _atom_site_type_symbol
 _atom_site_label
 _atom_site_symmetry_multiplicity
 _atom_site_fract_x
 _atom_site_fract_y
 _atom_site_fract_z
 _atom_site_occupancy
  Yb  Yb0  1  0.866270  0.594839  0.763523  1
  Yb  Yb1  1  0.405161  0.133730  0.736477  1
  Yb  Yb2  1  0.133730  0.405161  0.236477  1
  Yb  Yb3  1  0.594839  0.866270  0.263523  1
  Si  Si4  1  0.061392  0.264696  0.835762  1
  Si  Si5  1  0.735304  0.938608  0.664238  1
  Si  Si6  1  0.938608  0.735304  0.164238  1
  Si  Si7  1  0.264696  0.061392  0.335762  1
  Si  Si8  1  0.209669  0.790331  0.750000  1
  Si  Si9  1  0.790331  0.209669  0.250000  1
  Si  Si10  1  0.506383  0.493617  0.750000  1
  Si  Si11  1  0.493617  0.506383  0.250000  1
  Si  Si12  1  0.782530  0.217470  0.750000  1
  Si  Si13  1  0.217470  0.782530  0.250000  1
  Rh  Rh14  1  0.259966  0.543273  0.618629  1
  Rh  Rh15  1  0.456727  0.740034  0.881371  1
  Rh  Rh16  1  0.740034  0.456727  0.381371  1
  Rh  Rh17  1  0.543273  0.259966  0.118629  1
  Rh  Rh18  1  0.002517  0.997483  0.750000  1
  Rh  Rh19  1  0.997483  0.002517  0.250000  1
