# generated using pymatgen
data_Zr6Al17Ir7
_symmetry_space_group_name_H-M   'P 1'
_cell_length_a   8.81069609
_cell_length_b   8.81053070
_cell_length_c   8.81069665
_cell_angle_alpha   120.02745296
_cell_angle_beta   120.02778945
_cell_angle_gamma   89.95270068
_symmetry_Int_Tables_number   1
_chemical_formula_structural   Zr6Al17Ir7
_chemical_formula_sum   'Zr6 Al17 Ir7'
_cell_volume   483.41931232
_cell_formula_units_Z   1
loop_
 _symmetry_equiv_pos_site_id
 _symmetry_equiv_pos_as_xyz
  1  'x, y, z'
loop_
 _atom_site_type_symbol
 _atom_site_label
 _atom_site_symmetry_multiplicity
 _atom_site_fract_x
 _atom_site_fract_y
 _atom_site_fract_z
 _atom_site_occupancy
  Zr  Zr0  1  0.789729  0.289277  0.078491  1
  Zr  Zr1  1  0.210786  0.289277  0.499547  1
  Zr  Zr2  1  0.209840  0.709873  0.500033  1
  Zr  Zr3  1  0.210818  0.711270  0.921508  1
  Zr  Zr4  1  0.789761  0.711270  0.500451  1
  Zr  Zr5  1  0.788354  0.288322  0.499968  1
  Al  Al6  1  0.378658  0.121186  0.742529  1
  Al  Al7  1  0.378667  0.636129  0.257462  1
  Al  Al8  1  0.998916  0.498918  0.500002  1
  Al  Al9  1  0.158990  0.341282  0.182292  1
  Al  Al10  1  0.159009  0.976750  0.817740  1
  Al  Al11  1  0.158495  0.341809  0.816683  1
  Al  Al12  1  0.525126  0.341809  0.183315  1
  Al  Al13  1  0.841448  0.658613  0.817166  1
  Al  Al14  1  0.841428  0.024229  0.182801  1
  Al  Al15  1  0.841273  0.658737  0.182540  1
  Al  Al16  1  0.476197  0.658737  0.817462  1
  Al  Al17  1  0.378355  0.121328  0.256996  1
  Al  Al18  1  0.864332  0.121328  0.742974  1
  Al  Al19  1  0.621179  0.878109  0.256929  1
  Al  Al20  1  0.621170  0.364254  0.743084  1
  Al  Al21  1  0.620870  0.878570  0.742327  1
  Al  Al22  1  0.136243  0.878570  0.257701  1
  Ir  Ir23  1  0.000003  0.999966  0.499987  1
  Ir  Ir24  1  0.499979  0.999966  0.999963  1
  Ir  Ir25  1  0.500039  0.500039  0.000001  1
  Ir  Ir26  1  0.499980  0.500016  0.500013  1
  Ir  Ir27  1  0.000003  0.500016  0.000036  1
  Ir  Ir28  1  0.000037  0.000038  0.000001  1
  Ir  Ir29  1  0.500309  0.000309  0.500000  1
