# generated using pymatgen
data_Sm8Er12Si15Sn
_symmetry_space_group_name_H-M   'P 1'
_cell_length_a   7.43731058
_cell_length_b   7.75467261
_cell_length_c   14.71404319
_cell_angle_alpha   90.06937279
_cell_angle_beta   89.43725196
_cell_angle_gamma   90.07703780
_symmetry_Int_Tables_number   1
_chemical_formula_structural   Sm8Er12Si15Sn
_chemical_formula_sum   'Sm8 Er12 Si15 Sn1'
_cell_volume   848.57407523
_cell_formula_units_Z   1
loop_
 _symmetry_equiv_pos_site_id
 _symmetry_equiv_pos_as_xyz
  1  'x, y, z'
loop_
 _atom_site_type_symbol
 _atom_site_label
 _atom_site_symmetry_multiplicity
 _atom_site_fract_x
 _atom_site_fract_y
 _atom_site_fract_z
 _atom_site_occupancy
  Sm  Sm0  1  0.016054  0.178506  0.097931  1
  Sm  Sm1  1  0.983624  0.821891  0.902719  1
  Sm  Sm2  1  0.484351  0.679056  0.902466  1
  Sm  Sm3  1  0.984810  0.826741  0.599922  1
  Sm  Sm4  1  0.515804  0.320877  0.098404  1
  Sm  Sm5  1  0.010724  0.172267  0.398376  1
  Sm  Sm6  1  0.515790  0.319387  0.399195  1
  Sm  Sm7  1  0.496280  0.685353  0.601251  1
  Er  Er8  1  0.162944  0.508716  0.754213  1
  Er  Er9  1  0.836298  0.490447  0.249486  1
  Er  Er10  1  0.337564  0.009844  0.249005  1
  Er  Er11  1  0.664682  0.990347  0.752045  1
  Er  Er12  1  0.339039  0.164174  0.628995  1
  Er  Er13  1  0.666535  0.823646  0.374951  1
  Er  Er14  1  0.165551  0.685106  0.371314  1
  Er  Er15  1  0.671673  0.821504  0.122250  1
  Er  Er16  1  0.821596  0.323454  0.624478  1
  Er  Er17  1  0.327239  0.176898  0.877248  1
  Er  Er18  1  0.827431  0.322163  0.877280  1
  Er  Er19  1  0.172232  0.677993  0.123086  1
  Si  Si20  1  0.034671  0.114822  0.751148  1
  Si  Si21  1  0.962634  0.889906  0.247202  1
  Si  Si22  1  0.464231  0.611623  0.248493  1
  Si  Si23  1  0.533970  0.389140  0.752272  1
  Si  Si24  1  0.281694  0.871311  0.752421  1
  Si  Si25  1  0.718277  0.124923  0.247834  1
  Si  Si26  1  0.218077  0.374944  0.249030  1
  Si  Si27  1  0.783669  0.626496  0.751471  1
  Si  Si28  1  0.832916  0.536279  0.459098  1
  Si  Si29  1  0.340780  0.967258  0.460546  1
  Si  Si30  1  0.846851  0.532282  0.038929  1
  Si  Si31  1  0.659709  0.034252  0.537935  1
  Si  Si32  1  0.152665  0.466845  0.961845  1
  Si  Si33  1  0.652695  0.033083  0.961278  1
  Si  Si34  1  0.346083  0.967697  0.039161  1
  Sn  Sn35  1  0.170857  0.460769  0.536726  1
