# generated using pymatgen
data_Nb8V5Co11
_symmetry_space_group_name_H-M   'P 1'
_cell_length_a   4.94503300
_cell_length_b   4.93699508
_cell_length_c   15.36359300
_cell_angle_alpha   90.00000000
_cell_angle_beta   90.00000000
_cell_angle_gamma   120.05387844
_symmetry_Int_Tables_number   1
_chemical_formula_structural   Nb8V5Co11
_chemical_formula_sum   'Nb8 V5 Co11'
_cell_volume   324.65288967
_cell_formula_units_Z   1
loop_
 _symmetry_equiv_pos_site_id
 _symmetry_equiv_pos_as_xyz
  1  'x, y, z'
loop_
 _atom_site_type_symbol
 _atom_site_label
 _atom_site_symmetry_multiplicity
 _atom_site_fract_x
 _atom_site_fract_y
 _atom_site_fract_z
 _atom_site_occupancy
  Nb  Nb0  1  0.011169  0.022337  0.087920  1
  Nb  Nb1  1  0.674558  0.349115  0.151465  1
  Nb  Nb2  1  0.674558  0.349115  0.348535  1
  Nb  Nb3  1  0.011169  0.022337  0.412080  1
  Nb  Nb4  1  0.998125  0.996249  0.594697  1
  Nb  Nb5  1  0.333586  0.667172  0.655934  1
  Nb  Nb6  1  0.333586  0.667172  0.844067  1
  Nb  Nb7  1  0.998125  0.996249  0.905303  1
  V  V8  1  0.340402  0.680805  0.123007  1
  V  V9  1  0.135309  0.270618  0.250000  1
  V  V10  1  0.340402  0.680805  0.376993  1
  V  V11  1  0.666057  0.332116  0.628690  1
  V  V12  1  0.666057  0.332116  0.871310  1
  Co  Co13  1  0.500545  0.001090  0.998548  1
  Co  Co14  1  0.001130  0.502026  0.997120  1
  Co  Co15  1  0.500897  0.502026  0.997120  1
  Co  Co16  1  0.153207  0.809107  0.250000  1
  Co  Co17  1  0.655900  0.809107  0.250000  1
  Co  Co18  1  0.500545  0.001090  0.501452  1
  Co  Co19  1  0.001130  0.502026  0.502880  1
  Co  Co20  1  0.500897  0.502026  0.502880  1
  Co  Co21  1  0.320445  0.161936  0.750000  1
  Co  Co22  1  0.841491  0.161936  0.750000  1
  Co  Co23  1  0.840712  0.681422  0.750000  1
