# generated using pymatgen
data_YbHo2ErB16
_symmetry_space_group_name_H-M   'P 1'
_cell_length_a   7.09231400
_cell_length_b   7.09224383
_cell_length_c   4.01333600
_cell_angle_alpha   90.00000000
_cell_angle_beta   90.00000000
_cell_angle_gamma   89.83516291
_symmetry_Int_Tables_number   1
_chemical_formula_structural   YbHo2ErB16
_chemical_formula_sum   'Yb1 Ho2 Er1 B16'
_cell_volume   201.87165178
_cell_formula_units_Z   1
loop_
 _symmetry_equiv_pos_site_id
 _symmetry_equiv_pos_as_xyz
  1  'x, y, z'
loop_
 _atom_site_type_symbol
 _atom_site_label
 _atom_site_symmetry_multiplicity
 _atom_site_fract_x
 _atom_site_fract_y
 _atom_site_fract_z
 _atom_site_occupancy
  Yb  Yb0  1  0.682712  0.817265  0.000000  1
  Ho  Ho1  1  0.817853  0.318044  0.000000  1
  Ho  Ho2  1  0.319113  0.180873  0.000000  1
  Er  Er3  1  0.181919  0.682355  0.000000  1
  B  B4  1  0.500019  0.501217  0.797246  1
  B  B5  1  0.998925  0.999734  0.797245  1
  B  B6  1  0.500019  0.501217  0.202754  1
  B  B7  1  0.998925  0.999734  0.202755  1
  B  B8  1  0.913436  0.586723  0.500000  1
  B  B9  1  0.086965  0.413187  0.500000  1
  B  B10  1  0.413196  0.913736  0.500000  1
  B  B11  1  0.586233  0.086784  0.500000  1
  B  B12  1  0.675747  0.537791  0.500000  1
  B  B13  1  0.324071  0.461316  0.500000  1
  B  B14  1  0.176980  0.962106  0.500000  1
  B  B15  1  0.823731  0.038573  0.500000  1
  B  B16  1  0.461248  0.676357  0.500000  1
  B  B17  1  0.537699  0.323100  0.500000  1
  B  B18  1  0.038828  0.175787  0.500000  1
  B  B19  1  0.962380  0.824102  0.500000  1
