# generated using pymatgen
data_LiWCl5
_symmetry_space_group_name_H-M   'P 1'
_cell_length_a   6.31656378
_cell_length_b   9.06802870
_cell_length_c   13.04225813
_cell_angle_alpha   86.40910075
_cell_angle_beta   79.64023624
_cell_angle_gamma   69.61739095
_symmetry_Int_Tables_number   1
_chemical_formula_structural   LiWCl5
_chemical_formula_sum   'Li4 W4 Cl20'
_cell_volume   688.85469625
_cell_formula_units_Z   4
loop_
 _symmetry_equiv_pos_site_id
 _symmetry_equiv_pos_as_xyz
  1  'x, y, z'
loop_
 _atom_site_type_symbol
 _atom_site_label
 _atom_site_symmetry_multiplicity
 _atom_site_fract_x
 _atom_site_fract_y
 _atom_site_fract_z
 _atom_site_occupancy
  Li  Li0  1  0.941215  0.617572  0.250000  1
  Li  Li1  1  0.058785  0.382428  0.750000  1
  Li  Li2  1  0.350365  0.799271  0.250000  1
  Li  Li3  1  0.649635  0.200729  0.750000  1
  W  W4  1  0.566569  0.366862  0.250000  1
  W  W5  1  0.433431  0.633138  0.750000  1
  W  W6  1  0.723814  0.052372  0.250000  1
  W  W7  1  0.276186  0.947628  0.750000  1
  Cl  Cl8  1  0.225500  0.790771  0.623496  1
  Cl  Cl9  1  0.483729  0.790771  0.876504  1
  Cl  Cl10  1  0.774500  0.209229  0.376504  1
  Cl  Cl11  1  0.516271  0.209229  0.123496  1
  Cl  Cl12  1  0.110113  0.603896  0.856081  1
  Cl  Cl13  1  0.785991  0.603896  0.643919  1
  Cl  Cl14  1  0.889887  0.396104  0.143919  1
  Cl  Cl15  1  0.214009  0.396104  0.356081  1
  Cl  Cl16  1  0.923188  0.977457  0.855109  1
  Cl  Cl17  1  0.599356  0.977457  0.644891  1
  Cl  Cl18  1  0.076812  0.022543  0.144891  1
  Cl  Cl19  1  0.400644  0.022543  0.355109  1
  Cl  Cl20  1  0.419297  0.418108  0.646470  1
  Cl  Cl21  1  0.662595  0.418108  0.853530  1
  Cl  Cl22  1  0.580703  0.581892  0.353530  1
  Cl  Cl23  1  0.337405  0.581892  0.146470  1
  Cl  Cl24  1  0.048271  0.163220  0.645811  1
  Cl  Cl25  1  0.288510  0.163220  0.854189  1
  Cl  Cl26  1  0.951729  0.836780  0.354189  1
  Cl  Cl27  1  0.711490  0.836780  0.145811  1
