# generated using pymatgen
data_Gd7Y3Si5P
_symmetry_space_group_name_H-M   'P 1'
_cell_length_a   8.45497500
_cell_length_b   8.46027006
_cell_length_c   6.34750800
_cell_angle_alpha   90.00000000
_cell_angle_beta   90.00000000
_cell_angle_gamma   119.97929451
_symmetry_Int_Tables_number   1
_chemical_formula_structural   Gd7Y3Si5P
_chemical_formula_sum   'Gd7 Y3 Si5 P1'
_cell_volume   393.29734733
_cell_formula_units_Z   1
loop_
 _symmetry_equiv_pos_site_id
 _symmetry_equiv_pos_as_xyz
  1  'x, y, z'
loop_
 _atom_site_type_symbol
 _atom_site_label
 _atom_site_symmetry_multiplicity
 _atom_site_fract_x
 _atom_site_fract_y
 _atom_site_fract_z
 _atom_site_occupancy
  Gd  Gd0  1  0.000844  0.756541  0.750000  1
  Gd  Gd1  1  0.754160  0.000000  0.750000  1
  Gd  Gd2  1  0.244302  0.243459  0.750000  1
  Gd  Gd3  1  0.333898  0.667637  0.500213  1
  Gd  Gd4  1  0.666262  0.332363  0.999787  1
  Gd  Gd5  1  0.666262  0.332363  0.500213  1
  Gd  Gd6  1  0.333898  0.667637  0.999787  1
  Y  Y7  1  0.000901  0.244873  0.250000  1
  Y  Y8  1  0.756027  0.755127  0.250000  1
  Y  Y9  1  0.244842  0.000000  0.250000  1
  Si  Si10  1  0.393404  0.392774  0.250000  1
  Si  Si11  1  0.000630  0.607226  0.250000  1
  Si  Si12  1  0.999974  0.392821  0.750000  1
  Si  Si13  1  0.607153  0.607179  0.750000  1
  Si  Si14  1  0.608180  0.000000  0.250000  1
  P  P15  1  0.389259  0.000000  0.750000  1
