# generated using pymatgen
data_Tb2Y6Er9Sc3Si15Os
_symmetry_space_group_name_H-M   'P 1'
_cell_length_a   7.25897507
_cell_length_b   7.67431224
_cell_length_c   14.38995545
_cell_angle_alpha   90.02400117
_cell_angle_beta   89.98398163
_cell_angle_gamma   90.13637716
_symmetry_Int_Tables_number   1
_chemical_formula_structural   Tb2Y6Er9Sc3Si15Os
_chemical_formula_sum   'Tb2 Y6 Er9 Sc3 Si15 Os1'
_cell_volume   801.62810412
_cell_formula_units_Z   1
loop_
 _symmetry_equiv_pos_site_id
 _symmetry_equiv_pos_as_xyz
  1  'x, y, z'
loop_
 _atom_site_type_symbol
 _atom_site_label
 _atom_site_symmetry_multiplicity
 _atom_site_fract_x
 _atom_site_fract_y
 _atom_site_fract_z
 _atom_site_occupancy
  Tb  Tb0  1  0.517991  0.319131  0.402376  1
  Tb  Tb1  1  0.482582  0.681359  0.595268  1
  Y  Y2  1  0.018161  0.183994  0.098148  1
  Y  Y3  1  0.983153  0.827595  0.904144  1
  Y  Y4  1  0.483036  0.681061  0.904884  1
  Y  Y5  1  0.983028  0.827366  0.595929  1
  Y  Y6  1  0.517547  0.319282  0.097522  1
  Y  Y7  1  0.018137  0.184058  0.401724  1
  Er  Er8  1  0.151067  0.511843  0.750075  1
  Er  Er9  1  0.312366  0.172122  0.626931  1
  Er  Er10  1  0.678834  0.824754  0.373089  1
  Er  Er11  1  0.177458  0.679273  0.373080  1
  Er  Er12  1  0.678667  0.824688  0.126793  1
  Er  Er13  1  0.830788  0.313303  0.626586  1
  Er  Er14  1  0.312381  0.172094  0.873214  1
  Er  Er15  1  0.830900  0.313233  0.873544  1
  Er  Er16  1  0.177449  0.679252  0.126779  1
  Sc  Sc17  1  0.843286  0.485684  0.249960  1
  Sc  Sc18  1  0.344143  0.016200  0.249971  1
  Sc  Sc19  1  0.666415  0.988349  0.749955  1
  Si  Si20  1  0.980473  0.902633  0.249917  1
  Si  Si21  1  0.481441  0.598908  0.249941  1
  Si  Si22  1  0.524534  0.397736  0.750057  1
  Si  Si23  1  0.283776  0.866901  0.750003  1
  Si  Si24  1  0.718315  0.136675  0.249966  1
  Si  Si25  1  0.220137  0.365500  0.249881  1
  Si  Si26  1  0.766158  0.630513  0.750090  1
  Si  Si27  1  0.154909  0.472614  0.536710  1
  Si  Si28  1  0.848008  0.531291  0.459852  1
  Si  Si29  1  0.347681  0.970378  0.458308  1
  Si  Si30  1  0.847816  0.531311  0.040179  1
  Si  Si31  1  0.648602  0.029581  0.538396  1
  Si  Si32  1  0.155105  0.472622  0.963234  1
  Si  Si33  1  0.648594  0.029546  0.961552  1
  Si  Si34  1  0.347688  0.970348  0.041756  1
  Os  Os35  1  0.019371  0.088802  0.750189  1
