# generated using pymatgen
data_NaTeOF3
_symmetry_space_group_name_H-M   'P 1'
_cell_length_a   10.05525700
_cell_length_b   10.05525700
_cell_length_c   7.84179300
_cell_angle_alpha   90.00000000
_cell_angle_beta   90.00000000
_cell_angle_gamma   90.00000000
_symmetry_Int_Tables_number   1
_chemical_formula_structural   NaTeOF3
_chemical_formula_sum   'Na8 Te8 O8 F24'
_cell_volume   792.86952275
_cell_formula_units_Z   8
loop_
 _symmetry_equiv_pos_site_id
 _symmetry_equiv_pos_as_xyz
  1  'x, y, z'
loop_
 _atom_site_type_symbol
 _atom_site_label
 _atom_site_symmetry_multiplicity
 _atom_site_fract_x
 _atom_site_fract_y
 _atom_site_fract_z
 _atom_site_occupancy
  Na  Na0  1  0.500000  0.500000  0.500000  1
  Na  Na1  1  0.000000  0.000000  0.000000  1
  Na  Na2  1  0.500000  0.500000  0.000000  1
  Na  Na3  1  0.000000  0.000000  0.500000  1
  Na  Na4  1  0.750000  0.250000  0.250000  1
  Na  Na5  1  0.250000  0.750000  0.250000  1
  Na  Na6  1  0.250000  0.250000  0.750000  1
  Na  Na7  1  0.750000  0.750000  0.750000  1
  Te  Te8  1  0.654216  0.861060  0.183120  1
  Te  Te9  1  0.138940  0.654216  0.816880  1
  Te  Te10  1  0.845784  0.638940  0.316880  1
  Te  Te11  1  0.361060  0.845784  0.683120  1
  Te  Te12  1  0.861060  0.345784  0.816880  1
  Te  Te13  1  0.638940  0.154216  0.683120  1
  Te  Te14  1  0.345784  0.138940  0.183120  1
  Te  Te15  1  0.154216  0.361060  0.316880  1
  O  O16  1  0.237790  0.715637  0.596146  1
  O  O17  1  0.262210  0.784363  0.903854  1
  O  O18  1  0.284363  0.237790  0.403854  1
  O  O19  1  0.784363  0.737790  0.096146  1
  O  O20  1  0.737790  0.215637  0.903854  1
  O  O21  1  0.215637  0.262210  0.096146  1
  O  O22  1  0.762210  0.284363  0.596146  1
  O  O23  1  0.715637  0.762210  0.403854  1
  F  F24  1  0.515266  0.716341  0.133962  1
  F  F25  1  0.999335  0.187126  0.807697  1
  F  F26  1  0.984734  0.783659  0.366038  1
  F  F27  1  0.187126  0.000665  0.192303  1
  F  F28  1  0.783659  0.015266  0.633962  1
  F  F29  1  0.484734  0.283659  0.133962  1
  F  F30  1  0.312874  0.499335  0.307697  1
  F  F31  1  0.500665  0.312874  0.692303  1
  F  F32  1  0.095267  0.639427  0.073396  1
  F  F33  1  0.000665  0.812874  0.807697  1
  F  F34  1  0.904733  0.360573  0.073396  1
  F  F35  1  0.639427  0.904733  0.926604  1
  F  F36  1  0.595267  0.139427  0.426604  1
  F  F37  1  0.139427  0.404733  0.573396  1
  F  F38  1  0.860573  0.595267  0.573396  1
  F  F39  1  0.216341  0.984734  0.633962  1
  F  F40  1  0.404733  0.860573  0.426604  1
  F  F41  1  0.360573  0.095267  0.926604  1
  F  F42  1  0.687126  0.500665  0.307697  1
  F  F43  1  0.283659  0.515266  0.866038  1
  F  F44  1  0.716341  0.484734  0.866038  1
  F  F45  1  0.015266  0.216341  0.366038  1
  F  F46  1  0.812874  0.999335  0.192303  1
  F  F47  1  0.499335  0.687126  0.692303  1
