# generated using pymatgen
data_Tb5Lu3Tc2(B12Ru)2
_symmetry_space_group_name_H-M   'P 1'
_cell_length_a   3.65356400
_cell_length_b   9.11401687
_cell_length_c   11.51132859
_cell_angle_alpha   89.89580804
_cell_angle_beta   90.00000000
_cell_angle_gamma   90.00000000
_symmetry_Int_Tables_number   1
_chemical_formula_structural   Tb5Lu3Tc2(B12Ru)2
_chemical_formula_sum   'Tb5 Lu3 Tc2 B24 Ru2'
_cell_volume   383.31099824
_cell_formula_units_Z   1
loop_
 _symmetry_equiv_pos_site_id
 _symmetry_equiv_pos_as_xyz
  1  'x, y, z'
loop_
 _atom_site_type_symbol
 _atom_site_label
 _atom_site_symmetry_multiplicity
 _atom_site_fract_x
 _atom_site_fract_y
 _atom_site_fract_z
 _atom_site_occupancy
  Tb  Tb0  1  0.000000  0.324464  0.415666  1
  Tb  Tb1  1  0.000000  0.675369  0.585030  1
  Tb  Tb2  1  0.000000  0.820362  0.086665  1
  Tb  Tb3  1  0.000000  0.179547  0.912694  1
  Tb  Tb4  1  0.000000  0.942232  0.370986  1
  Lu  Lu5  1  0.000000  0.058475  0.630443  1
  Lu  Lu6  1  0.000000  0.443267  0.129528  1
  Lu  Lu7  1  0.000000  0.556765  0.870037  1
  Tc  Tc8  1  0.000000  0.636962  0.319072  1
  Tc  Tc9  1  0.000000  0.361312  0.681077  1
  B  B10  1  0.500000  0.552510  0.432596  1
  B  B11  1  0.500000  0.446288  0.567794  1
  B  B12  1  0.500000  0.054639  0.066954  1
  B  B13  1  0.500000  0.945661  0.932322  1
  B  B14  1  0.500000  0.747718  0.418365  1
  B  B15  1  0.500000  0.250199  0.582050  1
  B  B16  1  0.500000  0.250671  0.081483  1
  B  B17  1  0.500000  0.749835  0.918129  1
  B  B18  1  0.500000  0.790005  0.264592  1
  B  B19  1  0.500000  0.208146  0.734964  1
  B  B20  1  0.500000  0.291987  0.233807  1
  B  B21  1  0.500000  0.708860  0.765881  1
  B  B22  1  0.500000  0.629212  0.184073  1
  B  B23  1  0.500000  0.370170  0.815559  1
  B  B24  1  0.500000  0.131544  0.313632  1
  B  B25  1  0.500000  0.870237  0.685777  1
  B  B26  1  0.500000  0.983804  0.211228  1
  B  B27  1  0.500000  0.017240  0.787536  1
  B  B28  1  0.500000  0.481461  0.286466  1
  B  B29  1  0.500000  0.518102  0.713357  1
  B  B30  1  0.500000  0.600059  0.027246  1
  B  B31  1  0.500000  0.399868  0.972376  1
  B  B32  1  0.500000  0.103004  0.473546  1
  B  B33  1  0.500000  0.898840  0.530022  1
  Ru  Ru34  1  0.000000  0.139623  0.178319  1
  Ru  Ru35  1  0.000000  0.861562  0.820729  1
