# generated using pymatgen
data_Er10In8OsAu3
_symmetry_space_group_name_H-M   'P 1'
_cell_length_a   3.58567900
_cell_length_b   8.23978769
_cell_length_c   18.34396587
_cell_angle_alpha   89.91218502
_cell_angle_beta   90.00000000
_cell_angle_gamma   90.00000000
_symmetry_Int_Tables_number   1
_chemical_formula_structural   Er10In8OsAu3
_chemical_formula_sum   'Er10 In8 Os1 Au3'
_cell_volume   541.97612199
_cell_formula_units_Z   1
loop_
 _symmetry_equiv_pos_site_id
 _symmetry_equiv_pos_as_xyz
  1  'x, y, z'
loop_
 _atom_site_type_symbol
 _atom_site_label
 _atom_site_symmetry_multiplicity
 _atom_site_fract_x
 _atom_site_fract_y
 _atom_site_fract_z
 _atom_site_occupancy
  Er  Er0  1  0.000000  0.503238  0.498010  1
  Er  Er1  1  0.000000  0.002053  0.001269  1
  Er  Er2  1  0.000000  0.758869  0.282589  1
  Er  Er3  1  0.000000  0.264276  0.716974  1
  Er  Er4  1  0.000000  0.762638  0.782501  1
  Er  Er5  1  0.000000  0.221552  0.222612  1
  Er  Er6  1  0.000000  0.620505  0.081172  1
  Er  Er7  1  0.000000  0.379514  0.920619  1
  Er  Er8  1  0.000000  0.878853  0.579460  1
  Er  Er9  1  0.000000  0.114274  0.414308  1
  In  In10  1  0.500000  0.711312  0.934368  1
  In  In11  1  0.500000  0.289808  0.067410  1
  In  In12  1  0.500000  0.793930  0.430453  1
  In  In13  1  0.500000  0.209433  0.564945  1
  In  In14  1  0.500000  0.581230  0.646512  1
  In  In15  1  0.500000  0.415104  0.351960  1
  In  In16  1  0.500000  0.923751  0.149660  1
  In  In17  1  0.500000  0.080992  0.853222  1
  Os  Os18  1  0.500000  0.020414  0.304245  1
  Au  Au19  1  0.500000  0.521855  0.198005  1
  Au  Au20  1  0.500000  0.472844  0.803144  1
  Au  Au21  1  0.500000  0.973555  0.696560  1
