# generated using pymatgen
data_Bi2B4PbO10
_symmetry_space_group_name_H-M   'P 1'
_cell_length_a   6.94380485
_cell_length_b   7.02473987
_cell_length_c   9.97062280
_cell_angle_alpha   96.11046180
_cell_angle_beta   109.76657115
_cell_angle_gamma   100.97949028
_symmetry_Int_Tables_number   1
_chemical_formula_structural   Bi2B4PbO10
_chemical_formula_sum   'Bi4 B8 Pb2 O20'
_cell_volume   441.56596894
_cell_formula_units_Z   2
loop_
 _symmetry_equiv_pos_site_id
 _symmetry_equiv_pos_as_xyz
  1  'x, y, z'
loop_
 _atom_site_type_symbol
 _atom_site_label
 _atom_site_symmetry_multiplicity
 _atom_site_fract_x
 _atom_site_fract_y
 _atom_site_fract_z
 _atom_site_occupancy
  Bi  Bi0  1  0.735702  0.638981  0.662900  1
  Bi  Bi1  1  0.264298  0.361019  0.337100  1
  Bi  Bi2  1  0.694692  0.014743  0.400304  1
  Bi  Bi3  1  0.305308  0.985257  0.599696  1
  B  B4  1  0.401109  0.204749  0.075602  1
  B  B5  1  0.598891  0.795251  0.924398  1
  B  B6  1  0.843766  0.606984  0.369297  1
  B  B7  1  0.156234  0.393016  0.630703  1
  B  B8  1  0.413603  0.747894  0.091686  1
  B  B9  1  0.202039  0.699559  0.822025  1
  B  B10  1  0.797961  0.300441  0.177975  1
  B  B11  1  0.586397  0.252106  0.908314  1
  Pb  Pb12  1  0.032530  0.854760  0.166267  1
  Pb  Pb13  1  0.967470  0.145240  0.833733  1
  O  O14  1  0.080838  0.187977  0.602397  1
  O  O15  1  0.637009  0.890604  0.583384  1
  O  O16  1  0.601068  0.773888  0.063127  1
  O  O17  1  0.410852  0.780129  0.814281  1
  O  O18  1  0.589148  0.219871  0.185719  1
  O  O19  1  0.362991  0.109396  0.416616  1
  O  O20  1  0.215169  0.170652  0.095601  1
  O  O21  1  0.776800  0.295085  0.022625  1
  O  O22  1  0.223200  0.704915  0.977375  1
  O  O23  1  0.740807  0.510003  0.446940  1
  O  O24  1  0.883271  0.510292  0.254243  1
  O  O25  1  0.940408  0.182192  0.251806  1
  O  O26  1  0.574212  0.226755  0.767783  1
  O  O27  1  0.784831  0.829348  0.904399  1
  O  O28  1  0.116729  0.489708  0.745757  1
  O  O29  1  0.259193  0.489997  0.553060  1
  O  O30  1  0.059592  0.817808  0.748194  1
  O  O31  1  0.919162  0.812023  0.397603  1
  O  O32  1  0.425788  0.773245  0.232217  1
  O  O33  1  0.398932  0.226112  0.936873  1
