# generated using pymatgen
data_Sr2Cu5Ni13P10
_symmetry_space_group_name_H-M   'P 1'
_cell_length_a   6.60353055
_cell_length_b   6.57884908
_cell_length_c   10.84650699
_cell_angle_alpha   89.97543011
_cell_angle_beta   90.15743798
_cell_angle_gamma   120.04968612
_symmetry_Int_Tables_number   1
_chemical_formula_structural   Sr2Cu5Ni13P10
_chemical_formula_sum   'Sr2 Cu5 Ni13 P10'
_cell_volume   407.87500456
_cell_formula_units_Z   1
loop_
 _symmetry_equiv_pos_site_id
 _symmetry_equiv_pos_as_xyz
  1  'x, y, z'
loop_
 _atom_site_type_symbol
 _atom_site_label
 _atom_site_symmetry_multiplicity
 _atom_site_fract_x
 _atom_site_fract_y
 _atom_site_fract_z
 _atom_site_occupancy
  Sr  Sr0  1  0.998835  0.999511  0.997953  1
  Sr  Sr1  1  0.000332  0.000291  0.502295  1
  Cu  Cu2  1  0.538903  0.464780  0.104808  1
  Cu  Cu3  1  0.927295  0.463711  0.104535  1
  Cu  Cu4  1  0.538234  0.073340  0.105456  1
  Cu  Cu5  1  0.533631  0.070357  0.395737  1
  Cu  Cu6  1  0.533778  0.463116  0.396214  1
  Ni  Ni7  1  0.206806  0.411160  0.249793  1
  Ni  Ni8  1  0.206073  0.795552  0.250148  1
  Ni  Ni9  1  0.597838  0.798466  0.249919  1
  Ni  Ni10  1  0.923174  0.461577  0.394084  1
  Ni  Ni11  1  0.072781  0.536491  0.608960  1
  Ni  Ni12  1  0.463787  0.535703  0.608062  1
  Ni  Ni13  1  0.464222  0.928882  0.607970  1
  Ni  Ni14  1  0.402686  0.201172  0.749478  1
  Ni  Ni15  1  0.799193  0.200957  0.749697  1
  Ni  Ni16  1  0.799067  0.597918  0.749666  1
  Ni  Ni17  1  0.464502  0.929293  0.891796  1
  Ni  Ni18  1  0.070605  0.535281  0.891632  1
  Ni  Ni19  1  0.463912  0.535542  0.891803  1
  P  P20  1  0.334887  0.666708  0.055404  1
  P  P21  1  0.322001  0.161302  0.248988  1
  P  P22  1  0.839377  0.168907  0.254653  1
  P  P23  1  0.838631  0.669562  0.254446  1
  P  P24  1  0.320478  0.659716  0.442767  1
  P  P25  1  0.673061  0.337443  0.569991  1
  P  P26  1  0.172982  0.345674  0.749724  1
  P  P27  1  0.173231  0.826842  0.749690  1
  P  P28  1  0.653913  0.826859  0.749279  1
  P  P29  1  0.665788  0.333895  0.925052  1
