# generated using pymatgen
data_Tm6LuPa3(Al2Ru3)2
_symmetry_space_group_name_H-M   'P 1'
_cell_length_a   8.34204712
_cell_length_b   8.34204614
_cell_length_c   8.34204778
_cell_angle_alpha   110.04118222
_cell_angle_beta   110.04118649
_cell_angle_gamma   110.04119038
_symmetry_Int_Tables_number   1
_chemical_formula_structural   Tm6LuPa3(Al2Ru3)2
_chemical_formula_sum   'Tm6 Lu1 Pa3 Al4 Ru6'
_cell_volume   437.20081236
_cell_formula_units_Z   1
loop_
 _symmetry_equiv_pos_site_id
 _symmetry_equiv_pos_as_xyz
  1  'x, y, z'
loop_
 _atom_site_type_symbol
 _atom_site_label
 _atom_site_symmetry_multiplicity
 _atom_site_fract_x
 _atom_site_fract_y
 _atom_site_fract_z
 _atom_site_occupancy
  Tm  Tm0  1  0.310051  0.565449  0.748257  1
  Tm  Tm1  1  0.748257  0.310051  0.565449  1
  Tm  Tm2  1  0.565449  0.748257  0.310051  1
  Tm  Tm3  1  0.726154  0.506057  0.994571  1
  Tm  Tm4  1  0.994571  0.726154  0.506057  1
  Tm  Tm5  1  0.506057  0.994571  0.726154  1
  Lu  Lu6  1  0.775116  0.775116  0.775116  1
  Pa  Pa7  1  0.252226  0.201999  0.951974  1
  Pa  Pa8  1  0.951974  0.252226  0.201999  1
  Pa  Pa9  1  0.201999  0.951974  0.252226  1
  Al  Al10  1  0.405245  0.405245  0.405245  1
  Al  Al11  1  0.098576  0.500832  0.000411  1
  Al  Al12  1  0.000411  0.098576  0.500832  1
  Al  Al13  1  0.500832  0.000411  0.098576  1
  Ru  Ru14  1  0.903726  0.118981  0.759870  1
  Ru  Ru15  1  0.759870  0.903726  0.118981  1
  Ru  Ru16  1  0.118981  0.759870  0.903726  1
  Ru  Ru17  1  0.218543  0.598141  0.363824  1
  Ru  Ru18  1  0.363824  0.218543  0.598141  1
  Ru  Ru19  1  0.598141  0.363824  0.218543  1
