# generated using pymatgen
data_BaSr9Os6(ClO15)2
_symmetry_space_group_name_H-M   'P 1'
_cell_length_a   10.82711300
_cell_length_b   10.82711200
_cell_length_c   7.65098000
_cell_angle_alpha   90.00000000
_cell_angle_beta   90.00000000
_cell_angle_gamma   120.00000573
_symmetry_Int_Tables_number   1
_chemical_formula_structural   BaSr9Os6(ClO15)2
_chemical_formula_sum   'Ba1 Sr9 Os6 Cl2 O30'
_cell_volume   776.73517344
_cell_formula_units_Z   1
loop_
 _symmetry_equiv_pos_site_id
 _symmetry_equiv_pos_as_xyz
  1  'x, y, z'
loop_
 _atom_site_type_symbol
 _atom_site_label
 _atom_site_symmetry_multiplicity
 _atom_site_fract_x
 _atom_site_fract_y
 _atom_site_fract_z
 _atom_site_occupancy
  Ba  Ba0  1  0.333333  0.666667  0.995500  1
  Sr  Sr1  1  0.995881  0.273535  0.762247  1
  Sr  Sr2  1  0.997834  0.720818  0.261894  1
  Sr  Sr3  1  0.279182  0.277016  0.261894  1
  Sr  Sr4  1  0.722984  0.002166  0.261894  1
  Sr  Sr5  1  0.277655  0.004119  0.762247  1
  Sr  Sr6  1  0.666667  0.333333  0.505924  1
  Sr  Sr7  1  0.726465  0.722345  0.762247  1
  Sr  Sr8  1  0.333333  0.666667  0.496323  1
  Sr  Sr9  1  0.666667  0.333333  0.004616  1
  Os  Os10  1  0.386168  0.004684  0.213353  1
  Os  Os11  1  0.999702  0.610281  0.706498  1
  Os  Os12  1  0.618516  0.613832  0.213353  1
  Os  Os13  1  0.389719  0.389421  0.706498  1
  Os  Os14  1  0.995316  0.381484  0.213353  1
  Os  Os15  1  0.610579  0.000298  0.706498  1
  Cl  Cl16  1  0.000000  0.000000  0.174118  1
  Cl  Cl17  1  0.000000  0.000000  0.676405  1
  O  O18  1  0.254844  0.871406  0.057531  1
  O  O19  1  0.557743  0.420005  0.245466  1
  O  O20  1  0.389397  0.139313  0.057740  1
  O  O21  1  0.863625  0.417571  0.745270  1
  O  O22  1  0.454297  0.585097  0.725858  1
  O  O23  1  0.553946  0.136375  0.745270  1
  O  O24  1  0.582429  0.446054  0.745270  1
  O  O25  1  0.288988  0.004985  0.394032  1
  O  O26  1  0.128594  0.383439  0.057531  1
  O  O27  1  0.295306  0.300746  0.893318  1
  O  O28  1  0.005440  0.704694  0.893318  1
  O  O29  1  0.699254  0.994560  0.893318  1
  O  O30  1  0.425403  0.554664  0.250874  1
  O  O31  1  0.715997  0.711012  0.394032  1
  O  O32  1  0.995015  0.284003  0.394032  1
  O  O33  1  0.130799  0.545703  0.725858  1
  O  O34  1  0.612367  0.867446  0.553333  1
  O  O35  1  0.391280  0.255113  0.556092  1
  O  O36  1  0.744887  0.136166  0.556092  1
  O  O37  1  0.860687  0.250082  0.057740  1
  O  O38  1  0.255079  0.387633  0.553333  1
  O  O39  1  0.862263  0.442257  0.245466  1
  O  O40  1  0.616561  0.745156  0.057531  1
  O  O41  1  0.129260  0.574597  0.250874  1
  O  O42  1  0.445336  0.870740  0.250874  1
  O  O43  1  0.749918  0.610603  0.057740  1
  O  O44  1  0.132554  0.744921  0.553333  1
  O  O45  1  0.579995  0.137737  0.245466  1
  O  O46  1  0.414903  0.869201  0.725858  1
  O  O47  1  0.863834  0.608720  0.556092  1
