# generated using pymatgen
data_Dy7TmSc11Si16Ag
_symmetry_space_group_name_H-M   'P 1'
_cell_length_a   7.03492114
_cell_length_b   7.39175166
_cell_length_c   14.01881268
_cell_angle_alpha   89.96817487
_cell_angle_beta   89.98394027
_cell_angle_gamma   89.89575629
_symmetry_Int_Tables_number   1
_chemical_formula_structural   Dy7TmSc11Si16Ag
_chemical_formula_sum   'Dy7 Tm1 Sc11 Si16 Ag1'
_cell_volume   728.98237990
_cell_formula_units_Z   1
loop_
 _symmetry_equiv_pos_site_id
 _symmetry_equiv_pos_as_xyz
  1  'x, y, z'
loop_
 _atom_site_type_symbol
 _atom_site_label
 _atom_site_symmetry_multiplicity
 _atom_site_fract_x
 _atom_site_fract_y
 _atom_site_fract_z
 _atom_site_occupancy
  Dy  Dy0  1  0.990415  0.815491  0.901009  1
  Dy  Dy1  1  0.483664  0.673790  0.901355  1
  Dy  Dy2  1  0.990419  0.815466  0.599132  1
  Dy  Dy3  1  0.510938  0.323434  0.096586  1
  Dy  Dy4  1  0.011202  0.175219  0.403588  1
  Dy  Dy5  1  0.510948  0.323612  0.403329  1
  Dy  Dy6  1  0.483744  0.673888  0.598741  1
  Tm  Tm7  1  0.011475  0.175805  0.096839  1
  Sc  Sc8  1  0.838578  0.497035  0.249924  1
  Sc  Sc9  1  0.339791  0.003036  0.249896  1
  Sc  Sc10  1  0.657930  0.998284  0.750006  1
  Sc  Sc11  1  0.326252  0.182610  0.626501  1
  Sc  Sc12  1  0.671149  0.823543  0.374823  1
  Sc  Sc13  1  0.170702  0.678400  0.373984  1
  Sc  Sc14  1  0.671197  0.823776  0.125046  1
  Sc  Sc15  1  0.835623  0.327141  0.626466  1
  Sc  Sc16  1  0.326225  0.182745  0.873613  1
  Sc  Sc17  1  0.835735  0.326847  0.873559  1
  Sc  Sc18  1  0.170555  0.678567  0.125944  1
  Si  Si19  1  0.028335  0.100711  0.750059  1
  Si  Si20  1  0.968980  0.887277  0.249775  1
  Si  Si21  1  0.467550  0.617040  0.249952  1
  Si  Si22  1  0.537388  0.384680  0.750018  1
  Si  Si23  1  0.288756  0.884764  0.749988  1
  Si  Si24  1  0.714220  0.127455  0.249587  1
  Si  Si25  1  0.212259  0.371989  0.249652  1
  Si  Si26  1  0.776515  0.628764  0.750013  1
  Si  Si27  1  0.160719  0.460109  0.531719  1
  Si  Si28  1  0.843114  0.535565  0.461951  1
  Si  Si29  1  0.344846  0.965245  0.462548  1
  Si  Si30  1  0.843366  0.534984  0.038246  1
  Si  Si31  1  0.657751  0.033862  0.540183  1
  Si  Si32  1  0.160502  0.459326  0.968512  1
  Si  Si33  1  0.657921  0.033969  0.959835  1
  Si  Si34  1  0.343848  0.965698  0.037634  1
  Ag  Ag35  1  0.157384  0.509871  0.749988  1
