# generated using pymatgen
data_Er8MgAlPd2
_symmetry_space_group_name_H-M   'P 1'
_cell_length_a   9.59630217
_cell_length_b   9.59630258
_cell_length_c   9.56373000
_cell_angle_alpha   60.11221865
_cell_angle_beta   60.11221724
_cell_angle_gamma   60.28988345
_symmetry_Int_Tables_number   1
_chemical_formula_structural   Er8MgAlPd2
_chemical_formula_sum   'Er16 Mg2 Al2 Pd4'
_cell_volume   625.17323103
_cell_formula_units_Z   2
loop_
 _symmetry_equiv_pos_site_id
 _symmetry_equiv_pos_as_xyz
  1  'x, y, z'
loop_
 _atom_site_type_symbol
 _atom_site_label
 _atom_site_symmetry_multiplicity
 _atom_site_fract_x
 _atom_site_fract_y
 _atom_site_fract_z
 _atom_site_occupancy
  Er  Er0  1  0.353451  0.353451  0.349312  1
  Er  Er1  1  0.353451  0.353451  0.943786  1
  Er  Er2  1  0.358968  0.934175  0.353428  1
  Er  Er3  1  0.934175  0.358968  0.353428  1
  Er  Er4  1  0.808739  0.191802  0.190486  1
  Er  Er5  1  0.191802  0.808739  0.808975  1
  Er  Er6  1  0.191802  0.808739  0.190486  1
  Er  Er7  1  0.808739  0.191802  0.808975  1
  Er  Er8  1  0.187322  0.187322  0.812678  1
  Er  Er9  1  0.805692  0.805692  0.194308  1
  Er  Er10  1  0.930065  0.566188  0.566695  1
  Er  Er11  1  0.566188  0.930065  0.937052  1
  Er  Er12  1  0.566188  0.930065  0.566695  1
  Er  Er13  1  0.930065  0.566188  0.937052  1
  Er  Er14  1  0.567311  0.567311  0.932689  1
  Er  Er15  1  0.934820  0.934820  0.565180  1
  Mg  Mg16  1  0.579278  0.267219  0.576752  1
  Mg  Mg17  1  0.267219  0.579278  0.576752  1
  Al  Al18  1  0.582873  0.582873  0.578162  1
  Al  Al19  1  0.582873  0.582873  0.256092  1
  Pd  Pd20  1  0.144149  0.144149  0.146606  1
  Pd  Pd21  1  0.144149  0.144149  0.565095  1
  Pd  Pd22  1  0.141476  0.569206  0.144658  1
  Pd  Pd23  1  0.569206  0.141476  0.144658  1
