# generated using pymatgen
data_Dy4Lu16GaBi11
_symmetry_space_group_name_H-M   'P 1'
_cell_length_a   8.10760596
_cell_length_b   9.35198400
_cell_length_c   11.84284700
_cell_angle_alpha   90.00000000
_cell_angle_beta   90.29293206
_cell_angle_gamma   90.00000000
_symmetry_Int_Tables_number   1
_chemical_formula_structural   Dy4Lu16GaBi11
_chemical_formula_sum   'Dy4 Lu16 Ga1 Bi11'
_cell_volume   897.93899270
_cell_formula_units_Z   1
loop_
 _symmetry_equiv_pos_site_id
 _symmetry_equiv_pos_as_xyz
  1  'x, y, z'
loop_
 _atom_site_type_symbol
 _atom_site_label
 _atom_site_symmetry_multiplicity
 _atom_site_fract_x
 _atom_site_fract_y
 _atom_site_fract_z
 _atom_site_occupancy
  Dy  Dy0  1  0.314248  0.250000  0.218637  1
  Dy  Dy1  1  0.811685  0.250000  0.282728  1
  Dy  Dy2  1  0.675486  0.750000  0.788830  1
  Dy  Dy3  1  0.189820  0.750000  0.720849  1
  Lu  Lu4  1  0.354572  0.750000  0.206439  1
  Lu  Lu5  1  0.851209  0.750000  0.282543  1
  Lu  Lu6  1  0.649217  0.250000  0.781830  1
  Lu  Lu7  1  0.150600  0.250000  0.718780  1
  Lu  Lu8  1  0.682449  0.573418  0.056177  1
  Lu  Lu9  1  0.192169  0.932609  0.437952  1
  Lu  Lu10  1  0.310045  0.050404  0.940928  1
  Lu  Lu11  1  0.808024  0.433003  0.560574  1
  Lu  Lu12  1  0.310045  0.449596  0.940928  1
  Lu  Lu13  1  0.808024  0.066997  0.560574  1
  Lu  Lu14  1  0.682449  0.926582  0.056177  1
  Lu  Lu15  1  0.192169  0.567391  0.437952  1
  Lu  Lu16  1  0.477929  0.250000  0.490135  1
  Lu  Lu17  1  0.981543  0.250000  0.009587  1
  Lu  Lu18  1  0.522654  0.750000  0.510451  1
  Lu  Lu19  1  0.035670  0.750000  0.990539  1
  Ga  Ga20  1  0.405031  0.750000  0.962203  1
  Bi  Bi21  1  0.902787  0.750000  0.542679  1
  Bi  Bi22  1  0.597625  0.250000  0.040426  1
  Bi  Bi23  1  0.097958  0.250000  0.459691  1
  Bi  Bi24  1  0.563830  0.994282  0.326453  1
  Bi  Bi25  1  0.062472  0.504495  0.174962  1
  Bi  Bi26  1  0.435880  0.494952  0.674267  1
  Bi  Bi27  1  0.936115  0.004171  0.825514  1
  Bi  Bi28  1  0.435880  0.005048  0.674267  1
  Bi  Bi29  1  0.936115  0.495829  0.825514  1
  Bi  Bi30  1  0.563830  0.505718  0.326453  1
  Bi  Bi31  1  0.062472  0.995505  0.174962  1
