# generated using pymatgen
data_YHoSn2PdPt3
_symmetry_space_group_name_H-M   'P 1'
_cell_length_a   4.56256600
_cell_length_b   4.56256595
_cell_length_c   9.11742100
_cell_angle_alpha   90.00000000
_cell_angle_beta   90.00000000
_cell_angle_gamma   120.00000039
_symmetry_Int_Tables_number   1
_chemical_formula_structural   YHoSn2PdPt3
_chemical_formula_sum   'Y1 Ho1 Sn2 Pd1 Pt3'
_cell_volume   164.36939378
_cell_formula_units_Z   1
loop_
 _symmetry_equiv_pos_site_id
 _symmetry_equiv_pos_as_xyz
  1  'x, y, z'
loop_
 _atom_site_type_symbol
 _atom_site_label
 _atom_site_symmetry_multiplicity
 _atom_site_fract_x
 _atom_site_fract_y
 _atom_site_fract_z
 _atom_site_occupancy
  Y  Y0  1  0.666667  0.333333  0.746885  1
  Ho  Ho1  1  0.333333  0.666667  0.250183  1
  Sn  Sn2  1  0.000000  0.000000  0.501444  1
  Sn  Sn3  1  0.000000  0.000000  0.002803  1
  Pd  Pd4  1  0.333333  0.666667  0.912092  1
  Pt  Pt5  1  0.666667  0.333333  0.087761  1
  Pt  Pt6  1  0.666667  0.333333  0.407808  1
  Pt  Pt7  1  0.333333  0.666667  0.591024  1
