# generated using pymatgen
data_Eu4Al3GaGe4
_symmetry_space_group_name_H-M   'P 1'
_cell_length_a   4.29732100
_cell_length_b   4.29732112
_cell_length_c   17.54927600
_cell_angle_alpha   90.00000000
_cell_angle_beta   90.00000000
_cell_angle_gamma   120.00000680
_symmetry_Int_Tables_number   1
_chemical_formula_structural   Eu4Al3GaGe4
_chemical_formula_sum   'Eu4 Al3 Ga1 Ge4'
_cell_volume   280.66315915
_cell_formula_units_Z   1
loop_
 _symmetry_equiv_pos_site_id
 _symmetry_equiv_pos_as_xyz
  1  'x, y, z'
loop_
 _atom_site_type_symbol
 _atom_site_label
 _atom_site_symmetry_multiplicity
 _atom_site_fract_x
 _atom_site_fract_y
 _atom_site_fract_z
 _atom_site_occupancy
  Eu  Eu0  1  0.000000  0.000000  0.500245  1
  Eu  Eu1  1  0.000000  0.000000  0.999458  1
  Eu  Eu2  1  0.000000  0.000000  0.248896  1
  Eu  Eu3  1  0.000000  0.000000  0.750149  1
  Al  Al4  1  0.666667  0.333333  0.358162  1
  Al  Al5  1  0.333333  0.666667  0.643860  1
  Al  Al6  1  0.333333  0.666667  0.855856  1
  Ga  Ga7  1  0.666667  0.333333  0.149421  1
  Ge  Ge8  1  0.333333  0.666667  0.383925  1
  Ge  Ge9  1  0.666667  0.333333  0.614748  1
  Ge  Ge10  1  0.666667  0.333333  0.884652  1
  Ge  Ge11  1  0.333333  0.666667  0.110627  1
