# generated using pymatgen
data_ZrSc3(IrRu)2
_symmetry_space_group_name_H-M   'P 1'
_cell_length_a   6.42977500
_cell_length_b   4.60737600
_cell_length_c   9.20243700
_cell_angle_alpha   90.00000000
_cell_angle_beta   89.99954417
_cell_angle_gamma   90.00000000
_symmetry_Int_Tables_number   1
_chemical_formula_structural   ZrSc3(IrRu)2
_chemical_formula_sum   'Zr2 Sc6 Ir4 Ru4'
_cell_volume   272.61659202
_cell_formula_units_Z   2
loop_
 _symmetry_equiv_pos_site_id
 _symmetry_equiv_pos_as_xyz
  1  'x, y, z'
loop_
 _atom_site_type_symbol
 _atom_site_label
 _atom_site_symmetry_multiplicity
 _atom_site_fract_x
 _atom_site_fract_y
 _atom_site_fract_z
 _atom_site_occupancy
  Zr  Zr0  1  0.999757  0.750000  0.125008  1
  Zr  Zr1  1  0.500024  0.750000  0.125022  1
  Sc  Sc2  1  0.000014  0.250000  0.379396  1
  Sc  Sc3  1  0.499746  0.250000  0.379398  1
  Sc  Sc4  1  0.499920  0.750000  0.624997  1
  Sc  Sc5  1  0.000322  0.750000  0.625013  1
  Sc  Sc6  1  0.499986  0.250000  0.870590  1
  Sc  Sc7  1  0.000249  0.250000  0.870600  1
  Ir  Ir8  1  0.749914  0.250000  0.124978  1
  Ir  Ir9  1  0.249919  0.750000  0.374064  1
  Ir  Ir10  1  0.750076  0.250000  0.624977  1
  Ir  Ir11  1  0.250075  0.750000  0.875966  1
  Ru  Ru12  1  0.249918  0.250000  0.124973  1
  Ru  Ru13  1  0.749944  0.750000  0.372510  1
  Ru  Ru14  1  0.250073  0.250000  0.624968  1
  Ru  Ru15  1  0.750065  0.750000  0.877537  1
