# generated using pymatgen
data_P4Ru5W3
_symmetry_space_group_name_H-M   'P 1'
_cell_length_a   3.92770200
_cell_length_b   5.99806485
_cell_length_c   6.96050975
_cell_angle_alpha   90.26046693
_cell_angle_beta   90.00000000
_cell_angle_gamma   90.00000000
_symmetry_Int_Tables_number   1
_chemical_formula_structural   P4Ru5W3
_chemical_formula_sum   'P4 Ru5 W3'
_cell_volume   163.97824917
_cell_formula_units_Z   1
loop_
 _symmetry_equiv_pos_site_id
 _symmetry_equiv_pos_as_xyz
  1  'x, y, z'
loop_
 _atom_site_type_symbol
 _atom_site_label
 _atom_site_symmetry_multiplicity
 _atom_site_fract_x
 _atom_site_fract_y
 _atom_site_fract_z
 _atom_site_occupancy
  P  P0  1  0.250000  0.746980  0.613955  1
  P  P1  1  0.750000  0.250791  0.387851  1
  P  P2  1  0.250000  0.243798  0.885268  1
  P  P3  1  0.750000  0.756786  0.115946  1
  Ru  Ru4  1  0.250000  0.466706  0.157898  1
  Ru  Ru5  1  0.250000  0.361770  0.577253  1
  Ru  Ru6  1  0.750000  0.636472  0.423820  1
  Ru  Ru7  1  0.250000  0.862158  0.929468  1
  Ru  Ru8  1  0.750000  0.144572  0.071800  1
  W  W9  1  0.750000  0.021508  0.668656  1
  W  W10  1  0.250000  0.980060  0.330752  1
  W  W11  1  0.750000  0.528400  0.837332  1
