# generated using pymatgen
data_Ho11Er(TcPd)2
_symmetry_space_group_name_H-M   'P 1'
_cell_length_a   6.36182400
_cell_length_b   7.35911754
_cell_length_c   9.19853800
_cell_angle_alpha   90.00000000
_cell_angle_beta   90.00000000
_cell_angle_gamma   90.05618931
_symmetry_Int_Tables_number   1
_chemical_formula_structural   Ho11Er(TcPd)2
_chemical_formula_sum   'Ho11 Er1 Tc2 Pd2'
_cell_volume   430.65152317
_cell_formula_units_Z   1
loop_
 _symmetry_equiv_pos_site_id
 _symmetry_equiv_pos_as_xyz
  1  'x, y, z'
loop_
 _atom_site_type_symbol
 _atom_site_label
 _atom_site_symmetry_multiplicity
 _atom_site_fract_x
 _atom_site_fract_y
 _atom_site_fract_z
 _atom_site_occupancy
  Ho  Ho0  1  0.628307  0.038958  0.250000  1
  Ho  Ho1  1  0.371699  0.961339  0.750000  1
  Ho  Ho2  1  0.123768  0.469373  0.750000  1
  Ho  Ho3  1  0.177504  0.185864  0.064007  1
  Ho  Ho4  1  0.822666  0.813645  0.935284  1
  Ho  Ho5  1  0.661304  0.326439  0.940679  1
  Ho  Ho6  1  0.822666  0.813645  0.564716  1
  Ho  Ho7  1  0.338578  0.673435  0.059226  1
  Ho  Ho8  1  0.177504  0.185864  0.435993  1
  Ho  Ho9  1  0.338578  0.673435  0.440774  1
  Ho  Ho10  1  0.661304  0.326439  0.559321  1
  Er  Er11  1  0.876757  0.530591  0.250000  1
  Tc  Tc12  1  0.464756  0.383237  0.250000  1
  Tc  Tc13  1  0.533880  0.617199  0.750000  1
  Pd  Pd14  1  0.948980  0.112879  0.750000  1
  Pd  Pd15  1  0.051751  0.887654  0.250000  1
