# generated using pymatgen
data_Tb4Y(TcO6)2
_symmetry_space_group_name_H-M   'P 1'
_cell_length_a   6.85610376
_cell_length_b   6.85610427
_cell_length_c   7.56657011
_cell_angle_alpha   73.74721450
_cell_angle_beta   73.74721485
_cell_angle_gamma   48.97886512
_symmetry_Int_Tables_number   1
_chemical_formula_structural   Tb4Y(TcO6)2
_chemical_formula_sum   'Tb4 Y1 Tc2 O12'
_cell_volume   255.33997437
_cell_formula_units_Z   1
loop_
 _symmetry_equiv_pos_site_id
 _symmetry_equiv_pos_as_xyz
  1  'x, y, z'
loop_
 _atom_site_type_symbol
 _atom_site_label
 _atom_site_symmetry_multiplicity
 _atom_site_fract_x
 _atom_site_fract_y
 _atom_site_fract_z
 _atom_site_occupancy
  Tb  Tb0  1  0.184508  0.184508  0.175353  1
  Tb  Tb1  1  0.815492  0.815492  0.824647  1
  Tb  Tb2  1  0.805030  0.805030  0.357489  1
  Tb  Tb3  1  0.194970  0.194970  0.642511  1
  Y  Y4  1  0.500000  0.500000  0.500000  1
  Tc  Tc5  1  0.713729  0.286271  0.000000  1
  Tc  Tc6  1  0.286271  0.713729  0.000000  1
  O  O7  1  0.998849  0.998849  0.176957  1
  O  O8  1  0.001151  0.001151  0.823043  1
  O  O9  1  0.499019  0.499019  0.796286  1
  O  O10  1  0.500981  0.500981  0.203714  1
  O  O11  1  0.597761  0.094503  0.573969  1
  O  O12  1  0.905497  0.402239  0.426031  1
  O  O13  1  0.402239  0.905497  0.426031  1
  O  O14  1  0.412879  0.915241  0.916618  1
  O  O15  1  0.084759  0.587121  0.083382  1
  O  O16  1  0.587121  0.084759  0.083382  1
  O  O17  1  0.915241  0.412879  0.916618  1
  O  O18  1  0.094503  0.597761  0.573969  1
