# generated using pymatgen
data_Lu3Zn(Co3C)2
_symmetry_space_group_name_H-M   'P 1'
_cell_length_a   5.06924800
_cell_length_b   5.06924703
_cell_length_c   13.69013300
_cell_angle_alpha   90.00000000
_cell_angle_beta   90.00000000
_cell_angle_gamma   119.99999330
_symmetry_Int_Tables_number   1
_chemical_formula_structural   Lu3Zn(Co3C)2
_chemical_formula_sum   'Lu6 Zn2 Co12 C4'
_cell_volume   304.66693393
_cell_formula_units_Z   2
loop_
 _symmetry_equiv_pos_site_id
 _symmetry_equiv_pos_as_xyz
  1  'x, y, z'
loop_
 _atom_site_type_symbol
 _atom_site_label
 _atom_site_symmetry_multiplicity
 _atom_site_fract_x
 _atom_site_fract_y
 _atom_site_fract_z
 _atom_site_occupancy
  Lu  Lu0  1  0.333333  0.666667  0.533624  1
  Lu  Lu1  1  0.666667  0.333333  0.033624  1
  Lu  Lu2  1  0.666667  0.333333  0.466376  1
  Lu  Lu3  1  0.333333  0.666667  0.966376  1
  Lu  Lu4  1  0.333333  0.666667  0.750000  1
  Lu  Lu5  1  0.666667  0.333333  0.250000  1
  Zn  Zn6  1  0.000000  0.000000  0.000000  1
  Zn  Zn7  1  0.000000  0.000000  0.500000  1
  Co  Co8  1  0.166835  0.333670  0.154485  1
  Co  Co9  1  0.833165  0.666330  0.654485  1
  Co  Co10  1  0.666330  0.833165  0.154485  1
  Co  Co11  1  0.166835  0.833165  0.154485  1
  Co  Co12  1  0.833165  0.166835  0.654485  1
  Co  Co13  1  0.333670  0.166835  0.654485  1
  Co  Co14  1  0.833165  0.666330  0.845515  1
  Co  Co15  1  0.833165  0.166835  0.845515  1
  Co  Co16  1  0.333670  0.166835  0.845515  1
  Co  Co17  1  0.666330  0.833165  0.345515  1
  Co  Co18  1  0.166835  0.833165  0.345515  1
  Co  Co19  1  0.166835  0.333670  0.345515  1
  C  C20  1  0.333333  0.666667  0.250000  1
  C  C21  1  0.666667  0.333333  0.750000  1
  C  C22  1  0.000000  0.000000  0.250000  1
  C  C23  1  0.000000  0.000000  0.750000  1
