# generated using pymatgen
data_Li(GaFe)6
_symmetry_space_group_name_H-M   'P 1'
_cell_length_a   6.52542699
_cell_length_b   6.52542702
_cell_length_c   6.52542637
_cell_angle_alpha   135.03363916
_cell_angle_beta   99.78936615
_cell_angle_gamma   97.03361483
_symmetry_Int_Tables_number   1
_chemical_formula_structural   Li(GaFe)6
_chemical_formula_sum   'Li1 Ga6 Fe6'
_cell_volume   181.36610234
_cell_formula_units_Z   1
loop_
 _symmetry_equiv_pos_site_id
 _symmetry_equiv_pos_as_xyz
  1  'x, y, z'
loop_
 _atom_site_type_symbol
 _atom_site_label
 _atom_site_symmetry_multiplicity
 _atom_site_fract_x
 _atom_site_fract_y
 _atom_site_fract_z
 _atom_site_occupancy
  Li  Li0  1  0.000000  0.000000  0.000000  1
  Ga  Ga1  1  0.300649  0.000000  0.300649  1
  Ga  Ga2  1  0.334827  0.334827  0.000000  1
  Ga  Ga3  1  0.665173  0.665173  0.000000  1
  Ga  Ga4  1  0.830819  0.330819  0.500000  1
  Ga  Ga5  1  0.169181  0.669181  0.500000  1
  Ga  Ga6  1  0.699351  0.000000  0.699351  1
  Fe  Fe7  1  0.750842  0.500000  0.250842  1
  Fe  Fe8  1  0.000000  0.000000  0.500000  1
  Fe  Fe9  1  0.000000  0.500000  0.000000  1
  Fe  Fe10  1  0.500000  0.000000  0.000000  1
  Fe  Fe11  1  0.500000  0.500000  0.500000  1
  Fe  Fe12  1  0.249158  0.500000  0.749158  1
