# generated using pymatgen
data_YbHo(Ga2Cu)2
_symmetry_space_group_name_H-M   'P 1'
_cell_length_a   4.32589200
_cell_length_b   6.52759282
_cell_length_c   10.08931512
_cell_angle_alpha   90.10692282
_cell_angle_beta   90.00000000
_cell_angle_gamma   90.00000000
_symmetry_Int_Tables_number   1
_chemical_formula_structural   YbHo(Ga2Cu)2
_chemical_formula_sum   'Yb2 Ho2 Ga8 Cu4'
_cell_volume   284.89816971
_cell_formula_units_Z   2
loop_
 _symmetry_equiv_pos_site_id
 _symmetry_equiv_pos_as_xyz
  1  'x, y, z'
loop_
 _atom_site_type_symbol
 _atom_site_label
 _atom_site_symmetry_multiplicity
 _atom_site_fract_x
 _atom_site_fract_y
 _atom_site_fract_z
 _atom_site_occupancy
  Yb  Yb0  1  0.750000  0.739193  0.341727  1
  Yb  Yb1  1  0.250000  0.260807  0.658273  1
  Ho  Ho2  1  0.250000  0.764916  0.839506  1
  Ho  Ho3  1  0.750000  0.235084  0.160494  1
  Ga  Ga4  1  0.250000  0.725741  0.540382  1
  Ga  Ga5  1  0.750000  0.274259  0.459618  1
  Ga  Ga6  1  0.750000  0.769868  0.043398  1
  Ga  Ga7  1  0.250000  0.230132  0.956602  1
  Ga  Ga8  1  0.250000  0.922479  0.157251  1
  Ga  Ga9  1  0.750000  0.077521  0.842749  1
  Ga  Ga10  1  0.750000  0.573054  0.656696  1
  Ga  Ga11  1  0.250000  0.426946  0.343304  1
  Cu  Cu12  1  0.250000  0.544087  0.101656  1
  Cu  Cu13  1  0.750000  0.455913  0.898344  1
  Cu  Cu14  1  0.750000  0.956339  0.601342  1
  Cu  Cu15  1  0.250000  0.043661  0.398658  1
