# generated using pymatgen
data_Er4TiIr3
_symmetry_space_group_name_H-M   'P 1'
_cell_length_a   10.65415300
_cell_length_b   10.65415300
_cell_length_c   6.11433900
_cell_angle_alpha   90.00000000
_cell_angle_beta   90.00000000
_cell_angle_gamma   90.00000000
_symmetry_Int_Tables_number   1
_chemical_formula_structural   Er4TiIr3
_chemical_formula_sum   'Er16 Ti4 Ir12'
_cell_volume   694.04458839
_cell_formula_units_Z   4
loop_
 _symmetry_equiv_pos_site_id
 _symmetry_equiv_pos_as_xyz
  1  'x, y, z'
loop_
 _atom_site_type_symbol
 _atom_site_label
 _atom_site_symmetry_multiplicity
 _atom_site_fract_x
 _atom_site_fract_y
 _atom_site_fract_z
 _atom_site_occupancy
  Er  Er0  1  0.286642  0.085762  0.372969  1
  Er  Er1  1  0.286642  0.914238  0.872969  1
  Er  Er2  1  0.713358  0.085762  0.872969  1
  Er  Er3  1  0.713358  0.914238  0.372969  1
  Er  Er4  1  0.585762  0.786642  0.872969  1
  Er  Er5  1  0.585762  0.213358  0.372969  1
  Er  Er6  1  0.414238  0.786642  0.372969  1
  Er  Er7  1  0.414238  0.213358  0.872969  1
  Er  Er8  1  0.213358  0.414238  0.627031  1
  Er  Er9  1  0.213358  0.585762  0.127031  1
  Er  Er10  1  0.786642  0.414238  0.127031  1
  Er  Er11  1  0.786642  0.585762  0.627031  1
  Er  Er12  1  0.914238  0.713358  0.127031  1
  Er  Er13  1  0.914238  0.286642  0.627031  1
  Er  Er14  1  0.085762  0.713358  0.627031  1
  Er  Er15  1  0.085762  0.286642  0.127031  1
  Ti  Ti16  1  0.000000  0.000000  0.500000  1
  Ti  Ti17  1  0.000000  0.000000  0.000000  1
  Ti  Ti18  1  0.500000  0.500000  0.000000  1
  Ti  Ti19  1  0.500000  0.500000  0.500000  1
  Ir  Ir20  1  0.860951  0.139049  0.250000  1
  Ir  Ir21  1  0.860951  0.860951  0.750000  1
  Ir  Ir22  1  0.139049  0.139049  0.750000  1
  Ir  Ir23  1  0.139049  0.860951  0.250000  1
  Ir  Ir24  1  0.639049  0.360951  0.750000  1
  Ir  Ir25  1  0.639049  0.639049  0.250000  1
  Ir  Ir26  1  0.360951  0.360951  0.250000  1
  Ir  Ir27  1  0.360951  0.639049  0.750000  1
  Ir  Ir28  1  0.500000  0.000000  0.119881  1
  Ir  Ir29  1  0.500000  0.000000  0.619881  1
  Ir  Ir30  1  0.000000  0.500000  0.880119  1
  Ir  Ir31  1  0.000000  0.500000  0.380119  1
