# generated using pymatgen
data_La(TaS2)5
_symmetry_space_group_name_H-M   'P 1'
_cell_length_a   5.84445500
_cell_length_b   8.06599642
_cell_length_c   8.77396700
_cell_angle_alpha   116.03033572
_cell_angle_beta   96.59073320
_cell_angle_gamma   103.90143440
_symmetry_Int_Tables_number   1
_chemical_formula_structural   La(TaS2)5
_chemical_formula_sum   'La1 Ta5 S10'
_cell_volume   349.08753168
_cell_formula_units_Z   1
loop_
 _symmetry_equiv_pos_site_id
 _symmetry_equiv_pos_as_xyz
  1  'x, y, z'
loop_
 _atom_site_type_symbol
 _atom_site_label
 _atom_site_symmetry_multiplicity
 _atom_site_fract_x
 _atom_site_fract_y
 _atom_site_fract_z
 _atom_site_occupancy
  La  La0  1  0.668774  0.508758  0.995084  1
  Ta  Ta1  1  0.002710  0.996422  0.999854  1
  Ta  Ta2  1  0.598812  0.203245  0.203741  1
  Ta  Ta3  1  0.197896  0.398189  0.399106  1
  Ta  Ta4  1  0.798844  0.600152  0.601887  1
  Ta  Ta5  1  0.400972  0.797501  0.796685  1
  S  S6  1  0.236975  0.068292  0.287852  1
  S  S7  1  0.050394  0.666184  0.887699  1
  S  S8  1  0.836881  0.268288  0.487101  1
  S  S9  1  0.636161  0.876844  0.094098  1
  S  S10  1  0.428250  0.458640  0.679367  1
  S  S11  1  0.898630  0.536132  0.317162  1
  S  S12  1  0.697286  0.128275  0.912524  1
  S  S13  1  0.495010  0.729805  0.513071  1
  S  S14  1  0.289674  0.330917  0.111869  1
  S  S15  1  0.095532  0.929959  0.714502  1
