# generated using pymatgen
data_TbTm15(CdNi)4
_symmetry_space_group_name_H-M   'P 1'
_cell_length_a   9.41778870
_cell_length_b   9.41785573
_cell_length_c   9.41786601
_cell_angle_alpha   59.99586069
_cell_angle_beta   59.99447291
_cell_angle_gamma   59.99509278
_symmetry_Int_Tables_number   1
_chemical_formula_structural   TbTm15(CdNi)4
_chemical_formula_sum   'Tb1 Tm15 Cd4 Ni4'
_cell_volume   590.59619933
_cell_formula_units_Z   1
loop_
 _symmetry_equiv_pos_site_id
 _symmetry_equiv_pos_as_xyz
  1  'x, y, z'
loop_
 _atom_site_type_symbol
 _atom_site_label
 _atom_site_symmetry_multiplicity
 _atom_site_fract_x
 _atom_site_fract_y
 _atom_site_fract_z
 _atom_site_occupancy
  Tb  Tb0  1  0.348693  0.348551  0.348647  1
  Tm  Tm1  1  0.348302  0.348183  0.954618  1
  Tm  Tm2  1  0.348268  0.954641  0.348227  1
  Tm  Tm3  1  0.954606  0.348199  0.348278  1
  Tm  Tm4  1  0.812638  0.187581  0.187584  1
  Tm  Tm5  1  0.188173  0.812052  0.811956  1
  Tm  Tm6  1  0.187586  0.812709  0.187586  1
  Tm  Tm7  1  0.811979  0.188170  0.812026  1
  Tm  Tm8  1  0.187583  0.187581  0.812666  1
  Tm  Tm9  1  0.811933  0.812075  0.188174  1
  Tm  Tm10  1  0.935618  0.564356  0.564351  1
  Tm  Tm11  1  0.564295  0.935751  0.935735  1
  Tm  Tm12  1  0.564361  0.935619  0.564361  1
  Tm  Tm13  1  0.935749  0.564296  0.935751  1
  Tm  Tm14  1  0.564355  0.564358  0.935617  1
  Tm  Tm15  1  0.935738  0.935757  0.564292  1
  Cd  Cd16  1  0.581526  0.581542  0.581531  1
  Cd  Cd17  1  0.581981  0.582004  0.255262  1
  Cd  Cd18  1  0.581989  0.255257  0.581998  1
  Cd  Cd19  1  0.255263  0.582001  0.581986  1
  Ni  Ni20  1  0.142400  0.142398  0.142406  1
  Ni  Ni21  1  0.141468  0.141463  0.574009  1
  Ni  Ni22  1  0.141468  0.573995  0.141474  1
  Ni  Ni23  1  0.574030  0.141463  0.141467  1
