# generated using pymatgen
data_LiErCo4P3
_symmetry_space_group_name_H-M   'P 1'
_cell_length_a   3.68764700
_cell_length_b   10.24356300
_cell_length_c   11.90863800
_cell_angle_alpha   90.00000000
_cell_angle_beta   90.00000000
_cell_angle_gamma   90.00000000
_symmetry_Int_Tables_number   1
_chemical_formula_structural   LiErCo4P3
_chemical_formula_sum   'Li4 Er4 Co16 P12'
_cell_volume   449.84456534
_cell_formula_units_Z   4
loop_
 _symmetry_equiv_pos_site_id
 _symmetry_equiv_pos_as_xyz
  1  'x, y, z'
loop_
 _atom_site_type_symbol
 _atom_site_label
 _atom_site_symmetry_multiplicity
 _atom_site_fract_x
 _atom_site_fract_y
 _atom_site_fract_z
 _atom_site_occupancy
  Li  Li0  1  0.250000  0.797002  0.492803  1
  Li  Li1  1  0.750000  0.202998  0.507197  1
  Li  Li2  1  0.750000  0.297002  0.007197  1
  Li  Li3  1  0.250000  0.702998  0.992803  1
  Er  Er4  1  0.250000  0.921919  0.202167  1
  Er  Er5  1  0.750000  0.078081  0.797833  1
  Er  Er6  1  0.750000  0.421919  0.297833  1
  Er  Er7  1  0.250000  0.578081  0.702167  1
  Co  Co8  1  0.250000  0.094131  0.984502  1
  Co  Co9  1  0.750000  0.905869  0.015498  1
  Co  Co10  1  0.750000  0.594131  0.515498  1
  Co  Co11  1  0.250000  0.405869  0.484502  1
  Co  Co12  1  0.250000  0.278019  0.672886  1
  Co  Co13  1  0.750000  0.721981  0.327114  1
  Co  Co14  1  0.750000  0.778019  0.827114  1
  Co  Co15  1  0.250000  0.221981  0.172886  1
  Co  Co16  1  0.250000  0.621448  0.200087  1
  Co  Co17  1  0.750000  0.378552  0.799913  1
  Co  Co18  1  0.750000  0.121448  0.299913  1
  Co  Co19  1  0.250000  0.878552  0.700087  1
  Co  Co20  1  0.250000  0.034865  0.432382  1
  Co  Co21  1  0.750000  0.965135  0.567618  1
  Co  Co22  1  0.750000  0.534865  0.067618  1
  Co  Co23  1  0.250000  0.465135  0.932382  1
  P  P24  1  0.250000  0.074989  0.615397  1
  P  P25  1  0.750000  0.925011  0.384603  1
  P  P26  1  0.750000  0.574989  0.884603  1
  P  P27  1  0.250000  0.425011  0.115397  1
  P  P28  1  0.250000  0.231340  0.359567  1
  P  P29  1  0.750000  0.768660  0.640433  1
  P  P30  1  0.750000  0.731340  0.140433  1
  P  P31  1  0.250000  0.268660  0.859567  1
  P  P32  1  0.250000  0.898517  0.892894  1
  P  P33  1  0.750000  0.101483  0.107106  1
  P  P34  1  0.750000  0.398517  0.607106  1
  P  P35  1  0.250000  0.601483  0.392894  1
