# generated using pymatgen
data_TiNb5(GaRu2)6
_symmetry_space_group_name_H-M   'P 1'
_cell_length_a   4.38165900
_cell_length_b   6.20574500
_cell_length_c   13.12260500
_cell_angle_alpha   90.00000002
_cell_angle_beta   89.99877415
_cell_angle_gamma   90.00404878
_symmetry_Int_Tables_number   1
_chemical_formula_structural   TiNb5(GaRu2)6
_chemical_formula_sum   'Ti1 Nb5 Ga6 Ru12'
_cell_volume   356.82276788
_cell_formula_units_Z   1
loop_
 _symmetry_equiv_pos_site_id
 _symmetry_equiv_pos_as_xyz
  1  'x, y, z'
loop_
 _atom_site_type_symbol
 _atom_site_label
 _atom_site_symmetry_multiplicity
 _atom_site_fract_x
 _atom_site_fract_y
 _atom_site_fract_z
 _atom_site_occupancy
  Ti  Ti0  1  0.500476  0.499990  0.833347  1
  Nb  Nb1  1  0.999993  0.000004  0.997617  1
  Nb  Nb2  1  0.499666  0.499996  0.165282  1
  Nb  Nb3  1  0.999661  0.000004  0.333339  1
  Nb  Nb4  1  0.499998  0.499997  0.501388  1
  Nb  Nb5  1  0.000349  0.000005  0.669068  1
  Ga  Ga6  1  0.999993  0.499995  0.998416  1
  Ga  Ga7  1  0.499826  0.000005  0.165564  1
  Ga  Ga8  1  0.999857  0.499996  0.333331  1
  Ga  Ga9  1  0.499997  0.000004  0.501115  1
  Ga  Ga10  1  0.000147  0.499995  0.668274  1
  Ga  Ga11  1  0.500109  0.000005  0.833333  1
  Ru  Ru12  1  0.500123  0.251235  0.999121  1
  Ru  Ru13  1  0.499880  0.748768  0.999124  1
  Ru  Ru14  1  0.999630  0.250239  0.166662  1
  Ru  Ru15  1  0.999859  0.749760  0.166662  1
  Ru  Ru16  1  0.499864  0.249580  0.333334  1
  Ru  Ru17  1  0.499629  0.750419  0.333334  1
  Ru  Ru18  1  0.999883  0.250237  0.499994  1
  Ru  Ru19  1  0.000111  0.749761  0.499993  1
  Ru  Ru20  1  0.500381  0.251308  0.667510  1
  Ru  Ru21  1  0.500135  0.748693  0.667508  1
  Ru  Ru22  1  0.000079  0.253168  0.833342  1
  Ru  Ru23  1  0.000347  0.746839  0.833341  1
