# generated using pymatgen
data_NaLaY2(Ir2O7)2
_symmetry_space_group_name_H-M   'P 1'
_cell_length_a   7.39455677
_cell_length_b   7.39455732
_cell_length_c   7.21507600
_cell_angle_alpha   59.15187469
_cell_angle_beta   59.15187212
_cell_angle_gamma   59.76517801
_symmetry_Int_Tables_number   1
_chemical_formula_structural   NaLaY2(Ir2O7)2
_chemical_formula_sum   'Na1 La1 Y2 Ir4 O14'
_cell_volume   274.85643963
_cell_formula_units_Z   1
loop_
 _symmetry_equiv_pos_site_id
 _symmetry_equiv_pos_as_xyz
  1  'x, y, z'
loop_
 _atom_site_type_symbol
 _atom_site_label
 _atom_site_symmetry_multiplicity
 _atom_site_fract_x
 _atom_site_fract_y
 _atom_site_fract_z
 _atom_site_occupancy
  Na  Na0  1  0.125000  0.125000  0.625000  1
  La  La1  1  0.125000  0.125000  0.125000  1
  Y  Y2  1  0.625000  0.125000  0.125000  1
  Y  Y3  1  0.125000  0.625000  0.125000  1
  Ir  Ir4  1  0.125000  0.625000  0.625000  1
  Ir  Ir5  1  0.625000  0.125000  0.625000  1
  Ir  Ir6  1  0.625000  0.625000  0.125000  1
  Ir  Ir7  1  0.625000  0.625000  0.625000  1
  O  O8  1  0.706926  0.706926  0.290628  1
  O  O9  1  0.301812  0.301812  0.696160  1
  O  O10  1  0.689272  0.301588  0.709722  1
  O  O11  1  0.295433  0.698885  0.288954  1
  O  O12  1  0.301588  0.689272  0.709722  1
  O  O13  1  0.698885  0.295433  0.288954  1
  O  O14  1  0.543074  0.543074  0.959372  1
  O  O15  1  0.948188  0.948188  0.553840  1
  O  O16  1  0.560728  0.948412  0.540278  1
  O  O17  1  0.954567  0.551115  0.961046  1
  O  O18  1  0.948412  0.560728  0.540278  1
  O  O19  1  0.551115  0.954567  0.961046  1
  O  O20  1  0.260068  0.260068  0.235721  1
  O  O21  1  0.989932  0.989932  0.014279  1
