# generated using pymatgen
data_La20Co3NiSb8
_symmetry_space_group_name_H-M   'P 1'
_cell_length_a   8.35459838
_cell_length_b   9.31095500
_cell_length_c   12.77475928
_cell_angle_alpha   90.00000000
_cell_angle_beta   90.22515937
_cell_angle_gamma   90.00000000
_symmetry_Int_Tables_number   1
_chemical_formula_structural   La20Co3NiSb8
_chemical_formula_sum   'La20 Co3 Ni1 Sb8'
_cell_volume   993.73177526
_cell_formula_units_Z   1
loop_
 _symmetry_equiv_pos_site_id
 _symmetry_equiv_pos_as_xyz
  1  'x, y, z'
loop_
 _atom_site_type_symbol
 _atom_site_label
 _atom_site_symmetry_multiplicity
 _atom_site_fract_x
 _atom_site_fract_y
 _atom_site_fract_z
 _atom_site_occupancy
  La  La0  1  0.147978  0.750000  0.200634  1
  La  La1  1  0.648578  0.250000  0.297960  1
  La  La2  1  0.851341  0.250000  0.800762  1
  La  La3  1  0.349451  0.750000  0.704028  1
  La  La4  1  0.456468  0.750000  0.996892  1
  La  La5  1  0.957372  0.250000  0.503274  1
  La  La6  1  0.547756  0.250000  0.004900  1
  La  La7  1  0.046591  0.750000  0.495796  1
  La  La8  1  0.626097  0.750000  0.302638  1
  La  La9  1  0.121795  0.250000  0.194496  1
  La  La10  1  0.374820  0.250000  0.696777  1
  La  La11  1  0.875477  0.750000  0.803466  1
  La  La12  1  0.815809  0.966608  0.062457  1
  La  La13  1  0.313940  0.039193  0.436778  1
  La  La14  1  0.184803  0.470332  0.937572  1
  La  La15  1  0.685304  0.523806  0.562246  1
  La  La16  1  0.184803  0.029668  0.937572  1
  La  La17  1  0.685304  0.976194  0.562246  1
  La  La18  1  0.815809  0.533392  0.062457  1
  La  La19  1  0.313940  0.460807  0.436778  1
  Co  Co20  1  0.918532  0.250000  0.011958  1
  Co  Co21  1  0.573603  0.250000  0.510691  1
  Co  Co22  1  0.081794  0.750000  0.987150  1
  Ni  Ni23  1  0.427885  0.750000  0.489512  1
  Sb  Sb24  1  0.924948  0.994341  0.325666  1
  Sb  Sb25  1  0.424074  0.005667  0.174204  1
  Sb  Sb26  1  0.074156  0.494509  0.674282  1
  Sb  Sb27  1  0.574195  0.505488  0.826327  1
  Sb  Sb28  1  0.074156  0.005491  0.674282  1
  Sb  Sb29  1  0.574195  0.994512  0.826327  1
  Sb  Sb30  1  0.924948  0.505659  0.325666  1
  Sb  Sb31  1  0.424074  0.494333  0.174204  1
