# generated using pymatgen
data_LaPr15(DySi4)4
_symmetry_space_group_name_H-M   'P 1'
_cell_length_a   7.83865586
_cell_length_b   7.83948239
_cell_length_c   15.35975515
_cell_angle_alpha   90.01427412
_cell_angle_beta   89.95796029
_cell_angle_gamma   89.96674666
_symmetry_Int_Tables_number   1
_chemical_formula_structural   LaPr15(DySi4)4
_chemical_formula_sum   'La1 Pr15 Dy4 Si16'
_cell_volume   943.87194160
_cell_formula_units_Z   1
loop_
 _symmetry_equiv_pos_site_id
 _symmetry_equiv_pos_as_xyz
  1  'x, y, z'
loop_
 _atom_site_type_symbol
 _atom_site_label
 _atom_site_symmetry_multiplicity
 _atom_site_fract_x
 _atom_site_fract_y
 _atom_site_fract_z
 _atom_site_occupancy
  La  La0  1  0.377359  0.014297  0.445483  1
  Pr  Pr1  1  0.487150  0.878585  0.695440  1
  Pr  Pr2  1  0.513161  0.121405  0.194929  1
  Pr  Pr3  1  0.878906  0.486615  0.304843  1
  Pr  Pr4  1  0.121255  0.513094  0.804938  1
  Pr  Pr5  1  0.621359  0.986912  0.945085  1
  Pr  Pr6  1  0.012704  0.379110  0.555069  1
  Pr  Pr7  1  0.986859  0.621263  0.054834  1
  Pr  Pr8  1  0.124971  0.975860  0.878749  1
  Pr  Pr9  1  0.524164  0.624851  0.128691  1
  Pr  Pr10  1  0.476343  0.375307  0.628992  1
  Pr  Pr11  1  0.625032  0.524271  0.871225  1
  Pr  Pr12  1  0.375251  0.476185  0.371076  1
  Pr  Pr13  1  0.874795  0.024106  0.378564  1
  Pr  Pr14  1  0.975759  0.124949  0.121141  1
  Pr  Pr15  1  0.024022  0.874662  0.621398  1
  Dy  Dy16  1  0.309524  0.309411  0.000092  1
  Dy  Dy17  1  0.190187  0.809308  0.249913  1
  Dy  Dy18  1  0.809455  0.190566  0.750026  1
  Dy  Dy19  1  0.690966  0.690062  0.500078  1
  Si  Si20  1  0.187759  0.171958  0.708836  1
  Si  Si21  1  0.327898  0.687362  0.959006  1
  Si  Si22  1  0.672719  0.312905  0.459148  1
  Si  Si23  1  0.687416  0.327958  0.041021  1
  Si  Si24  1  0.312194  0.671187  0.541206  1
  Si  Si25  1  0.812698  0.827654  0.208943  1
  Si  Si26  1  0.171835  0.187954  0.290513  1
  Si  Si27  1  0.827904  0.812637  0.791018  1
  Si  Si28  1  0.286639  0.921025  0.063508  1
  Si  Si29  1  0.579626  0.786500  0.313241  1
  Si  Si30  1  0.420797  0.213165  0.813504  1
  Si  Si31  1  0.786645  0.579024  0.686494  1
  Si  Si32  1  0.213062  0.420962  0.186337  1
  Si  Si33  1  0.713831  0.079324  0.563712  1
  Si  Si34  1  0.921040  0.286777  0.936501  1
  Si  Si35  1  0.078713  0.712790  0.436447  1
