# generated using pymatgen
data_Tb2Er4Al24GaOs7
_symmetry_space_group_name_H-M   'P 1'
_cell_length_a   8.86094100
_cell_length_b   8.85940365
_cell_length_c   9.54307548
_cell_angle_alpha   90.08483582
_cell_angle_beta   89.84817012
_cell_angle_gamma   119.89862661
_symmetry_Int_Tables_number   1
_chemical_formula_structural   Tb2Er4Al24GaOs7
_chemical_formula_sum   'Tb2 Er4 Al24 Ga1 Os7'
_cell_volume   649.44820496
_cell_formula_units_Z   1
loop_
 _symmetry_equiv_pos_site_id
 _symmetry_equiv_pos_as_xyz
  1  'x, y, z'
loop_
 _atom_site_type_symbol
 _atom_site_label
 _atom_site_symmetry_multiplicity
 _atom_site_fract_x
 _atom_site_fract_y
 _atom_site_fract_z
 _atom_site_occupancy
  Tb  Tb0  1  0.191508  0.385079  0.246067  1
  Tb  Tb1  1  0.808492  0.614921  0.753933  1
  Er  Er2  1  0.613399  0.808422  0.246618  1
  Er  Er3  1  0.386601  0.191578  0.753382  1
  Er  Er4  1  0.195351  0.804752  0.254953  1
  Er  Er5  1  0.804649  0.195248  0.745047  1
  Al  Al6  1  0.327732  0.672820  0.022836  1
  Al  Al7  1  0.672268  0.327180  0.977164  1
  Al  Al8  1  0.665780  0.333705  0.519027  1
  Al  Al9  1  0.334220  0.666295  0.480973  1
  Al  Al10  1  0.162420  0.325506  0.572447  1
  Al  Al11  1  0.837580  0.674494  0.427553  1
  Al  Al12  1  0.674381  0.837664  0.572101  1
  Al  Al13  1  0.852119  0.678727  0.082374  1
  Al  Al14  1  0.325619  0.162336  0.427899  1
  Al  Al15  1  0.147881  0.321273  0.917626  1
  Al  Al16  1  0.163133  0.837238  0.576104  1
  Al  Al17  1  0.321326  0.147526  0.081890  1
  Al  Al18  1  0.836867  0.162762  0.423896  1
  Al  Al19  1  0.678674  0.852474  0.918110  1
  Al  Al20  1  0.836401  0.162872  0.077193  1
  Al  Al21  1  0.163599  0.837128  0.922807  1
  Al  Al22  1  0.561812  0.120981  0.249458  1
  Al  Al23  1  0.438188  0.879019  0.750542  1
  Al  Al24  1  0.878422  0.438276  0.249534  1
  Al  Al25  1  0.121578  0.561724  0.750466  1
  Al  Al26  1  0.565876  0.434932  0.257892  1
  Al  Al27  1  0.434124  0.565068  0.742108  1
  Al  Al28  1  0.998489  0.000159  0.250716  1
  Al  Al29  1  0.001511  0.999841  0.749284  1
  Ga  Ga30  1  0.500000  0.500000  0.000000  1
  Os  Os31  1  0.500000  0.000000  0.000000  1
  Os  Os32  1  0.000000  0.500000  0.000000  1
  Os  Os33  1  0.500000  0.000000  0.500000  1
  Os  Os34  1  0.000000  0.500000  0.500000  1
  Os  Os35  1  0.500000  0.500000  0.500000  1
  Os  Os36  1  0.000000  0.000000  0.000000  1
  Os  Os37  1  0.000000  0.000000  0.500000  1
