# generated using pymatgen
data_Ca2Co3Si2Ni3B2
_symmetry_space_group_name_H-M   'P 1'
_cell_length_a   5.17660941
_cell_length_b   5.18013787
_cell_length_c   6.43110100
_cell_angle_alpha   90.00000000
_cell_angle_beta   90.00000000
_cell_angle_gamma   119.86720972
_symmetry_Int_Tables_number   1
_chemical_formula_structural   Ca2Co3Si2Ni3B2
_chemical_formula_sum   'Ca2 Co3 Si2 Ni3 B2'
_cell_volume   149.54856377
_cell_formula_units_Z   1
loop_
 _symmetry_equiv_pos_site_id
 _symmetry_equiv_pos_as_xyz
  1  'x, y, z'
loop_
 _atom_site_type_symbol
 _atom_site_label
 _atom_site_symmetry_multiplicity
 _atom_site_fract_x
 _atom_site_fract_y
 _atom_site_fract_z
 _atom_site_occupancy
  Ca  Ca0  1  0.000000  0.000000  0.503165  1
  Ca  Ca1  1  0.000000  0.000000  0.999104  1
  Co  Co2  1  0.500000  0.500000  0.790729  1
  Co  Co3  1  0.500000  0.000000  0.785658  1
  Co  Co4  1  0.500000  0.500000  0.210131  1
  Si  Si5  1  0.346823  0.667178  0.501223  1
  Si  Si6  1  0.653177  0.332822  0.501223  1
  Ni  Ni7  1  0.000000  0.500000  0.783492  1
  Ni  Ni8  1  0.000000  0.500000  0.217777  1
  Ni  Ni9  1  0.500000  0.000000  0.211692  1
  B  B10  1  0.660521  0.332098  0.997903  1
  B  B11  1  0.339479  0.667902  0.997903  1
