# generated using pymatgen
data_Tb2Ho3ErGaCo2
_symmetry_space_group_name_H-M   'P 1'
_cell_length_a   8.25325361
_cell_length_b   8.25325292
_cell_length_c   8.25325372
_cell_angle_alpha   106.99206826
_cell_angle_beta   109.20219533
_cell_angle_gamma   112.26295563
_symmetry_Int_Tables_number   1
_chemical_formula_structural   Tb2Ho3ErGaCo2
_chemical_formula_sum   'Tb4 Ho6 Er2 Ga2 Co4'
_cell_volume   431.83908428
_cell_formula_units_Z   2
loop_
 _symmetry_equiv_pos_site_id
 _symmetry_equiv_pos_as_xyz
  1  'x, y, z'
loop_
 _atom_site_type_symbol
 _atom_site_label
 _atom_site_symmetry_multiplicity
 _atom_site_fract_x
 _atom_site_fract_y
 _atom_site_fract_z
 _atom_site_occupancy
  Tb  Tb0  1  0.698459  0.261523  0.959992  1
  Tb  Tb1  1  0.301531  0.738467  0.040008  1
  Tb  Tb2  1  0.698459  0.738467  0.436937  1
  Tb  Tb3  1  0.301531  0.261523  0.563063  1
  Ho  Ho4  1  0.810977  0.138414  0.327438  1
  Ho  Ho5  1  0.810977  0.483540  0.672562  1
  Ho  Ho6  1  0.188986  0.861773  0.672786  1
  Ho  Ho7  1  0.188986  0.516199  0.327214  1
  Ho  Ho8  1  0.601665  0.780983  0.820682  1
  Ho  Ho9  1  0.960301  0.780983  0.179318  1
  Er  Er10  1  0.039965  0.219102  0.820862  1
  Er  Er11  1  0.398240  0.219102  0.179138  1
  Ga  Ga12  1  0.499696  0.499696  0.000000  1
  Ga  Ga13  1  0.499989  0.999989  0.500000  1
  Co  Co14  1  0.838961  0.499890  0.339071  1
  Co  Co15  1  0.160819  0.499890  0.660929  1
  Co  Co16  1  0.000229  0.115301  0.115072  1
  Co  Co17  1  0.000229  0.885157  0.884928  1
