# generated using pymatgen
data_DyY5Al20(SiOs2)4
_symmetry_space_group_name_H-M   'P 1'
_cell_length_a   8.70090600
_cell_length_b   8.70084087
_cell_length_c   9.63676100
_cell_angle_alpha   90.00000000
_cell_angle_beta   90.00000000
_cell_angle_gamma   120.00024003
_symmetry_Int_Tables_number   1
_chemical_formula_structural   DyY5Al20(SiOs2)4
_chemical_formula_sum   'Dy1 Y5 Al20 Si4 Os8'
_cell_volume   631.80982051
_cell_formula_units_Z   1
loop_
 _symmetry_equiv_pos_site_id
 _symmetry_equiv_pos_as_xyz
  1  'x, y, z'
loop_
 _atom_site_type_symbol
 _atom_site_label
 _atom_site_symmetry_multiplicity
 _atom_site_fract_x
 _atom_site_fract_y
 _atom_site_fract_z
 _atom_site_occupancy
  Dy  Dy0  1  0.195499  0.390999  0.250000  1
  Y  Y1  1  0.804536  0.609072  0.750000  1
  Y  Y2  1  0.608995  0.804467  0.250000  1
  Y  Y3  1  0.390948  0.195460  0.750000  1
  Y  Y4  1  0.195473  0.804467  0.250000  1
  Y  Y5  1  0.804512  0.195460  0.750000  1
  Al  Al6  1  0.165021  0.330041  0.576726  1
  Al  Al7  1  0.834976  0.669952  0.423208  1
  Al  Al8  1  0.669975  0.834981  0.576796  1
  Al  Al9  1  0.834976  0.669952  0.076792  1
  Al  Al10  1  0.330003  0.165058  0.423150  1
  Al  Al11  1  0.165021  0.330041  0.923274  1
  Al  Al12  1  0.165006  0.834981  0.576796  1
  Al  Al13  1  0.330003  0.165058  0.076850  1
  Al  Al14  1  0.835055  0.165058  0.423150  1
  Al  Al15  1  0.669975  0.834981  0.923204  1
  Al  Al16  1  0.835055  0.165058  0.076850  1
  Al  Al17  1  0.165006  0.834981  0.923204  1
  Al  Al18  1  0.563770  0.127538  0.250000  1
  Al  Al19  1  0.436238  0.872477  0.750000  1
  Al  Al20  1  0.872517  0.436213  0.250000  1
  Al  Al21  1  0.127510  0.563761  0.750000  1
  Al  Al22  1  0.563697  0.436213  0.250000  1
  Al  Al23  1  0.436250  0.563761  0.750000  1
  Al  Al24  1  0.000108  0.000216  0.250000  1
  Al  Al25  1  0.999997  0.999994  0.750000  1
  Si  Si26  1  0.333295  0.666591  0.036723  1
  Si  Si27  1  0.666671  0.333341  0.963371  1
  Si  Si28  1  0.666671  0.333341  0.536629  1
  Si  Si29  1  0.333295  0.666591  0.463277  1
  Os  Os30  1  0.499996  0.999992  0.999984  1
  Os  Os31  1  0.000053  0.499990  0.000066  1
  Os  Os32  1  0.499996  0.999992  0.500016  1
  Os  Os33  1  0.499937  0.499990  0.000066  1
  Os  Os34  1  0.000053  0.499990  0.499934  1
  Os  Os35  1  0.499937  0.499990  0.499934  1
  Os  Os36  1  0.999988  0.999977  0.999962  1
  Os  Os37  1  0.999988  0.999977  0.500038  1
