# generated using pymatgen
data_Lu4HfTiPb5
_symmetry_space_group_name_H-M   'P 1'
_cell_length_a   6.14756419
_cell_length_b   9.25625095
_cell_length_c   11.31847341
_cell_angle_alpha   114.01308025
_cell_angle_beta   105.57893094
_cell_angle_gamma   90.41667161
_symmetry_Int_Tables_number   1
_chemical_formula_structural   Lu4HfTiPb5
_chemical_formula_sum   'Lu8 Hf2 Ti2 Pb10'
_cell_volume   561.70919088
_cell_formula_units_Z   2
loop_
 _symmetry_equiv_pos_site_id
 _symmetry_equiv_pos_as_xyz
  1  'x, y, z'
loop_
 _atom_site_type_symbol
 _atom_site_label
 _atom_site_symmetry_multiplicity
 _atom_site_fract_x
 _atom_site_fract_y
 _atom_site_fract_z
 _atom_site_occupancy
  Lu  Lu0  1  0.438362  0.670598  0.877170  1
  Lu  Lu1  1  0.561638  0.329402  0.122830  1
  Lu  Lu2  1  0.938804  0.206512  0.877173  1
  Lu  Lu3  1  0.061196  0.793488  0.122827  1
  Lu  Lu4  1  0.146759  0.257316  0.293523  1
  Lu  Lu5  1  0.853241  0.742684  0.706477  1
  Lu  Lu6  1  0.646685  0.036148  0.293413  1
  Lu  Lu7  1  0.353315  0.963852  0.706587  1
  Hf  Hf8  1  0.944273  0.694289  0.388652  1
  Hf  Hf9  1  0.055727  0.305711  0.611348  1
  Ti  Ti10  1  0.556449  0.306575  0.613049  1
  Ti  Ti11  1  0.443551  0.693425  0.386951  1
  Pb  Pb12  1  0.294435  0.590275  0.579546  1
  Pb  Pb13  1  0.705565  0.409725  0.420454  1
  Pb  Pb14  1  0.785108  0.989259  0.579594  1
  Pb  Pb15  1  0.214892  0.010741  0.420406  1
  Pb  Pb16  1  0.249486  0.999572  0.999179  1
  Pb  Pb17  1  0.750514  0.000428  0.000821  1
  Pb  Pb18  1  0.080963  0.474559  0.154185  1
  Pb  Pb19  1  0.919037  0.525441  0.845815  1
  Pb  Pb20  1  0.573208  0.679605  0.154245  1
  Pb  Pb21  1  0.426792  0.320395  0.845755  1
