# generated using pymatgen
data_Ac10Yb9HoSn16
_symmetry_space_group_name_H-M   'P 1'
_cell_length_a   8.24911989
_cell_length_b   8.75346836
_cell_length_c   16.61716800
_cell_angle_alpha   89.97887114
_cell_angle_beta   90.03879165
_cell_angle_gamma   90.08985778
_symmetry_Int_Tables_number   1
_chemical_formula_structural   Ac10Yb9HoSn16
_chemical_formula_sum   'Ac10 Yb9 Ho1 Sn16'
_cell_volume   1199.89744712
_cell_formula_units_Z   1
loop_
 _symmetry_equiv_pos_site_id
 _symmetry_equiv_pos_as_xyz
  1  'x, y, z'
loop_
 _atom_site_type_symbol
 _atom_site_label
 _atom_site_symmetry_multiplicity
 _atom_site_fract_x
 _atom_site_fract_y
 _atom_site_fract_z
 _atom_site_occupancy
  Ac  Ac0  1  0.502028  0.816623  0.907239  1
  Ac  Ac1  1  0.000413  0.683373  0.592414  1
  Ac  Ac2  1  0.500411  0.181797  0.403647  1
  Ac  Ac3  1  0.998819  0.320705  0.096736  1
  Ac  Ac4  1  0.496660  0.183099  0.097996  1
  Ac  Ac5  1  0.994932  0.318674  0.401791  1
  Ac  Ac6  1  0.501687  0.815502  0.593350  1
  Ac  Ac7  1  0.000671  0.684942  0.906696  1
  Ac  Ac8  1  0.665381  0.326191  0.878238  1
  Ac  Ac9  1  0.164847  0.172754  0.621231  1
  Yb  Yb10  1  0.338041  0.669116  0.373315  1
  Yb  Yb11  1  0.838106  0.828463  0.127612  1
  Yb  Yb12  1  0.332040  0.669045  0.125672  1
  Yb  Yb13  1  0.832423  0.828794  0.373331  1
  Yb  Yb14  1  0.663397  0.330035  0.622180  1
  Yb  Yb15  1  0.164311  0.169374  0.878535  1
  Yb  Yb16  1  0.331792  0.502942  0.751126  1
  Yb  Yb17  1  0.832497  0.997592  0.748759  1
  Yb  Yb18  1  0.670021  0.504877  0.250414  1
  Ho  Ho19  1  0.173390  0.993567  0.249501  1
  Sn  Sn20  1  0.169735  0.963143  0.044451  1
  Sn  Sn21  1  0.669488  0.541203  0.459516  1
  Sn  Sn22  1  0.821275  0.036867  0.535063  1
  Sn  Sn23  1  0.322242  0.464218  0.964253  1
  Sn  Sn24  1  0.837700  0.032501  0.966063  1
  Sn  Sn25  1  0.336697  0.467938  0.534604  1
  Sn  Sn26  1  0.167788  0.959942  0.452056  1
  Sn  Sn27  1  0.667007  0.544243  0.044244  1
  Sn  Sn28  1  0.706362  0.636699  0.749187  1
  Sn  Sn29  1  0.205014  0.863359  0.750771  1
  Sn  Sn30  1  0.290859  0.360628  0.250463  1
  Sn  Sn31  1  0.800175  0.127724  0.249481  1
  Sn  Sn32  1  0.463113  0.101678  0.752861  1
  Sn  Sn33  1  0.963135  0.396571  0.747458  1
  Sn  Sn34  1  0.535727  0.888422  0.248480  1
  Sn  Sn35  1  0.041816  0.617398  0.251266  1
