# generated using pymatgen
data_Ta2Zn3AgRu4
_symmetry_space_group_name_H-M   'P 1'
_cell_length_a   3.15582600
_cell_length_b   3.15582600
_cell_length_c   15.25684400
_cell_angle_alpha   90.00000000
_cell_angle_beta   90.00000000
_cell_angle_gamma   90.00000000
_symmetry_Int_Tables_number   1
_chemical_formula_structural   Ta2Zn3AgRu4
_chemical_formula_sum   'Ta2 Zn3 Ag1 Ru4'
_cell_volume   151.94653659
_cell_formula_units_Z   1
loop_
 _symmetry_equiv_pos_site_id
 _symmetry_equiv_pos_as_xyz
  1  'x, y, z'
loop_
 _atom_site_type_symbol
 _atom_site_label
 _atom_site_symmetry_multiplicity
 _atom_site_fract_x
 _atom_site_fract_y
 _atom_site_fract_z
 _atom_site_occupancy
  Ta  Ta0  1  0.000000  0.000000  0.302813  1
  Ta  Ta1  1  0.000000  0.000000  0.697187  1
  Zn  Zn2  1  0.000000  0.000000  0.892737  1
  Zn  Zn3  1  0.000000  0.000000  0.107263  1
  Zn  Zn4  1  0.000000  0.000000  0.500000  1
  Ag  Ag5  1  0.500000  0.500000  0.000000  1
  Ru  Ru6  1  0.500000  0.500000  0.202748  1
  Ru  Ru7  1  0.500000  0.500000  0.403711  1
  Ru  Ru8  1  0.500000  0.500000  0.596289  1
  Ru  Ru9  1  0.500000  0.500000  0.797252  1
