# generated using pymatgen
data_Tb3Hg2BiO8
_symmetry_space_group_name_H-M   'P 1'
_cell_length_a   7.24439764
_cell_length_b   7.24439907
_cell_length_c   10.13835524
_cell_angle_alpha   59.09646624
_cell_angle_beta   59.09646091
_cell_angle_gamma   29.66959735
_symmetry_Int_Tables_number   1
_chemical_formula_structural   Tb3Hg2BiO8
_chemical_formula_sum   'Tb3 Hg2 Bi1 O8'
_cell_volume   223.12682135
_cell_formula_units_Z   1
loop_
 _symmetry_equiv_pos_site_id
 _symmetry_equiv_pos_as_xyz
  1  'x, y, z'
loop_
 _atom_site_type_symbol
 _atom_site_label
 _atom_site_symmetry_multiplicity
 _atom_site_fract_x
 _atom_site_fract_y
 _atom_site_fract_z
 _atom_site_occupancy
  Tb  Tb0  1  0.618374  0.618374  0.537305  1
  Tb  Tb1  1  0.159000  0.159000  0.201291  1
  Tb  Tb2  1  0.841944  0.841944  0.802963  1
  Hg  Hg3  1  0.886519  0.886519  0.157839  1
  Hg  Hg4  1  0.116146  0.116146  0.839138  1
  Bi  Bi5  1  0.382559  0.382559  0.463471  1
  O  O6  1  0.217810  0.217810  0.387457  1
  O  O7  1  0.793371  0.793371  0.058875  1
  O  O8  1  0.034442  0.034442  0.722366  1
  O  O9  1  0.580145  0.580145  0.346632  1
  O  O10  1  0.421483  0.421483  0.654116  1
  O  O11  1  0.972028  0.972028  0.266962  1
  O  O12  1  0.209626  0.209626  0.939350  1
  O  O13  1  0.766555  0.766555  0.622234  1
