# generated using pymatgen
data_Cs17RbBi6
_symmetry_space_group_name_H-M   'P 1'
_cell_length_a   11.77881087
_cell_length_b   11.77817716
_cell_length_c   12.06808108
_cell_angle_alpha   90.00328821
_cell_angle_beta   89.99841450
_cell_angle_gamma   119.98705280
_symmetry_Int_Tables_number   1
_chemical_formula_structural   Cs17RbBi6
_chemical_formula_sum   'Cs17 Rb1 Bi6'
_cell_volume   1450.12362006
_cell_formula_units_Z   1
loop_
 _symmetry_equiv_pos_site_id
 _symmetry_equiv_pos_as_xyz
  1  'x, y, z'
loop_
 _atom_site_type_symbol
 _atom_site_label
 _atom_site_symmetry_multiplicity
 _atom_site_fract_x
 _atom_site_fract_y
 _atom_site_fract_z
 _atom_site_occupancy
  Cs  Cs0  1  0.333173  0.666505  0.226937  1
  Cs  Cs1  1  0.666746  0.333409  0.729174  1
  Cs  Cs2  1  0.333414  0.666741  0.729119  1
  Cs  Cs3  1  0.666504  0.333201  0.226981  1
  Cs  Cs4  1  0.354734  0.354743  0.418144  1
  Cs  Cs5  1  0.649819  0.649843  0.919053  1
  Cs  Cs6  1  0.645328  0.999995  0.418091  1
  Cs  Cs7  1  0.000030  0.645344  0.418121  1
  Cs  Cs8  1  0.000018  0.350229  0.919020  1
  Cs  Cs9  1  0.350228  0.999996  0.919054  1
  Cs  Cs10  1  0.307656  0.307660  0.082827  1
  Cs  Cs11  1  0.690274  0.690271  0.582464  1
  Cs  Cs12  1  0.692377  0.000014  0.082811  1
  Cs  Cs13  1  0.999973  0.692319  0.082840  1
  Cs  Cs14  1  0.999989  0.309843  0.582350  1
  Cs  Cs15  1  0.309917  0.000021  0.582381  1
  Cs  Cs16  1  0.999844  0.999835  0.295721  1
  Rb  Rb17  1  0.000118  0.000094  0.775850  1
  Bi  Bi18  1  0.327152  0.327128  0.751425  1
  Bi  Bi19  1  0.668434  0.668441  0.251670  1
  Bi  Bi20  1  0.673230  0.000099  0.751352  1
  Bi  Bi21  1  0.000115  0.673213  0.751394  1
  Bi  Bi22  1  0.999824  0.331238  0.251604  1
  Bi  Bi23  1  0.331205  0.999815  0.251619  1
