# generated using pymatgen
data_Yb4TmSn3H
_symmetry_space_group_name_H-M   'P 1'
_cell_length_a   9.33703340
_cell_length_b   9.32070225
_cell_length_c   9.33875703
_cell_angle_alpha   129.02390993
_cell_angle_beta   128.98081378
_cell_angle_gamma   74.95162680
_symmetry_Int_Tables_number   1
_chemical_formula_structural   Yb4TmSn3H
_chemical_formula_sum   'Yb8 Tm2 Sn6 H2'
_cell_volume   478.12827116
_cell_formula_units_Z   2
loop_
 _symmetry_equiv_pos_site_id
 _symmetry_equiv_pos_as_xyz
  1  'x, y, z'
loop_
 _atom_site_type_symbol
 _atom_site_label
 _atom_site_symmetry_multiplicity
 _atom_site_fract_x
 _atom_site_fract_y
 _atom_site_fract_z
 _atom_site_occupancy
  Yb  Yb0  1  0.001286  0.998209  0.000962  1
  Yb  Yb1  1  0.184708  0.684694  0.172948  1
  Yb  Yb2  1  0.007737  0.184712  0.497994  1
  Yb  Yb3  1  0.686051  0.508776  0.499712  1
  Yb  Yb4  1  0.489805  0.989460  0.176946  1
  Yb  Yb5  1  0.812881  0.313313  0.822626  1
  Yb  Yb6  1  0.988454  0.813012  0.499240  1
  Yb  Yb7  1  0.313863  0.489036  0.500236  1
  Tm  Tm8  1  0.497459  0.501337  0.000559  1
  Tm  Tm9  1  0.511764  0.014116  0.823702  1
  Sn  Sn10  1  0.260436  0.247308  0.995002  1
  Sn  Sn11  1  0.740587  0.752001  0.995432  1
  Sn  Sn12  1  0.861966  0.370753  0.233414  1
  Sn  Sn13  1  0.131314  0.621710  0.755131  1
  Sn  Sn14  1  0.373402  0.132997  0.512278  1
  Sn  Sn15  1  0.624374  0.864880  0.495900  1
  H  H16  1  0.263822  0.763807  0.515903  1
  H  H17  1  0.750091  0.249879  0.502016  1
