# generated using pymatgen
data_Ho6FeCo15(MoP6)2
_symmetry_space_group_name_H-M   'P 1'
_cell_length_a   3.71672400
_cell_length_b   10.57104500
_cell_length_c   12.22172800
_cell_angle_alpha   90.00000000
_cell_angle_beta   90.00000000
_cell_angle_gamma   90.00000000
_symmetry_Int_Tables_number   1
_chemical_formula_structural   Ho6FeCo15(MoP6)2
_chemical_formula_sum   'Ho6 Fe1 Co15 Mo2 P12'
_cell_volume   480.18749687
_cell_formula_units_Z   1
loop_
 _symmetry_equiv_pos_site_id
 _symmetry_equiv_pos_as_xyz
  1  'x, y, z'
loop_
 _atom_site_type_symbol
 _atom_site_label
 _atom_site_symmetry_multiplicity
 _atom_site_fract_x
 _atom_site_fract_y
 _atom_site_fract_z
 _atom_site_occupancy
  Ho  Ho0  1  0.000000  0.500000  0.524617  1
  Ho  Ho1  1  0.500000  0.000000  0.475307  1
  Ho  Ho2  1  0.500000  0.818414  0.204517  1
  Ho  Ho3  1  0.500000  0.181586  0.204517  1
  Ho  Ho4  1  0.000000  0.680007  0.795862  1
  Ho  Ho5  1  0.000000  0.319993  0.795862  1
  Fe  Fe6  1  0.000000  0.500000  0.986265  1
  Co  Co7  1  0.500000  0.000000  0.014047  1
  Co  Co8  1  0.500000  0.295532  0.431881  1
  Co  Co9  1  0.500000  0.704468  0.431881  1
  Co  Co10  1  0.000000  0.204441  0.568798  1
  Co  Co11  1  0.000000  0.795559  0.568798  1
  Co  Co12  1  0.500000  0.878281  0.706430  1
  Co  Co13  1  0.500000  0.121719  0.706430  1
  Co  Co14  1  0.000000  0.622306  0.293428  1
  Co  Co15  1  0.000000  0.377694  0.293428  1
  Co  Co16  1  0.500000  0.330440  0.990904  1
  Co  Co17  1  0.500000  0.669560  0.990904  1
  Co  Co18  1  0.000000  0.166950  0.009335  1
  Co  Co19  1  0.000000  0.833050  0.009335  1
  Co  Co20  1  0.500000  0.500000  0.700166  1
  Co  Co21  1  0.000000  0.000000  0.299228  1
  Mo  Mo22  1  0.500000  0.500000  0.156113  1
  Mo  Mo23  1  0.000000  0.000000  0.843342  1
  P  P24  1  0.500000  0.311035  0.616364  1
  P  P25  1  0.500000  0.688965  0.616364  1
  P  P26  1  0.000000  0.188900  0.383897  1
  P  P27  1  0.000000  0.811100  0.383897  1
  P  P28  1  0.500000  0.500000  0.882471  1
  P  P29  1  0.000000  0.000000  0.119348  1
  P  P30  1  0.500000  0.844531  0.892598  1
  P  P31  1  0.500000  0.155469  0.892598  1
  P  P32  1  0.000000  0.654667  0.105719  1
  P  P33  1  0.000000  0.345333  0.105719  1
  P  P34  1  0.500000  0.500000  0.349536  1
  P  P35  1  0.000000  0.000000  0.650091  1
