# generated using pymatgen
data_Tb2U(SnIr)3
_symmetry_space_group_name_H-M   'P 1'
_cell_length_a   7.43802548
_cell_length_b   7.59063597
_cell_length_c   3.96979800
_cell_angle_alpha   90.00000000
_cell_angle_beta   90.00000000
_cell_angle_gamma   120.68107816
_symmetry_Int_Tables_number   1
_chemical_formula_structural   Tb2U(SnIr)3
_chemical_formula_sum   'Tb2 U1 Sn3 Ir3'
_cell_volume   192.75835239
_cell_formula_units_Z   1
loop_
 _symmetry_equiv_pos_site_id
 _symmetry_equiv_pos_as_xyz
  1  'x, y, z'
loop_
 _atom_site_type_symbol
 _atom_site_label
 _atom_site_symmetry_multiplicity
 _atom_site_fract_x
 _atom_site_fract_y
 _atom_site_fract_z
 _atom_site_occupancy
  Tb  Tb0  1  0.406835  0.405724  0.500000  1
  Tb  Tb1  1  0.593165  0.998889  0.500000  1
  U  U2  1  0.000000  0.585026  0.500000  1
  Sn  Sn3  1  0.730837  0.743503  0.000000  1
  Sn  Sn4  1  0.269163  0.012666  0.000000  1
  Sn  Sn5  1  0.000000  0.243757  0.000000  1
  Ir  Ir6  1  0.702157  0.365072  0.000000  1
  Ir  Ir7  1  0.297843  0.662916  0.000000  1
  Ir  Ir8  1  0.000000  0.982446  0.500000  1
