# generated using pymatgen
data_La16MgHg3Os4
_symmetry_space_group_name_H-M   'P 1'
_cell_length_a   10.06676416
_cell_length_b   10.10055493
_cell_length_c   10.10055600
_cell_angle_alpha   59.99999651
_cell_angle_beta   59.88889658
_cell_angle_gamma   59.88890339
_symmetry_Int_Tables_number   1
_chemical_formula_structural   La16MgHg3Os4
_chemical_formula_sum   'La16 Mg1 Hg3 Os4'
_cell_volume   724.99340429
_cell_formula_units_Z   1
loop_
 _symmetry_equiv_pos_site_id
 _symmetry_equiv_pos_as_xyz
  1  'x, y, z'
loop_
 _atom_site_type_symbol
 _atom_site_label
 _atom_site_symmetry_multiplicity
 _atom_site_fract_x
 _atom_site_fract_y
 _atom_site_fract_z
 _atom_site_occupancy
  La  La0  1  0.595130  0.595149  0.595149  1
  La  La1  1  0.595130  0.595149  0.214572  1
  La  La2  1  0.595130  0.214572  0.595149  1
  La  La3  1  0.207249  0.597584  0.597584  1
  La  La4  1  0.058218  0.441046  0.441046  1
  La  La5  1  0.436524  0.062414  0.062414  1
  La  La6  1  0.436524  0.062414  0.438648  1
  La  La7  1  0.058218  0.441046  0.059690  1
  La  La8  1  0.436524  0.438648  0.062414  1
  La  La9  1  0.058218  0.059690  0.441046  1
  La  La10  1  0.192384  0.808274  0.808274  1
  La  La11  1  0.806653  0.192917  0.192917  1
  La  La12  1  0.806653  0.192917  0.807514  1
  La  La13  1  0.192384  0.808274  0.191067  1
  La  La14  1  0.806653  0.807514  0.192917  1
  La  La15  1  0.192384  0.191067  0.808274  1
  Mg  Mg16  1  0.540134  0.819956  0.819956  1
  Hg  Hg17  1  0.830150  0.835302  0.835302  1
  Hg  Hg18  1  0.830150  0.835302  0.499247  1
  Hg  Hg19  1  0.830150  0.499247  0.835302  1
  Os  Os20  1  0.386565  0.387898  0.387898  1
  Os  Os21  1  0.386565  0.387898  0.837638  1
  Os  Os22  1  0.386565  0.837638  0.387898  1
  Os  Os23  1  0.835743  0.388085  0.388085  1
