# generated using pymatgen
data_BiPt4AuSe6
_symmetry_space_group_name_H-M   'P 1'
_cell_length_a   7.58101300
_cell_length_b   7.58101302
_cell_length_c   5.32173500
_cell_angle_alpha   90.00000000
_cell_angle_beta   90.00000000
_cell_angle_gamma   120.00001301
_symmetry_Int_Tables_number   1
_chemical_formula_structural   BiPt4AuSe6
_chemical_formula_sum   'Bi1 Pt4 Au1 Se6'
_cell_volume   264.87337376
_cell_formula_units_Z   1
loop_
 _symmetry_equiv_pos_site_id
 _symmetry_equiv_pos_as_xyz
  1  'x, y, z'
loop_
 _atom_site_type_symbol
 _atom_site_label
 _atom_site_symmetry_multiplicity
 _atom_site_fract_x
 _atom_site_fract_y
 _atom_site_fract_z
 _atom_site_occupancy
  Bi  Bi0  1  0.333333  0.666667  0.692593  1
  Pt  Pt1  1  0.000000  0.000000  0.992903  1
  Pt  Pt2  1  0.503720  0.496280  0.001381  1
  Pt  Pt3  1  0.992562  0.496280  0.001381  1
  Pt  Pt4  1  0.503720  0.007438  0.001381  1
  Au  Au5  1  0.666667  0.333333  0.344349  1
  Se  Se6  1  0.826956  0.653912  0.755948  1
  Se  Se7  1  0.826956  0.173044  0.755948  1
  Se  Se8  1  0.346088  0.173044  0.755948  1
  Se  Se9  1  0.169489  0.338978  0.232722  1
  Se  Se10  1  0.169489  0.830511  0.232722  1
  Se  Se11  1  0.661022  0.830511  0.232722  1
