# generated using pymatgen
data_TaNb(SiTc)2
_symmetry_space_group_name_H-M   'P 1'
_cell_length_a   3.28781000
_cell_length_b   6.89646174
_cell_length_c   11.88413717
_cell_angle_alpha   89.83684010
_cell_angle_beta   90.00000000
_cell_angle_gamma   90.00000000
_symmetry_Int_Tables_number   1
_chemical_formula_structural   TaNb(SiTc)2
_chemical_formula_sum   'Ta3 Nb3 Si6 Tc6'
_cell_volume   269.46287423
_cell_formula_units_Z   3
loop_
 _symmetry_equiv_pos_site_id
 _symmetry_equiv_pos_as_xyz
  1  'x, y, z'
loop_
 _atom_site_type_symbol
 _atom_site_label
 _atom_site_symmetry_multiplicity
 _atom_site_fract_x
 _atom_site_fract_y
 _atom_site_fract_z
 _atom_site_occupancy
  Ta  Ta0  1  0.500000  0.297468  0.299432  1
  Ta  Ta1  1  0.500000  0.298385  0.700232  1
  Ta  Ta2  1  0.500000  0.798942  0.199443  1
  Nb  Nb3  1  0.500000  0.405000  0.000443  1
  Nb  Nb4  1  0.500000  0.902937  0.500960  1
  Nb  Nb5  1  0.500000  0.796876  0.799597  1
  Si  Si6  1  0.000000  0.996935  0.667148  1
  Si  Si7  1  0.000000  0.498810  0.165915  1
  Si  Si8  1  0.000000  0.500414  0.834164  1
  Si  Si9  1  0.000000  0.997470  0.334719  1
  Si  Si10  1  0.500000  0.004404  0.998995  1
  Si  Si11  1  0.500000  0.502081  0.499120  1
  Tc  Tc12  1  0.000000  0.744583  0.001808  1
  Tc  Tc13  1  0.000000  0.244909  0.500242  1
  Tc  Tc14  1  0.000000  0.623819  0.628869  1
  Tc  Tc15  1  0.000000  0.128327  0.132397  1
  Tc  Tc16  1  0.000000  0.132417  0.867771  1
  Tc  Tc17  1  0.000000  0.626420  0.368746  1
