# generated using pymatgen
data_TbPr(Ga3Pd)2
_symmetry_space_group_name_H-M   'P 1'
_cell_length_a   6.08492803
_cell_length_b   6.08492740
_cell_length_c   5.86214800
_cell_angle_alpha   90.00000000
_cell_angle_beta   90.00000000
_cell_angle_gamma   116.50286043
_symmetry_Int_Tables_number   1
_chemical_formula_structural   TbPr(Ga3Pd)2
_chemical_formula_sum   'Tb1 Pr1 Ga6 Pd2'
_cell_volume   194.24417252
_cell_formula_units_Z   1
loop_
 _symmetry_equiv_pos_site_id
 _symmetry_equiv_pos_as_xyz
  1  'x, y, z'
loop_
 _atom_site_type_symbol
 _atom_site_label
 _atom_site_symmetry_multiplicity
 _atom_site_fract_x
 _atom_site_fract_y
 _atom_site_fract_z
 _atom_site_occupancy
  Tb  Tb0  1  0.767450  0.232550  0.250000  1
  Pr  Pr1  1  0.234724  0.765276  0.750000  1
  Ga  Ga2  1  0.665395  0.334605  0.750000  1
  Ga  Ga3  1  0.334712  0.665288  0.250000  1
  Ga  Ga4  1  0.716449  0.716756  0.000386  1
  Ga  Ga5  1  0.716449  0.716756  0.499614  1
  Ga  Ga6  1  0.283244  0.283551  0.000386  1
  Ga  Ga7  1  0.283244  0.283551  0.499614  1
  Pd  Pd8  1  0.902695  0.097305  0.750000  1
  Pd  Pd9  1  0.095636  0.904364  0.250000  1
