# generated using pymatgen
data_Er8Cu3Si12Pd
_symmetry_space_group_name_H-M   'P 1'
_cell_length_a   7.99999600
_cell_length_b   7.99999620
_cell_length_c   8.00335000
_cell_angle_alpha   90.00000000
_cell_angle_beta   90.00000000
_cell_angle_gamma   119.99999916
_symmetry_Int_Tables_number   1
_chemical_formula_structural   Er8Cu3Si12Pd
_chemical_formula_sum   'Er8 Cu3 Si12 Pd1'
_cell_volume   443.59025396
_cell_formula_units_Z   1
loop_
 _symmetry_equiv_pos_site_id
 _symmetry_equiv_pos_as_xyz
  1  'x, y, z'
loop_
 _atom_site_type_symbol
 _atom_site_label
 _atom_site_symmetry_multiplicity
 _atom_site_fract_x
 _atom_site_fract_y
 _atom_site_fract_z
 _atom_site_occupancy
  Er  Er0  1  0.501042  0.002084  0.249072  1
  Er  Er1  1  0.500112  0.000223  0.750564  1
  Er  Er2  1  0.997916  0.498958  0.249072  1
  Er  Er3  1  0.999777  0.499888  0.750564  1
  Er  Er4  1  0.501042  0.498958  0.249072  1
  Er  Er5  1  0.500112  0.499888  0.750564  1
  Er  Er6  1  0.000000  0.000000  0.248787  1
  Er  Er7  1  0.000000  0.000000  0.750636  1
  Cu  Cu8  1  0.333333  0.666667  0.003066  1
  Cu  Cu9  1  0.666667  0.333333  0.001054  1
  Cu  Cu10  1  0.666667  0.333333  0.501381  1
  Si  Si11  1  0.169444  0.338889  0.999582  1
  Si  Si12  1  0.831083  0.662166  0.999882  1
  Si  Si13  1  0.661111  0.830556  0.999582  1
  Si  Si14  1  0.831185  0.662370  0.500235  1
  Si  Si15  1  0.337834  0.168917  0.999882  1
  Si  Si16  1  0.165856  0.331712  0.499513  1
  Si  Si17  1  0.169444  0.830556  0.999582  1
  Si  Si18  1  0.337630  0.168815  0.500235  1
  Si  Si19  1  0.831083  0.168917  0.999882  1
  Si  Si20  1  0.668288  0.834144  0.499513  1
  Si  Si21  1  0.831185  0.168815  0.500235  1
  Si  Si22  1  0.165856  0.834144  0.499513  1
  Pd  Pd23  1  0.333333  0.666667  0.498534  1
