# generated using pymatgen
data_K2Si(TeO4)3
_symmetry_space_group_name_H-M   'P 1'
_cell_length_a   6.92204036
_cell_length_b   6.92203997
_cell_length_c   6.92204015
_cell_angle_alpha   62.46344925
_cell_angle_beta   62.46345048
_cell_angle_gamma   62.46345140
_symmetry_Int_Tables_number   1
_chemical_formula_structural   K2Si(TeO4)3
_chemical_formula_sum   'K2 Si1 Te3 O12'
_cell_volume   247.40260420
_cell_formula_units_Z   1
loop_
 _symmetry_equiv_pos_site_id
 _symmetry_equiv_pos_as_xyz
  1  'x, y, z'
loop_
 _atom_site_type_symbol
 _atom_site_label
 _atom_site_symmetry_multiplicity
 _atom_site_fract_x
 _atom_site_fract_y
 _atom_site_fract_z
 _atom_site_occupancy
  K  K0  1  0.367425  0.367425  0.367425  1
  K  K1  1  0.632575  0.632575  0.632575  1
  Si  Si2  1  0.000000  0.000000  0.000000  1
  Te  Te3  1  0.500000  0.000000  0.000000  1
  Te  Te4  1  0.000000  0.000000  0.500000  1
  Te  Te5  1  0.000000  0.500000  0.000000  1
  O  O6  1  0.934479  0.333297  0.333297  1
  O  O7  1  0.302580  0.934918  0.934918  1
  O  O8  1  0.333297  0.333297  0.934479  1
  O  O9  1  0.934918  0.934918  0.302580  1
  O  O10  1  0.934918  0.302580  0.934918  1
  O  O11  1  0.333297  0.934479  0.333297  1
  O  O12  1  0.065521  0.666703  0.666703  1
  O  O13  1  0.697420  0.065082  0.065082  1
  O  O14  1  0.666703  0.666703  0.065521  1
  O  O15  1  0.065082  0.065082  0.697420  1
  O  O16  1  0.065082  0.697420  0.065082  1
  O  O17  1  0.666703  0.065521  0.666703  1
