# generated using pymatgen
data_Sr14HgBi11
_symmetry_space_group_name_H-M   'P 1'
_cell_length_a   17.42021604
_cell_length_b   17.42021590
_cell_length_c   17.42021600
_cell_angle_alpha   117.53088632
_cell_angle_beta   117.53088608
_cell_angle_gamma   94.33262965
_symmetry_Int_Tables_number   1
_chemical_formula_structural   Sr14HgBi11
_chemical_formula_sum   'Sr56 Hg4 Bi44'
_cell_volume   3865.60386945
_cell_formula_units_Z   4
loop_
 _symmetry_equiv_pos_site_id
 _symmetry_equiv_pos_as_xyz
  1  'x, y, z'
loop_
 _atom_site_type_symbol
 _atom_site_label
 _atom_site_symmetry_multiplicity
 _atom_site_fract_x
 _atom_site_fract_y
 _atom_site_fract_z
 _atom_site_occupancy
  Sr  Sr0  1  0.499225  0.601554  0.850580  1
  Sr  Sr1  1  0.625000  0.228282  0.103282  1
  Sr  Sr2  1  0.161234  0.028640  0.782266  1
  Sr  Sr3  1  0.897089  0.377226  0.838942  1
  Sr  Sr4  1  0.125000  0.021718  0.396718  1
  Sr  Sr5  1  0.771718  0.875000  0.396718  1
  Sr  Sr6  1  0.128968  0.411234  0.632595  1
  Sr  Sr7  1  0.750974  0.648645  0.149420  1
  Sr  Sr8  1  0.711716  0.372774  0.019863  1
  Sr  Sr9  1  0.441852  0.961716  0.838942  1
  Sr  Sr10  1  0.308148  0.288284  0.661058  1
  Sr  Sr11  1  0.038284  0.877226  0.480137  1
  Sr  Sr12  1  0.499026  0.148446  0.397671  1
  Sr  Sr13  1  0.351554  0.000974  0.602329  1
  Sr  Sr14  1  0.125000  0.521718  0.896718  1
  Sr  Sr15  1  0.999026  0.601355  0.350580  1
  Sr  Sr16  1  0.941852  0.102911  0.480137  1
  Sr  Sr17  1  0.627226  0.647089  0.338942  1
  Sr  Sr18  1  0.898446  0.000775  0.149420  1
  Sr  Sr19  1  0.352911  0.691852  0.980137  1
  Sr  Sr20  1  0.122774  0.602911  0.161058  1
  Sr  Sr21  1  0.999225  0.148645  0.897671  1
  Sr  Sr22  1  0.661234  0.878968  0.132595  1
  Sr  Sr23  1  0.503627  0.871032  0.282266  1
  Sr  Sr24  1  0.852911  0.872774  0.661058  1
  Sr  Sr25  1  0.211716  0.191852  0.338942  1
  Sr  Sr26  1  0.003627  0.721360  0.632595  1
  Sr  Sr27  1  0.746373  0.528640  0.867405  1
  Sr  Sr28  1  0.250974  0.101554  0.102329  1
  Sr  Sr29  1  0.246373  0.378968  0.217734  1
  Sr  Sr30  1  0.351355  0.500775  0.102329  1
  Sr  Sr31  1  0.250775  0.648446  0.649420  1
  Sr  Sr32  1  0.750775  0.101355  0.602329  1
  Sr  Sr33  1  0.625000  0.728282  0.603282  1
  Sr  Sr34  1  0.898645  0.500974  0.649420  1
  Sr  Sr35  1  0.851355  0.749026  0.850580  1
  Sr  Sr36  1  0.621032  0.838766  0.867405  1
  Sr  Sr37  1  0.278640  0.911234  0.282266  1
  Sr  Sr38  1  0.851554  0.249225  0.350580  1
  Sr  Sr39  1  0.127226  0.788284  0.980137  1
  Sr  Sr40  1  0.778640  0.496373  0.367405  1
  Sr  Sr41  1  0.971360  0.753627  0.132595  1
  Sr  Sr42  1  0.121032  0.253627  0.782266  1
  Sr  Sr43  1  0.588766  0.221360  0.717734  1
  Sr  Sr44  1  0.622774  0.461716  0.519863  1
  Sr  Sr45  1  0.978282  0.375000  0.103282  1
  Sr  Sr46  1  0.538284  0.058148  0.161058  1
  Sr  Sr47  1  0.398446  0.249026  0.897671  1
  Sr  Sr48  1  0.398645  0.749225  0.397671  1
  Sr  Sr49  1  0.478282  0.375000  0.603282  1
  Sr  Sr50  1  0.088766  0.371032  0.367405  1
  Sr  Sr51  1  0.808148  0.147089  0.019863  1
  Sr  Sr52  1  0.271718  0.875000  0.896718  1
  Sr  Sr53  1  0.471360  0.338766  0.217734  1
  Sr  Sr54  1  0.397089  0.558148  0.519863  1
  Sr  Sr55  1  0.628968  0.996373  0.717734  1
  Hg  Hg56  1  0.250000  0.750000  0.500000  1
  Hg  Hg57  1  0.750000  0.250000  0.500000  1
  Hg  Hg58  1  0.000000  0.000000  0.000000  1
  Hg  Hg59  1  0.500000  0.500000  0.000000  1
  Bi  Bi60  1  0.865646  0.365646  0.231292  1
  Bi  Bi61  1  0.290970  0.698796  0.145630  1
  Bi  Bi62  1  0.884354  0.884354  0.268708  1
  Bi  Bi63  1  0.553166  0.145340  0.854370  1
  Bi  Bi64  1  0.948796  0.040970  0.645630  1
  Bi  Bi65  1  0.365646  0.134354  0.500000  1
  Bi  Bi66  1  0.459030  0.551204  0.354370  1
  Bi  Bi67  1  0.354660  0.946834  0.145630  1
  Bi  Bi68  1  0.060247  0.208190  0.139521  1
  Bi  Bi69  1  0.053166  0.198796  0.407826  1
  Bi  Bi70  1  0.500000  0.000000  0.500000  1
  Bi  Bi71  1  0.196834  0.104660  0.645630  1
  Bi  Bi72  1  0.791810  0.931331  0.852056  1
  Bi  Bi73  1  0.681331  0.329275  0.639521  1
  Bi  Bi74  1  0.458190  0.810247  0.639521  1
  Bi  Bi75  1  0.170725  0.818669  0.360479  1
  Bi  Bi76  1  0.568669  0.708190  0.147944  1
  Bi  Bi77  1  0.670725  0.310247  0.352056  1
  Bi  Bi78  1  0.079275  0.939753  0.147944  1
  Bi  Bi79  1  0.750000  0.750000  0.000000  1
  Bi  Bi80  1  0.560247  0.420725  0.852056  1
  Bi  Bi81  1  0.384354  0.115646  0.000000  1
  Bi  Bi82  1  0.068669  0.920725  0.860479  1
  Bi  Bi83  1  0.000000  0.500000  0.500000  1
  Bi  Bi84  1  0.291810  0.439753  0.860479  1
  Bi  Bi85  1  0.801204  0.209030  0.854370  1
  Bi  Bi86  1  0.250000  0.250000  0.000000  1
  Bi  Bi87  1  0.395340  0.303166  0.354370  1
  Bi  Bi88  1  0.301204  0.446834  0.592174  1
  Bi  Bi89  1  0.696834  0.051204  0.092174  1
  Bi  Bi90  1  0.790970  0.645340  0.592174  1
  Bi  Bi91  1  0.189753  0.829275  0.647944  1
  Bi  Bi92  1  0.959030  0.604660  0.907826  1
  Bi  Bi93  1  0.115646  0.384354  0.000000  1
  Bi  Bi94  1  0.958190  0.318669  0.647944  1
  Bi  Bi95  1  0.634354  0.865646  0.500000  1
  Bi  Bi96  1  0.689753  0.041810  0.360479  1
  Bi  Bi97  1  0.579275  0.431331  0.139521  1
  Bi  Bi98  1  0.854660  0.709030  0.407826  1
  Bi  Bi99  1  0.895340  0.540970  0.092174  1
  Bi  Bi100  1  0.448796  0.803166  0.907826  1
  Bi  Bi101  1  0.134354  0.634354  0.768708  1
  Bi  Bi102  1  0.615646  0.615646  0.731292  1
  Bi  Bi103  1  0.181331  0.541810  0.352056  1
