# generated using pymatgen
data_LaEr7(CdNi)2
_symmetry_space_group_name_H-M   'P 1'
_cell_length_a   9.51668684
_cell_length_b   9.51668704
_cell_length_c   9.50964700
_cell_angle_alpha   60.02446450
_cell_angle_beta   60.02446379
_cell_angle_gamma   60.30111053
_symmetry_Int_Tables_number   1
_chemical_formula_structural   LaEr7(CdNi)2
_chemical_formula_sum   'La2 Er14 Cd4 Ni4'
_cell_volume   610.60555887
_cell_formula_units_Z   2
loop_
 _symmetry_equiv_pos_site_id
 _symmetry_equiv_pos_as_xyz
  1  'x, y, z'
loop_
 _atom_site_type_symbol
 _atom_site_label
 _atom_site_symmetry_multiplicity
 _atom_site_fract_x
 _atom_site_fract_y
 _atom_site_fract_z
 _atom_site_occupancy
  La  La0  1  0.344927  0.344927  0.352317  1
  La  La1  1  0.344927  0.344927  0.957830  1
  Er  Er2  1  0.352973  0.942904  0.352062  1
  Er  Er3  1  0.942904  0.352973  0.352062  1
  Er  Er4  1  0.814731  0.189658  0.184098  1
  Er  Er5  1  0.189658  0.814731  0.811513  1
  Er  Er6  1  0.189658  0.814731  0.184098  1
  Er  Er7  1  0.814731  0.189658  0.811513  1
  Er  Er8  1  0.186554  0.186554  0.813446  1
  Er  Er9  1  0.813626  0.813626  0.186374  1
  Er  Er10  1  0.936282  0.567636  0.564354  1
  Er  Er11  1  0.567636  0.936282  0.931728  1
  Er  Er12  1  0.567636  0.936282  0.564354  1
  Er  Er13  1  0.936282  0.567636  0.931728  1
  Er  Er14  1  0.567571  0.567571  0.932429  1
  Er  Er15  1  0.939449  0.939449  0.560551  1
  Cd  Cd16  1  0.583315  0.583315  0.578827  1
  Cd  Cd17  1  0.583315  0.583315  0.254543  1
  Cd  Cd18  1  0.584524  0.253544  0.580965  1
  Cd  Cd19  1  0.253544  0.584524  0.580965  1
  Ni  Ni20  1  0.136600  0.136600  0.154121  1
  Ni  Ni21  1  0.136600  0.136600  0.572681  1
  Ni  Ni22  1  0.135343  0.577219  0.143719  1
  Ni  Ni23  1  0.577219  0.135343  0.143719  1
