# generated using pymatgen
data_SrPr3(W2O7)2
_symmetry_space_group_name_H-M   'P 1'
_cell_length_a   7.55286528
_cell_length_b   7.61621596
_cell_length_c   7.55286500
_cell_angle_alpha   60.27477042
_cell_angle_beta   59.99999686
_cell_angle_gamma   60.27476645
_symmetry_Int_Tables_number   1
_chemical_formula_structural   SrPr3(W2O7)2
_chemical_formula_sum   'Sr1 Pr3 W4 O14'
_cell_volume   308.48848059
_cell_formula_units_Z   1
loop_
 _symmetry_equiv_pos_site_id
 _symmetry_equiv_pos_as_xyz
  1  'x, y, z'
loop_
 _atom_site_type_symbol
 _atom_site_label
 _atom_site_symmetry_multiplicity
 _atom_site_fract_x
 _atom_site_fract_y
 _atom_site_fract_z
 _atom_site_occupancy
  Sr  Sr0  1  0.125000  0.625000  0.125000  1
  Pr  Pr1  1  0.125000  0.125000  0.625000  1
  Pr  Pr2  1  0.125000  0.125000  0.125000  1
  Pr  Pr3  1  0.625000  0.125000  0.125000  1
  W  W4  1  0.625000  0.625000  0.625000  1
  W  W5  1  0.125000  0.625000  0.625000  1
  W  W6  1  0.625000  0.125000  0.625000  1
  W  W7  1  0.625000  0.625000  0.125000  1
  O  O8  1  0.954259  0.532416  0.559068  1
  O  O9  1  0.303670  0.288962  0.703684  1
  O  O10  1  0.954259  0.532416  0.954259  1
  O  O11  1  0.703684  0.288962  0.303670  1
  O  O12  1  0.559068  0.532416  0.954259  1
  O  O13  1  0.546316  0.961038  0.546316  1
  O  O14  1  0.546316  0.961038  0.946330  1
  O  O15  1  0.252913  0.241262  0.252913  1
  O  O16  1  0.295741  0.717584  0.690932  1
  O  O17  1  0.703684  0.288962  0.703684  1
  O  O18  1  0.997087  0.008738  0.997087  1
  O  O19  1  0.946330  0.961038  0.546316  1
  O  O20  1  0.295741  0.717584  0.295741  1
  O  O21  1  0.690932  0.717584  0.295741  1
