# generated using pymatgen
data_Tb9Y11(FeBi2)4
_symmetry_space_group_name_H-M   'P 1'
_cell_length_a   7.99440921
_cell_length_b   8.88891800
_cell_length_c   12.47357489
_cell_angle_alpha   90.00000000
_cell_angle_beta   90.06307741
_cell_angle_gamma   90.00000000
_symmetry_Int_Tables_number   1
_chemical_formula_structural   Tb9Y11(FeBi2)4
_chemical_formula_sum   'Tb9 Y11 Fe4 Bi8'
_cell_volume   886.39225017
_cell_formula_units_Z   1
loop_
 _symmetry_equiv_pos_site_id
 _symmetry_equiv_pos_as_xyz
  1  'x, y, z'
loop_
 _atom_site_type_symbol
 _atom_site_label
 _atom_site_symmetry_multiplicity
 _atom_site_fract_x
 _atom_site_fract_y
 _atom_site_fract_z
 _atom_site_occupancy
  Tb  Tb0  1  0.553505  0.750000  0.004299  1
  Tb  Tb1  1  0.674358  0.035073  0.562023  1
  Tb  Tb2  1  0.325608  0.964980  0.437972  1
  Tb  Tb3  1  0.174628  0.964730  0.938122  1
  Tb  Tb4  1  0.325608  0.535020  0.437972  1
  Tb  Tb5  1  0.825709  0.035482  0.061946  1
  Tb  Tb6  1  0.674358  0.464927  0.562023  1
  Tb  Tb7  1  0.825709  0.464518  0.061946  1
  Tb  Tb8  1  0.174628  0.535270  0.938122  1
  Y  Y9  1  0.846855  0.750000  0.798449  1
  Y  Y10  1  0.153070  0.250000  0.201485  1
  Y  Y11  1  0.346909  0.250000  0.701346  1
  Y  Y12  1  0.653029  0.750000  0.298469  1
  Y  Y13  1  0.379382  0.750000  0.690958  1
  Y  Y14  1  0.620494  0.250000  0.309189  1
  Y  Y15  1  0.879777  0.250000  0.809091  1
  Y  Y16  1  0.120409  0.750000  0.190886  1
  Y  Y17  1  0.947702  0.750000  0.504299  1
  Y  Y18  1  0.052133  0.250000  0.495656  1
  Y  Y19  1  0.447415  0.250000  0.995659  1
  Fe  Fe20  1  0.571280  0.750000  0.510833  1
  Fe  Fe21  1  0.428938  0.250000  0.489194  1
  Fe  Fe22  1  0.071514  0.250000  0.989221  1
  Fe  Fe23  1  0.927168  0.750000  0.011139  1
  Bi  Bi24  1  0.570981  0.492479  0.826493  1
  Bi  Bi25  1  0.428926  0.506956  0.173352  1
  Bi  Bi26  1  0.070922  0.507236  0.673205  1
  Bi  Bi27  1  0.428926  0.993044  0.173352  1
  Bi  Bi28  1  0.929080  0.492794  0.326801  1
  Bi  Bi29  1  0.570981  0.007521  0.826493  1
  Bi  Bi30  1  0.929080  0.007206  0.326801  1
  Bi  Bi31  1  0.070922  0.992764  0.673205  1
