# generated using pymatgen
data_Cs2LiCoO4
_symmetry_space_group_name_H-M   'P 1'
_cell_length_a   6.85059696
_cell_length_b   6.85059664
_cell_length_c   8.23128900
_cell_angle_alpha   90.00000000
_cell_angle_beta   90.00000000
_cell_angle_gamma   127.87427356
_symmetry_Int_Tables_number   1
_chemical_formula_structural   Cs2LiCoO4
_chemical_formula_sum   'Cs4 Li2 Co2 O8'
_cell_volume   304.92967038
_cell_formula_units_Z   2
loop_
 _symmetry_equiv_pos_site_id
 _symmetry_equiv_pos_as_xyz
  1  'x, y, z'
loop_
 _atom_site_type_symbol
 _atom_site_label
 _atom_site_symmetry_multiplicity
 _atom_site_fract_x
 _atom_site_fract_y
 _atom_site_fract_z
 _atom_site_occupancy
  Cs  Cs0  1  0.928336  0.071664  0.853800  1
  Cs  Cs1  1  0.071664  0.928336  0.353800  1
  Cs  Cs2  1  0.394113  0.605887  0.493958  1
  Cs  Cs3  1  0.605887  0.394113  0.993958  1
  Li  Li4  1  0.209992  0.790008  0.775688  1
  Li  Li5  1  0.790008  0.209992  0.275688  1
  Co  Co6  1  0.304267  0.695733  0.055597  1
  Co  Co7  1  0.695733  0.304267  0.555597  1
  O  O8  1  0.107043  0.426270  0.157310  1
  O  O9  1  0.892957  0.573730  0.657310  1
  O  O10  1  0.360859  0.639141  0.865307  1
  O  O11  1  0.639141  0.360859  0.365307  1
  O  O12  1  0.573730  0.892957  0.157310  1
  O  O13  1  0.426270  0.107043  0.657310  1
  O  O14  1  0.831967  0.168033  0.509530  1
  O  O15  1  0.168033  0.831967  0.009530  1
