# generated using pymatgen
data_Lu12Co5Bi
_symmetry_space_group_name_H-M   'P 1'
_cell_length_a   8.16179133
_cell_length_b   8.16179101
_cell_length_c   8.16179115
_cell_angle_alpha   110.99412251
_cell_angle_beta   111.05315854
_cell_angle_gamma   106.40910637
_symmetry_Int_Tables_number   1
_chemical_formula_structural   Lu12Co5Bi
_chemical_formula_sum   'Lu12 Co5 Bi1'
_cell_volume   417.64703295
_cell_formula_units_Z   1
loop_
 _symmetry_equiv_pos_site_id
 _symmetry_equiv_pos_as_xyz
  1  'x, y, z'
loop_
 _atom_site_type_symbol
 _atom_site_label
 _atom_site_symmetry_multiplicity
 _atom_site_fract_x
 _atom_site_fract_y
 _atom_site_fract_z
 _atom_site_occupancy
  Lu  Lu0  1  0.816587  0.712635  0.529222  1
  Lu  Lu1  1  0.183413  0.287365  0.470778  1
  Lu  Lu2  1  0.183413  0.712635  0.896049  1
  Lu  Lu3  1  0.816587  0.287365  0.103951  1
  Lu  Lu4  1  0.688674  0.379341  0.690667  1
  Lu  Lu5  1  0.311326  0.620659  0.309333  1
  Lu  Lu6  1  0.688674  0.998007  0.309333  1
  Lu  Lu7  1  0.311326  0.001993  0.690667  1
  Lu  Lu8  1  0.595844  0.791262  0.804583  1
  Lu  Lu9  1  0.404156  0.208738  0.195417  1
  Lu  Lu10  1  0.986679  0.791262  0.195417  1
  Lu  Lu11  1  0.013321  0.208738  0.804583  1
  Co  Co12  1  0.625760  0.000000  0.625760  1
  Co  Co13  1  0.374240  0.000000  0.374240  1
  Co  Co14  1  0.112816  0.612816  0.500000  1
  Co  Co15  1  0.887184  0.387184  0.500000  1
  Co  Co16  1  0.000000  0.000000  0.000000  1
  Bi  Bi17  1  0.500000  0.500000  0.000000  1
