# generated using pymatgen
data_Sr13La(Eu3Pt8)2
_symmetry_space_group_name_H-M   'P 1'
_cell_length_a   7.97343900
_cell_length_b   8.09247864
_cell_length_c   15.38037000
_cell_angle_alpha   89.95205337
_cell_angle_beta   90.00195455
_cell_angle_gamma   90.11677426
_symmetry_Int_Tables_number   1
_chemical_formula_structural   Sr13La(Eu3Pt8)2
_chemical_formula_sum   'Sr13 La1 Eu6 Pt16'
_cell_volume   992.41419381
_cell_formula_units_Z   1
loop_
 _symmetry_equiv_pos_site_id
 _symmetry_equiv_pos_as_xyz
  1  'x, y, z'
loop_
 _atom_site_type_symbol
 _atom_site_label
 _atom_site_symmetry_multiplicity
 _atom_site_fract_x
 _atom_site_fract_y
 _atom_site_fract_z
 _atom_site_occupancy
  Sr  Sr0  1  0.837537  0.670024  0.880629  1
  Sr  Sr1  1  0.495610  0.322375  0.903272  1
  Sr  Sr2  1  0.994438  0.178179  0.594212  1
  Sr  Sr3  1  0.505952  0.678250  0.404612  1
  Sr  Sr4  1  0.004365  0.820994  0.097862  1
  Sr  Sr5  1  0.504881  0.676766  0.097121  1
  Sr  Sr6  1  0.006057  0.820139  0.404767  1
  Sr  Sr7  1  0.495110  0.320349  0.595195  1
  Sr  Sr8  1  0.992639  0.182673  0.905896  1
  Sr  Sr9  1  0.173584  0.487481  0.748322  1
  Sr  Sr10  1  0.680556  0.010856  0.748475  1
  Sr  Sr11  1  0.824075  0.509572  0.250983  1
  Sr  Sr12  1  0.323542  0.988547  0.250189  1
  La  La13  1  0.336182  0.834086  0.877739  1
  Eu  Eu14  1  0.836198  0.666796  0.620820  1
  Eu  Eu15  1  0.662975  0.168020  0.378723  1
  Eu  Eu16  1  0.163514  0.331422  0.122110  1
  Eu  Eu17  1  0.661933  0.168950  0.122256  1
  Eu  Eu18  1  0.163475  0.330234  0.378246  1
  Eu  Eu19  1  0.337421  0.830392  0.620346  1
  Pt  Pt20  1  0.326973  0.035810  0.036410  1
  Pt  Pt21  1  0.836094  0.461318  0.460758  1
  Pt  Pt22  1  0.664961  0.960735  0.539371  1
  Pt  Pt23  1  0.178787  0.545465  0.962196  1
  Pt  Pt24  1  0.653805  0.969670  0.959682  1
  Pt  Pt25  1  0.163744  0.536485  0.539703  1
  Pt  Pt26  1  0.335619  0.036790  0.460955  1
  Pt  Pt27  1  0.840468  0.458845  0.043252  1
  Pt  Pt28  1  0.540206  0.624803  0.750364  1
  Pt  Pt29  1  0.051765  0.877773  0.747424  1
  Pt  Pt30  1  0.454054  0.375360  0.249344  1
  Pt  Pt31  1  0.953257  0.122040  0.249787  1
  Pt  Pt32  1  0.295874  0.120803  0.751929  1
  Pt  Pt33  1  0.785787  0.378888  0.747429  1
  Pt  Pt34  1  0.708083  0.879237  0.249570  1
  Pt  Pt35  1  0.210481  0.619877  0.250053  1
