# generated using pymatgen
data_GePd(SeF6)4
_symmetry_space_group_name_H-M   'P 1'
_cell_length_a   6.05714400
_cell_length_b   7.91856842
_cell_length_c   9.88636849
_cell_angle_alpha   89.22560970
_cell_angle_beta   90.00000000
_cell_angle_gamma   90.00000000
_symmetry_Int_Tables_number   1
_chemical_formula_structural   GePd(SeF6)4
_chemical_formula_sum   'Ge1 Pd1 Se4 F24'
_cell_volume   474.14557048
_cell_formula_units_Z   1
loop_
 _symmetry_equiv_pos_site_id
 _symmetry_equiv_pos_as_xyz
  1  'x, y, z'
loop_
 _atom_site_type_symbol
 _atom_site_label
 _atom_site_symmetry_multiplicity
 _atom_site_fract_x
 _atom_site_fract_y
 _atom_site_fract_z
 _atom_site_occupancy
  Ge  Ge0  1  0.500000  0.000000  0.500000  1
  Pd  Pd1  1  0.000000  0.500000  0.000000  1
  Se  Se2  1  0.500000  0.585268  0.243802  1
  Se  Se3  1  0.500000  0.414732  0.756198  1
  Se  Se4  1  0.000000  0.083113  0.258910  1
  Se  Se5  1  0.000000  0.916887  0.741090  1
  F  F6  1  0.227400  0.362727  0.912341  1
  F  F7  1  0.227400  0.637273  0.087659  1
  F  F8  1  0.285410  0.874734  0.587716  1
  F  F9  1  0.285410  0.125266  0.412284  1
  F  F10  1  0.772600  0.637273  0.087659  1
  F  F11  1  0.772600  0.362727  0.912341  1
  F  F12  1  0.792433  0.965599  0.855572  1
  F  F13  1  0.792433  0.034401  0.144428  1
  F  F14  1  0.708157  0.467759  0.642367  1
  F  F15  1  0.708157  0.532241  0.357633  1
  F  F16  1  0.207567  0.034401  0.144428  1
  F  F17  1  0.207567  0.965599  0.855572  1
  F  F18  1  0.291843  0.532241  0.357633  1
  F  F19  1  0.291843  0.467759  0.642367  1
  F  F20  1  0.000000  0.651555  0.841264  1
  F  F21  1  0.000000  0.348445  0.158736  1
  F  F22  1  0.500000  0.150504  0.638346  1
  F  F23  1  0.500000  0.849496  0.361654  1
  F  F24  1  0.500000  0.615721  0.823799  1
  F  F25  1  0.500000  0.384279  0.176201  1
  F  F26  1  0.000000  0.120864  0.673570  1
  F  F27  1  0.000000  0.879136  0.326430  1
  F  F28  1  0.714590  0.874734  0.587716  1
  F  F29  1  0.714590  0.125266  0.412284  1
