# generated using pymatgen
data_Pr6P5Se
_symmetry_space_group_name_H-M   'P 1'
_cell_length_a   4.16810902
_cell_length_b   10.27949993
_cell_length_c   8.34451500
_cell_angle_alpha   90.10064041
_cell_angle_beta   60.02449675
_cell_angle_gamma   89.99631773
_symmetry_Int_Tables_number   1
_chemical_formula_structural   Pr6P5Se
_chemical_formula_sum   'Pr6 P5 Se1'
_cell_volume   309.70556772
_cell_formula_units_Z   1
loop_
 _symmetry_equiv_pos_site_id
 _symmetry_equiv_pos_as_xyz
  1  'x, y, z'
loop_
 _atom_site_type_symbol
 _atom_site_label
 _atom_site_symmetry_multiplicity
 _atom_site_fract_x
 _atom_site_fract_y
 _atom_site_fract_z
 _atom_site_occupancy
  Pr  Pr0  1  0.943845  0.893443  0.649807  1
  Pr  Pr1  1  0.266623  0.236465  0.328398  1
  Pr  Pr2  1  0.605626  0.564994  0.988976  1
  Pr  Pr3  1  0.280068  0.241788  0.814982  1
  Pr  Pr4  1  0.605531  0.564967  0.488996  1
  Pr  Pr5  1  0.930136  0.888221  0.163416  1
  P  P6  1  0.271363  0.729997  0.322449  1
  P  P7  1  0.939417  0.399932  0.655601  1
  P  P8  1  0.605022  0.064916  0.489207  1
  P  P9  1  0.940189  0.397127  0.154822  1
  P  P10  1  0.270635  0.732792  0.823321  1
  Se  Se11  1  0.605054  0.065087  0.989120  1
