# generated using pymatgen
data_RbBa4As3O
_symmetry_space_group_name_H-M   'P 1'
_cell_length_a   10.13110482
_cell_length_b   10.13110503
_cell_length_c   10.13110612
_cell_angle_alpha   129.59053997
_cell_angle_beta   129.59054320
_cell_angle_gamma   74.06220539
_symmetry_Int_Tables_number   1
_chemical_formula_structural   RbBa4As3O
_chemical_formula_sum   'Rb2 Ba8 As6 O2'
_cell_volume   602.17504672
_cell_formula_units_Z   2
loop_
 _symmetry_equiv_pos_site_id
 _symmetry_equiv_pos_as_xyz
  1  'x, y, z'
loop_
 _atom_site_type_symbol
 _atom_site_label
 _atom_site_symmetry_multiplicity
 _atom_site_fract_x
 _atom_site_fract_y
 _atom_site_fract_z
 _atom_site_occupancy
  Rb  Rb0  1  0.500000  0.500000  0.000000  1
  Rb  Rb1  1  0.000000  0.000000  0.000000  1
  Ba  Ba2  1  0.812903  0.987959  0.500000  1
  Ba  Ba3  1  0.487959  0.312903  0.500000  1
  Ba  Ba4  1  0.987959  0.487959  0.175057  1
  Ba  Ba5  1  0.187097  0.012041  0.500000  1
  Ba  Ba6  1  0.687097  0.187097  0.175057  1
  Ba  Ba7  1  0.012041  0.512041  0.824943  1
  Ba  Ba8  1  0.312903  0.812903  0.824943  1
  Ba  Ba9  1  0.512041  0.687097  0.500000  1
  As  As10  1  0.895284  0.604716  0.500000  1
  As  As11  1  0.250000  0.250000  0.000000  1
  As  As12  1  0.395284  0.895284  0.290569  1
  As  As13  1  0.604716  0.104716  0.709431  1
  As  As14  1  0.104716  0.395284  0.500000  1
  As  As15  1  0.750000  0.750000  0.000000  1
  O  O16  1  0.250000  0.750000  0.500000  1
  O  O17  1  0.750000  0.250000  0.500000  1
