# generated using pymatgen
data_Hf3Zr6ScGa12Rh7
_symmetry_space_group_name_H-M   'P 1'
_cell_length_a   8.91415552
_cell_length_b   8.91415632
_cell_length_c   8.91107927
_cell_angle_alpha   59.98857910
_cell_angle_beta   59.98857294
_cell_angle_gamma   59.99999535
_symmetry_Int_Tables_number   1
_chemical_formula_structural   Hf3Zr6ScGa12Rh7
_chemical_formula_sum   'Hf3 Zr6 Sc1 Ga12 Rh7'
_cell_volume   500.61139825
_cell_formula_units_Z   1
loop_
 _symmetry_equiv_pos_site_id
 _symmetry_equiv_pos_as_xyz
  1  'x, y, z'
loop_
 _atom_site_type_symbol
 _atom_site_label
 _atom_site_symmetry_multiplicity
 _atom_site_fract_x
 _atom_site_fract_y
 _atom_site_fract_z
 _atom_site_occupancy
  Hf  Hf0  1  0.878397  0.364938  0.878271  1
  Hf  Hf1  1  0.364938  0.878397  0.878271  1
  Hf  Hf2  1  0.878397  0.878397  0.878271  1
  Zr  Zr3  1  0.690342  0.690342  0.309627  1
  Zr  Zr4  1  0.309689  0.690342  0.309627  1
  Zr  Zr5  1  0.690342  0.309689  0.309627  1
  Zr  Zr6  1  0.309617  0.309617  0.690766  1
  Zr  Zr7  1  0.690001  0.309617  0.690766  1
  Zr  Zr8  1  0.309617  0.690001  0.690766  1
  Sc  Sc9  1  0.878611  0.878611  0.364169  1
  Ga  Ga10  1  0.121231  0.121231  0.636308  1
  Ga  Ga11  1  0.120667  0.636468  0.122197  1
  Ga  Ga12  1  0.636468  0.120667  0.122197  1
  Ga  Ga13  1  0.120667  0.120667  0.122197  1
  Ga  Ga14  1  0.656252  0.656252  0.031243  1
  Ga  Ga15  1  0.658102  0.028797  0.654998  1
  Ga  Ga16  1  0.028797  0.658102  0.654998  1
  Ga  Ga17  1  0.658102  0.658102  0.654998  1
  Ga  Ga18  1  0.340839  0.340839  0.977484  1
  Ga  Ga19  1  0.341229  0.976838  0.340705  1
  Ga  Ga20  1  0.976838  0.341229  0.340705  1
  Ga  Ga21  1  0.341229  0.341229  0.340705  1
  Rh  Rh22  1  0.001023  0.001023  0.996930  1
  Rh  Rh23  1  0.999955  0.999955  0.503481  1
  Rh  Rh24  1  0.496609  0.999955  0.503481  1
  Rh  Rh25  1  0.999955  0.496609  0.503481  1
  Rh  Rh26  1  0.501758  0.501758  0.997911  1
  Rh  Rh27  1  0.998572  0.501758  0.997911  1
  Rh  Rh28  1  0.501758  0.998572  0.997911  1
