# generated using pymatgen
data_Yb3YFeOs7
_symmetry_space_group_name_H-M   'P 1'
_cell_length_a   5.24278700
_cell_length_b   5.31987425
_cell_length_c   8.74741200
_cell_angle_alpha   89.71102520
_cell_angle_beta   90.00000000
_cell_angle_gamma   119.52180089
_symmetry_Int_Tables_number   1
_chemical_formula_structural   Yb3YFeOs7
_chemical_formula_sum   'Yb3 Y1 Fe1 Os7'
_cell_volume   212.29467911
_cell_formula_units_Z   1
loop_
 _symmetry_equiv_pos_site_id
 _symmetry_equiv_pos_as_xyz
  1  'x, y, z'
loop_
 _atom_site_type_symbol
 _atom_site_label
 _atom_site_symmetry_multiplicity
 _atom_site_fract_x
 _atom_site_fract_y
 _atom_site_fract_z
 _atom_site_occupancy
  Yb  Yb0  1  0.329571  0.659142  0.440787  1
  Yb  Yb1  1  0.664904  0.329806  0.567164  1
  Yb  Yb2  1  0.666134  0.332266  0.928048  1
  Y  Y3  1  0.332265  0.664531  0.065626  1
  Fe  Fe4  1  0.180086  0.360173  0.752424  1
  Os  Os5  1  0.175883  0.833866  0.749035  1
  Os  Os6  1  0.347875  0.176132  0.249695  1
  Os  Os7  1  0.833037  0.666074  0.250684  1
  Os  Os8  1  0.657983  0.833866  0.749035  1
  Os  Os9  1  0.993464  0.986927  0.993236  1
  Os  Os10  1  0.828259  0.176132  0.249695  1
  Os  Os11  1  0.990541  0.981082  0.504574  1
