# generated using pymatgen
data_Y19HoBiPb15
_symmetry_space_group_name_H-M   'P 1'
_cell_length_a   8.25512097
_cell_length_b   15.66196035
_cell_length_c   8.30850951
_cell_angle_alpha   90.06950243
_cell_angle_beta   89.95961629
_cell_angle_gamma   90.19386383
_symmetry_Int_Tables_number   1
_chemical_formula_structural   Y19HoBiPb15
_chemical_formula_sum   'Y19 Ho1 Bi1 Pb15'
_cell_volume   1074.21143560
_cell_formula_units_Z   1
loop_
 _symmetry_equiv_pos_site_id
 _symmetry_equiv_pos_as_xyz
  1  'x, y, z'
loop_
 _atom_site_type_symbol
 _atom_site_label
 _atom_site_symmetry_multiplicity
 _atom_site_fract_x
 _atom_site_fract_y
 _atom_site_fract_z
 _atom_site_occupancy
  Y  Y0  1  0.621264  0.621286  0.159861  1
  Y  Y1  1  0.122720  0.879017  0.341531  1
  Y  Y2  1  0.377297  0.121539  0.841934  1
  Y  Y3  1  0.878473  0.378783  0.655850  1
  Y  Y4  1  0.375053  0.378903  0.840874  1
  Y  Y5  1  0.876484  0.121473  0.658373  1
  Y  Y6  1  0.623039  0.878993  0.158074  1
  Y  Y7  1  0.122521  0.620945  0.341475  1
  Y  Y8  1  0.459253  0.602116  0.670658  1
  Y  Y9  1  0.963206  0.899533  0.825387  1
  Y  Y10  1  0.536904  0.100755  0.325639  1
  Y  Y11  1  0.042009  0.397725  0.175846  1
  Y  Y12  1  0.537734  0.398718  0.329095  1
  Y  Y13  1  0.036435  0.100662  0.174590  1
  Y  Y14  1  0.463541  0.899459  0.674839  1
  Y  Y15  1  0.964756  0.601797  0.823857  1
  Y  Y16  1  0.790853  0.750482  0.497076  1
  Y  Y17  1  0.290985  0.750124  0.002927  1
  Y  Y18  1  0.209106  0.249195  0.502903  1
  Ho  Ho19  1  0.709034  0.247833  0.997163  1
  Bi  Bi20  1  0.721275  0.455421  0.970192  1
  Pb  Pb21  1  0.219018  0.042786  0.533345  1
  Pb  Pb22  1  0.280897  0.957352  0.032928  1
  Pb  Pb23  1  0.779946  0.543093  0.468365  1
  Pb  Pb24  1  0.278985  0.542860  0.031711  1
  Pb  Pb25  1  0.781139  0.957365  0.466669  1
  Pb  Pb26  1  0.718674  0.043006  0.967066  1
  Pb  Pb27  1  0.219337  0.457003  0.532262  1
  Pb  Pb28  1  0.427475  0.750309  0.373746  1
  Pb  Pb29  1  0.927464  0.749288  0.125670  1
  Pb  Pb30  1  0.572001  0.250765  0.627024  1
  Pb  Pb31  1  0.071210  0.250822  0.874251  1
  Pb  Pb32  1  0.651168  0.749670  0.846984  1
  Pb  Pb33  1  0.151233  0.750535  0.652719  1
  Pb  Pb34  1  0.350779  0.250311  0.153207  1
  Pb  Pb35  1  0.848731  0.250074  0.345909  1
