# generated using pymatgen
data_InPCl14
_symmetry_space_group_name_H-M   'P 1'
_cell_length_a   10.35034763
_cell_length_b   10.59400732
_cell_length_c   11.36374757
_cell_angle_alpha   80.89882740
_cell_angle_beta   90.00427617
_cell_angle_gamma   90.03933951
_symmetry_Int_Tables_number   1
_chemical_formula_structural   InPCl14
_chemical_formula_sum   'In2 P2 Cl28'
_cell_volume   1230.36637021
_cell_formula_units_Z   2
loop_
 _symmetry_equiv_pos_site_id
 _symmetry_equiv_pos_as_xyz
  1  'x, y, z'
loop_
 _atom_site_type_symbol
 _atom_site_label
 _atom_site_symmetry_multiplicity
 _atom_site_fract_x
 _atom_site_fract_y
 _atom_site_fract_z
 _atom_site_occupancy
  In  In0  1  0.243327  0.328941  0.080828  1
  In  In1  1  0.743469  0.670997  0.419214  1
  P  P2  1  0.760525  0.674984  0.917019  1
  P  P3  1  0.260508  0.325017  0.582959  1
  Cl  Cl4  1  0.231758  0.760700  0.363473  1
  Cl  Cl5  1  0.731844  0.239315  0.136559  1
  Cl  Cl6  1  0.744646  0.249851  0.637745  1
  Cl  Cl7  1  0.244526  0.750181  0.862294  1
  Cl  Cl8  1  0.571698  0.051721  0.035911  1
  Cl  Cl9  1  0.071663  0.948365  0.464103  1
  Cl  Cl10  1  0.440896  0.940194  0.966259  1
  Cl  Cl11  1  0.940925  0.059763  0.533796  1
  Cl  Cl12  1  0.810929  0.169195  0.294184  1
  Cl  Cl13  1  0.310956  0.830810  0.205854  1
  Cl  Cl14  1  0.185637  0.831143  0.698163  1
  Cl  Cl15  1  0.685620  0.168899  0.801871  1
  Cl  Cl16  1  0.349712  0.208340  0.246560  1
  Cl  Cl17  1  0.849782  0.791624  0.253414  1
  Cl  Cl18  1  0.669886  0.727060  0.764846  1
  Cl  Cl19  1  0.169829  0.272891  0.735139  1
  Cl  Cl20  1  0.397745  0.414677  0.931411  1
  Cl  Cl21  1  0.897856  0.585273  0.568579  1
  Cl  Cl22  1  0.640190  0.630562  0.050011  1
  Cl  Cl23  1  0.140200  0.369403  0.449969  1
  Cl  Cl24  1  0.868103  0.524917  0.906139  1
  Cl  Cl25  1  0.368141  0.475199  0.593847  1
  Cl  Cl26  1  0.117958  0.497300  0.141870  1
  Cl  Cl27  1  0.617953  0.502688  0.358075  1
  Cl  Cl28  1  0.094822  0.195570  0.989279  1
  Cl  Cl29  1  0.594941  0.804295  0.510679  1
  Cl  Cl30  1  0.872008  0.816961  0.945926  1
  Cl  Cl31  1  0.371948  0.183163  0.554022  1
