# generated using pymatgen
data_K4Li2YInSb4
_symmetry_space_group_name_H-M   'P 1'
_cell_length_a   9.60980878
_cell_length_b   9.60980749
_cell_length_c   9.60980755
_cell_angle_alpha   137.13579863
_cell_angle_beta   62.17299512
_cell_angle_gamma   137.20893707
_symmetry_Int_Tables_number   1
_chemical_formula_structural   K4Li2YInSb4
_chemical_formula_sum   'K4 Li2 Y1 In1 Sb4'
_cell_volume   405.22989672
_cell_formula_units_Z   1
loop_
 _symmetry_equiv_pos_site_id
 _symmetry_equiv_pos_as_xyz
  1  'x, y, z'
loop_
 _atom_site_type_symbol
 _atom_site_label
 _atom_site_symmetry_multiplicity
 _atom_site_fract_x
 _atom_site_fract_y
 _atom_site_fract_z
 _atom_site_occupancy
  K  K0  1  0.814050  0.254800  0.089848  1
  K  K1  1  0.685947  0.775792  0.440756  1
  K  K2  1  0.335048  0.245200  0.559250  1
  K  K3  1  0.164964  0.724209  0.910155  1
  Li  Li4  1  0.750003  0.250000  0.500003  1
  Li  Li5  1  0.250002  0.750001  0.500002  1
  Y  Y6  1  0.250003  0.250000  0.000003  1
  In  In7  1  0.749989  0.749999  0.999990  1
  Sb  Sb8  1  0.403696  0.753272  0.147973  1
  Sb  Sb9  1  0.096292  0.244264  0.349567  1
  Sb  Sb10  1  0.894702  0.746730  0.650426  1
  Sb  Sb11  1  0.605302  0.255736  0.852028  1
