# generated using pymatgen
data_Mn6In5BiRh12
_symmetry_space_group_name_H-M   'P 1'
_cell_length_a   4.48247800
_cell_length_b   6.29577600
_cell_length_c   13.39987700
_cell_angle_alpha   90.00009254
_cell_angle_beta   90.00093050
_cell_angle_gamma   89.99990337
_symmetry_Int_Tables_number   1
_chemical_formula_structural   Mn6In5BiRh12
_chemical_formula_sum   'Mn6 In5 Bi1 Rh12'
_cell_volume   378.15360616
_cell_formula_units_Z   1
loop_
 _symmetry_equiv_pos_site_id
 _symmetry_equiv_pos_as_xyz
  1  'x, y, z'
loop_
 _atom_site_type_symbol
 _atom_site_label
 _atom_site_symmetry_multiplicity
 _atom_site_fract_x
 _atom_site_fract_y
 _atom_site_fract_z
 _atom_site_occupancy
  Mn  Mn0  1  0.999999  0.500001  0.999998  1
  Mn  Mn1  1  0.499825  0.000000  0.172248  1
  Mn  Mn2  1  0.999843  0.500001  0.334610  1
  Mn  Mn3  1  0.500000  0.999999  0.500013  1
  Mn  Mn4  1  0.000159  0.500000  0.665381  1
  Mn  Mn5  1  0.500174  0.999999  0.827736  1
  In  In6  1  0.499957  0.500001  0.168260  1
  In  In7  1  0.999755  0.000000  0.334360  1
  In  In8  1  0.500000  0.500000  0.500001  1
  In  In9  1  0.000229  0.000000  0.665608  1
  In  In10  1  0.500058  0.499999  0.831744  1
  Bi  Bi11  1  0.000000  0.000000  0.000010  1
  Rh  Rh12  1  0.500002  0.251489  0.000011  1
  Rh  Rh13  1  0.499999  0.748511  0.000013  1
  Rh  Rh14  1  0.999831  0.251128  0.166357  1
  Rh  Rh15  1  0.999829  0.748875  0.166357  1
  Rh  Rh16  1  0.499825  0.248705  0.333399  1
  Rh  Rh17  1  0.499826  0.751298  0.333399  1
  Rh  Rh18  1  0.000001  0.251715  0.499989  1
  Rh  Rh19  1  0.000000  0.748284  0.499990  1
  Rh  Rh20  1  0.500173  0.248718  0.666600  1
  Rh  Rh21  1  0.500174  0.751283  0.666601  1
  Rh  Rh22  1  0.000171  0.251128  0.833657  1
  Rh  Rh23  1  0.000174  0.748873  0.833657  1
