# generated using pymatgen
data_Hf6In3Ga3Pd5Pt
_symmetry_space_group_name_H-M   'P 1'
_cell_length_a   7.35595500
_cell_length_b   7.35595397
_cell_length_c   7.03886800
_cell_angle_alpha   90.00000000
_cell_angle_beta   90.00000000
_cell_angle_gamma   120.00000013
_symmetry_Int_Tables_number   1
_chemical_formula_structural   Hf6In3Ga3Pd5Pt
_chemical_formula_sum   'Hf6 In3 Ga3 Pd5 Pt1'
_cell_volume   329.84622564
_cell_formula_units_Z   1
loop_
 _symmetry_equiv_pos_site_id
 _symmetry_equiv_pos_as_xyz
  1  'x, y, z'
loop_
 _atom_site_type_symbol
 _atom_site_label
 _atom_site_symmetry_multiplicity
 _atom_site_fract_x
 _atom_site_fract_y
 _atom_site_fract_z
 _atom_site_occupancy
  Hf  Hf0  1  0.610327  0.590420  0.244091  1
  Hf  Hf1  1  0.025919  0.413680  0.754618  1
  Hf  Hf2  1  0.409580  0.019907  0.244091  1
  Hf  Hf3  1  0.980093  0.389673  0.244091  1
  Hf  Hf4  1  0.387760  0.974081  0.754618  1
  Hf  Hf5  1  0.586320  0.612240  0.754618  1
  In  In6  1  0.256170  0.252224  0.499757  1
  In  In7  1  0.747776  0.003946  0.499757  1
  In  In8  1  0.996054  0.743830  0.499757  1
  Ga  Ga9  1  0.714715  0.001015  0.999095  1
  Ga  Ga10  1  0.286300  0.285285  0.999095  1
  Ga  Ga11  1  0.998985  0.713700  0.999095  1
  Pd  Pd12  1  0.000000  0.000000  0.790949  1
  Pd  Pd13  1  0.000000  0.000000  0.207668  1
  Pd  Pd14  1  0.333333  0.666667  0.040005  1
  Pd  Pd15  1  0.666667  0.333333  0.537945  1
  Pd  Pd16  1  0.666667  0.333333  0.965031  1
  Pt  Pt17  1  0.333333  0.666667  0.465721  1
