# generated using pymatgen
data_Li3Yb2(Si8Pd5)2
_symmetry_space_group_name_H-M   'P 1'
_cell_length_a   8.97847043
_cell_length_b   8.96989492
_cell_length_c   8.97847800
_cell_angle_alpha   59.96830601
_cell_angle_beta   59.99996193
_cell_angle_gamma   59.96834695
_symmetry_Int_Tables_number   1
_chemical_formula_structural   Li3Yb2(Si8Pd5)2
_chemical_formula_sum   'Li3 Yb2 Si16 Pd10'
_cell_volume   511.05686902
_cell_formula_units_Z   1
loop_
 _symmetry_equiv_pos_site_id
 _symmetry_equiv_pos_as_xyz
  1  'x, y, z'
loop_
 _atom_site_type_symbol
 _atom_site_label
 _atom_site_symmetry_multiplicity
 _atom_site_fract_x
 _atom_site_fract_y
 _atom_site_fract_z
 _atom_site_occupancy
  Li  Li0  1  0.177718  0.607141  0.607572  1
  Li  Li1  1  0.607570  0.607142  0.177720  1
  Li  Li2  1  0.607568  0.607141  0.607566  1
  Yb  Yb3  1  0.598179  0.205461  0.598179  1
  Yb  Yb4  1  0.253045  0.240865  0.253046  1
  Si  Si5  1  0.204862  0.664588  0.204862  1
  Si  Si6  1  0.925688  0.664587  0.204862  1
  Si  Si7  1  0.204248  0.207050  0.661380  1
  Si  Si8  1  0.661380  0.207050  0.204248  1
  Si  Si9  1  0.927321  0.207049  0.661380  1
  Si  Si10  1  0.204862  0.664587  0.925689  1
  Si  Si11  1  0.927321  0.207049  0.204249  1
  Si  Si12  1  0.658901  0.922798  0.209151  1
  Si  Si13  1  0.209150  0.922799  0.209151  1
  Si  Si14  1  0.209151  0.922798  0.658901  1
  Si  Si15  1  0.533982  0.820030  0.822994  1
  Si  Si16  1  0.822994  0.820031  0.822994  1
  Si  Si17  1  0.661380  0.207049  0.927322  1
  Si  Si18  1  0.822994  0.820031  0.533982  1
  Si  Si19  1  0.822311  0.533066  0.822311  1
  Si  Si20  1  0.204249  0.207049  0.927322  1
  Pd  Pd21  1  0.990404  0.984083  0.512757  1
  Pd  Pd22  1  0.512758  0.984083  0.512757  1
  Pd  Pd23  1  0.986578  0.513604  0.986578  1
  Pd  Pd24  1  0.376080  0.381229  0.866612  1
  Pd  Pd25  1  0.376080  0.381230  0.376080  1
  Pd  Pd26  1  0.866612  0.381229  0.376080  1
  Pd  Pd27  1  0.986578  0.513604  0.513239  1
  Pd  Pd28  1  0.513239  0.513604  0.986578  1
  Pd  Pd29  1  0.384036  0.847889  0.384037  1
  Pd  Pd30  1  0.512757  0.984083  0.990403  1
