# generated using pymatgen
data_Ba2SiAu8
_symmetry_space_group_name_H-M   'P 1'
_cell_length_a   4.71348300
_cell_length_b   10.17538723
_cell_length_c   10.17538750
_cell_angle_alpha   148.31390073
_cell_angle_beta   90.00000000
_cell_angle_gamma   90.00000000
_symmetry_Int_Tables_number   1
_chemical_formula_structural   Ba2SiAu8
_chemical_formula_sum   'Ba2 Si1 Au8'
_cell_volume   256.34360689
_cell_formula_units_Z   1
loop_
 _symmetry_equiv_pos_site_id
 _symmetry_equiv_pos_as_xyz
  1  'x, y, z'
loop_
 _atom_site_type_symbol
 _atom_site_label
 _atom_site_symmetry_multiplicity
 _atom_site_fract_x
 _atom_site_fract_y
 _atom_site_fract_z
 _atom_site_occupancy
  Ba  Ba0  1  0.500000  0.605437  0.377531  1
  Ba  Ba1  1  0.500000  0.377531  0.605437  1
  Si  Si2  1  0.000000  0.190575  0.190575  1
  Au  Au3  1  0.000000  0.892516  0.126290  1
  Au  Au4  1  0.500000  0.781786  0.200870  1
  Au  Au5  1  0.000000  0.986425  0.492322  1
  Au  Au6  1  0.000000  0.655384  0.655384  1
  Au  Au7  1  0.500000  0.200870  0.781786  1
  Au  Au8  1  0.000000  0.126290  0.892516  1
  Au  Au9  1  0.000000  0.492322  0.986425  1
  Au  Au10  1  0.500000  0.004448  0.004448  1
