# generated using pymatgen
data_Sr3AsI3
_symmetry_space_group_name_H-M   'P 1'
_cell_length_a   11.42023296
_cell_length_b   11.42023298
_cell_length_c   11.42023300
_cell_angle_alpha   109.47121890
_cell_angle_beta   109.47121894
_cell_angle_gamma   109.47122479
_symmetry_Int_Tables_number   1
_chemical_formula_structural   Sr3AsI3
_chemical_formula_sum   'Sr12 As4 I12'
_cell_volume   1146.57639570
_cell_formula_units_Z   4
loop_
 _symmetry_equiv_pos_site_id
 _symmetry_equiv_pos_as_xyz
  1  'x, y, z'
loop_
 _atom_site_type_symbol
 _atom_site_label
 _atom_site_symmetry_multiplicity
 _atom_site_fract_x
 _atom_site_fract_y
 _atom_site_fract_z
 _atom_site_occupancy
  Sr  Sr0  1  0.763784  0.527570  0.513784  1
  Sr  Sr1  1  0.986216  0.513784  0.250000  1
  Sr  Sr2  1  0.527570  0.513784  0.763784  1
  Sr  Sr3  1  0.250000  0.763784  0.736216  1
  Sr  Sr4  1  0.513784  0.763784  0.527570  1
  Sr  Sr5  1  0.736216  0.250000  0.763784  1
  Sr  Sr6  1  0.513784  0.250000  0.986216  1
  Sr  Sr7  1  0.736216  0.986216  0.972430  1
  Sr  Sr8  1  0.763784  0.736216  0.250000  1
  Sr  Sr9  1  0.972430  0.736216  0.986216  1
  Sr  Sr10  1  0.250000  0.986216  0.513784  1
  Sr  Sr11  1  0.986216  0.972430  0.736216  1
  As  As12  1  0.750000  0.750000  0.750000  1
  As  As13  1  0.000000  0.750000  0.500000  1
  As  As14  1  0.750000  0.500000  0.000000  1
  As  As15  1  0.500000  0.000000  0.750000  1
  I  I16  1  0.253235  0.750000  0.246765  1
  I  I17  1  0.750000  0.003235  0.496765  1
  I  I18  1  0.003235  0.496765  0.750000  1
  I  I19  1  0.006470  0.253235  0.003235  1
  I  I20  1  0.496765  0.246765  0.493530  1
  I  I21  1  0.003235  0.006470  0.253235  1
  I  I22  1  0.246765  0.493530  0.496765  1
  I  I23  1  0.246765  0.253235  0.750000  1
  I  I24  1  0.496765  0.750000  0.003235  1
  I  I25  1  0.493530  0.496765  0.246765  1
  I  I26  1  0.750000  0.246765  0.253235  1
  I  I27  1  0.253235  0.003235  0.006470  1
