# generated using pymatgen
data_Yb3Pr17Si15Ir
_symmetry_space_group_name_H-M   'P 1'
_cell_length_a   7.94451105
_cell_length_b   7.90169584
_cell_length_c   15.18742328
_cell_angle_alpha   90.06744471
_cell_angle_beta   89.86096512
_cell_angle_gamma   90.12500399
_symmetry_Int_Tables_number   1
_chemical_formula_structural   Yb3Pr17Si15Ir
_chemical_formula_sum   'Yb3 Pr17 Si15 Ir1'
_cell_volume   953.38643540
_cell_formula_units_Z   1
loop_
 _symmetry_equiv_pos_site_id
 _symmetry_equiv_pos_as_xyz
  1  'x, y, z'
loop_
 _atom_site_type_symbol
 _atom_site_label
 _atom_site_symmetry_multiplicity
 _atom_site_fract_x
 _atom_site_fract_y
 _atom_site_fract_z
 _atom_site_occupancy
  Yb  Yb0  1  0.309222  0.308753  0.998931  1
  Yb  Yb1  1  0.190029  0.810403  0.250513  1
  Yb  Yb2  1  0.818519  0.191213  0.747534  1
  Pr  Pr3  1  0.693884  0.688474  0.501424  1
  Pr  Pr4  1  0.375207  0.009458  0.448277  1
  Pr  Pr5  1  0.489281  0.878942  0.699189  1
  Pr  Pr6  1  0.509394  0.123612  0.197721  1
  Pr  Pr7  1  0.875961  0.490253  0.299232  1
  Pr  Pr8  1  0.124779  0.502916  0.799337  1
  Pr  Pr9  1  0.624493  0.991500  0.947595  1
  Pr  Pr10  1  0.003703  0.374744  0.554175  1
  Pr  Pr11  1  0.990965  0.624240  0.050655  1
  Pr  Pr12  1  0.129107  0.991422  0.872336  1
  Pr  Pr13  1  0.512115  0.627613  0.125886  1
  Pr  Pr14  1  0.475736  0.361349  0.629903  1
  Pr  Pr15  1  0.627294  0.510428  0.874548  1
  Pr  Pr16  1  0.373738  0.484165  0.374099  1
  Pr  Pr17  1  0.875713  0.018043  0.375816  1
  Pr  Pr18  1  0.987218  0.123988  0.123743  1
  Pr  Pr19  1  0.025822  0.885031  0.626867  1
  Si  Si20  1  0.332463  0.697815  0.948833  1
  Si  Si21  1  0.664261  0.300586  0.450785  1
  Si  Si22  1  0.702254  0.334292  0.052055  1
  Si  Si23  1  0.304080  0.669164  0.548436  1
  Si  Si24  1  0.799580  0.834046  0.200414  1
  Si  Si25  1  0.165892  0.201848  0.298172  1
  Si  Si26  1  0.834771  0.798090  0.801371  1
  Si  Si27  1  0.286496  0.918302  0.057833  1
  Si  Si28  1  0.581170  0.786455  0.309640  1
  Si  Si29  1  0.424744  0.205958  0.813733  1
  Si  Si30  1  0.782126  0.583688  0.690695  1
  Si  Si31  1  0.212396  0.421168  0.189833  1
  Si  Si32  1  0.704053  0.073676  0.558488  1
  Si  Si33  1  0.919018  0.287385  0.942261  1
  Si  Si34  1  0.079970  0.715021  0.441410  1
  Ir  Ir35  1  0.194540  0.175960  0.698259  1
