# generated using pymatgen
data_Tb4Sn6Ir5Rh2
_symmetry_space_group_name_H-M   'P 1'
_cell_length_a   7.61934046
_cell_length_b   7.61937544
_cell_length_c   7.61934047
_cell_angle_alpha   109.49034309
_cell_angle_beta   109.49223374
_cell_angle_gamma   109.43089906
_symmetry_Int_Tables_number   1
_chemical_formula_structural   Tb4Sn6Ir5Rh2
_chemical_formula_sum   'Tb4 Sn6 Ir5 Rh2'
_cell_volume   340.51254722
_cell_formula_units_Z   1
loop_
 _symmetry_equiv_pos_site_id
 _symmetry_equiv_pos_as_xyz
  1  'x, y, z'
loop_
 _atom_site_type_symbol
 _atom_site_label
 _atom_site_symmetry_multiplicity
 _atom_site_fract_x
 _atom_site_fract_y
 _atom_site_fract_z
 _atom_site_occupancy
  Tb  Tb0  1  0.000306  0.999694  0.500001  1
  Tb  Tb1  1  0.000303  0.500305  0.000610  1
  Tb  Tb2  1  0.499693  0.999694  0.999388  1
  Tb  Tb3  1  0.499695  0.500305  0.500001  1
  Sn  Sn4  1  0.686029  0.686031  0.000003  1
  Sn  Sn5  1  0.315009  0.000244  0.314766  1
  Sn  Sn6  1  0.999757  0.314522  0.314766  1
  Sn  Sn7  1  0.313973  0.313971  0.999997  1
  Sn  Sn8  1  0.685478  0.000244  0.685235  1
  Sn  Sn9  1  0.999761  0.684995  0.685234  1
  Ir  Ir10  1  0.750106  0.500138  0.249971  1
  Ir  Ir11  1  0.499862  0.249893  0.750031  1
  Ir  Ir12  1  0.250167  0.500138  0.750033  1
  Ir  Ir13  1  0.249999  0.749999  0.499999  1
  Ir  Ir14  1  0.499863  0.749832  0.249968  1
  Rh  Rh15  1  0.750003  0.250001  0.499999  1
  Rh  Rh16  1  0.999997  0.999994  0.999997  1
