# generated using pymatgen
data_Ho5Fe12Co7P12
_symmetry_space_group_name_H-M   'P 1'
_cell_length_a   11.92613300
_cell_length_b   11.92613449
_cell_length_c   3.67599500
_cell_angle_alpha   90.00000000
_cell_angle_beta   90.00000000
_cell_angle_gamma   120.00000419
_symmetry_Int_Tables_number   1
_chemical_formula_structural   Ho5Fe12Co7P12
_chemical_formula_sum   'Ho5 Fe12 Co7 P12'
_cell_volume   452.79839224
_cell_formula_units_Z   1
loop_
 _symmetry_equiv_pos_site_id
 _symmetry_equiv_pos_as_xyz
  1  'x, y, z'
loop_
 _atom_site_type_symbol
 _atom_site_label
 _atom_site_symmetry_multiplicity
 _atom_site_fract_x
 _atom_site_fract_y
 _atom_site_fract_z
 _atom_site_occupancy
  Ho  Ho0  1  0.666667  0.333333  0.000000  1
  Ho  Ho1  1  0.333333  0.666667  0.000000  1
  Ho  Ho2  1  0.814451  0.814451  0.500000  1
  Ho  Ho3  1  0.185549  0.000000  0.500000  1
  Ho  Ho4  1  0.000000  0.185549  0.500000  1
  Fe  Fe5  1  0.876782  0.358381  0.500000  1
  Fe  Fe6  1  0.641619  0.518401  0.500000  1
  Fe  Fe7  1  0.481599  0.123218  0.500000  1
  Fe  Fe8  1  0.358381  0.876782  0.500000  1
  Fe  Fe9  1  0.518401  0.641619  0.500000  1
  Fe  Fe10  1  0.123218  0.481599  0.500000  1
  Fe  Fe11  1  0.444257  0.444257  0.000000  1
  Fe  Fe12  1  0.555743  0.000000  0.000000  1
  Fe  Fe13  1  0.000000  0.555743  0.000000  1
  Fe  Fe14  1  0.285049  0.285049  0.500000  1
  Fe  Fe15  1  0.714951  0.000000  0.500000  1
  Fe  Fe16  1  0.000000  0.714951  0.500000  1
  Co  Co17  1  0.801516  0.179280  0.000000  1
  Co  Co18  1  0.820720  0.622235  0.000000  1
  Co  Co19  1  0.377765  0.198484  0.000000  1
  Co  Co20  1  0.179280  0.801516  0.000000  1
  Co  Co21  1  0.622235  0.820720  0.000000  1
  Co  Co22  1  0.198484  0.377765  0.000000  1
  Co  Co23  1  0.000000  0.000000  0.000000  1
  P  P24  1  0.684522  0.165062  0.500000  1
  P  P25  1  0.834938  0.519461  0.500000  1
  P  P26  1  0.480539  0.315478  0.500000  1
  P  P27  1  0.165062  0.684522  0.500000  1
  P  P28  1  0.519461  0.834938  0.500000  1
  P  P29  1  0.315478  0.480539  0.500000  1
  P  P30  1  0.182955  0.182955  0.000000  1
  P  P31  1  0.817045  0.000000  0.000000  1
  P  P32  1  0.000000  0.817045  0.000000  1
  P  P33  1  0.629035  0.629035  0.000000  1
  P  P34  1  0.370965  0.000000  0.000000  1
  P  P35  1  0.000000  0.370965  0.000000  1
