# generated using pymatgen
data_K4Sr(GeO3)3
_symmetry_space_group_name_H-M   'P 1'
_cell_length_a   7.45859856
_cell_length_b   7.45859877
_cell_length_c   11.45185180
_cell_angle_alpha   89.67840711
_cell_angle_beta   89.67840746
_cell_angle_gamma   112.01095215
_symmetry_Int_Tables_number   1
_chemical_formula_structural   K4Sr(GeO3)3
_chemical_formula_sum   'K8 Sr2 Ge6 O18'
_cell_volume   590.60976543
_cell_formula_units_Z   2
loop_
 _symmetry_equiv_pos_site_id
 _symmetry_equiv_pos_as_xyz
  1  'x, y, z'
loop_
 _atom_site_type_symbol
 _atom_site_label
 _atom_site_symmetry_multiplicity
 _atom_site_fract_x
 _atom_site_fract_y
 _atom_site_fract_z
 _atom_site_occupancy
  K  K0  1  0.291767  0.150294  0.748809  1
  K  K1  1  0.039196  0.960804  0.000000  1
  K  K2  1  0.849706  0.708233  0.251191  1
  K  K3  1  0.581333  0.418667  0.000000  1
  K  K4  1  0.595303  0.404697  0.500000  1
  K  K5  1  0.308306  0.574121  0.251954  1
  K  K6  1  0.990279  0.009721  0.500000  1
  K  K7  1  0.425879  0.691694  0.748046  1
  Sr  Sr8  1  0.827225  0.203710  0.235160  1
  Sr  Sr9  1  0.796290  0.172775  0.764840  1
  Ge  Ge10  1  0.889079  0.664727  0.744443  1
  Ge  Ge11  1  0.335273  0.110921  0.255557  1
  Ge  Ge12  1  0.485513  0.911306  0.474029  1
  Ge  Ge13  1  0.101993  0.506995  0.965894  1
  Ge  Ge14  1  0.088694  0.514487  0.525971  1
  Ge  Ge15  1  0.493005  0.898007  0.034106  1
  O  O16  1  0.348592  0.651408  0.500000  1
  O  O17  1  0.114722  0.135274  0.240679  1
  O  O18  1  0.864726  0.885278  0.759321  1
  O  O19  1  0.995370  0.680250  0.598602  1
  O  O20  1  0.358450  0.641550  0.000000  1
  O  O21  1  0.508923  0.047056  0.913420  1
  O  O22  1  0.332058  0.929502  0.148400  1
  O  O23  1  0.319750  0.004630  0.401398  1
  O  O24  1  0.070498  0.667942  0.851600  1
  O  O25  1  0.705978  0.908070  0.099256  1
  O  O26  1  0.543682  0.322100  0.244352  1
  O  O27  1  0.079421  0.329190  0.621685  1
  O  O28  1  0.670810  0.920579  0.378315  1
  O  O29  1  0.543527  0.032823  0.606882  1
  O  O30  1  0.952944  0.491077  0.086580  1
  O  O31  1  0.091930  0.294022  0.900744  1
  O  O32  1  0.967177  0.456473  0.393118  1
  O  O33  1  0.677900  0.456318  0.755648  1
