# generated using pymatgen
data_La18Pr2Si15Rh
_symmetry_space_group_name_H-M   'P 1'
_cell_length_a   8.00826040
_cell_length_b   8.01959936
_cell_length_c   15.52976700
_cell_angle_alpha   89.91074411
_cell_angle_beta   89.65831646
_cell_angle_gamma   90.12295777
_symmetry_Int_Tables_number   1
_chemical_formula_structural   La18Pr2Si15Rh
_chemical_formula_sum   'La18 Pr2 Si15 Rh1'
_cell_volume   997.34758508
_cell_formula_units_Z   1
loop_
 _symmetry_equiv_pos_site_id
 _symmetry_equiv_pos_as_xyz
  1  'x, y, z'
loop_
 _atom_site_type_symbol
 _atom_site_label
 _atom_site_symmetry_multiplicity
 _atom_site_fract_x
 _atom_site_fract_y
 _atom_site_fract_z
 _atom_site_occupancy
  La  La0  1  0.304939  0.307329  0.996921  1
  La  La1  1  0.193623  0.806328  0.249604  1
  La  La2  1  0.822772  0.188015  0.751340  1
  La  La3  1  0.692798  0.685286  0.499100  1
  La  La4  1  0.373270  0.010306  0.448027  1
  La  La5  1  0.490242  0.874987  0.697920  1
  La  La6  1  0.509013  0.122135  0.196086  1
  La  La7  1  0.876218  0.487726  0.299897  1
  La  La8  1  0.124960  0.510849  0.799365  1
  La  La9  1  0.627586  0.988984  0.948279  1
  La  La10  1  0.002255  0.379203  0.553123  1
  La  La11  1  0.990396  0.624008  0.052220  1
  La  La12  1  0.136026  0.987467  0.873569  1
  La  La13  1  0.516695  0.630411  0.126170  1
  La  La14  1  0.468699  0.360267  0.629884  1
  La  La15  1  0.629386  0.516969  0.873889  1
  La  La16  1  0.371350  0.481567  0.373384  1
  La  La17  1  0.872611  0.019920  0.377430  1
  Pr  Pr18  1  0.982630  0.125662  0.124096  1
  Pr  Pr19  1  0.023493  0.879207  0.624089  1
  Si  Si20  1  0.333573  0.697299  0.951471  1
  Si  Si21  1  0.662861  0.301659  0.455144  1
  Si  Si22  1  0.699709  0.334443  0.049666  1
  Si  Si23  1  0.301694  0.669187  0.547988  1
  Si  Si24  1  0.806038  0.832716  0.203654  1
  Si  Si25  1  0.166615  0.196076  0.295488  1
  Si  Si26  1  0.835207  0.803053  0.796549  1
  Si  Si27  1  0.287806  0.922044  0.057837  1
  Si  Si28  1  0.580868  0.788509  0.309340  1
  Si  Si29  1  0.430020  0.207114  0.812019  1
  Si  Si30  1  0.784748  0.583973  0.690211  1
  Si  Si31  1  0.210626  0.419506  0.189900  1
  Si  Si32  1  0.702796  0.073711  0.559771  1
  Si  Si33  1  0.919038  0.288038  0.942780  1
  Si  Si34  1  0.080368  0.715547  0.442482  1
  Rh  Rh35  1  0.189073  0.180497  0.701304  1
