# generated using pymatgen
data_Dy2Ho14In6CoRh
_symmetry_space_group_name_H-M   'P 1'
_cell_length_a   10.37193100
_cell_length_b   10.37193148
_cell_length_c   7.02655100
_cell_angle_alpha   90.00000000
_cell_angle_beta   90.00000000
_cell_angle_gamma   120.00000165
_symmetry_Int_Tables_number   1
_chemical_formula_structural   Dy2Ho14In6CoRh
_chemical_formula_sum   'Dy2 Ho14 In6 Co1 Rh1'
_cell_volume   654.62424391
_cell_formula_units_Z   1
loop_
 _symmetry_equiv_pos_site_id
 _symmetry_equiv_pos_as_xyz
  1  'x, y, z'
loop_
 _atom_site_type_symbol
 _atom_site_label
 _atom_site_symmetry_multiplicity
 _atom_site_fract_x
 _atom_site_fract_y
 _atom_site_fract_z
 _atom_site_occupancy
  Dy  Dy0  1  0.000000  0.000000  0.494651  1
  Dy  Dy1  1  0.000000  0.000000  0.997880  1
  Ho  Ho2  1  0.466859  0.533141  0.480585  1
  Ho  Ho3  1  0.066281  0.533141  0.480585  1
  Ho  Ho4  1  0.466859  0.933719  0.480585  1
  Ho  Ho5  1  0.535922  0.464078  0.982027  1
  Ho  Ho6  1  0.928156  0.464078  0.982027  1
  Ho  Ho7  1  0.535922  0.071844  0.982027  1
  Ho  Ho8  1  0.821862  0.178138  0.274877  1
  Ho  Ho9  1  0.356276  0.178138  0.274877  1
  Ho  Ho10  1  0.821862  0.643724  0.274877  1
  Ho  Ho11  1  0.176157  0.823843  0.776392  1
  Ho  Ho12  1  0.647686  0.823843  0.776392  1
  Ho  Ho13  1  0.176157  0.352314  0.776392  1
  Ho  Ho14  1  0.333333  0.666667  0.100771  1
  Ho  Ho15  1  0.666667  0.333333  0.591026  1
  In  In16  1  0.162674  0.837326  0.234495  1
  In  In17  1  0.674652  0.837326  0.234495  1
  In  In18  1  0.162674  0.325348  0.234495  1
  In  In19  1  0.836404  0.163596  0.733341  1
  In  In20  1  0.327193  0.163596  0.733341  1
  In  In21  1  0.836404  0.672807  0.733341  1
  Co  Co22  1  0.666667  0.333333  0.207298  1
  Rh  Rh23  1  0.333333  0.666667  0.707773  1
