# generated using pymatgen
data_Pr2Er18Si15Hg
_symmetry_space_group_name_H-M   'P 1'
_cell_length_a   7.41486378
_cell_length_b   7.68376578
_cell_length_c   14.59694690
_cell_angle_alpha   90.08193775
_cell_angle_beta   91.04342294
_cell_angle_gamma   90.10618857
_symmetry_Int_Tables_number   1
_chemical_formula_structural   Pr2Er18Si15Hg
_chemical_formula_sum   'Pr2 Er18 Si15 Hg1'
_cell_volume   831.50734820
_cell_formula_units_Z   1
loop_
 _symmetry_equiv_pos_site_id
 _symmetry_equiv_pos_as_xyz
  1  'x, y, z'
loop_
 _atom_site_type_symbol
 _atom_site_label
 _atom_site_symmetry_multiplicity
 _atom_site_fract_x
 _atom_site_fract_y
 _atom_site_fract_z
 _atom_site_occupancy
  Pr  Pr0  1  0.021419  0.819586  0.599702  1
  Pr  Pr1  1  0.517446  0.672082  0.598569  1
  Er  Er2  1  0.318067  0.820863  0.121703  1
  Er  Er3  1  0.817536  0.676810  0.122145  1
  Er  Er4  1  0.847971  0.508054  0.751794  1
  Er  Er5  1  0.469860  0.317508  0.098938  1
  Er  Er6  1  0.028605  0.815033  0.901894  1
  Er  Er7  1  0.476475  0.324366  0.396750  1
  Er  Er8  1  0.652712  0.009782  0.247388  1
  Er  Er9  1  0.529481  0.683586  0.901801  1
  Er  Er10  1  0.679385  0.178433  0.880354  1
  Er  Er11  1  0.174403  0.324372  0.625215  1
  Er  Er12  1  0.181043  0.321964  0.880757  1
  Er  Er13  1  0.828662  0.669732  0.371623  1
  Er  Er14  1  0.319620  0.825194  0.374432  1
  Er  Er15  1  0.346383  0.989835  0.749772  1
  Er  Er16  1  0.674914  0.179307  0.628342  1
  Er  Er17  1  0.153119  0.489729  0.249354  1
  Er  Er18  1  0.969932  0.184214  0.099442  1
  Er  Er19  1  0.987389  0.187231  0.395673  1
  Si  Si20  1  0.229582  0.625222  0.757318  1
  Si  Si21  1  0.340433  0.041380  0.538220  1
  Si  Si22  1  0.024075  0.894415  0.246244  1
  Si  Si23  1  0.729622  0.872792  0.756891  1
  Si  Si24  1  0.273237  0.129870  0.245786  1
  Si  Si25  1  0.847328  0.459351  0.536506  1
  Si  Si26  1  0.474193  0.391271  0.755890  1
  Si  Si27  1  0.155440  0.527430  0.457828  1
  Si  Si28  1  0.144462  0.528132  0.042442  1
  Si  Si29  1  0.974268  0.110334  0.755678  1
  Si  Si30  1  0.770030  0.370984  0.246736  1
  Si  Si31  1  0.352695  0.028255  0.960177  1
  Si  Si32  1  0.854063  0.472226  0.959154  1
  Si  Si33  1  0.645351  0.969928  0.040996  1
  Si  Si34  1  0.523228  0.608606  0.245929  1
  Hg  Hg35  1  0.667572  0.972122  0.458560  1
