# generated using pymatgen
data_KRbV2O6
_symmetry_space_group_name_H-M   'P 1'
_cell_length_a   5.94728927
_cell_length_b   8.02322215
_cell_length_c   8.02322051
_cell_angle_alpha   90.23457274
_cell_angle_beta   97.52461812
_cell_angle_gamma   82.47538025
_symmetry_Int_Tables_number   1
_chemical_formula_structural   KRbV2O6
_chemical_formula_sum   'K2 Rb2 V4 O12'
_cell_volume   376.24108038
_cell_formula_units_Z   2
loop_
 _symmetry_equiv_pos_site_id
 _symmetry_equiv_pos_as_xyz
  1  'x, y, z'
loop_
 _atom_site_type_symbol
 _atom_site_label
 _atom_site_symmetry_multiplicity
 _atom_site_fract_x
 _atom_site_fract_y
 _atom_site_fract_z
 _atom_site_occupancy
  K  K0  1  0.750048  0.103442  0.103428  1
  K  K1  1  0.250048  0.896571  0.896558  1
  Rb  Rb2  1  0.249999  0.309681  0.309778  1
  Rb  Rb3  1  0.749999  0.690223  0.690319  1
  V  V4  1  0.738626  0.633176  0.206542  1
  V  V5  1  0.238626  0.793457  0.366824  1
  V  V6  1  0.761310  0.206467  0.633251  1
  V  V7  1  0.261310  0.366748  0.793532  1
  O  O8  1  0.685234  0.771824  0.045275  1
  O  O9  1  0.787943  0.437447  0.136515  1
  O  O10  1  0.185234  0.954725  0.228175  1
  O  O11  1  0.494700  0.651733  0.327712  1
  O  O12  1  0.994700  0.672290  0.348267  1
  O  O13  1  0.712076  0.136489  0.437266  1
  O  O14  1  0.287943  0.863485  0.562553  1
  O  O15  1  0.005277  0.327716  0.651753  1
  O  O16  1  0.505277  0.348248  0.672285  1
  O  O17  1  0.814790  0.045244  0.771699  1
  O  O18  1  0.212076  0.562735  0.863510  1
  O  O19  1  0.314790  0.228300  0.954756  1
