# generated using pymatgen
data_Nb12Al5Cu2PdN4
_symmetry_space_group_name_H-M   'P 1'
_cell_length_a   7.03922617
_cell_length_b   7.03129965
_cell_length_c   7.03332804
_cell_angle_alpha   90.18879305
_cell_angle_beta   90.16358575
_cell_angle_gamma   89.98322519
_symmetry_Int_Tables_number   1
_chemical_formula_structural   Nb12Al5Cu2PdN4
_chemical_formula_sum   'Nb12 Al5 Cu2 Pd1 N4'
_cell_volume   348.11060504
_cell_formula_units_Z   1
loop_
 _symmetry_equiv_pos_site_id
 _symmetry_equiv_pos_as_xyz
  1  'x, y, z'
loop_
 _atom_site_type_symbol
 _atom_site_label
 _atom_site_symmetry_multiplicity
 _atom_site_fract_x
 _atom_site_fract_y
 _atom_site_fract_z
 _atom_site_occupancy
  Nb  Nb0  1  0.789923  0.955540  0.379726  1
  Nb  Nb1  1  0.707957  0.042050  0.871162  1
  Nb  Nb2  1  0.209972  0.456915  0.125674  1
  Nb  Nb3  1  0.292850  0.542835  0.625462  1
  Nb  Nb4  1  0.957509  0.378421  0.789273  1
  Nb  Nb5  1  0.041763  0.872601  0.707693  1
  Nb  Nb6  1  0.454168  0.123546  0.209379  1
  Nb  Nb7  1  0.543528  0.626763  0.292515  1
  Nb  Nb8  1  0.377803  0.791213  0.957493  1
  Nb  Nb9  1  0.873385  0.709763  0.041687  1
  Nb  Nb10  1  0.127353  0.208142  0.456177  1
  Nb  Nb11  1  0.622820  0.291086  0.545176  1
  Al  Al12  1  0.676881  0.676682  0.677175  1
  Al  Al13  1  0.569826  0.418246  0.932660  1
  Al  Al14  1  0.417304  0.933741  0.571519  1
  Al  Al15  1  0.935161  0.572801  0.418657  1
  Al  Al16  1  0.075288  0.072904  0.072798  1
  Cu  Cu17  1  0.177396  0.822431  0.319112  1
  Cu  Cu18  1  0.318636  0.177627  0.823090  1
  Pd  Pd19  1  0.821528  0.317884  0.178793  1
  N  N20  1  0.880415  0.127093  0.623882  1
  N  N21  1  0.625635  0.880335  0.125219  1
  N  N22  1  0.125588  0.624324  0.880193  1
  N  N23  1  0.377311  0.377058  0.375486  1
