# generated using pymatgen
data_Dy3Y5Re3B24Rh
_symmetry_space_group_name_H-M   'P 1'
_cell_length_a   3.68804900
_cell_length_b   9.18493057
_cell_length_c   11.56828417
_cell_angle_alpha   90.14953595
_cell_angle_beta   90.00000000
_cell_angle_gamma   90.00000000
_symmetry_Int_Tables_number   1
_chemical_formula_structural   Dy3Y5Re3B24Rh
_chemical_formula_sum   'Dy3 Y5 Re3 B24 Rh1'
_cell_volume   391.86820688
_cell_formula_units_Z   1
loop_
 _symmetry_equiv_pos_site_id
 _symmetry_equiv_pos_as_xyz
  1  'x, y, z'
loop_
 _atom_site_type_symbol
 _atom_site_label
 _atom_site_symmetry_multiplicity
 _atom_site_fract_x
 _atom_site_fract_y
 _atom_site_fract_z
 _atom_site_occupancy
  Dy  Dy0  1  0.000000  0.055751  0.628929  1
  Dy  Dy1  1  0.000000  0.441443  0.129207  1
  Dy  Dy2  1  0.000000  0.556620  0.871621  1
  Y  Y3  1  0.000000  0.318707  0.415476  1
  Y  Y4  1  0.000000  0.677995  0.591115  1
  Y  Y5  1  0.000000  0.827155  0.081402  1
  Y  Y6  1  0.000000  0.177031  0.912737  1
  Y  Y7  1  0.000000  0.943596  0.370133  1
  Re  Re8  1  0.000000  0.362294  0.677582  1
  Re  Re9  1  0.000000  0.138579  0.179770  1
  Re  Re10  1  0.000000  0.861456  0.820855  1
  B  B11  1  0.500000  0.554145  0.433461  1
  B  B12  1  0.500000  0.446518  0.566857  1
  B  B13  1  0.500000  0.053601  0.066671  1
  B  B14  1  0.500000  0.946920  0.932540  1
  B  B15  1  0.500000  0.748804  0.420198  1
  B  B16  1  0.500000  0.250860  0.581166  1
  B  B17  1  0.500000  0.249147  0.081478  1
  B  B18  1  0.500000  0.751888  0.918697  1
  B  B19  1  0.500000  0.790899  0.265253  1
  B  B20  1  0.500000  0.208505  0.733775  1
  B  B21  1  0.500000  0.291630  0.234889  1
  B  B22  1  0.500000  0.708217  0.766129  1
  B  B23  1  0.500000  0.632164  0.184427  1
  B  B24  1  0.500000  0.369114  0.813790  1
  B  B25  1  0.500000  0.131295  0.314536  1
  B  B26  1  0.500000  0.868084  0.685861  1
  B  B27  1  0.500000  0.983587  0.211824  1
  B  B28  1  0.500000  0.016710  0.786996  1
  B  B29  1  0.500000  0.483841  0.287970  1
  B  B30  1  0.500000  0.517548  0.712466  1
  B  B31  1  0.500000  0.604518  0.029643  1
  B  B32  1  0.500000  0.396766  0.971976  1
  B  B33  1  0.500000  0.102825  0.470741  1
  B  B34  1  0.500000  0.894027  0.528522  1
  Rh  Rh35  1  0.000000  0.637759  0.321306  1
