# generated using pymatgen
data_Ca2Mn(SeF)2
_symmetry_space_group_name_H-M   'P 1'
_cell_length_a   3.90500700
_cell_length_b   3.90500700
_cell_length_c   9.19333400
_cell_angle_alpha   90.00000000
_cell_angle_beta   90.00000000
_cell_angle_gamma   90.00000000
_symmetry_Int_Tables_number   1
_chemical_formula_structural   Ca2Mn(SeF)2
_chemical_formula_sum   'Ca2 Mn1 Se2 F2'
_cell_volume   140.18988260
_cell_formula_units_Z   1
loop_
 _symmetry_equiv_pos_site_id
 _symmetry_equiv_pos_as_xyz
  1  'x, y, z'
loop_
 _atom_site_type_symbol
 _atom_site_label
 _atom_site_symmetry_multiplicity
 _atom_site_fract_x
 _atom_site_fract_y
 _atom_site_fract_z
 _atom_site_occupancy
  Ca  Ca0  1  0.000000  0.499999  0.144249  1
  Ca  Ca1  1  0.499999  0.000000  0.855751  1
  Mn  Mn2  1  0.499999  0.499999  0.500000  1
  Se  Se3  1  0.499999  0.000000  0.312594  1
  Se  Se4  1  0.000000  0.499999  0.687406  1
  F  F5  1  0.000000  0.000000  0.000000  1
  F  F6  1  0.499999  0.499999  0.000000  1
