# generated using pymatgen
data_Zr10Sn2Bi4S
_symmetry_space_group_name_H-M   'P 1'
_cell_length_a   5.89756541
_cell_length_b   8.67699302
_cell_length_c   8.67112500
_cell_angle_alpha   120.02250677
_cell_angle_beta   90.02143164
_cell_angle_gamma   89.95719862
_symmetry_Int_Tables_number   1
_chemical_formula_structural   Zr10Sn2Bi4S
_chemical_formula_sum   'Zr10 Sn2 Bi4 S1'
_cell_volume   384.19298654
_cell_formula_units_Z   1
loop_
 _symmetry_equiv_pos_site_id
 _symmetry_equiv_pos_as_xyz
  1  'x, y, z'
loop_
 _atom_site_type_symbol
 _atom_site_label
 _atom_site_symmetry_multiplicity
 _atom_site_fract_x
 _atom_site_fract_y
 _atom_site_fract_z
 _atom_site_occupancy
  Zr  Zr0  1  0.496656  0.333072  0.663602  1
  Zr  Zr1  1  0.496630  0.669502  0.336415  1
  Zr  Zr2  1  0.003370  0.669004  0.336111  1
  Zr  Zr3  1  0.003352  0.332923  0.663924  1
  Zr  Zr4  1  0.757873  0.243077  0.000014  1
  Zr  Zr5  1  0.758112  0.755886  0.754708  1
  Zr  Zr6  1  0.758072  0.001173  0.245285  1
  Zr  Zr7  1  0.241615  0.756559  0.000009  1
  Zr  Zr8  1  0.242802  0.244401  0.250430  1
  Zr  Zr9  1  0.242784  0.993919  0.749527  1
  Sn  Sn10  1  0.248644  0.605991  0.606777  1
  Sn  Sn11  1  0.248328  0.999292  0.393226  1
  Bi  Bi12  1  0.750832  0.605036  0.000000  1
  Bi  Bi13  1  0.751506  0.397701  0.396804  1
  Bi  Bi14  1  0.751494  0.000907  0.603195  1
  Bi  Bi15  1  0.248502  0.391270  0.999991  1
  S  S16  1  0.499428  0.000290  0.999985  1
