# generated using pymatgen
data_Tb2Zn2IrPt
_symmetry_space_group_name_H-M   'P 1'
_cell_length_a   4.11176500
_cell_length_b   7.00594510
_cell_length_c   8.21998074
_cell_angle_alpha   89.91717203
_cell_angle_beta   90.00000000
_cell_angle_gamma   90.00000000
_symmetry_Int_Tables_number   1
_chemical_formula_structural   Tb2Zn2IrPt
_chemical_formula_sum   'Tb4 Zn4 Ir2 Pt2'
_cell_volume   236.79109248
_cell_formula_units_Z   2
loop_
 _symmetry_equiv_pos_site_id
 _symmetry_equiv_pos_as_xyz
  1  'x, y, z'
loop_
 _atom_site_type_symbol
 _atom_site_label
 _atom_site_symmetry_multiplicity
 _atom_site_fract_x
 _atom_site_fract_y
 _atom_site_fract_z
 _atom_site_occupancy
  Tb  Tb0  1  0.250000  0.542908  0.188616  1
  Tb  Tb1  1  0.750000  0.457092  0.811384  1
  Tb  Tb2  1  0.250000  0.036558  0.320033  1
  Tb  Tb3  1  0.750000  0.963442  0.679967  1
  Zn  Zn4  1  0.250000  0.139598  0.933116  1
  Zn  Zn5  1  0.750000  0.860402  0.066884  1
  Zn  Zn6  1  0.250000  0.637340  0.561965  1
  Zn  Zn7  1  0.750000  0.362660  0.438035  1
  Ir  Ir8  1  0.750000  0.745143  0.377708  1
  Ir  Ir9  1  0.250000  0.254857  0.622292  1
  Pt  Pt10  1  0.750000  0.244579  0.120256  1
  Pt  Pt11  1  0.250000  0.755421  0.879744  1
