# generated using pymatgen
data_Pr4Nd12CdHg3(IrPd)2
_symmetry_space_group_name_H-M   'P 1'
_cell_length_a   9.97892498
_cell_length_b   10.00136518
_cell_length_c   9.97961793
_cell_angle_alpha   60.00754921
_cell_angle_beta   59.94797914
_cell_angle_gamma   60.39332393
_symmetry_Int_Tables_number   1
_chemical_formula_structural   Pr4Nd12CdHg3(IrPd)2
_chemical_formula_sum   'Pr4 Nd12 Cd1 Hg3 Ir2 Pd2'
_cell_volume   706.10478865
_cell_formula_units_Z   1
loop_
 _symmetry_equiv_pos_site_id
 _symmetry_equiv_pos_as_xyz
  1  'x, y, z'
loop_
 _atom_site_type_symbol
 _atom_site_label
 _atom_site_symmetry_multiplicity
 _atom_site_fract_x
 _atom_site_fract_y
 _atom_site_fract_z
 _atom_site_occupancy
  Pr  Pr0  1  0.565200  0.940522  0.560540  1
  Pr  Pr1  1  0.939730  0.563571  0.935576  1
  Pr  Pr2  1  0.562107  0.562992  0.939037  1
  Pr  Pr3  1  0.938451  0.937907  0.561238  1
  Nd  Nd4  1  0.349427  0.349125  0.347422  1
  Nd  Nd5  1  0.352072  0.351952  0.950622  1
  Nd  Nd6  1  0.359235  0.940405  0.351579  1
  Nd  Nd7  1  0.937446  0.360096  0.352319  1
  Nd  Nd8  1  0.804866  0.192201  0.188379  1
  Nd  Nd9  1  0.189788  0.805292  0.814469  1
  Nd  Nd10  1  0.191076  0.805813  0.187891  1
  Nd  Nd11  1  0.804030  0.191089  0.813475  1
  Nd  Nd12  1  0.189507  0.190542  0.811154  1
  Nd  Nd13  1  0.810348  0.810841  0.185701  1
  Nd  Nd14  1  0.940671  0.565056  0.559471  1
  Nd  Nd15  1  0.562160  0.940553  0.937472  1
  Cd  Cd16  1  0.263512  0.577145  0.578643  1
  Hg  Hg17  1  0.583653  0.585102  0.584551  1
  Hg  Hg18  1  0.582038  0.585994  0.246284  1
  Hg  Hg19  1  0.581105  0.247776  0.586317  1
  Ir  Ir20  1  0.139844  0.571397  0.145929  1
  Ir  Ir21  1  0.570970  0.140835  0.144757  1
  Pd  Pd22  1  0.142088  0.142009  0.147329  1
  Pd  Pd23  1  0.140675  0.141785  0.569843  1
