# generated using pymatgen
data_Tb15Er5(SiBi2)4
_symmetry_space_group_name_H-M   'P 1'
_cell_length_a   12.10731530
_cell_length_b   9.19768303
_cell_length_c   8.07959720
_cell_angle_alpha   90.00586349
_cell_angle_beta   89.97521006
_cell_angle_gamma   90.00652390
_symmetry_Int_Tables_number   1
_chemical_formula_structural   Tb15Er5(SiBi2)4
_chemical_formula_sum   'Tb15 Er5 Si4 Bi8'
_cell_volume   899.73777728
_cell_formula_units_Z   1
loop_
 _symmetry_equiv_pos_site_id
 _symmetry_equiv_pos_as_xyz
  1  'x, y, z'
loop_
 _atom_site_type_symbol
 _atom_site_label
 _atom_site_symmetry_multiplicity
 _atom_site_fract_x
 _atom_site_fract_y
 _atom_site_fract_z
 _atom_site_occupancy
  Tb  Tb0  1  0.563348  0.948273  0.680771  1
  Tb  Tb1  1  0.936575  0.051722  0.180828  1
  Tb  Tb2  1  0.436502  0.448251  0.319213  1
  Tb  Tb3  1  0.936694  0.448409  0.180883  1
  Tb  Tb4  1  0.436530  0.051709  0.319135  1
  Tb  Tb5  1  0.063403  0.947892  0.818983  1
  Tb  Tb6  1  0.563408  0.551740  0.680878  1
  Tb  Tb7  1  0.211438  0.749729  0.164839  1
  Tb  Tb8  1  0.711597  0.749968  0.334789  1
  Tb  Tb9  1  0.788418  0.250007  0.834884  1
  Tb  Tb10  1  0.288355  0.250083  0.665258  1
  Tb  Tb11  1  0.294753  0.749791  0.635589  1
  Tb  Tb12  1  0.795413  0.749749  0.864338  1
  Tb  Tb13  1  0.704921  0.249913  0.364652  1
  Tb  Tb14  1  0.204852  0.249986  0.135409  1
  Er  Er15  1  0.063470  0.552132  0.819832  1
  Er  Er16  1  0.000972  0.749955  0.460397  1
  Er  Er17  1  0.500834  0.749977  0.040260  1
  Er  Er18  1  0.999139  0.250174  0.540318  1
  Er  Er19  1  0.499015  0.250028  0.959816  1
  Si  Si20  1  0.479973  0.750017  0.413134  1
  Si  Si21  1  0.980185  0.749123  0.086241  1
  Si  Si22  1  0.520006  0.249982  0.586963  1
  Si  Si23  1  0.020408  0.251595  0.912683  1
  Bi  Bi24  1  0.326731  0.510831  0.931798  1
  Bi  Bi25  1  0.827070  0.989067  0.567936  1
  Bi  Bi26  1  0.672992  0.010817  0.067915  1
  Bi  Bi27  1  0.172777  0.489180  0.432430  1
  Bi  Bi28  1  0.673019  0.489166  0.067885  1
  Bi  Bi29  1  0.172948  0.010746  0.432068  1
  Bi  Bi30  1  0.327039  0.989110  0.932049  1
  Bi  Bi31  1  0.827216  0.510881  0.567828  1
