# generated using pymatgen
data_Pr12Zn3AsBr12
_symmetry_space_group_name_H-M   'P 1'
_cell_length_a   10.48798176
_cell_length_b   10.51218300
_cell_length_c   10.51218248
_cell_angle_alpha   109.51781039
_cell_angle_beta   109.42459278
_cell_angle_gamma   109.42459271
_symmetry_Int_Tables_number   1
_chemical_formula_structural   Pr12Zn3AsBr12
_chemical_formula_sum   'Pr12 Zn3 As1 Br12'
_cell_volume   892.69975642
_cell_formula_units_Z   1
loop_
 _symmetry_equiv_pos_site_id
 _symmetry_equiv_pos_as_xyz
  1  'x, y, z'
loop_
 _atom_site_type_symbol
 _atom_site_label
 _atom_site_symmetry_multiplicity
 _atom_site_fract_x
 _atom_site_fract_y
 _atom_site_fract_z
 _atom_site_occupancy
  Pr  Pr0  1  0.482832  0.491477  0.241538  1
  Pr  Pr1  1  0.750000  0.242772  0.257228  1
  Pr  Pr2  1  0.750000  0.007831  0.492169  1
  Pr  Pr3  1  0.242169  0.484336  0.492169  1
  Pr  Pr4  1  0.258705  0.750062  0.241538  1
  Pr  Pr5  1  0.017168  0.258462  0.008523  1
  Pr  Pr6  1  0.007228  0.014457  0.257228  1
  Pr  Pr7  1  0.491357  0.750062  0.008523  1
  Pr  Pr8  1  0.492772  0.242772  0.485543  1
  Pr  Pr9  1  0.008643  0.491477  0.749938  1
  Pr  Pr10  1  0.257831  0.007831  0.015664  1
  Pr  Pr11  1  0.241295  0.258462  0.749938  1
  Zn  Zn12  1  0.250000  0.250199  0.249801  1
  Zn  Zn13  1  0.499801  0.999601  0.249801  1
  Zn  Zn14  1  0.000199  0.250199  0.500399  1
  As  As15  1  0.250000  0.500000  0.000000  1
  Br  Br16  1  0.250000  0.754463  0.745537  1
  Br  Br17  1  0.511757  0.506087  0.757121  1
  Br  Br18  1  0.988243  0.742879  0.993913  1
  Br  Br19  1  0.745363  0.251034  0.757121  1
  Br  Br20  1  0.995537  0.991074  0.745537  1
  Br  Br21  1  0.250000  0.993450  0.506550  1
  Br  Br22  1  0.756550  0.513099  0.506550  1
  Br  Br23  1  0.505670  0.251034  0.993913  1
  Br  Br24  1  0.754637  0.742879  0.248966  1
  Br  Br25  1  0.743450  0.993450  0.986901  1
  Br  Br26  1  0.994330  0.506087  0.248966  1
  Br  Br27  1  0.504463  0.754463  0.508926  1
