# generated using pymatgen
data_EuYEr2(B6Ru)2
_symmetry_space_group_name_H-M   'P 1'
_cell_length_a   3.66736300
_cell_length_b   9.17231077
_cell_length_c   11.58386526
_cell_angle_alpha   89.92856899
_cell_angle_beta   90.00000000
_cell_angle_gamma   90.00000000
_symmetry_Int_Tables_number   1
_chemical_formula_structural   EuYEr2(B6Ru)2
_chemical_formula_sum   'Eu2 Y2 Er4 B24 Ru4'
_cell_volume   389.65999433
_cell_formula_units_Z   2
loop_
 _symmetry_equiv_pos_site_id
 _symmetry_equiv_pos_as_xyz
  1  'x, y, z'
loop_
 _atom_site_type_symbol
 _atom_site_label
 _atom_site_symmetry_multiplicity
 _atom_site_fract_x
 _atom_site_fract_y
 _atom_site_fract_z
 _atom_site_occupancy
  Eu  Eu0  1  0.000000  0.323267  0.414312  1
  Eu  Eu1  1  0.000000  0.676733  0.585688  1
  Y  Y2  1  0.000000  0.822240  0.085325  1
  Y  Y3  1  0.000000  0.177760  0.914675  1
  Er  Er4  1  0.000000  0.943056  0.370065  1
  Er  Er5  1  0.000000  0.056944  0.629935  1
  Er  Er6  1  0.000000  0.443165  0.128745  1
  Er  Er7  1  0.000000  0.556835  0.871255  1
  B  B8  1  0.500000  0.555627  0.430404  1
  B  B9  1  0.500000  0.444373  0.569596  1
  B  B10  1  0.500000  0.054093  0.066946  1
  B  B11  1  0.500000  0.945907  0.933054  1
  B  B12  1  0.500000  0.749339  0.416617  1
  B  B13  1  0.500000  0.250661  0.583383  1
  B  B14  1  0.500000  0.248471  0.080868  1
  B  B15  1  0.500000  0.751529  0.919132  1
  B  B16  1  0.500000  0.791703  0.264073  1
  B  B17  1  0.500000  0.208297  0.735927  1
  B  B18  1  0.500000  0.289772  0.232670  1
  B  B19  1  0.500000  0.710228  0.767330  1
  B  B20  1  0.500000  0.631510  0.183973  1
  B  B21  1  0.500000  0.368490  0.816027  1
  B  B22  1  0.500000  0.130116  0.313530  1
  B  B23  1  0.500000  0.869884  0.686470  1
  B  B24  1  0.500000  0.983266  0.211662  1
  B  B25  1  0.500000  0.016734  0.788338  1
  B  B26  1  0.500000  0.485085  0.285979  1
  B  B27  1  0.500000  0.514915  0.714021  1
  B  B28  1  0.500000  0.605075  0.028637  1
  B  B29  1  0.500000  0.394925  0.971363  1
  B  B30  1  0.500000  0.100086  0.472567  1
  B  B31  1  0.500000  0.899914  0.527433  1
  Ru  Ru32  1  0.000000  0.640549  0.317467  1
  Ru  Ru33  1  0.000000  0.359451  0.682533  1
  Ru  Ru34  1  0.000000  0.137416  0.177497  1
  Ru  Ru35  1  0.000000  0.862584  0.822503  1
