# generated using pymatgen
data_Pa4MnPd3Pb2
_symmetry_space_group_name_H-M   'P 1'
_cell_length_a   7.86820124
_cell_length_b   7.86820124
_cell_length_c   3.56763500
_cell_angle_alpha   90.00000000
_cell_angle_beta   90.00000000
_cell_angle_gamma   89.81508230
_symmetry_Int_Tables_number   1
_chemical_formula_structural   Pa4MnPd3Pb2
_chemical_formula_sum   'Pa4 Mn1 Pd3 Pb2'
_cell_volume   220.86610513
_cell_formula_units_Z   1
loop_
 _symmetry_equiv_pos_site_id
 _symmetry_equiv_pos_as_xyz
  1  'x, y, z'
loop_
 _atom_site_type_symbol
 _atom_site_label
 _atom_site_symmetry_multiplicity
 _atom_site_fract_x
 _atom_site_fract_y
 _atom_site_fract_z
 _atom_site_occupancy
  Pa  Pa0  1  0.334962  0.834962  0.500000  1
  Pa  Pa1  1  0.693184  0.193184  0.500000  1
  Pa  Pa2  1  0.146925  0.326243  0.500000  1
  Pa  Pa3  1  0.826243  0.646925  0.500000  1
  Mn  Mn4  1  0.868979  0.368979  0.000000  1
  Pd  Pd5  1  0.631684  0.875956  0.000000  1
  Pd  Pd6  1  0.375956  0.131684  0.000000  1
  Pd  Pd7  1  0.129869  0.629869  0.000000  1
  Pb  Pb8  1  0.495267  0.496929  0.000000  1
  Pb  Pb9  1  0.996929  0.995267  0.000000  1
