# generated using pymatgen
data_Ti7(GaIr)4
_symmetry_space_group_name_H-M   'P 1'
_cell_length_a   8.66804224
_cell_length_b   8.66804126
_cell_length_c   8.66804300
_cell_angle_alpha   59.95297700
_cell_angle_beta   59.95297311
_cell_angle_gamma   59.95298878
_symmetry_Int_Tables_number   1
_chemical_formula_structural   Ti7(GaIr)4
_chemical_formula_sum   'Ti14 Ga8 Ir8'
_cell_volume   460.02843426
_cell_formula_units_Z   2
loop_
 _symmetry_equiv_pos_site_id
 _symmetry_equiv_pos_as_xyz
  1  'x, y, z'
loop_
 _atom_site_type_symbol
 _atom_site_label
 _atom_site_symmetry_multiplicity
 _atom_site_fract_x
 _atom_site_fract_y
 _atom_site_fract_z
 _atom_site_occupancy
  Ti  Ti0  1  0.209401  0.209401  0.790591  1
  Ti  Ti1  1  0.790591  0.209401  0.209401  1
  Ti  Ti2  1  0.209401  0.790591  0.209401  1
  Ti  Ti3  1  0.792036  0.792036  0.207571  1
  Ti  Ti4  1  0.207571  0.792036  0.792036  1
  Ti  Ti5  1  0.792036  0.207571  0.792036  1
  Ti  Ti6  1  0.376376  0.376376  0.376376  1
  Ti  Ti7  1  0.376483  0.870753  0.376483  1
  Ti  Ti8  1  0.870753  0.376483  0.376483  1
  Ti  Ti9  1  0.376483  0.376483  0.870753  1
  Ti  Ti10  1  0.838049  0.485586  0.838049  1
  Ti  Ti11  1  0.485586  0.838049  0.838049  1
  Ti  Ti12  1  0.838049  0.838049  0.485586  1
  Ti  Ti13  1  0.836629  0.836629  0.836629  1
  Ga  Ga14  1  0.153872  0.153872  0.153872  1
  Ga  Ga15  1  0.154253  0.537393  0.154253  1
  Ga  Ga16  1  0.537393  0.154253  0.154253  1
  Ga  Ga17  1  0.154253  0.154253  0.537393  1
  Ga  Ga18  1  0.619248  0.619248  0.619248  1
  Ga  Ga19  1  0.619289  0.141900  0.619289  1
  Ga  Ga20  1  0.141900  0.619289  0.619289  1
  Ga  Ga21  1  0.619289  0.619289  0.141900  1
  Ir  Ir22  1  0.001855  0.001855  0.498457  1
  Ir  Ir23  1  0.498457  0.001855  0.001855  1
  Ir  Ir24  1  0.001855  0.498457  0.001855  1
  Ir  Ir25  1  0.498263  0.498263  0.001634  1
  Ir  Ir26  1  0.001634  0.498263  0.498263  1
  Ir  Ir27  1  0.498263  0.001634  0.498263  1
  Ir  Ir28  1  0.499848  0.499848  0.499848  1
  Ir  Ir29  1  0.000882  0.000882  0.000882  1
