# generated using pymatgen
data_Ti12Mn6Ir5Os
_symmetry_space_group_name_H-M   'P 1'
_cell_length_a   4.30047600
_cell_length_b   6.09465000
_cell_length_c   12.92422100
_cell_angle_alpha   90.00000000
_cell_angle_beta   89.99960066
_cell_angle_gamma   90.00000000
_symmetry_Int_Tables_number   1
_chemical_formula_structural   Ti12Mn6Ir5Os
_chemical_formula_sum   'Ti12 Mn6 Ir5 Os1'
_cell_volume   338.74248898
_cell_formula_units_Z   1
loop_
 _symmetry_equiv_pos_site_id
 _symmetry_equiv_pos_as_xyz
  1  'x, y, z'
loop_
 _atom_site_type_symbol
 _atom_site_label
 _atom_site_symmetry_multiplicity
 _atom_site_fract_x
 _atom_site_fract_y
 _atom_site_fract_z
 _atom_site_occupancy
  Ti  Ti0  1  0.500005  0.248640  0.998443  1
  Ti  Ti1  1  0.500005  0.751360  0.998443  1
  Ti  Ti2  1  0.999831  0.249667  0.166318  1
  Ti  Ti3  1  0.999831  0.750333  0.166318  1
  Ti  Ti4  1  0.499828  0.250298  0.333329  1
  Ti  Ti5  1  0.499828  0.749702  0.333329  1
  Ti  Ti6  1  0.000004  0.249653  0.500347  1
  Ti  Ti7  1  0.000004  0.750347  0.500347  1
  Ti  Ti8  1  0.500169  0.248619  0.668220  1
  Ti  Ti9  1  0.500169  0.751381  0.668220  1
  Ti  Ti10  1  0.000169  0.246940  0.833329  1
  Ti  Ti11  1  0.000169  0.753060  0.833329  1
  Mn  Mn12  1  0.000006  0.000000  0.001219  1
  Mn  Mn13  1  0.499910  0.499999  0.167322  1
  Mn  Mn14  1  0.999899  0.000000  0.333313  1
  Mn  Mn15  1  0.500000  0.499999  0.499313  1
  Mn  Mn16  1  0.000091  0.000000  0.665520  1
  Mn  Mn17  1  0.500072  0.499999  0.833347  1
  Ir  Ir18  1  0.000005  0.499999  0.000430  1
  Ir  Ir19  1  0.499855  0.000000  0.167006  1
  Ir  Ir20  1  0.999855  0.499999  0.333324  1
  Ir  Ir21  1  0.500004  0.000000  0.499656  1
  Ir  Ir22  1  0.000156  0.499999  0.666238  1
  Os  Os23  1  0.500137  0.000000  0.833338  1
