# generated using pymatgen
data_Tb(EuSb)3
_symmetry_space_group_name_H-M   'P 1'
_cell_length_a   8.29398996
_cell_length_b   8.29399016
_cell_length_c   8.34741294
_cell_angle_alpha   70.56305674
_cell_angle_beta   70.56305334
_cell_angle_gamma   109.10484255
_symmetry_Int_Tables_number   1
_chemical_formula_structural   Tb(EuSb)3
_chemical_formula_sum   'Tb2 Eu6 Sb6'
_cell_volume   444.38847916
_cell_formula_units_Z   2
loop_
 _symmetry_equiv_pos_site_id
 _symmetry_equiv_pos_as_xyz
  1  'x, y, z'
loop_
 _atom_site_type_symbol
 _atom_site_label
 _atom_site_symmetry_multiplicity
 _atom_site_fract_x
 _atom_site_fract_y
 _atom_site_fract_z
 _atom_site_occupancy
  Tb  Tb0  1  0.858306  0.000698  0.998849  1
  Tb  Tb1  1  0.000698  0.858306  0.498849  1
  Eu  Eu2  1  0.000707  0.359924  0.495538  1
  Eu  Eu3  1  0.496225  0.496138  0.146756  1
  Eu  Eu4  1  0.643040  0.146241  0.358070  1
  Eu  Eu5  1  0.359924  0.000707  0.995538  1
  Eu  Eu6  1  0.496138  0.496225  0.646756  1
  Eu  Eu7  1  0.146241  0.643040  0.858070  1
  Sb  Sb8  1  0.638575  0.875437  0.748808  1
  Sb  Sb9  1  0.875437  0.638575  0.248808  1
  Sb  Sb10  1  0.234820  0.115492  0.631144  1
  Sb  Sb11  1  0.757133  0.377263  0.870833  1
  Sb  Sb12  1  0.377263  0.757133  0.370833  1
  Sb  Sb13  1  0.115492  0.234820  0.131144  1
