# generated using pymatgen
data_CoSiMo12(Pt3N2)2
_symmetry_space_group_name_H-M   'P 1'
_cell_length_a   6.86344842
_cell_length_b   6.85231707
_cell_length_c   6.86395378
_cell_angle_alpha   89.91654740
_cell_angle_beta   90.19505276
_cell_angle_gamma   90.22281992
_symmetry_Int_Tables_number   1
_chemical_formula_structural   CoSiMo12(Pt3N2)2
_chemical_formula_sum   'Co1 Si1 Mo12 Pt6 N4'
_cell_volume   322.81070045
_cell_formula_units_Z   1
loop_
 _symmetry_equiv_pos_site_id
 _symmetry_equiv_pos_as_xyz
  1  'x, y, z'
loop_
 _atom_site_type_symbol
 _atom_site_label
 _atom_site_symmetry_multiplicity
 _atom_site_fract_x
 _atom_site_fract_y
 _atom_site_fract_z
 _atom_site_occupancy
  Co  Co0  1  0.710661  0.681869  0.668074  1
  Si  Si1  1  0.923045  0.571824  0.444435  1
  Mo  Mo2  1  0.122967  0.203027  0.452564  1
  Mo  Mo3  1  0.370314  0.801932  0.958248  1
  Mo  Mo4  1  0.868057  0.703546  0.034573  1
  Mo  Mo5  1  0.215261  0.443625  0.117900  1
  Mo  Mo6  1  0.795427  0.953405  0.372886  1
  Mo  Mo7  1  0.048004  0.875552  0.711553  1
  Mo  Mo8  1  0.453971  0.128339  0.202520  1
  Mo  Mo9  1  0.301443  0.546710  0.623116  1
  Mo  Mo10  1  0.951642  0.381358  0.790627  1
  Mo  Mo11  1  0.546121  0.628683  0.300514  1
  Mo  Mo12  1  0.698361  0.036611  0.866379  1
  Mo  Mo13  1  0.620838  0.293129  0.555857  1
  Pt  Pt14  1  0.055827  0.063053  0.066255  1
  Pt  Pt15  1  0.310352  0.190397  0.808319  1
  Pt  Pt16  1  0.820374  0.335423  0.208619  1
  Pt  Pt17  1  0.167240  0.789322  0.321638  1
  Pt  Pt18  1  0.445773  0.923996  0.563367  1
  Pt  Pt19  1  0.570630  0.452083  0.927315  1
  N  N20  1  0.377465  0.373317  0.377026  1
  N  N21  1  0.622204  0.878078  0.124231  1
  N  N22  1  0.128437  0.622558  0.877749  1
  N  N23  1  0.875584  0.122164  0.626233  1
