# generated using pymatgen
data_Hf11Sc7Ta2(Re3P)2
_symmetry_space_group_name_H-M   'P 1'
_cell_length_a   8.69805568
_cell_length_b   8.69805618
_cell_length_c   8.53305203
_cell_angle_alpha   89.99191916
_cell_angle_beta   90.00808053
_cell_angle_gamma   120.07085407
_symmetry_Int_Tables_number   1
_chemical_formula_structural   Hf11Sc7Ta2(Re3P)2
_chemical_formula_sum   'Hf11 Sc7 Ta2 Re6 P2'
_cell_volume   558.68742232
_cell_formula_units_Z   1
loop_
 _symmetry_equiv_pos_site_id
 _symmetry_equiv_pos_as_xyz
  1  'x, y, z'
loop_
 _atom_site_type_symbol
 _atom_site_label
 _atom_site_symmetry_multiplicity
 _atom_site_fract_x
 _atom_site_fract_y
 _atom_site_fract_z
 _atom_site_occupancy
  Hf  Hf0  1  0.197221  0.394120  0.453080  1
  Hf  Hf1  1  0.605880  0.802779  0.453080  1
  Hf  Hf2  1  0.802569  0.197431  0.546718  1
  Hf  Hf3  1  0.802631  0.605190  0.547545  1
  Hf  Hf4  1  0.394810  0.197369  0.547545  1
  Hf  Hf5  1  0.802540  0.197460  0.953060  1
  Hf  Hf6  1  0.802635  0.605259  0.952655  1
  Hf  Hf7  1  0.394741  0.197365  0.952655  1
  Hf  Hf8  1  0.197240  0.802760  0.046677  1
  Hf  Hf9  1  0.197252  0.394745  0.047552  1
  Hf  Hf10  1  0.605255  0.802748  0.047552  1
  Sc  Sc11  1  0.198867  0.801133  0.451457  1
  Sc  Sc12  1  0.540254  0.459746  0.250364  1
  Sc  Sc13  1  0.540046  0.080710  0.250300  1
  Sc  Sc14  1  0.919290  0.459954  0.250300  1
  Sc  Sc15  1  0.459714  0.540286  0.749795  1
  Sc  Sc16  1  0.459622  0.919405  0.750202  1
  Sc  Sc17  1  0.080595  0.540378  0.750202  1
  Ta  Ta18  1  0.001259  0.998741  0.499478  1
  Ta  Ta19  1  0.999490  0.000510  0.999871  1
  Re  Re20  1  0.887466  0.112534  0.250106  1
  Re  Re21  1  0.885662  0.775065  0.249043  1
  Re  Re22  1  0.224935  0.114338  0.249043  1
  Re  Re23  1  0.111635  0.888365  0.752931  1
  Re  Re24  1  0.112373  0.224995  0.749621  1
  Re  Re25  1  0.775005  0.887627  0.749621  1
  P  P26  1  0.334314  0.665686  0.249518  1
  P  P27  1  0.666701  0.333299  0.750032  1
