# generated using pymatgen
data_Dy16In4Co3Os
_symmetry_space_group_name_H-M   'P 1'
_cell_length_a   9.54967736
_cell_length_b   9.54967709
_cell_length_c   9.59328406
_cell_angle_alpha   60.15025123
_cell_angle_beta   60.15025343
_cell_angle_gamma   60.00000628
_symmetry_Int_Tables_number   1
_chemical_formula_structural   Dy16In4Co3Os
_chemical_formula_sum   'Dy16 In4 Co3 Os1'
_cell_volume   620.02942262
_cell_formula_units_Z   1
loop_
 _symmetry_equiv_pos_site_id
 _symmetry_equiv_pos_as_xyz
  1  'x, y, z'
loop_
 _atom_site_type_symbol
 _atom_site_label
 _atom_site_symmetry_multiplicity
 _atom_site_fract_x
 _atom_site_fract_y
 _atom_site_fract_z
 _atom_site_occupancy
  Dy  Dy0  1  0.149668  0.543391  0.157272  1
  Dy  Dy1  1  0.691951  0.310919  0.686211  1
  Dy  Dy2  1  0.689070  0.311996  0.309864  1
  Dy  Dy3  1  0.937858  0.562155  0.562128  1
  Dy  Dy4  1  0.543391  0.149668  0.157272  1
  Dy  Dy5  1  0.153406  0.153406  0.539780  1
  Dy  Dy6  1  0.937858  0.937858  0.562128  1
  Dy  Dy7  1  0.311996  0.689070  0.309864  1
  Dy  Dy8  1  0.558615  0.945257  0.937515  1
  Dy  Dy9  1  0.562155  0.937858  0.562128  1
  Dy  Dy10  1  0.689070  0.689070  0.309864  1
  Dy  Dy11  1  0.558615  0.558615  0.937515  1
  Dy  Dy12  1  0.945257  0.558615  0.937515  1
  Dy  Dy13  1  0.310919  0.691951  0.686211  1
  Dy  Dy14  1  0.149668  0.149668  0.157272  1
  Dy  Dy15  1  0.310919  0.310919  0.686211  1
  In  In16  1  0.918117  0.247622  0.916144  1
  In  In17  1  0.918117  0.918117  0.916144  1
  In  In18  1  0.917553  0.917553  0.247343  1
  In  In19  1  0.247622  0.918117  0.916144  1
  Co  Co20  1  0.359945  0.919804  0.360306  1
  Co  Co21  1  0.919804  0.359945  0.360306  1
  Co  Co22  1  0.359945  0.359945  0.360306  1
  Os  Os23  1  0.358479  0.358479  0.924563  1
