# generated using pymatgen
data_Dy13Ho(Tm3Sn8)2
_symmetry_space_group_name_H-M   'P 1'
_cell_length_a   7.98753315
_cell_length_b   8.14180624
_cell_length_c   15.37795904
_cell_angle_alpha   90.00945693
_cell_angle_beta   89.98945982
_cell_angle_gamma   90.03358664
_symmetry_Int_Tables_number   1
_chemical_formula_structural   Dy13Ho(Tm3Sn8)2
_chemical_formula_sum   'Dy13 Ho1 Tm6 Sn16'
_cell_volume   1000.07379720
_cell_formula_units_Z   1
loop_
 _symmetry_equiv_pos_site_id
 _symmetry_equiv_pos_as_xyz
  1  'x, y, z'
loop_
 _atom_site_type_symbol
 _atom_site_label
 _atom_site_symmetry_multiplicity
 _atom_site_fract_x
 _atom_site_fract_y
 _atom_site_fract_z
 _atom_site_occupancy
  Dy  Dy0  1  0.132434  0.336056  0.121869  1
  Dy  Dy1  1  0.632130  0.164027  0.122206  1
  Dy  Dy2  1  0.131982  0.336028  0.378008  1
  Dy  Dy3  1  0.368022  0.836061  0.622125  1
  Dy  Dy4  1  0.868093  0.663895  0.877894  1
  Dy  Dy5  1  0.521106  0.320277  0.902436  1
  Dy  Dy6  1  0.021374  0.179850  0.597616  1
  Dy  Dy7  1  0.478772  0.679996  0.402552  1
  Dy  Dy8  1  0.978671  0.820319  0.097577  1
  Dy  Dy9  1  0.478910  0.679707  0.097309  1
  Dy  Dy10  1  0.978622  0.820430  0.402825  1
  Dy  Dy11  1  0.521361  0.320425  0.597355  1
  Dy  Dy12  1  0.021205  0.179364  0.902211  1
  Ho  Ho13  1  0.367544  0.836393  0.877428  1
  Tm  Tm14  1  0.867352  0.663687  0.622230  1
  Tm  Tm15  1  0.632493  0.163588  0.377997  1
  Tm  Tm16  1  0.198463  0.503197  0.750055  1
  Tm  Tm17  1  0.698626  0.996758  0.749730  1
  Tm  Tm18  1  0.801199  0.496980  0.250443  1
  Tm  Tm19  1  0.301761  0.002894  0.250073  1
  Sn  Sn20  1  0.292549  0.034458  0.041520  1
  Sn  Sn21  1  0.791808  0.464446  0.458455  1
  Sn  Sn22  1  0.708244  0.964349  0.541696  1
  Sn  Sn23  1  0.208383  0.536164  0.957630  1
  Sn  Sn24  1  0.706235  0.964651  0.957575  1
  Sn  Sn25  1  0.205987  0.535355  0.542487  1
  Sn  Sn26  1  0.293970  0.035385  0.457631  1
  Sn  Sn27  1  0.792384  0.465058  0.042251  1
  Sn  Sn28  1  0.565062  0.619533  0.749866  1
  Sn  Sn29  1  0.064665  0.880343  0.749854  1
  Sn  Sn30  1  0.435691  0.380580  0.250457  1
  Sn  Sn31  1  0.934645  0.118793  0.250402  1
  Sn  Sn32  1  0.329857  0.147663  0.750147  1
  Sn  Sn33  1  0.829899  0.352683  0.749768  1
  Sn  Sn34  1  0.670190  0.852664  0.250249  1
  Sn  Sn35  1  0.170310  0.647948  0.250075  1
