# generated using pymatgen
data_Dy3Cu3(SbPt)2
_symmetry_space_group_name_H-M   'P 1'
_cell_length_a   8.08358614
_cell_length_b   8.08358666
_cell_length_c   8.08358600
_cell_angle_alpha   109.47122147
_cell_angle_beta   109.47122279
_cell_angle_gamma   109.47121716
_symmetry_Int_Tables_number   1
_chemical_formula_structural   Dy3Cu3(SbPt)2
_chemical_formula_sum   'Dy6 Cu6 Sb4 Pt4'
_cell_volume   406.62150575
_cell_formula_units_Z   2
loop_
 _symmetry_equiv_pos_site_id
 _symmetry_equiv_pos_as_xyz
  1  'x, y, z'
loop_
 _atom_site_type_symbol
 _atom_site_label
 _atom_site_symmetry_multiplicity
 _atom_site_fract_x
 _atom_site_fract_y
 _atom_site_fract_z
 _atom_site_occupancy
  Dy  Dy0  1  0.860744  0.250000  0.110744  1
  Dy  Dy1  1  0.639256  0.750000  0.389256  1
  Dy  Dy2  1  0.250000  0.110744  0.860744  1
  Dy  Dy3  1  0.750000  0.389256  0.639256  1
  Dy  Dy4  1  0.110744  0.860744  0.250000  1
  Dy  Dy5  1  0.389256  0.639256  0.750000  1
  Cu  Cu6  1  0.378972  0.250000  0.628972  1
  Cu  Cu7  1  0.121028  0.750000  0.871028  1
  Cu  Cu8  1  0.250000  0.628972  0.378972  1
  Cu  Cu9  1  0.750000  0.871028  0.121028  1
  Cu  Cu10  1  0.628972  0.378972  0.250000  1
  Cu  Cu11  1  0.871028  0.121028  0.750000  1
  Sb  Sb12  1  0.500000  0.000000  0.174138  1
  Sb  Sb13  1  0.174138  0.500000  0.000000  1
  Sb  Sb14  1  0.000000  0.174138  0.500000  1
  Sb  Sb15  1  0.325862  0.325862  0.325862  1
  Pt  Pt16  1  0.675640  0.500000  0.000000  1
  Pt  Pt17  1  0.500000  0.000000  0.675640  1
  Pt  Pt18  1  0.000000  0.675640  0.500000  1
  Pt  Pt19  1  0.824360  0.824360  0.824360  1
