# generated using pymatgen
data_Ba2Tb2YBiS8
_symmetry_space_group_name_H-M   'P 1'
_cell_length_a   4.09087900
_cell_length_b   12.39534700
_cell_length_c   14.72346400
_cell_angle_alpha   90.00000000
_cell_angle_beta   90.00000000
_cell_angle_gamma   90.00000000
_symmetry_Int_Tables_number   1
_chemical_formula_structural   Ba2Tb2YBiS8
_chemical_formula_sum   'Ba4 Tb4 Y2 Bi2 S16'
_cell_volume   746.59542102
_cell_formula_units_Z   2
loop_
 _symmetry_equiv_pos_site_id
 _symmetry_equiv_pos_as_xyz
  1  'x, y, z'
loop_
 _atom_site_type_symbol
 _atom_site_label
 _atom_site_symmetry_multiplicity
 _atom_site_fract_x
 _atom_site_fract_y
 _atom_site_fract_z
 _atom_site_occupancy
  Ba  Ba0  1  0.250000  0.758890  0.337937  1
  Ba  Ba1  1  0.250000  0.258890  0.162063  1
  Ba  Ba2  1  0.750000  0.241697  0.661574  1
  Ba  Ba3  1  0.750000  0.741697  0.838426  1
  Tb  Tb4  1  0.750000  0.567809  0.610867  1
  Tb  Tb5  1  0.750000  0.067809  0.889133  1
  Tb  Tb6  1  0.750000  0.577721  0.099995  1
  Tb  Tb7  1  0.750000  0.077721  0.400005  1
  Y  Y8  1  0.250000  0.420750  0.898097  1
  Y  Y9  1  0.250000  0.920750  0.601903  1
  Bi  Bi10  1  0.250000  0.433563  0.390381  1
  Bi  Bi11  1  0.250000  0.933563  0.109619  1
  S  S12  1  0.250000  0.207491  0.834672  1
  S  S13  1  0.250000  0.707491  0.665328  1
  S  S14  1  0.750000  0.787574  0.167815  1
  S  S15  1  0.750000  0.287574  0.332185  1
  S  S16  1  0.250000  0.123447  0.524187  1
  S  S17  1  0.250000  0.623447  0.975813  1
  S  S18  1  0.750000  0.875230  0.477705  1
  S  S19  1  0.750000  0.375230  0.022295  1
  S  S20  1  0.250000  0.023153  0.286200  1
  S  S21  1  0.250000  0.523153  0.213800  1
  S  S22  1  0.750000  0.976935  0.715970  1
  S  S23  1  0.750000  0.476935  0.784030  1
  S  S24  1  0.250000  0.419623  0.580704  1
  S  S25  1  0.250000  0.919623  0.919296  1
  S  S26  1  0.750000  0.586117  0.425578  1
  S  S27  1  0.750000  0.086117  0.074422  1
