# generated using pymatgen
data_Ga13Hg5
_symmetry_space_group_name_H-M   'P 1'
_cell_length_a   18.61456385
_cell_length_b   18.61456323
_cell_length_c   6.46126348
_cell_angle_alpha   107.79051513
_cell_angle_beta   107.79051387
_cell_angle_gamma   10.22485846
_symmetry_Int_Tables_number   1
_chemical_formula_structural   Ga13Hg5
_chemical_formula_sum   'Ga13 Hg5'
_cell_volume   378.25983858
_cell_formula_units_Z   1
loop_
 _symmetry_equiv_pos_site_id
 _symmetry_equiv_pos_as_xyz
  1  'x, y, z'
loop_
 _atom_site_type_symbol
 _atom_site_label
 _atom_site_symmetry_multiplicity
 _atom_site_fract_x
 _atom_site_fract_y
 _atom_site_fract_z
 _atom_site_occupancy
  Ga  Ga0  1  0.555068  0.555068  0.302268  1
  Ga  Ga1  1  0.775371  0.775371  0.397782  1
  Ga  Ga2  1  0.000973  0.000973  0.479526  1
  Ga  Ga3  1  0.224449  0.224449  0.597591  1
  Ga  Ga4  1  0.443909  0.443909  0.696974  1
  Ga  Ga5  1  0.554935  0.554935  0.794297  1
  Ga  Ga6  1  0.670001  0.670001  0.817388  1
  Ga  Ga7  1  0.777337  0.777337  0.901991  1
  Ga  Ga8  1  0.892311  0.892311  0.911755  1
  Ga  Ga9  1  0.106868  0.106868  0.101238  1
  Ga  Ga10  1  0.224231  0.224231  0.089050  1
  Ga  Ga11  1  0.329232  0.329232  0.203446  1
  Ga  Ga12  1  0.445419  0.445419  0.199501  1
  Hg  Hg13  1  0.000887  0.000887  0.978314  1
  Hg  Hg14  1  0.668115  0.668115  0.312642  1
  Hg  Hg15  1  0.889860  0.889860  0.407681  1
  Hg  Hg16  1  0.110065  0.110065  0.605216  1
  Hg  Hg17  1  0.330968  0.330968  0.703339  1
