# generated using pymatgen
data_Lu4ZnTc3Ru4
_symmetry_space_group_name_H-M   'P 1'
_cell_length_a   5.27435100
_cell_length_b   5.18045464
_cell_length_c   8.88803300
_cell_angle_alpha   90.00000000
_cell_angle_beta   90.00000000
_cell_angle_gamma   118.85278168
_symmetry_Int_Tables_number   1
_chemical_formula_structural   Lu4ZnTc3Ru4
_chemical_formula_sum   'Lu4 Zn1 Tc3 Ru4'
_cell_volume   212.70539182
_cell_formula_units_Z   1
loop_
 _symmetry_equiv_pos_site_id
 _symmetry_equiv_pos_as_xyz
  1  'x, y, z'
loop_
 _atom_site_type_symbol
 _atom_site_label
 _atom_site_symmetry_multiplicity
 _atom_site_fract_x
 _atom_site_fract_y
 _atom_site_fract_z
 _atom_site_occupancy
  Lu  Lu0  1  0.333205  0.668661  0.437146  1
  Lu  Lu1  1  0.672174  0.333407  0.565097  1
  Lu  Lu2  1  0.672174  0.333407  0.934903  1
  Lu  Lu3  1  0.333205  0.668661  0.062854  1
  Zn  Zn4  1  0.825654  0.667551  0.250000  1
  Tc  Tc5  1  0.161740  0.321470  0.750000  1
  Tc  Tc6  1  0.166407  0.817560  0.750000  1
  Tc  Tc7  1  0.331621  0.163931  0.250000  1
  Ru  Ru8  1  0.647012  0.819814  0.750000  1
  Ru  Ru9  1  0.024970  0.020344  0.002151  1
  Ru  Ru10  1  0.806866  0.164852  0.250000  1
  Ru  Ru11  1  0.024970  0.020344  0.497849  1
