# generated using pymatgen
data_LuNb8NiSe16
_symmetry_space_group_name_H-M   'P 1'
_cell_length_a   6.98101700
_cell_length_b   6.98101683
_cell_length_c   13.44043400
_cell_angle_alpha   90.00000000
_cell_angle_beta   90.00000000
_cell_angle_gamma   120.00001504
_symmetry_Int_Tables_number   1
_chemical_formula_structural   LuNb8NiSe16
_chemical_formula_sum   'Lu1 Nb8 Ni1 Se16'
_cell_volume   567.25879603
_cell_formula_units_Z   1
loop_
 _symmetry_equiv_pos_site_id
 _symmetry_equiv_pos_as_xyz
  1  'x, y, z'
loop_
 _atom_site_type_symbol
 _atom_site_label
 _atom_site_symmetry_multiplicity
 _atom_site_fract_x
 _atom_site_fract_y
 _atom_site_fract_z
 _atom_site_occupancy
  Lu  Lu0  1  0.000000  0.000000  0.500000  1
  Nb  Nb1  1  0.000000  0.000000  0.234923  1
  Nb  Nb2  1  0.000000  0.000000  0.765077  1
  Nb  Nb3  1  0.507812  0.015623  0.233556  1
  Nb  Nb4  1  0.984377  0.492188  0.233556  1
  Nb  Nb5  1  0.507812  0.492188  0.233556  1
  Nb  Nb6  1  0.492188  0.984377  0.766444  1
  Nb  Nb7  1  0.015623  0.507812  0.766444  1
  Nb  Nb8  1  0.492188  0.507812  0.766444  1
  Ni  Ni9  1  0.000000  0.000000  0.000000  1
  Se  Se10  1  0.333333  0.666667  0.894910  1
  Se  Se11  1  0.666667  0.333333  0.105090  1
  Se  Se12  1  0.666667  0.333333  0.364620  1
  Se  Se13  1  0.333333  0.666667  0.635380  1
  Se  Se14  1  0.169144  0.830856  0.359382  1
  Se  Se15  1  0.169144  0.338289  0.359382  1
  Se  Se16  1  0.661711  0.830856  0.359382  1
  Se  Se17  1  0.830856  0.169144  0.640618  1
  Se  Se18  1  0.830856  0.661711  0.640618  1
  Se  Se19  1  0.338289  0.169144  0.640618  1
  Se  Se20  1  0.831945  0.168055  0.889256  1
  Se  Se21  1  0.831945  0.663891  0.889256  1
  Se  Se22  1  0.336109  0.168055  0.889256  1
  Se  Se23  1  0.168055  0.831945  0.110744  1
  Se  Se24  1  0.168055  0.336109  0.110744  1
  Se  Se25  1  0.663891  0.831945  0.110744  1
