# generated using pymatgen
data_Y8Sn(Pd5Pt7)2
_symmetry_space_group_name_H-M   'P 1'
_cell_length_a   8.41863800
_cell_length_b   8.43458100
_cell_length_c   8.43405300
_cell_angle_alpha   90.00000000
_cell_angle_beta   90.00000000
_cell_angle_gamma   90.00000000
_symmetry_Int_Tables_number   1
_chemical_formula_structural   Y8Sn(Pd5Pt7)2
_chemical_formula_sum   'Y8 Sn1 Pd10 Pt14'
_cell_volume   598.88257128
_cell_formula_units_Z   1
loop_
 _symmetry_equiv_pos_site_id
 _symmetry_equiv_pos_as_xyz
  1  'x, y, z'
loop_
 _atom_site_type_symbol
 _atom_site_label
 _atom_site_symmetry_multiplicity
 _atom_site_fract_x
 _atom_site_fract_y
 _atom_site_fract_z
 _atom_site_occupancy
  Y  Y0  1  0.252019  0.252085  0.252516  1
  Y  Y1  1  0.747981  0.747915  0.747484  1
  Y  Y2  1  0.747981  0.747915  0.252516  1
  Y  Y3  1  0.747981  0.252085  0.747484  1
  Y  Y4  1  0.252019  0.252085  0.747484  1
  Y  Y5  1  0.252019  0.747915  0.252516  1
  Y  Y6  1  0.252019  0.747915  0.747484  1
  Y  Y7  1  0.747981  0.252085  0.252516  1
  Sn  Sn8  1  0.000000  0.000000  0.000000  1
  Pd  Pd9  1  0.000000  0.500000  0.264656  1
  Pd  Pd10  1  0.000000  0.500000  0.735344  1
  Pd  Pd11  1  0.500000  0.255673  0.500000  1
  Pd  Pd12  1  0.500000  0.744327  0.500000  1
  Pd  Pd13  1  0.500000  0.500000  0.255499  1
  Pd  Pd14  1  0.500000  0.500000  0.744501  1
  Pd  Pd15  1  0.000000  0.309572  0.000000  1
  Pd  Pd16  1  0.000000  0.690428  0.000000  1
  Pd  Pd17  1  0.000000  0.000000  0.309841  1
  Pd  Pd18  1  0.000000  0.000000  0.690159  1
  Pt  Pt19  1  0.264769  0.500000  0.000000  1
  Pt  Pt20  1  0.735231  0.500000  0.000000  1
  Pt  Pt21  1  0.000000  0.265471  0.500000  1
  Pt  Pt22  1  0.500000  0.266241  0.000000  1
  Pt  Pt23  1  0.000000  0.734529  0.500000  1
  Pt  Pt24  1  0.500000  0.733759  0.000000  1
  Pt  Pt25  1  0.500000  0.000000  0.265740  1
  Pt  Pt26  1  0.265102  0.000000  0.500000  1
  Pt  Pt27  1  0.500000  0.000000  0.734260  1
  Pt  Pt28  1  0.734898  0.000000  0.500000  1
  Pt  Pt29  1  0.253149  0.500000  0.500000  1
  Pt  Pt30  1  0.746851  0.500000  0.500000  1
  Pt  Pt31  1  0.310273  0.000000  0.000000  1
  Pt  Pt32  1  0.689727  0.000000  0.000000  1
