# generated using pymatgen
data_PrY7(HoBi)12
_symmetry_space_group_name_H-M   'P 1'
_cell_length_a   8.28555851
_cell_length_b   9.53189700
_cell_length_c   12.12108920
_cell_angle_alpha   90.00000000
_cell_angle_beta   89.93094523
_cell_angle_gamma   90.00000000
_symmetry_Int_Tables_number   1
_chemical_formula_structural   PrY7(HoBi)12
_chemical_formula_sum   'Pr1 Y7 Ho12 Bi12'
_cell_volume   957.28766049
_cell_formula_units_Z   1
loop_
 _symmetry_equiv_pos_site_id
 _symmetry_equiv_pos_as_xyz
  1  'x, y, z'
loop_
 _atom_site_type_symbol
 _atom_site_label
 _atom_site_symmetry_multiplicity
 _atom_site_fract_x
 _atom_site_fract_y
 _atom_site_fract_z
 _atom_site_occupancy
  Pr  Pr0  1  0.184525  0.750000  0.720575  1
  Y  Y1  1  0.686049  0.750000  0.780945  1
  Y  Y2  1  0.813888  0.250000  0.281206  1
  Y  Y3  1  0.313724  0.250000  0.218889  1
  Y  Y4  1  0.353878  0.750000  0.215883  1
  Y  Y5  1  0.853508  0.750000  0.283694  1
  Y  Y6  1  0.646991  0.250000  0.784948  1
  Y  Y7  1  0.146164  0.250000  0.715641  1
  Ho  Ho8  1  0.025537  0.750000  0.988769  1
  Ho  Ho9  1  0.525308  0.750000  0.510570  1
  Ho  Ho10  1  0.974003  0.250000  0.011469  1
  Ho  Ho11  1  0.474816  0.250000  0.488296  1
  Ho  Ho12  1  0.306456  0.436216  0.940552  1
  Ho  Ho13  1  0.807126  0.063822  0.559749  1
  Ho  Ho14  1  0.693749  0.936381  0.059959  1
  Ho  Ho15  1  0.193261  0.563948  0.439949  1
  Ho  Ho16  1  0.693749  0.563619  0.059959  1
  Ho  Ho17  1  0.193261  0.936052  0.439949  1
  Ho  Ho18  1  0.306456  0.063784  0.940552  1
  Ho  Ho19  1  0.807126  0.436178  0.559749  1
  Bi  Bi20  1  0.437304  0.007004  0.672239  1
  Bi  Bi21  1  0.930618  0.493722  0.828035  1
  Bi  Bi22  1  0.566415  0.503745  0.326685  1
  Bi  Bi23  1  0.066793  0.996113  0.172872  1
  Bi  Bi24  1  0.566415  0.996255  0.326685  1
  Bi  Bi25  1  0.066793  0.503887  0.172872  1
  Bi  Bi26  1  0.437304  0.492996  0.672239  1
  Bi  Bi27  1  0.930618  0.006278  0.828035  1
  Bi  Bi28  1  0.410661  0.750000  0.959936  1
  Bi  Bi29  1  0.904273  0.750000  0.538995  1
  Bi  Bi30  1  0.591453  0.250000  0.042081  1
  Bi  Bi31  1  0.091779  0.250000  0.458021  1
