# generated using pymatgen
data_Ho16Cd4Os2PdPt
_symmetry_space_group_name_H-M   'P 1'
_cell_length_a   9.61649112
_cell_length_b   9.62781240
_cell_length_c   9.69736700
_cell_angle_alpha   59.76073505
_cell_angle_beta   59.72140663
_cell_angle_gamma   59.51934773
_symmetry_Int_Tables_number   1
_chemical_formula_structural   Ho16Cd4Os2PdPt
_chemical_formula_sum   'Ho16 Cd4 Os2 Pd1 Pt1'
_cell_volume   630.06020183
_cell_formula_units_Z   1
loop_
 _symmetry_equiv_pos_site_id
 _symmetry_equiv_pos_as_xyz
  1  'x, y, z'
loop_
 _atom_site_type_symbol
 _atom_site_label
 _atom_site_symmetry_multiplicity
 _atom_site_fract_x
 _atom_site_fract_y
 _atom_site_fract_z
 _atom_site_occupancy
  Ho  Ho0  1  0.349902  0.351633  0.353581  1
  Ho  Ho1  1  0.349902  0.351633  0.944884  1
  Ho  Ho2  1  0.345665  0.953042  0.350647  1
  Ho  Ho3  1  0.954051  0.346609  0.349671  1
  Ho  Ho4  1  0.816439  0.187240  0.190156  1
  Ho  Ho5  1  0.187004  0.815140  0.807411  1
  Ho  Ho6  1  0.187004  0.815140  0.190446  1
  Ho  Ho7  1  0.816439  0.187240  0.806166  1
  Ho  Ho8  1  0.187702  0.188103  0.812097  1
  Ho  Ho9  1  0.810007  0.807818  0.191088  1
  Ho  Ho10  1  0.937554  0.556654  0.567485  1
  Ho  Ho11  1  0.556697  0.937234  0.937974  1
  Ho  Ho12  1  0.556697  0.937234  0.568095  1
  Ho  Ho13  1  0.937554  0.556654  0.938307  1
  Ho  Ho14  1  0.564141  0.565033  0.935413  1
  Ho  Ho15  1  0.938777  0.938833  0.561195  1
  Cd  Cd16  1  0.579971  0.579976  0.581522  1
  Cd  Cd17  1  0.579971  0.579976  0.258528  1
  Cd  Cd18  1  0.581111  0.255293  0.581798  1
  Cd  Cd19  1  0.255255  0.581132  0.581806  1
  Os  Os20  1  0.145035  0.145027  0.137460  1
  Os  Os21  1  0.145035  0.145027  0.572476  1
  Pd  Pd22  1  0.572396  0.145402  0.141101  1
  Pt  Pt23  1  0.145691  0.572929  0.140690  1
