# generated using pymatgen
data_Na8Mn3CoBr16
_symmetry_space_group_name_H-M   'P 1'
_cell_length_a   6.90540863
_cell_length_b   8.69211600
_cell_length_c   14.84714289
_cell_angle_alpha   89.99998956
_cell_angle_beta   89.91917635
_cell_angle_gamma   90.00002977
_symmetry_Int_Tables_number   1
_chemical_formula_structural   Na8Mn3CoBr16
_chemical_formula_sum   'Na8 Mn3 Co1 Br16'
_cell_volume   891.16342258
_cell_formula_units_Z   1
loop_
 _symmetry_equiv_pos_site_id
 _symmetry_equiv_pos_as_xyz
  1  'x, y, z'
loop_
 _atom_site_type_symbol
 _atom_site_label
 _atom_site_symmetry_multiplicity
 _atom_site_fract_x
 _atom_site_fract_y
 _atom_site_fract_z
 _atom_site_occupancy
  Na  Na0  1  0.501547  0.002082  0.499294  1
  Na  Na1  1  0.501547  0.497918  0.499294  1
  Na  Na2  1  0.496323  0.750000  0.768069  1
  Na  Na3  1  0.996222  0.250000  0.730871  1
  Na  Na4  1  0.002201  0.750000  0.269185  1
  Na  Na5  1  0.999849  0.000281  0.000158  1
  Na  Na6  1  0.504707  0.250000  0.233033  1
  Na  Na7  1  0.999849  0.499719  0.000158  1
  Mn  Mn8  1  0.588987  0.749998  0.090665  1
  Mn  Mn9  1  0.910232  0.750001  0.590897  1
  Mn  Mn10  1  0.410313  0.250001  0.909011  1
  Co  Co11  1  0.094180  0.250000  0.409507  1
  Br  Br12  1  0.270724  0.750000  0.591473  1
  Br  Br13  1  0.230922  0.250000  0.559928  1
  Br  Br14  1  0.756393  0.978665  0.665950  1
  Br  Br15  1  0.737050  0.750000  0.935252  1
  Br  Br16  1  0.770920  0.250000  0.907948  1
  Br  Br17  1  0.745961  0.250000  0.407808  1
  Br  Br18  1  0.257066  0.478342  0.833829  1
  Br  Br19  1  0.263287  0.250000  0.064910  1
  Br  Br20  1  0.741819  0.978281  0.166204  1
  Br  Br21  1  0.237358  0.471205  0.336059  1
  Br  Br22  1  0.237358  0.028795  0.336059  1
  Br  Br23  1  0.257066  0.021658  0.833828  1
  Br  Br24  1  0.756393  0.521335  0.665950  1
  Br  Br25  1  0.228133  0.750000  0.093137  1
  Br  Br26  1  0.761776  0.750000  0.435319  1
  Br  Br27  1  0.741819  0.521718  0.166204  1
