# generated using pymatgen
data_YTm5(CoSn6)2
_symmetry_space_group_name_H-M   'P 1'
_cell_length_a   8.42565716
_cell_length_b   8.42565866
_cell_length_c   13.08260825
_cell_angle_alpha   90.02307499
_cell_angle_beta   89.97693078
_cell_angle_gamma   148.74533774
_symmetry_Int_Tables_number   1
_chemical_formula_structural   YTm5(CoSn6)2
_chemical_formula_sum   'Y1 Tm5 Co2 Sn12'
_cell_volume   481.87872957
_cell_formula_units_Z   1
loop_
 _symmetry_equiv_pos_site_id
 _symmetry_equiv_pos_as_xyz
  1  'x, y, z'
loop_
 _atom_site_type_symbol
 _atom_site_label
 _atom_site_symmetry_multiplicity
 _atom_site_fract_x
 _atom_site_fract_y
 _atom_site_fract_z
 _atom_site_occupancy
  Y  Y0  1  0.900258  0.099742  0.406296  1
  Tm  Tm1  1  0.899031  0.100969  0.093753  1
  Tm  Tm2  1  0.101150  0.898850  0.595045  1
  Tm  Tm3  1  0.900570  0.099430  0.750920  1
  Tm  Tm4  1  0.100780  0.899220  0.905633  1
  Tm  Tm5  1  0.099419  0.900581  0.248823  1
  Co  Co6  1  0.299225  0.700775  0.249467  1
  Co  Co7  1  0.700382  0.299618  0.750379  1
  Sn  Sn8  1  0.755624  0.244376  0.571656  1
  Sn  Sn9  1  0.427613  0.572387  0.577076  1
  Sn  Sn10  1  0.573613  0.426387  0.424421  1
  Sn  Sn11  1  0.732616  0.267384  0.249563  1
  Sn  Sn12  1  0.266970  0.733030  0.750014  1
  Sn  Sn13  1  0.243855  0.756145  0.070794  1
  Sn  Sn14  1  0.243202  0.756798  0.428505  1
  Sn  Sn15  1  0.573368  0.426632  0.074708  1
  Sn  Sn16  1  0.454332  0.545668  0.248405  1
  Sn  Sn17  1  0.545844  0.454156  0.750766  1
  Sn  Sn18  1  0.755968  0.244032  0.928845  1
  Sn  Sn19  1  0.426179  0.573821  0.924932  1
