# generated using pymatgen
data_Tb5Ce3(ZnRh)8
_symmetry_space_group_name_H-M   'P 1'
_cell_length_a   3.92479400
_cell_length_b   7.26561311
_cell_length_c   16.34880253
_cell_angle_alpha   89.29010005
_cell_angle_beta   90.00000000
_cell_angle_gamma   90.00000000
_symmetry_Int_Tables_number   1
_chemical_formula_structural   Tb5Ce3(ZnRh)8
_chemical_formula_sum   'Tb5 Ce3 Zn8 Rh8'
_cell_volume   466.16723693
_cell_formula_units_Z   1
loop_
 _symmetry_equiv_pos_site_id
 _symmetry_equiv_pos_as_xyz
  1  'x, y, z'
loop_
 _atom_site_type_symbol
 _atom_site_label
 _atom_site_symmetry_multiplicity
 _atom_site_fract_x
 _atom_site_fract_y
 _atom_site_fract_z
 _atom_site_occupancy
  Tb  Tb0  1  0.250000  0.670216  0.561193  1
  Tb  Tb1  1  0.750000  0.830417  0.058991  1
  Tb  Tb2  1  0.250000  0.055651  0.715203  1
  Tb  Tb3  1  0.250000  0.170671  0.940589  1
  Tb  Tb4  1  0.750000  0.945198  0.284980  1
  Ce  Ce5  1  0.250000  0.554010  0.784001  1
  Ce  Ce6  1  0.750000  0.448933  0.215141  1
  Ce  Ce7  1  0.750000  0.328235  0.440817  1
  Zn  Zn8  1  0.250000  0.108150  0.153683  1
  Zn  Zn9  1  0.750000  0.500398  0.941965  1
  Zn  Zn10  1  0.750000  0.994541  0.562051  1
  Zn  Zn11  1  0.750000  0.381556  0.650215  1
  Zn  Zn12  1  0.750000  0.892115  0.847275  1
  Zn  Zn13  1  0.250000  0.499918  0.057610  1
  Zn  Zn14  1  0.250000  0.620753  0.347925  1
  Zn  Zn15  1  0.250000  0.992273  0.438087  1
  Rh  Rh16  1  0.750000  0.748024  0.436060  1
  Rh  Rh17  1  0.750000  0.271009  0.812972  1
  Rh  Rh18  1  0.750000  0.752139  0.692119  1
  Rh  Rh19  1  0.250000  0.730964  0.185648  1
  Rh  Rh20  1  0.250000  0.749638  0.932026  1
  Rh  Rh21  1  0.250000  0.251685  0.558603  1
  Rh  Rh22  1  0.750000  0.251410  0.069002  1
  Rh  Rh23  1  0.250000  0.252097  0.313842  1
