# generated using pymatgen
data_NdSeBrO3
_symmetry_space_group_name_H-M   'P 1'
_cell_length_a   6.01273232
_cell_length_b   6.01273276
_cell_length_c   8.05058462
_cell_angle_alpha   102.50616878
_cell_angle_beta   102.50617011
_cell_angle_gamma   91.63141180
_symmetry_Int_Tables_number   1
_chemical_formula_structural   NdSeBrO3
_chemical_formula_sum   'Nd2 Se2 Br2 O6'
_cell_volume   276.53597255
_cell_formula_units_Z   2
loop_
 _symmetry_equiv_pos_site_id
 _symmetry_equiv_pos_as_xyz
  1  'x, y, z'
loop_
 _atom_site_type_symbol
 _atom_site_label
 _atom_site_symmetry_multiplicity
 _atom_site_fract_x
 _atom_site_fract_y
 _atom_site_fract_z
 _atom_site_occupancy
  Nd  Nd0  1  0.759382  0.240614  0.500001  1
  Nd  Nd1  1  0.240614  0.759382  0.500001  1
  Se  Se2  1  0.714555  0.714555  0.240066  1
  Se  Se3  1  0.285417  0.285417  0.759924  1
  Br  Br4  1  0.333376  0.333376  0.238200  1
  Br  Br5  1  0.666606  0.666606  0.761808  1
  O  O6  1  0.860557  0.539647  0.365277  1
  O  O7  1  0.539647  0.860557  0.365277  1
  O  O8  1  0.934527  0.934527  0.309131  1
  O  O9  1  0.065512  0.065512  0.690878  1
  O  O10  1  0.460357  0.139450  0.634717  1
  O  O11  1  0.139450  0.460357  0.634717  1
