# generated using pymatgen
data_PRh3S7
_symmetry_space_group_name_H-M   'P 1'
_cell_length_a   5.70224663
_cell_length_b   5.70224599
_cell_length_c   5.70224685
_cell_angle_alpha   90.23858150
_cell_angle_beta   90.23859595
_cell_angle_gamma   90.23857710
_symmetry_Int_Tables_number   1
_chemical_formula_structural   PRh3S7
_chemical_formula_sum   'P1 Rh3 S7'
_cell_volume   185.40721595
_cell_formula_units_Z   1
loop_
 _symmetry_equiv_pos_site_id
 _symmetry_equiv_pos_as_xyz
  1  'x, y, z'
loop_
 _atom_site_type_symbol
 _atom_site_label
 _atom_site_symmetry_multiplicity
 _atom_site_fract_x
 _atom_site_fract_y
 _atom_site_fract_z
 _atom_site_occupancy
  P  P0  1  0.388841  0.388841  0.388841  1
  Rh  Rh1  1  0.498480  0.498521  0.006520  1
  Rh  Rh2  1  0.498521  0.006520  0.498480  1
  Rh  Rh3  1  0.006520  0.498480  0.498521  1
  S  S4  1  0.394881  0.891894  0.106976  1
  S  S5  1  0.894329  0.602482  0.108769  1
  S  S6  1  0.891895  0.106976  0.394881  1
  S  S7  1  0.108769  0.894329  0.602483  1
  S  S8  1  0.608309  0.608309  0.608309  1
  S  S9  1  0.106976  0.394881  0.891894  1
  S  S10  1  0.602483  0.108769  0.894328  1
