# generated using pymatgen
data_Zr6Al(Ni5P3)4
_symmetry_space_group_name_H-M   'P 1'
_cell_length_a   12.50674000
_cell_length_b   12.50674038
_cell_length_c   3.64688100
_cell_angle_alpha   90.00000000
_cell_angle_beta   90.00000000
_cell_angle_gamma   119.99999899
_symmetry_Int_Tables_number   1
_chemical_formula_structural   Zr6Al(Ni5P3)4
_chemical_formula_sum   'Zr6 Al1 Ni20 P12'
_cell_volume   494.01539677
_cell_formula_units_Z   1
loop_
 _symmetry_equiv_pos_site_id
 _symmetry_equiv_pos_as_xyz
  1  'x, y, z'
loop_
 _atom_site_type_symbol
 _atom_site_label
 _atom_site_symmetry_multiplicity
 _atom_site_fract_x
 _atom_site_fract_y
 _atom_site_fract_z
 _atom_site_occupancy
  Zr  Zr0  1  0.808471  0.282667  0.500000  1
  Zr  Zr1  1  0.717333  0.525804  0.500000  1
  Zr  Zr2  1  0.474196  0.191529  0.500000  1
  Zr  Zr3  1  0.192415  0.715503  0.000000  1
  Zr  Zr4  1  0.284497  0.476913  0.000000  1
  Zr  Zr5  1  0.523087  0.807585  0.000000  1
  Al  Al6  1  0.000000  0.000000  0.000000  1
  Ni  Ni7  1  0.416844  0.979998  0.000000  1
  Ni  Ni8  1  0.020002  0.436847  0.000000  1
  Ni  Ni9  1  0.584675  0.021058  0.500000  1
  Ni  Ni10  1  0.563153  0.583156  0.000000  1
  Ni  Ni11  1  0.978942  0.563617  0.500000  1
  Ni  Ni12  1  0.916597  0.089421  0.500000  1
  Ni  Ni13  1  0.172824  0.083403  0.500000  1
  Ni  Ni14  1  0.910579  0.827176  0.500000  1
  Ni  Ni15  1  0.099012  0.888387  0.000000  1
  Ni  Ni16  1  0.789375  0.900988  0.000000  1
  Ni  Ni17  1  0.111613  0.210625  0.000000  1
  Ni  Ni18  1  0.333333  0.666667  0.500000  1
  Ni  Ni19  1  0.666667  0.333333  0.000000  1
  Ni  Ni20  1  0.674418  0.748140  0.500000  1
  Ni  Ni21  1  0.251860  0.926278  0.500000  1
  Ni  Ni22  1  0.920179  0.674244  0.000000  1
  Ni  Ni23  1  0.325756  0.245936  0.000000  1
  Ni  Ni24  1  0.754064  0.079821  0.000000  1
  Ni  Ni25  1  0.436383  0.415325  0.500000  1
  Ni  Ni26  1  0.073722  0.325582  0.500000  1
  P  P27  1  0.233906  0.286351  0.500000  1
  P  P28  1  0.713649  0.947554  0.500000  1
  P  P29  1  0.052446  0.766094  0.500000  1
  P  P30  1  0.768085  0.715306  0.000000  1
  P  P31  1  0.284694  0.052781  0.000000  1
  P  P32  1  0.472846  0.612612  0.500000  1
  P  P33  1  0.387388  0.860233  0.500000  1
  P  P34  1  0.859979  0.473012  0.000000  1
  P  P35  1  0.526988  0.386969  0.000000  1
  P  P36  1  0.613031  0.140021  0.000000  1
  P  P37  1  0.947219  0.231915  0.000000  1
  P  P38  1  0.139767  0.527154  0.500000  1
