# generated using pymatgen
data_LaTb5YFeI12
_symmetry_space_group_name_H-M   'P 1'
_cell_length_a   9.70225404
_cell_length_b   9.88108152
_cell_length_c   9.87137296
_cell_angle_alpha   107.39017597
_cell_angle_beta   107.91285080
_cell_angle_gamma   107.06654165
_symmetry_Int_Tables_number   1
_chemical_formula_structural   LaTb5YFeI12
_chemical_formula_sum   'La1 Tb5 Y1 Fe1 I12'
_cell_volume   778.07771713
_cell_formula_units_Z   1
loop_
 _symmetry_equiv_pos_site_id
 _symmetry_equiv_pos_as_xyz
  1  'x, y, z'
loop_
 _atom_site_type_symbol
 _atom_site_label
 _atom_site_symmetry_multiplicity
 _atom_site_fract_x
 _atom_site_fract_y
 _atom_site_fract_z
 _atom_site_occupancy
  La  La0  1  0.723256  0.973401  0.907511  1
  Tb  Tb1  1  0.968561  0.897730  0.696235  1
  Tb  Tb2  1  0.102171  0.303513  0.031105  1
  Tb  Tb3  1  0.272308  0.027201  0.091932  1
  Tb  Tb4  1  0.899779  0.698430  0.969232  1
  Tb  Tb5  1  0.028370  0.102518  0.304219  1
  Y  Y6  1  0.502846  0.499118  0.500778  1
  Fe  Fe7  1  0.980421  0.000112  0.994007  1
  I  I8  1  0.075103  0.223896  0.683495  1
  I  I9  1  0.387858  0.155237  0.460519  1
  I  I10  1  0.609600  0.832871  0.519872  1
  I  I11  1  0.230803  0.691014  0.075728  1
  I  I12  1  0.780840  0.329196  0.929130  1
  I  I13  1  0.686929  0.077402  0.236786  1
  I  I14  1  0.530914  0.600054  0.838811  1
  I  I15  1  0.849563  0.535234  0.614663  1
  I  I16  1  0.931455  0.777688  0.319413  1
  I  I17  1  0.315760  0.928983  0.782518  1
  I  I18  1  0.466371  0.379743  0.157345  1
  I  I19  1  0.157093  0.466658  0.386699  1
