# generated using pymatgen
data_TmTh7(Si3Ni)4
_symmetry_space_group_name_H-M   'P 1'
_cell_length_a   8.02468500
_cell_length_b   8.02468519
_cell_length_c   8.45010100
_cell_angle_alpha   90.00000000
_cell_angle_beta   90.00000000
_cell_angle_gamma   120.00000333
_symmetry_Int_Tables_number   1
_chemical_formula_structural   TmTh7(Si3Ni)4
_chemical_formula_sum   'Tm1 Th7 Si12 Ni4'
_cell_volume   471.24690913
_cell_formula_units_Z   1
loop_
 _symmetry_equiv_pos_site_id
 _symmetry_equiv_pos_as_xyz
  1  'x, y, z'
loop_
 _atom_site_type_symbol
 _atom_site_label
 _atom_site_symmetry_multiplicity
 _atom_site_fract_x
 _atom_site_fract_y
 _atom_site_fract_z
 _atom_site_occupancy
  Tm  Tm0  1  0.000000  0.000000  0.750000  1
  Th  Th1  1  0.500511  0.001019  0.250000  1
  Th  Th2  1  0.499566  0.999132  0.750000  1
  Th  Th3  1  0.998981  0.499489  0.250000  1
  Th  Th4  1  0.000868  0.500434  0.750000  1
  Th  Th5  1  0.500511  0.499489  0.250000  1
  Th  Th6  1  0.499566  0.500434  0.750000  1
  Th  Th7  1  0.000000  0.000000  0.250000  1
  Si  Si8  1  0.170123  0.340247  0.997844  1
  Si  Si9  1  0.829925  0.659850  0.996208  1
  Si  Si10  1  0.659753  0.829877  0.997844  1
  Si  Si11  1  0.829925  0.659850  0.503792  1
  Si  Si12  1  0.340150  0.170075  0.996208  1
  Si  Si13  1  0.170123  0.340247  0.502156  1
  Si  Si14  1  0.170123  0.829877  0.997844  1
  Si  Si15  1  0.340150  0.170075  0.503792  1
  Si  Si16  1  0.829925  0.170075  0.996208  1
  Si  Si17  1  0.659753  0.829877  0.502156  1
  Si  Si18  1  0.829925  0.170075  0.503792  1
  Si  Si19  1  0.170123  0.829877  0.502156  1
  Ni  Ni20  1  0.333333  0.666667  0.003314  1
  Ni  Ni21  1  0.666667  0.333333  0.998260  1
  Ni  Ni22  1  0.666667  0.333333  0.501740  1
  Ni  Ni23  1  0.333333  0.666667  0.496686  1
