# generated using pymatgen
data_Y4Er4Tm4Co4CuBi
_symmetry_space_group_name_H-M   'P 1'
_cell_length_a   8.27729386
_cell_length_b   8.27729371
_cell_length_c   8.27729431
_cell_angle_alpha   109.98784922
_cell_angle_beta   111.05398205
_cell_angle_gamma   107.39344600
_symmetry_Int_Tables_number   1
_chemical_formula_structural   Y4Er4Tm4Co4CuBi
_chemical_formula_sum   'Y4 Er4 Tm4 Co4 Cu1 Bi1'
_cell_volume   436.09145319
_cell_formula_units_Z   1
loop_
 _symmetry_equiv_pos_site_id
 _symmetry_equiv_pos_as_xyz
  1  'x, y, z'
loop_
 _atom_site_type_symbol
 _atom_site_label
 _atom_site_symmetry_multiplicity
 _atom_site_fract_x
 _atom_site_fract_y
 _atom_site_fract_z
 _atom_site_occupancy
  Y  Y0  1  0.286833  0.184422  0.471255  1
  Y  Y1  1  0.713167  0.815578  0.528745  1
  Y  Y2  1  0.286833  0.815578  0.102411  1
  Y  Y3  1  0.713167  0.184422  0.897589  1
  Er  Er4  1  0.213102  0.414795  0.201693  1
  Er  Er5  1  0.786898  0.585205  0.798307  1
  Er  Er6  1  0.213102  0.011409  0.798307  1
  Er  Er7  1  0.786898  0.988591  0.201693  1
  Tm  Tm8  1  0.622764  0.313626  0.309138  1
  Tm  Tm9  1  0.377236  0.686374  0.690862  1
  Tm  Tm10  1  0.004490  0.313626  0.690862  1
  Tm  Tm11  1  0.995510  0.686374  0.309138  1
  Co  Co12  1  0.000000  0.376945  0.376945  1
  Co  Co13  1  0.000000  0.623055  0.623055  1
  Co  Co14  1  0.385950  0.885950  0.500000  1
  Co  Co15  1  0.614050  0.114050  0.500000  1
  Cu  Cu16  1  0.000000  0.000000  0.000000  1
  Bi  Bi17  1  0.500000  0.500000  0.000000  1
