# generated using pymatgen
data_Na2IrPd2Ru(PbO7)2
_symmetry_space_group_name_H-M   'P 1'
_cell_length_a   7.17411165
_cell_length_b   7.13713281
_cell_length_c   7.21186700
_cell_angle_alpha   60.34221126
_cell_angle_beta   60.47012374
_cell_angle_gamma   60.17036690
_symmetry_Int_Tables_number   1
_chemical_formula_structural   Na2IrPd2Ru(PbO7)2
_chemical_formula_sum   'Na2 Ir1 Pd2 Ru1 Pb2 O14'
_cell_volume   263.04224558
_cell_formula_units_Z   1
loop_
 _symmetry_equiv_pos_site_id
 _symmetry_equiv_pos_as_xyz
  1  'x, y, z'
loop_
 _atom_site_type_symbol
 _atom_site_label
 _atom_site_symmetry_multiplicity
 _atom_site_fract_x
 _atom_site_fract_y
 _atom_site_fract_z
 _atom_site_occupancy
  Na  Na0  1  0.125000  0.625000  0.125000  1
  Na  Na1  1  0.125000  0.125000  0.125000  1
  Ir  Ir2  1  0.125000  0.625000  0.625000  1
  Pd  Pd3  1  0.625000  0.125000  0.625000  1
  Pd  Pd4  1  0.625000  0.625000  0.625000  1
  Ru  Ru5  1  0.625000  0.625000  0.125000  1
  Pb  Pb6  1  0.625000  0.125000  0.125000  1
  Pb  Pb7  1  0.125000  0.125000  0.625000  1
  O  O8  1  0.705904  0.706174  0.290907  1
  O  O9  1  0.286912  0.292185  0.708287  1
  O  O10  1  0.708447  0.289251  0.713051  1
  O  O11  1  0.323875  0.675273  0.325578  1
  O  O12  1  0.286912  0.712616  0.708287  1
  O  O13  1  0.705904  0.297018  0.290907  1
  O  O14  1  0.544096  0.543826  0.959093  1
  O  O15  1  0.963088  0.957815  0.541713  1
  O  O16  1  0.541553  0.960749  0.536949  1
  O  O17  1  0.926125  0.574727  0.924422  1
  O  O18  1  0.963088  0.537384  0.541713  1
  O  O19  1  0.544096  0.952982  0.959093  1
  O  O20  1  0.265080  0.238432  0.258056  1
  O  O21  1  0.984920  0.011568  0.991944  1
