# generated using pymatgen
data_La(Y3Ni8)2
_symmetry_space_group_name_H-M   'P 1'
_cell_length_a   7.17919698
_cell_length_b   7.17919741
_cell_length_c   8.78090630
_cell_angle_alpha   114.27425516
_cell_angle_beta   113.63409663
_cell_angle_gamma   90.39193719
_symmetry_Int_Tables_number   1
_chemical_formula_structural   La(Y3Ni8)2
_chemical_formula_sum   'La1 Y6 Ni16'
_cell_volume   369.88884074
_cell_formula_units_Z   1
loop_
 _symmetry_equiv_pos_site_id
 _symmetry_equiv_pos_as_xyz
  1  'x, y, z'
loop_
 _atom_site_type_symbol
 _atom_site_label
 _atom_site_symmetry_multiplicity
 _atom_site_fract_x
 _atom_site_fract_y
 _atom_site_fract_z
 _atom_site_occupancy
  La  La0  1  0.210762  0.592245  0.803008  1
  Y  Y1  1  0.999067  0.999858  0.998924  1
  Y  Y2  1  0.403575  0.402923  0.208161  1
  Y  Y3  1  0.805239  0.804587  0.208161  1
  Y  Y4  1  0.749398  0.251625  0.499413  1
  Y  Y5  1  0.247789  0.750016  0.499413  1
  Y  Y6  1  0.599425  0.194653  0.794079  1
  Ni  Ni7  1  0.699254  0.181425  0.132816  1
  Ni  Ni8  1  0.951390  0.433563  0.132816  1
  Ni  Ni9  1  0.178907  0.701426  0.136429  1
  Ni  Ni10  1  0.435004  0.957522  0.136429  1
  Ni  Ni11  1  0.307440  0.067154  0.374595  1
  Ni  Ni12  1  0.066172  0.303186  0.369359  1
  Ni  Ni13  1  0.833889  0.558808  0.392697  1
  Ni  Ni14  1  0.558864  0.835603  0.394467  1
  Ni  Ni15  1  0.162655  0.158621  0.600775  1
  Ni  Ni16  1  0.442153  0.438119  0.600775  1
  Ni  Ni17  1  0.690026  0.693585  0.623681  1
  Ni  Ni18  1  0.930094  0.933654  0.623681  1
  Ni  Ni19  1  0.301115  0.054221  0.867737  1
  Ni  Ni20  1  0.044098  0.297257  0.867423  1
  Ni  Ni21  1  0.813516  0.566623  0.867737  1
  Ni  Ni22  1  0.570167  0.823325  0.867423  1
