# generated using pymatgen
data_Dy3Ho5Re13B12
_symmetry_space_group_name_H-M   'P 1'
_cell_length_a   7.78821273
_cell_length_b   7.78821352
_cell_length_c   7.78785342
_cell_angle_alpha   86.38946382
_cell_angle_beta   86.38945724
_cell_angle_gamma   86.38949946
_symmetry_Int_Tables_number   1
_chemical_formula_structural   Dy3Ho5Re13B12
_chemical_formula_sum   'Dy3 Ho5 Re13 B12'
_cell_volume   469.68235159
_cell_formula_units_Z   1
loop_
 _symmetry_equiv_pos_site_id
 _symmetry_equiv_pos_as_xyz
  1  'x, y, z'
loop_
 _atom_site_type_symbol
 _atom_site_label
 _atom_site_symmetry_multiplicity
 _atom_site_fract_x
 _atom_site_fract_y
 _atom_site_fract_z
 _atom_site_occupancy
  Dy  Dy0  1  0.641352  0.641352  0.641284  1
  Dy  Dy1  1  0.358688  0.358688  0.358803  1
  Dy  Dy2  1  0.188683  0.188683  0.687379  1
  Ho  Ho3  1  0.687764  0.189005  0.189005  1
  Ho  Ho4  1  0.189005  0.687764  0.189005  1
  Ho  Ho5  1  0.811015  0.811015  0.312229  1
  Ho  Ho6  1  0.312241  0.810960  0.811078  1
  Ho  Ho7  1  0.810960  0.312241  0.811078  1
  Re  Re8  1  0.999798  0.999798  0.000381  1
  Re  Re9  1  0.596820  0.063310  0.596670  1
  Re  Re10  1  0.596750  0.596750  0.063317  1
  Re  Re11  1  0.063310  0.596820  0.596670  1
  Re  Re12  1  0.403399  0.936551  0.403181  1
  Re  Re13  1  0.403336  0.403336  0.936705  1
  Re  Re14  1  0.936551  0.403399  0.403181  1
  Re  Re15  1  0.922791  0.922791  0.670670  1
  Re  Re16  1  0.670686  0.923281  0.923198  1
  Re  Re17  1  0.923281  0.670686  0.923198  1
  Re  Re18  1  0.076728  0.076728  0.328951  1
  Re  Re19  1  0.329326  0.076689  0.076905  1
  Re  Re20  1  0.076689  0.329326  0.076905  1
  B  B21  1  0.152340  0.847784  0.499988  1
  B  B22  1  0.500249  0.152364  0.847814  1
  B  B23  1  0.847654  0.499989  0.152242  1
  B  B24  1  0.499989  0.847654  0.152242  1
  B  B25  1  0.152364  0.500249  0.847814  1
  B  B26  1  0.847784  0.152340  0.499988  1
  B  B27  1  0.671538  0.499914  0.328498  1
  B  B28  1  0.328543  0.671485  0.500012  1
  B  B29  1  0.500417  0.328553  0.671548  1
  B  B30  1  0.328553  0.500417  0.671548  1
  B  B31  1  0.671485  0.328543  0.500012  1
  B  B32  1  0.499914  0.671538  0.328498  1
