# generated using pymatgen
data_TbSm2BiO7
_symmetry_space_group_name_H-M   'P 1'
_cell_length_a   6.64855019
_cell_length_b   6.65041511
_cell_length_c   7.83292142
_cell_angle_alpha   106.91238023
_cell_angle_beta   89.79528797
_cell_angle_gamma   98.61913296
_symmetry_Int_Tables_number   1
_chemical_formula_structural   TbSm2BiO7
_chemical_formula_sum   'Tb2 Sm4 Bi2 O14'
_cell_volume   327.32300484
_cell_formula_units_Z   2
loop_
 _symmetry_equiv_pos_site_id
 _symmetry_equiv_pos_as_xyz
  1  'x, y, z'
loop_
 _atom_site_type_symbol
 _atom_site_label
 _atom_site_symmetry_multiplicity
 _atom_site_fract_x
 _atom_site_fract_y
 _atom_site_fract_z
 _atom_site_occupancy
  Tb  Tb0  1  0.461563  0.005422  0.252577  1
  Tb  Tb1  1  0.538437  0.994578  0.747423  1
  Sm  Sm2  1  0.270517  0.538049  0.882958  1
  Sm  Sm3  1  0.729483  0.461951  0.117042  1
  Sm  Sm4  1  0.736462  0.476756  0.614076  1
  Sm  Sm5  1  0.263538  0.523244  0.385924  1
  Bi  Bi6  1  0.000000  0.000000  0.500000  1
  Bi  Bi7  1  0.000000  0.000000  0.000000  1
  O  O8  1  0.444226  0.650903  0.168211  1
  O  O9  1  0.555774  0.349097  0.831789  1
  O  O10  1  0.301786  0.927510  0.952785  1
  O  O11  1  0.698214  0.072490  0.047215  1
  O  O12  1  0.298188  0.927501  0.512999  1
  O  O13  1  0.701812  0.072499  0.487001  1
  O  O14  1  0.545428  0.359353  0.344344  1
  O  O15  1  0.454572  0.640647  0.655656  1
  O  O16  1  0.926199  0.669533  0.957487  1
  O  O17  1  0.073801  0.330467  0.042513  1
  O  O18  1  0.070923  0.343914  0.617739  1
  O  O19  1  0.929077  0.656086  0.382261  1
  O  O20  1  0.878230  0.907849  0.726360  1
  O  O21  1  0.121770  0.092151  0.273640  1
