# generated using pymatgen
data_Tb4AlPt
_symmetry_space_group_name_H-M   'P 1'
_cell_length_a   9.65416066
_cell_length_b   9.65416082
_cell_length_c   9.65416100
_cell_angle_alpha   59.99999595
_cell_angle_beta   59.99999542
_cell_angle_gamma   59.99999748
_symmetry_Int_Tables_number   1
_chemical_formula_structural   Tb4AlPt
_chemical_formula_sum   'Tb16 Al4 Pt4'
_cell_volume   636.25111105
_cell_formula_units_Z   4
loop_
 _symmetry_equiv_pos_site_id
 _symmetry_equiv_pos_as_xyz
  1  'x, y, z'
loop_
 _atom_site_type_symbol
 _atom_site_label
 _atom_site_symmetry_multiplicity
 _atom_site_fract_x
 _atom_site_fract_y
 _atom_site_fract_z
 _atom_site_occupancy
  Tb  Tb0  1  0.353711  0.353711  0.353711  1
  Tb  Tb1  1  0.353711  0.353711  0.938867  1
  Tb  Tb2  1  0.353711  0.938867  0.353711  1
  Tb  Tb3  1  0.938867  0.353711  0.353711  1
  Tb  Tb4  1  0.806427  0.193573  0.193573  1
  Tb  Tb5  1  0.193573  0.806427  0.806427  1
  Tb  Tb6  1  0.193573  0.806427  0.193573  1
  Tb  Tb7  1  0.806427  0.193573  0.806427  1
  Tb  Tb8  1  0.193573  0.193573  0.806427  1
  Tb  Tb9  1  0.806427  0.806427  0.193573  1
  Tb  Tb10  1  0.935833  0.564167  0.564167  1
  Tb  Tb11  1  0.564167  0.935833  0.935833  1
  Tb  Tb12  1  0.564167  0.935833  0.564167  1
  Tb  Tb13  1  0.935833  0.564167  0.935833  1
  Tb  Tb14  1  0.564167  0.564167  0.935833  1
  Tb  Tb15  1  0.935833  0.935833  0.564167  1
  Al  Al16  1  0.577428  0.577428  0.577428  1
  Al  Al17  1  0.577428  0.577428  0.267716  1
  Al  Al18  1  0.577428  0.267716  0.577428  1
  Al  Al19  1  0.267716  0.577428  0.577428  1
  Pt  Pt20  1  0.143286  0.143286  0.143286  1
  Pt  Pt21  1  0.143286  0.143286  0.570144  1
  Pt  Pt22  1  0.143286  0.570144  0.143286  1
  Pt  Pt23  1  0.570144  0.143286  0.143286  1
