# generated using pymatgen
data_PaZnF7
_symmetry_space_group_name_H-M   'P 1'
_cell_length_a   5.76874400
_cell_length_b   9.11504517
_cell_length_c   11.92610064
_cell_angle_alpha   61.02257323
_cell_angle_beta   90.00000000
_cell_angle_gamma   90.00000000
_symmetry_Int_Tables_number   1
_chemical_formula_structural   PaZnF7
_chemical_formula_sum   'Pa4 Zn4 F28'
_cell_volume   548.59597863
_cell_formula_units_Z   4
loop_
 _symmetry_equiv_pos_site_id
 _symmetry_equiv_pos_as_xyz
  1  'x, y, z'
loop_
 _atom_site_type_symbol
 _atom_site_label
 _atom_site_symmetry_multiplicity
 _atom_site_fract_x
 _atom_site_fract_y
 _atom_site_fract_z
 _atom_site_occupancy
  Pa  Pa0  1  0.250218  0.797877  0.265386  1
  Pa  Pa1  1  0.749782  0.202123  0.734614  1
  Pa  Pa2  1  0.750218  0.202123  0.234614  1
  Pa  Pa3  1  0.249782  0.797877  0.765386  1
  Zn  Zn4  1  0.751744  0.730954  0.036993  1
  Zn  Zn5  1  0.248256  0.269046  0.963007  1
  Zn  Zn6  1  0.251744  0.269046  0.463007  1
  Zn  Zn7  1  0.748256  0.730954  0.536993  1
  F  F8  1  0.968121  0.711877  0.409517  1
  F  F9  1  0.031879  0.288123  0.590483  1
  F  F10  1  0.468121  0.288123  0.090483  1
  F  F11  1  0.531879  0.711877  0.909517  1
  F  F12  1  0.502707  0.737692  0.158244  1
  F  F13  1  0.497293  0.262308  0.841756  1
  F  F14  1  0.002707  0.262308  0.341756  1
  F  F15  1  0.997293  0.737692  0.658244  1
  F  F16  1  0.980390  0.743668  0.167481  1
  F  F17  1  0.019610  0.256332  0.832519  1
  F  F18  1  0.480390  0.256332  0.332519  1
  F  F19  1  0.519610  0.743668  0.667481  1
  F  F20  1  0.768185  0.477562  0.139877  1
  F  F21  1  0.231815  0.522438  0.860123  1
  F  F22  1  0.268185  0.522438  0.360123  1
  F  F23  1  0.731815  0.477562  0.639877  1
  F  F24  1  0.952289  0.266976  0.063714  1
  F  F25  1  0.047711  0.733024  0.936286  1
  F  F26  1  0.452289  0.733024  0.436286  1
  F  F27  1  0.547711  0.266976  0.563714  1
  F  F28  1  0.743445  0.984576  0.432108  1
  F  F29  1  0.256555  0.015424  0.567892  1
  F  F30  1  0.243445  0.015424  0.067892  1
  F  F31  1  0.756555  0.984576  0.932108  1
  F  F32  1  0.596672  0.984436  0.225932  1
  F  F33  1  0.403328  0.015564  0.774068  1
  F  F34  1  0.096672  0.015564  0.274068  1
  F  F35  1  0.903328  0.984436  0.725932  1
