# generated using pymatgen
data_Gd4Er4Tc(B8Ru)3
_symmetry_space_group_name_H-M   'P 1'
_cell_length_a   3.67104100
_cell_length_b   9.15133843
_cell_length_c   11.54988800
_cell_angle_alpha   89.91443174
_cell_angle_beta   90.00000000
_cell_angle_gamma   90.00000000
_symmetry_Int_Tables_number   1
_chemical_formula_structural   Gd4Er4Tc(B8Ru)3
_chemical_formula_sum   'Gd4 Er4 Tc1 B24 Ru3'
_cell_volume   388.01734528
_cell_formula_units_Z   1
loop_
 _symmetry_equiv_pos_site_id
 _symmetry_equiv_pos_as_xyz
  1  'x, y, z'
loop_
 _atom_site_type_symbol
 _atom_site_label
 _atom_site_symmetry_multiplicity
 _atom_site_fract_x
 _atom_site_fract_y
 _atom_site_fract_z
 _atom_site_occupancy
  Gd  Gd0  1  0.000000  0.323776  0.413184  1
  Gd  Gd1  1  0.000000  0.677464  0.583870  1
  Gd  Gd2  1  0.000000  0.820306  0.087889  1
  Gd  Gd3  1  0.000000  0.177222  0.914799  1
  Er  Er4  1  0.000000  0.943103  0.372211  1
  Er  Er5  1  0.000000  0.057455  0.628397  1
  Er  Er6  1  0.000000  0.443897  0.128227  1
  Er  Er7  1  0.000000  0.556914  0.871265  1
  Tc  Tc8  1  0.000000  0.638153  0.320428  1
  B  B9  1  0.500000  0.553513  0.432438  1
  B  B10  1  0.500000  0.445959  0.568050  1
  B  B11  1  0.500000  0.053992  0.067908  1
  B  B12  1  0.500000  0.945524  0.932488  1
  B  B13  1  0.500000  0.748637  0.418769  1
  B  B14  1  0.500000  0.251803  0.581286  1
  B  B15  1  0.500000  0.248358  0.080930  1
  B  B16  1  0.500000  0.751274  0.918877  1
  B  B17  1  0.500000  0.791081  0.266304  1
  B  B18  1  0.500000  0.209547  0.733772  1
  B  B19  1  0.500000  0.290450  0.233022  1
  B  B20  1  0.500000  0.709930  0.766218  1
  B  B21  1  0.500000  0.630560  0.185577  1
  B  B22  1  0.500000  0.369132  0.814839  1
  B  B23  1  0.500000  0.130750  0.314271  1
  B  B24  1  0.500000  0.869788  0.685314  1
  B  B25  1  0.500000  0.983300  0.213031  1
  B  B26  1  0.500000  0.016582  0.787496  1
  B  B27  1  0.500000  0.482516  0.286935  1
  B  B28  1  0.500000  0.516468  0.712937  1
  B  B29  1  0.500000  0.604923  0.028433  1
  B  B30  1  0.500000  0.394449  0.970446  1
  B  B31  1  0.500000  0.105926  0.471091  1
  B  B32  1  0.500000  0.895763  0.529579  1
  Ru  Ru33  1  0.000000  0.361518  0.680182  1
  Ru  Ru34  1  0.000000  0.138003  0.179094  1
  Ru  Ru35  1  0.000000  0.861961  0.820442  1
