# generated using pymatgen
data_BaLiGaF6
_symmetry_space_group_name_H-M   'P 1'
_cell_length_a   10.60190500
_cell_length_b   5.44896407
_cell_length_c   8.74267103
_cell_angle_alpha   89.19764523
_cell_angle_beta   90.00000000
_cell_angle_gamma   90.00000000
_symmetry_Int_Tables_number   1
_chemical_formula_structural   BaLiGaF6
_chemical_formula_sum   'Ba4 Li4 Ga4 F24'
_cell_volume   505.00933329
_cell_formula_units_Z   4
loop_
 _symmetry_equiv_pos_site_id
 _symmetry_equiv_pos_as_xyz
  1  'x, y, z'
loop_
 _atom_site_type_symbol
 _atom_site_label
 _atom_site_symmetry_multiplicity
 _atom_site_fract_x
 _atom_site_fract_y
 _atom_site_fract_z
 _atom_site_occupancy
  Ba  Ba0  1  0.684458  0.302521  0.495808  1
  Ba  Ba1  1  0.815542  0.302521  0.995808  1
  Ba  Ba2  1  0.315542  0.697479  0.504192  1
  Ba  Ba3  1  0.184458  0.697479  0.004192  1
  Li  Li4  1  0.909353  0.754391  0.678694  1
  Li  Li5  1  0.090647  0.245609  0.321306  1
  Li  Li6  1  0.409353  0.245609  0.821306  1
  Li  Li7  1  0.590647  0.754391  0.178694  1
  Ga  Ga8  1  0.911774  0.765502  0.271819  1
  Ga  Ga9  1  0.411774  0.234498  0.228181  1
  Ga  Ga10  1  0.088226  0.234498  0.728181  1
  Ga  Ga11  1  0.588226  0.765502  0.771819  1
  F  F12  1  0.248625  0.399099  0.257916  1
  F  F13  1  0.004554  0.531917  0.797909  1
  F  F14  1  0.079276  0.901082  0.294300  1
  F  F15  1  0.751375  0.600901  0.742084  1
  F  F16  1  0.495446  0.531917  0.297909  1
  F  F17  1  0.605088  0.658661  0.976734  1
  F  F18  1  0.920724  0.098918  0.705700  1
  F  F19  1  0.579276  0.098918  0.205700  1
  F  F20  1  0.840162  0.077949  0.307380  1
  F  F21  1  0.894912  0.658661  0.476734  1
  F  F22  1  0.159838  0.922051  0.692620  1
  F  F23  1  0.404385  0.162304  0.445114  1
  F  F24  1  0.595615  0.837696  0.554886  1
  F  F25  1  0.504554  0.468083  0.702091  1
  F  F26  1  0.251375  0.399099  0.757916  1
  F  F27  1  0.748625  0.600901  0.242084  1
  F  F28  1  0.340162  0.922051  0.192620  1
  F  F29  1  0.995446  0.468083  0.202091  1
  F  F30  1  0.394912  0.341339  0.023266  1
  F  F31  1  0.659838  0.077949  0.807380  1
  F  F32  1  0.105088  0.341339  0.523266  1
  F  F33  1  0.095615  0.162304  0.945114  1
  F  F34  1  0.904385  0.837696  0.054886  1
  F  F35  1  0.420724  0.901082  0.794300  1
