# generated using pymatgen
data_Ho12OsPd3
_symmetry_space_group_name_H-M   'P 1'
_cell_length_a   6.43731800
_cell_length_b   7.09572800
_cell_length_c   9.42926100
_cell_angle_alpha   90.00000000
_cell_angle_beta   90.00000000
_cell_angle_gamma   90.00227001
_symmetry_Int_Tables_number   1
_chemical_formula_structural   Ho12OsPd3
_chemical_formula_sum   'Ho12 Os1 Pd3'
_cell_volume   430.70466918
_cell_formula_units_Z   1
loop_
 _symmetry_equiv_pos_site_id
 _symmetry_equiv_pos_as_xyz
  1  'x, y, z'
loop_
 _atom_site_type_symbol
 _atom_site_label
 _atom_site_symmetry_multiplicity
 _atom_site_fract_x
 _atom_site_fract_y
 _atom_site_fract_z
 _atom_site_occupancy
  Ho  Ho0  1  0.329847  0.683973  0.052187  1
  Ho  Ho1  1  0.173319  0.182531  0.440527  1
  Ho  Ho2  1  0.673597  0.321288  0.562232  1
  Ho  Ho3  1  0.818610  0.814052  0.937579  1
  Ho  Ho4  1  0.673597  0.321288  0.937768  1
  Ho  Ho5  1  0.818610  0.814052  0.562421  1
  Ho  Ho6  1  0.329847  0.683973  0.447813  1
  Ho  Ho7  1  0.173319  0.182531  0.059473  1
  Ho  Ho8  1  0.874170  0.524542  0.250000  1
  Ho  Ho9  1  0.630732  0.028660  0.250000  1
  Ho  Ho10  1  0.127496  0.476280  0.750000  1
  Ho  Ho11  1  0.378267  0.964314  0.750000  1
  Os  Os12  1  0.544054  0.609504  0.750000  1
  Pd  Pd13  1  0.054884  0.888783  0.250000  1
  Pd  Pd14  1  0.444514  0.393892  0.250000  1
  Pd  Pd15  1  0.955138  0.110338  0.750000  1
