# generated using pymatgen
data_Dy5Ho3(Lu3Pt4)4
_symmetry_space_group_name_H-M   'P 1'
_cell_length_a   7.42597785
_cell_length_b   7.50080336
_cell_length_c   14.61934200
_cell_angle_alpha   89.95871326
_cell_angle_beta   89.94981010
_cell_angle_gamma   90.01898399
_symmetry_Int_Tables_number   1
_chemical_formula_structural   Dy5Ho3(Lu3Pt4)4
_chemical_formula_sum   'Dy5 Ho3 Lu12 Pt16'
_cell_volume   814.30847042
_cell_formula_units_Z   1
loop_
 _symmetry_equiv_pos_site_id
 _symmetry_equiv_pos_as_xyz
  1  'x, y, z'
loop_
 _atom_site_type_symbol
 _atom_site_label
 _atom_site_symmetry_multiplicity
 _atom_site_fract_x
 _atom_site_fract_y
 _atom_site_fract_z
 _atom_site_occupancy
  Dy  Dy0  1  0.501032  0.678740  0.593029  1
  Dy  Dy1  1  0.000807  0.821518  0.907034  1
  Dy  Dy2  1  0.499100  0.321552  0.092914  1
  Dy  Dy3  1  0.999048  0.178316  0.407076  1
  Dy  Dy4  1  0.498955  0.321272  0.406864  1
  Ho  Ho5  1  0.998892  0.179113  0.093235  1
  Ho  Ho6  1  0.501209  0.679143  0.906706  1
  Ho  Ho7  1  0.001200  0.820919  0.593295  1
  Lu  Lu8  1  0.656082  0.167395  0.622438  1
  Lu  Lu9  1  0.155776  0.332583  0.877549  1
  Lu  Lu10  1  0.344225  0.832599  0.122331  1
  Lu  Lu11  1  0.844507  0.667741  0.377599  1
  Lu  Lu12  1  0.344100  0.832641  0.377423  1
  Lu  Lu13  1  0.844164  0.667362  0.122554  1
  Lu  Lu14  1  0.655802  0.167344  0.877372  1
  Lu  Lu15  1  0.155848  0.332425  0.622540  1
  Lu  Lu16  1  0.818774  0.509834  0.749975  1
  Lu  Lu17  1  0.318782  0.990200  0.749936  1
  Lu  Lu18  1  0.181196  0.490220  0.249940  1
  Lu  Lu19  1  0.681188  0.009773  0.249935  1
  Pt  Pt20  1  0.681928  0.964852  0.458177  1
  Pt  Pt21  1  0.181715  0.534110  0.042211  1
  Pt  Pt22  1  0.318056  0.034291  0.957751  1
  Pt  Pt23  1  0.818555  0.466160  0.542476  1
  Pt  Pt24  1  0.317333  0.034098  0.542254  1
  Pt  Pt25  1  0.817062  0.465591  0.957721  1
  Pt  Pt26  1  0.683086  0.965566  0.042232  1
  Pt  Pt27  1  0.181803  0.534843  0.457945  1
  Pt  Pt28  1  0.453254  0.382166  0.750026  1
  Pt  Pt29  1  0.953249  0.117812  0.749809  1
  Pt  Pt30  1  0.546911  0.618144  0.250148  1
  Pt  Pt31  1  0.046693  0.882117  0.249822  1
  Pt  Pt32  1  0.681202  0.858117  0.750052  1
  Pt  Pt33  1  0.181241  0.641799  0.749703  1
  Pt  Pt34  1  0.318261  0.141465  0.249983  1
  Pt  Pt35  1  0.818964  0.358179  0.249943  1
