# generated using pymatgen
data_Pr3Si6(Tc2Ni)2
_symmetry_space_group_name_H-M   'P 1'
_cell_length_a   8.21003319
_cell_length_b   8.21003267
_cell_length_c   8.21003300
_cell_angle_alpha   150.84274602
_cell_angle_beta   102.62952626
_cell_angle_gamma   84.72524280
_symmetry_Int_Tables_number   1
_chemical_formula_structural   Pr3Si6(Tc2Ni)2
_chemical_formula_sum   'Pr3 Si6 Tc4 Ni2'
_cell_volume   257.32618968
_cell_formula_units_Z   1
loop_
 _symmetry_equiv_pos_site_id
 _symmetry_equiv_pos_as_xyz
  1  'x, y, z'
loop_
 _atom_site_type_symbol
 _atom_site_label
 _atom_site_symmetry_multiplicity
 _atom_site_fract_x
 _atom_site_fract_y
 _atom_site_fract_z
 _atom_site_occupancy
  Pr  Pr0  1  0.337197  0.337197  0.000000  1
  Pr  Pr1  1  0.666511  0.666511  0.000000  1
  Pr  Pr2  1  0.996325  0.996325  0.000000  1
  Si  Si3  1  0.288272  0.666744  0.621528  1
  Si  Si4  1  0.692850  0.328589  0.364261  1
  Si  Si5  1  0.964328  0.328589  0.635739  1
  Si  Si6  1  0.368528  0.004649  0.363879  1
  Si  Si7  1  0.045216  0.666744  0.378472  1
  Si  Si8  1  0.640769  0.004649  0.636121  1
  Tc  Tc9  1  0.575618  0.828962  0.746655  1
  Tc  Tc10  1  0.250644  0.504370  0.746275  1
  Tc  Tc11  1  0.758094  0.504370  0.253725  1
  Tc  Tc12  1  0.082308  0.828962  0.253345  1
  Ni  Ni13  1  0.406965  0.166671  0.240296  1
  Ni  Ni14  1  0.926374  0.166671  0.759704  1
