# generated using pymatgen
data_Dy3NiPt2Pb3
_symmetry_space_group_name_H-M   'P 1'
_cell_length_a   7.80885900
_cell_length_b   7.80885988
_cell_length_c   3.80649100
_cell_angle_alpha   90.00000000
_cell_angle_beta   90.00000000
_cell_angle_gamma   120.00000049
_symmetry_Int_Tables_number   1
_chemical_formula_structural   Dy3NiPt2Pb3
_chemical_formula_sum   'Dy3 Ni1 Pt2 Pb3'
_cell_volume   201.01600991
_cell_formula_units_Z   1
loop_
 _symmetry_equiv_pos_site_id
 _symmetry_equiv_pos_as_xyz
  1  'x, y, z'
loop_
 _atom_site_type_symbol
 _atom_site_label
 _atom_site_symmetry_multiplicity
 _atom_site_fract_x
 _atom_site_fract_y
 _atom_site_fract_z
 _atom_site_occupancy
  Dy  Dy0  1  0.405017  0.405017  0.500000  1
  Dy  Dy1  1  0.594983  0.000000  0.500000  1
  Dy  Dy2  1  0.000000  0.594983  0.500000  1
  Ni  Ni3  1  0.000000  0.000000  0.500000  1
  Pt  Pt4  1  0.666667  0.333333  0.000000  1
  Pt  Pt5  1  0.333333  0.666667  0.000000  1
  Pb  Pb6  1  0.747545  0.747545  0.000000  1
  Pb  Pb7  1  0.252455  0.000000  0.000000  1
  Pb  Pb8  1  0.000000  0.252455  0.000000  1
