# generated using pymatgen
data_Nd8DyErSn6
_symmetry_space_group_name_H-M   'P 1'
_cell_length_a   9.21339900
_cell_length_b   9.21339874
_cell_length_c   6.75595000
_cell_angle_alpha   90.00000000
_cell_angle_beta   90.00000000
_cell_angle_gamma   120.00000452
_symmetry_Int_Tables_number   1
_chemical_formula_structural   Nd8DyErSn6
_chemical_formula_sum   'Nd8 Dy1 Er1 Sn6'
_cell_volume   496.65725634
_cell_formula_units_Z   1
loop_
 _symmetry_equiv_pos_site_id
 _symmetry_equiv_pos_as_xyz
  1  'x, y, z'
loop_
 _atom_site_type_symbol
 _atom_site_label
 _atom_site_symmetry_multiplicity
 _atom_site_fract_x
 _atom_site_fract_y
 _atom_site_fract_z
 _atom_site_occupancy
  Nd  Nd0  1  0.666667  0.333333  0.000000  1
  Nd  Nd1  1  0.333333  0.666667  0.000000  1
  Nd  Nd2  1  0.758319  0.758188  0.747378  1
  Nd  Nd3  1  0.241812  0.000132  0.747378  1
  Nd  Nd4  1  0.999868  0.241681  0.747378  1
  Nd  Nd5  1  0.241812  0.241681  0.252622  1
  Nd  Nd6  1  0.758319  0.000132  0.252622  1
  Nd  Nd7  1  0.999868  0.758188  0.252622  1
  Dy  Dy8  1  0.666667  0.333333  0.500000  1
  Er  Er9  1  0.333333  0.666667  0.500000  1
  Sn  Sn10  1  0.397067  0.397555  0.740655  1
  Sn  Sn11  1  0.602445  0.999512  0.740655  1
  Sn  Sn12  1  0.000488  0.602933  0.740655  1
  Sn  Sn13  1  0.602445  0.602933  0.259345  1
  Sn  Sn14  1  0.397067  0.999512  0.259345  1
  Sn  Sn15  1  0.000488  0.397555  0.259345  1
