# generated using pymatgen
data_Lu9Zn(Ni2Bi)2
_symmetry_space_group_name_H-M   'P 1'
_cell_length_a   8.73773628
_cell_length_b   8.73773561
_cell_length_c   8.73773649
_cell_angle_alpha   130.96668961
_cell_angle_beta   130.96668656
_cell_angle_gamma   71.86600508
_symmetry_Int_Tables_number   1
_chemical_formula_structural   Lu9Zn(Ni2Bi)2
_chemical_formula_sum   'Lu9 Zn1 Ni4 Bi2'
_cell_volume   372.04089813
_cell_formula_units_Z   1
loop_
 _symmetry_equiv_pos_site_id
 _symmetry_equiv_pos_as_xyz
  1  'x, y, z'
loop_
 _atom_site_type_symbol
 _atom_site_label
 _atom_site_symmetry_multiplicity
 _atom_site_fract_x
 _atom_site_fract_y
 _atom_site_fract_z
 _atom_site_occupancy
  Lu  Lu0  1  0.500000  0.500000  0.000000  1
  Lu  Lu1  1  0.805951  0.275485  0.832675  1
  Lu  Lu2  1  0.194049  0.724515  0.167325  1
  Lu  Lu3  1  0.442812  0.973278  0.167325  1
  Lu  Lu4  1  0.275485  0.442812  0.469533  1
  Lu  Lu5  1  0.026722  0.194049  0.469533  1
  Lu  Lu6  1  0.557188  0.026722  0.832675  1
  Lu  Lu7  1  0.724515  0.557188  0.530467  1
  Lu  Lu8  1  0.973278  0.805951  0.530467  1
  Zn  Zn9  1  0.000000  0.000000  0.000000  1
  Ni  Ni10  1  0.128129  0.627934  0.756063  1
  Ni  Ni11  1  0.871871  0.372066  0.243937  1
  Ni  Ni12  1  0.627934  0.871871  0.499805  1
  Ni  Ni13  1  0.372066  0.128129  0.500195  1
  Bi  Bi14  1  0.266585  0.266585  0.000000  1
  Bi  Bi15  1  0.733415  0.733415  0.000000  1
