# generated using pymatgen
data_RbNd2AgS4
_symmetry_space_group_name_H-M   'P 1'
_cell_length_a   4.18656100
_cell_length_b   7.37057970
_cell_length_c   14.60125300
_cell_angle_alpha   90.00000000
_cell_angle_beta   90.00000000
_cell_angle_gamma   73.50062211
_symmetry_Int_Tables_number   1
_chemical_formula_structural   RbNd2AgS4
_chemical_formula_sum   'Rb2 Nd4 Ag2 S8'
_cell_volume   432.00379029
_cell_formula_units_Z   2
loop_
 _symmetry_equiv_pos_site_id
 _symmetry_equiv_pos_as_xyz
  1  'x, y, z'
loop_
 _atom_site_type_symbol
 _atom_site_label
 _atom_site_symmetry_multiplicity
 _atom_site_fract_x
 _atom_site_fract_y
 _atom_site_fract_z
 _atom_site_occupancy
  Rb  Rb0  1  0.888991  0.222017  0.250000  1
  Rb  Rb1  1  0.111008  0.777983  0.750000  1
  Nd  Nd2  1  0.632523  0.734954  0.064380  1
  Nd  Nd3  1  0.632523  0.734954  0.435620  1
  Nd  Nd4  1  0.367477  0.265046  0.564380  1
  Nd  Nd5  1  0.367477  0.265046  0.935620  1
  Ag  Ag6  1  0.165826  0.668349  0.250000  1
  Ag  Ag7  1  0.834174  0.331650  0.750000  1
  S  S8  1  0.000000  0.000000  0.000000  1
  S  S9  1  0.261457  0.477087  0.102400  1
  S  S10  1  0.564820  0.870358  0.250000  1
  S  S11  1  0.261457  0.477087  0.397600  1
  S  S12  1  0.000000  0.000000  0.500000  1
  S  S13  1  0.738543  0.522912  0.602400  1
  S  S14  1  0.435178  0.129643  0.750000  1
  S  S15  1  0.738543  0.522912  0.897600  1
