# generated using pymatgen
data_Y6Zn4Pd5Pt8
_symmetry_space_group_name_H-M   'P 1'
_cell_length_a   8.27612824
_cell_length_b   8.26116111
_cell_length_c   8.26854121
_cell_angle_alpha   109.42572705
_cell_angle_beta   109.44531680
_cell_angle_gamma   109.44756443
_symmetry_Int_Tables_number   1
_chemical_formula_structural   Y6Zn4Pd5Pt8
_chemical_formula_sum   'Y6 Zn4 Pd5 Pt8'
_cell_volume   435.69614346
_cell_formula_units_Z   1
loop_
 _symmetry_equiv_pos_site_id
 _symmetry_equiv_pos_as_xyz
  1  'x, y, z'
loop_
 _atom_site_type_symbol
 _atom_site_label
 _atom_site_symmetry_multiplicity
 _atom_site_fract_x
 _atom_site_fract_y
 _atom_site_fract_z
 _atom_site_occupancy
  Y  Y0  1  0.700056  0.700163  0.002186  1
  Y  Y1  1  0.297483  0.997478  0.298474  1
  Y  Y2  1  0.000041  0.298886  0.298989  1
  Y  Y3  1  0.298774  0.301875  0.998838  1
  Y  Y4  1  0.702138  0.002526  0.700965  1
  Y  Y5  1  0.001981  0.700041  0.701761  1
  Zn  Zn6  1  0.000029  0.998676  0.499487  1
  Zn  Zn7  1  0.998803  0.499176  0.998849  1
  Zn  Zn8  1  0.500231  0.000691  0.999738  1
  Zn  Zn9  1  0.500180  0.499959  0.499952  1
  Pd  Pd10  1  0.333742  0.000025  0.667271  1
  Pd  Pd11  1  0.666385  0.333967  0.334008  1
  Pd  Pd12  1  0.667115  0.666646  0.335231  1
  Pd  Pd13  1  0.665947  0.333769  0.665912  1
  Pd  Pd14  1  0.333957  0.667399  0.666941  1
  Pt  Pt15  1  0.333035  0.332466  0.664404  1
  Pt  Pt16  1  0.667123  0.000871  0.333539  1
  Pt  Pt17  1  0.000029  0.666628  0.333813  1
  Pt  Pt18  1  0.666940  0.332273  0.000238  1
  Pt  Pt19  1  0.333581  0.666196  0.334373  1
  Pt  Pt20  1  0.999752  0.332903  0.666281  1
  Pt  Pt21  1  0.333161  0.668713  0.000520  1
  Pt  Pt22  1  0.999516  0.998675  0.998232  1
