# generated using pymatgen
data_ScPa2(GaRh)3
_symmetry_space_group_name_H-M   'P 1'
_cell_length_a   7.16686505
_cell_length_b   7.16686515
_cell_length_c   3.76851200
_cell_angle_alpha   90.00000000
_cell_angle_beta   90.00000000
_cell_angle_gamma   119.57199592
_symmetry_Int_Tables_number   1
_chemical_formula_structural   ScPa2(GaRh)3
_chemical_formula_sum   'Sc1 Pa2 Ga3 Rh3'
_cell_volume   168.35108980
_cell_formula_units_Z   1
loop_
 _symmetry_equiv_pos_site_id
 _symmetry_equiv_pos_as_xyz
  1  'x, y, z'
loop_
 _atom_site_type_symbol
 _atom_site_label
 _atom_site_symmetry_multiplicity
 _atom_site_fract_x
 _atom_site_fract_y
 _atom_site_fract_z
 _atom_site_occupancy
  Sc  Sc0  1  0.597123  0.597123  0.500000  1
  Pa  Pa1  1  0.410128  0.998152  0.500000  1
  Pa  Pa2  1  0.998152  0.410128  0.500000  1
  Ga  Ga3  1  0.744866  0.978571  0.000000  1
  Ga  Ga4  1  0.978571  0.744866  0.000000  1
  Ga  Ga5  1  0.272354  0.272354  0.000000  1
  Rh  Rh6  1  0.315852  0.669440  0.000000  1
  Rh  Rh7  1  0.669440  0.315852  0.000000  1
  Rh  Rh8  1  0.013515  0.013515  0.500000  1
