# generated using pymatgen
data_Nd6V(CrC4)3
_symmetry_space_group_name_H-M   'P 1'
_cell_length_a   8.27893300
_cell_length_b   8.27893286
_cell_length_c   5.20006100
_cell_angle_alpha   90.00000000
_cell_angle_beta   90.00000000
_cell_angle_gamma   119.99998857
_symmetry_Int_Tables_number   1
_chemical_formula_structural   Nd6V(CrC4)3
_chemical_formula_sum   'Nd6 V1 Cr3 C12'
_cell_volume   308.66532806
_cell_formula_units_Z   1
loop_
 _symmetry_equiv_pos_site_id
 _symmetry_equiv_pos_as_xyz
  1  'x, y, z'
loop_
 _atom_site_type_symbol
 _atom_site_label
 _atom_site_symmetry_multiplicity
 _atom_site_fract_x
 _atom_site_fract_y
 _atom_site_fract_z
 _atom_site_occupancy
  Nd  Nd0  1  0.613534  0.685783  0.748983  1
  Nd  Nd1  1  0.927751  0.613534  0.251017  1
  Nd  Nd2  1  0.685783  0.072249  0.251017  1
  Nd  Nd3  1  0.314217  0.927751  0.748983  1
  Nd  Nd4  1  0.072249  0.386466  0.748983  1
  Nd  Nd5  1  0.386466  0.314217  0.251017  1
  V  V6  1  0.000000  0.000000  0.500000  1
  Cr  Cr7  1  0.000000  0.000000  0.000000  1
  Cr  Cr8  1  0.666667  0.333333  0.751680  1
  Cr  Cr9  1  0.333333  0.666667  0.248320  1
  C  C10  1  0.957389  0.771328  0.747903  1
  C  C11  1  0.186061  0.957389  0.252097  1
  C  C12  1  0.771328  0.813939  0.252097  1
  C  C13  1  0.228672  0.186061  0.747903  1
  C  C14  1  0.813939  0.042611  0.747903  1
  C  C15  1  0.042611  0.228672  0.252097  1
  C  C16  1  0.859560  0.579252  0.751983  1
  C  C17  1  0.280306  0.859560  0.248017  1
  C  C18  1  0.579252  0.719694  0.248017  1
  C  C19  1  0.420748  0.280306  0.751983  1
  C  C20  1  0.140440  0.420748  0.248017  1
  C  C21  1  0.719694  0.140440  0.751983  1
