# generated using pymatgen
data_Lu20Cd6TcRu
_symmetry_space_group_name_H-M   'P 1'
_cell_length_a   9.35587600
_cell_length_b   9.35587575
_cell_length_c   9.72544000
_cell_angle_alpha   90.00000000
_cell_angle_beta   90.00000000
_cell_angle_gamma   120.00000089
_symmetry_Int_Tables_number   1
_chemical_formula_structural   Lu20Cd6TcRu
_chemical_formula_sum   'Lu20 Cd6 Tc1 Ru1'
_cell_volume   737.23982832
_cell_formula_units_Z   1
loop_
 _symmetry_equiv_pos_site_id
 _symmetry_equiv_pos_as_xyz
  1  'x, y, z'
loop_
 _atom_site_type_symbol
 _atom_site_label
 _atom_site_symmetry_multiplicity
 _atom_site_fract_x
 _atom_site_fract_y
 _atom_site_fract_z
 _atom_site_occupancy
  Lu  Lu0  1  0.000000  0.000000  0.500208  1
  Lu  Lu1  1  0.000000  0.000000  0.999792  1
  Lu  Lu2  1  0.209946  0.790054  0.442075  1
  Lu  Lu3  1  0.209946  0.419891  0.442075  1
  Lu  Lu4  1  0.580109  0.790054  0.442075  1
  Lu  Lu5  1  0.789952  0.210048  0.558542  1
  Lu  Lu6  1  0.789952  0.579902  0.558542  1
  Lu  Lu7  1  0.420098  0.210048  0.558542  1
  Lu  Lu8  1  0.789952  0.210048  0.941458  1
  Lu  Lu9  1  0.789952  0.579902  0.941458  1
  Lu  Lu10  1  0.420098  0.210048  0.941458  1
  Lu  Lu11  1  0.209946  0.790054  0.057925  1
  Lu  Lu12  1  0.209946  0.419891  0.057925  1
  Lu  Lu13  1  0.580109  0.790054  0.057925  1
  Lu  Lu14  1  0.539890  0.460110  0.250000  1
  Lu  Lu15  1  0.539890  0.079779  0.250000  1
  Lu  Lu16  1  0.920221  0.460110  0.250000  1
  Lu  Lu17  1  0.458880  0.541120  0.750000  1
  Lu  Lu18  1  0.458880  0.917760  0.750000  1
  Lu  Lu19  1  0.082240  0.541120  0.750000  1
  Cd  Cd20  1  0.885835  0.114165  0.250000  1
  Cd  Cd21  1  0.885835  0.771671  0.250000  1
  Cd  Cd22  1  0.228329  0.114165  0.250000  1
  Cd  Cd23  1  0.113908  0.886092  0.750000  1
  Cd  Cd24  1  0.113908  0.227816  0.750000  1
  Cd  Cd25  1  0.772184  0.886092  0.750000  1
  Tc  Tc26  1  0.333333  0.666667  0.250000  1
  Ru  Ru27  1  0.666667  0.333333  0.750000  1
