# generated using pymatgen
data_Er3Tm2Bi2Pt
_symmetry_space_group_name_H-M   'P 1'
_cell_length_a   7.99101600
_cell_length_b   8.98714400
_cell_length_c   12.30990000
_cell_angle_alpha   90.00000000
_cell_angle_beta   90.00000000
_cell_angle_gamma   90.00000000
_symmetry_Int_Tables_number   1
_chemical_formula_structural   Er3Tm2Bi2Pt
_chemical_formula_sum   'Er12 Tm8 Bi8 Pt4'
_cell_volume   884.05284390
_cell_formula_units_Z   4
loop_
 _symmetry_equiv_pos_site_id
 _symmetry_equiv_pos_as_xyz
  1  'x, y, z'
loop_
 _atom_site_type_symbol
 _atom_site_label
 _atom_site_symmetry_multiplicity
 _atom_site_fract_x
 _atom_site_fract_y
 _atom_site_fract_z
 _atom_site_occupancy
  Er  Er0  1  0.664791  0.750000  0.710790  1
  Er  Er1  1  0.335209  0.250000  0.289210  1
  Er  Er2  1  0.164791  0.250000  0.789210  1
  Er  Er3  1  0.835209  0.750000  0.210790  1
  Er  Er4  1  0.127967  0.750000  0.804113  1
  Er  Er5  1  0.872033  0.250000  0.195887  1
  Er  Er6  1  0.627967  0.250000  0.695887  1
  Er  Er7  1  0.372033  0.750000  0.304113  1
  Er  Er8  1  0.551279  0.750000  0.000269  1
  Er  Er9  1  0.448721  0.250000  0.999731  1
  Er  Er10  1  0.051279  0.250000  0.499731  1
  Er  Er11  1  0.948721  0.750000  0.500269  1
  Tm  Tm12  1  0.824095  0.452955  0.932836  1
  Tm  Tm13  1  0.175905  0.547045  0.067164  1
  Tm  Tm14  1  0.324095  0.547045  0.567164  1
  Tm  Tm15  1  0.175905  0.952955  0.067164  1
  Tm  Tm16  1  0.675905  0.452955  0.432836  1
  Tm  Tm17  1  0.824095  0.047045  0.932836  1
  Tm  Tm18  1  0.675905  0.047045  0.432836  1
  Tm  Tm19  1  0.324095  0.952955  0.567164  1
  Bi  Bi20  1  0.933798  0.009772  0.672358  1
  Bi  Bi21  1  0.066202  0.990228  0.327642  1
  Bi  Bi22  1  0.433798  0.990228  0.827642  1
  Bi  Bi23  1  0.066202  0.509772  0.327642  1
  Bi  Bi24  1  0.566202  0.009772  0.172358  1
  Bi  Bi25  1  0.933798  0.490228  0.672358  1
  Bi  Bi26  1  0.566202  0.490228  0.172358  1
  Bi  Bi27  1  0.433798  0.509772  0.827642  1
  Pt  Pt28  1  0.922875  0.750000  0.988914  1
  Pt  Pt29  1  0.077125  0.250000  0.011086  1
  Pt  Pt30  1  0.422875  0.250000  0.511086  1
  Pt  Pt31  1  0.577125  0.750000  0.488914  1
