# generated using pymatgen
data_Dy2Nb4FeB4Ru9
_symmetry_space_group_name_H-M   'P 1'
_cell_length_a   9.49090093
_cell_length_b   9.49090116
_cell_length_c   3.10242600
_cell_angle_alpha   90.00000000
_cell_angle_beta   90.00000000
_cell_angle_gamma   90.25248771
_symmetry_Int_Tables_number   1
_chemical_formula_structural   Dy2Nb4FeB4Ru9
_chemical_formula_sum   'Dy2 Nb4 Fe1 B4 Ru9'
_cell_volume   279.45514191
_cell_formula_units_Z   1
loop_
 _symmetry_equiv_pos_site_id
 _symmetry_equiv_pos_as_xyz
  1  'x, y, z'
loop_
 _atom_site_type_symbol
 _atom_site_label
 _atom_site_symmetry_multiplicity
 _atom_site_fract_x
 _atom_site_fract_y
 _atom_site_fract_z
 _atom_site_occupancy
  Dy  Dy0  1  0.821840  0.678160  0.000000  1
  Dy  Dy1  1  0.178160  0.321840  0.000000  1
  Nb  Nb2  1  0.330941  0.830941  0.000000  1
  Nb  Nb3  1  0.669059  0.169059  0.000000  1
  Nb  Nb4  1  0.500000  0.500000  0.000000  1
  Nb  Nb5  1  0.000000  0.000000  0.000000  1
  Fe  Fe6  1  0.500000  0.000000  0.500000  1
  B  B7  1  0.611530  0.888470  0.000000  1
  B  B8  1  0.388470  0.111530  0.000000  1
  B  B9  1  0.122400  0.622400  0.000000  1
  B  B10  1  0.877600  0.377600  0.000000  1
  Ru  Ru11  1  0.556241  0.729353  0.500000  1
  Ru  Ru12  1  0.443759  0.270647  0.500000  1
  Ru  Ru13  1  0.081358  0.786197  0.500000  1
  Ru  Ru14  1  0.918642  0.213803  0.500000  1
  Ru  Ru15  1  0.286197  0.581358  0.500000  1
  Ru  Ru16  1  0.713803  0.418642  0.500000  1
  Ru  Ru17  1  0.229353  0.056241  0.500000  1
  Ru  Ru18  1  0.770647  0.943759  0.500000  1
  Ru  Ru19  1  0.000000  0.500000  0.500000  1
