# generated using pymatgen
data_Pr12Nd4MgIn3Ir4
_symmetry_space_group_name_H-M   'P 1'
_cell_length_a   10.03509295
_cell_length_b   10.06888138
_cell_length_c   10.06888200
_cell_angle_alpha   60.00000454
_cell_angle_beta   59.88856155
_cell_angle_gamma   59.88856074
_symmetry_Int_Tables_number   1
_chemical_formula_structural   Pr12Nd4MgIn3Ir4
_chemical_formula_sum   'Pr12 Nd4 Mg1 In3 Ir4'
_cell_volume   718.18331370
_cell_formula_units_Z   1
loop_
 _symmetry_equiv_pos_site_id
 _symmetry_equiv_pos_as_xyz
  1  'x, y, z'
loop_
 _atom_site_type_symbol
 _atom_site_label
 _atom_site_symmetry_multiplicity
 _atom_site_fract_x
 _atom_site_fract_y
 _atom_site_fract_z
 _atom_site_occupancy
  Pr  Pr0  1  0.807220  0.192991  0.192991  1
  Pr  Pr1  1  0.190247  0.809600  0.809600  1
  Pr  Pr2  1  0.190247  0.809600  0.190553  1
  Pr  Pr3  1  0.807220  0.192991  0.806799  1
  Pr  Pr4  1  0.190247  0.190553  0.809600  1
  Pr  Pr5  1  0.807220  0.806799  0.192991  1
  Pr  Pr6  1  0.937118  0.561699  0.561699  1
  Pr  Pr7  1  0.560878  0.940108  0.940108  1
  Pr  Pr8  1  0.560878  0.940108  0.558905  1
  Pr  Pr9  1  0.937118  0.561699  0.939484  1
  Pr  Pr10  1  0.560878  0.558905  0.940108  1
  Pr  Pr11  1  0.937118  0.939484  0.561699  1
  Nd  Nd12  1  0.347494  0.346483  0.346483  1
  Nd  Nd13  1  0.347494  0.346483  0.959540  1
  Nd  Nd14  1  0.347494  0.959540  0.346483  1
  Nd  Nd15  1  0.957947  0.347352  0.347352  1
  Mg  Mg16  1  0.273112  0.575630  0.575630  1
  In  In17  1  0.579600  0.580712  0.580712  1
  In  In18  1  0.579600  0.580712  0.258978  1
  In  In19  1  0.579600  0.258978  0.580712  1
  Ir  Ir20  1  0.141964  0.141300  0.141300  1
  Ir  Ir21  1  0.141964  0.141300  0.575436  1
  Ir  Ir22  1  0.141964  0.575436  0.141300  1
  Ir  Ir23  1  0.575383  0.141539  0.141539  1
