# generated using pymatgen
data_Tb4Y12Cd4FeNi3
_symmetry_space_group_name_H-M   'P 1'
_cell_length_a   9.59565403
_cell_length_b   9.59565495
_cell_length_c   9.59565365
_cell_angle_alpha   59.79221583
_cell_angle_beta   59.79221196
_cell_angle_gamma   59.79221254
_symmetry_Int_Tables_number   1
_chemical_formula_structural   Tb4Y12Cd4FeNi3
_chemical_formula_sum   'Tb4 Y12 Cd4 Fe1 Ni3'
_cell_volume   621.80654050
_cell_formula_units_Z   1
loop_
 _symmetry_equiv_pos_site_id
 _symmetry_equiv_pos_as_xyz
  1  'x, y, z'
loop_
 _atom_site_type_symbol
 _atom_site_label
 _atom_site_symmetry_multiplicity
 _atom_site_fract_x
 _atom_site_fract_y
 _atom_site_fract_z
 _atom_site_occupancy
  Tb  Tb0  1  0.598066  0.598066  0.598066  1
  Tb  Tb1  1  0.597183  0.597183  0.205914  1
  Tb  Tb2  1  0.597183  0.205914  0.597183  1
  Tb  Tb3  1  0.205914  0.597183  0.597183  1
  Y  Y4  1  0.065853  0.438138  0.438138  1
  Y  Y5  1  0.437439  0.061499  0.061499  1
  Y  Y6  1  0.438138  0.065853  0.438138  1
  Y  Y7  1  0.061499  0.437439  0.061499  1
  Y  Y8  1  0.438138  0.438138  0.065853  1
  Y  Y9  1  0.061499  0.061499  0.437439  1
  Y  Y10  1  0.187208  0.813798  0.813798  1
  Y  Y11  1  0.809180  0.188244  0.188244  1
  Y  Y12  1  0.813798  0.187208  0.813798  1
  Y  Y13  1  0.188244  0.809180  0.188244  1
  Y  Y14  1  0.813798  0.813798  0.187208  1
  Y  Y15  1  0.188244  0.188244  0.809180  1
  Cd  Cd16  1  0.829694  0.829694  0.829694  1
  Cd  Cd17  1  0.830399  0.830399  0.506244  1
  Cd  Cd18  1  0.830399  0.506244  0.830399  1
  Cd  Cd19  1  0.506244  0.830399  0.830399  1
  Fe  Fe20  1  0.393790  0.393790  0.393790  1
  Ni  Ni21  1  0.392690  0.392690  0.822711  1
  Ni  Ni22  1  0.392690  0.822711  0.392690  1
  Ni  Ni23  1  0.822711  0.392690  0.392690  1
