# generated using pymatgen
data_Pr8As9P5Ir16
_symmetry_space_group_name_H-M   'P 1'
_cell_length_a   4.08886100
_cell_length_b   13.20441390
_cell_length_c   13.46494107
_cell_angle_alpha   81.68002611
_cell_angle_beta   90.00000000
_cell_angle_gamma   90.00000000
_symmetry_Int_Tables_number   1
_chemical_formula_structural   Pr8As9P5Ir16
_chemical_formula_sum   'Pr8 As9 P5 Ir16'
_cell_volume   719.33457737
_cell_formula_units_Z   1
loop_
 _symmetry_equiv_pos_site_id
 _symmetry_equiv_pos_as_xyz
  1  'x, y, z'
loop_
 _atom_site_type_symbol
 _atom_site_label
 _atom_site_symmetry_multiplicity
 _atom_site_fract_x
 _atom_site_fract_y
 _atom_site_fract_z
 _atom_site_occupancy
  Pr  Pr0  1  0.250000  0.104579  0.792622  1
  Pr  Pr1  1  0.750000  0.895268  0.207418  1
  Pr  Pr2  1  0.250000  0.279476  0.101166  1
  Pr  Pr3  1  0.750000  0.720363  0.898657  1
  Pr  Pr4  1  0.250000  0.519707  0.293973  1
  Pr  Pr5  1  0.750000  0.482542  0.704470  1
  Pr  Pr6  1  0.250000  0.207191  0.437889  1
  Pr  Pr7  1  0.750000  0.790369  0.563059  1
  As  As8  1  0.750000  0.392959  0.435821  1
  As  As9  1  0.250000  0.844766  0.722428  1
  As  As10  1  0.750000  0.152544  0.277533  1
  As  As11  1  0.750000  0.253220  0.917026  1
  As  As12  1  0.250000  0.747085  0.082942  1
  As  As13  1  0.750000  0.095985  0.591699  1
  As  As14  1  0.250000  0.902851  0.410417  1
  As  As15  1  0.750000  0.472725  0.128068  1
  As  As16  1  0.250000  0.529332  0.868720  1
  P  P17  1  0.250000  0.052702  0.097642  1
  P  P18  1  0.750000  0.947119  0.902112  1
  P  P19  1  0.250000  0.314076  0.687392  1
  P  P20  1  0.750000  0.686078  0.314655  1
  P  P21  1  0.250000  0.606767  0.561550  1
  Ir  Ir22  1  0.250000  0.990896  0.577355  1
  Ir  Ir23  1  0.750000  0.009158  0.423930  1
  Ir  Ir24  1  0.250000  0.662365  0.722265  1
  Ir  Ir25  1  0.750000  0.334942  0.267455  1
  Ir  Ir26  1  0.250000  0.557471  0.045938  1
  Ir  Ir27  1  0.750000  0.444922  0.951798  1
  Ir  Ir28  1  0.250000  0.053095  0.269326  1
  Ir  Ir29  1  0.750000  0.944496  0.731041  1
  Ir  Ir30  1  0.250000  0.428026  0.534083  1
  Ir  Ir31  1  0.750000  0.578953  0.474767  1
  Ir  Ir32  1  0.250000  0.924457  0.991877  1
  Ir  Ir33  1  0.750000  0.075336  0.008021  1
  Ir  Ir34  1  0.250000  0.717680  0.396758  1
  Ir  Ir35  1  0.750000  0.279740  0.607339  1
  Ir  Ir36  1  0.250000  0.342454  0.853482  1
  Ir  Ir37  1  0.750000  0.658302  0.147306  1
