# generated using pymatgen
data_Ac8Yb9Dy3Si16
_symmetry_space_group_name_H-M   'P 1'
_cell_length_a   7.69589649
_cell_length_b   8.13358571
_cell_length_c   15.47552500
_cell_angle_alpha   89.96457399
_cell_angle_beta   90.06187522
_cell_angle_gamma   89.98885889
_symmetry_Int_Tables_number   1
_chemical_formula_structural   Ac8Yb9Dy3Si16
_chemical_formula_sum   'Ac8 Yb9 Dy3 Si16'
_cell_volume   968.69333544
_cell_formula_units_Z   1
loop_
 _symmetry_equiv_pos_site_id
 _symmetry_equiv_pos_as_xyz
  1  'x, y, z'
loop_
 _atom_site_type_symbol
 _atom_site_label
 _atom_site_symmetry_multiplicity
 _atom_site_fract_x
 _atom_site_fract_y
 _atom_site_fract_z
 _atom_site_occupancy
  Ac  Ac0  1  0.973677  0.820362  0.098560  1
  Ac  Ac1  1  0.473607  0.681095  0.402679  1
  Ac  Ac2  1  0.525464  0.318590  0.903158  1
  Ac  Ac3  1  0.026416  0.180240  0.597899  1
  Ac  Ac4  1  0.026270  0.180914  0.899585  1
  Ac  Ac5  1  0.526870  0.318639  0.600143  1
  Ac  Ac6  1  0.473629  0.681924  0.099861  1
  Ac  Ac7  1  0.972699  0.818589  0.400530  1
  Yb  Yb8  1  0.642491  0.004583  0.248954  1
  Yb  Yb9  1  0.148530  0.495153  0.248603  1
  Yb  Yb10  1  0.852793  0.501378  0.750180  1
  Yb  Yb11  1  0.352650  0.997732  0.750098  1
  Yb  Yb12  1  0.680285  0.819165  0.877356  1
  Yb  Yb13  1  0.180820  0.679693  0.621341  1
  Yb  Yb14  1  0.820136  0.320743  0.121761  1
  Yb  Yb15  1  0.319814  0.180532  0.379105  1
  Yb  Yb16  1  0.317870  0.178668  0.122818  1
  Dy  Dy17  1  0.821243  0.318966  0.375836  1
  Dy  Dy18  1  0.181267  0.679468  0.875293  1
  Dy  Dy19  1  0.680807  0.820001  0.624348  1
  Si  Si20  1  0.761307  0.610683  0.252205  1
  Si  Si21  1  0.256909  0.887233  0.250990  1
  Si  Si22  1  0.739939  0.108604  0.748118  1
  Si  Si23  1  0.239962  0.390384  0.751495  1
  Si  Si24  1  0.027801  0.106324  0.252508  1
  Si  Si25  1  0.535920  0.395194  0.253756  1
  Si  Si26  1  0.468314  0.609906  0.750776  1
  Si  Si27  1  0.968122  0.890958  0.748617  1
  Si  Si28  1  0.867395  0.532452  0.959764  1
  Si  Si29  1  0.369191  0.969481  0.539946  1
  Si  Si30  1  0.636382  0.029246  0.036964  1
  Si  Si31  1  0.131444  0.468865  0.460938  1
  Si  Si32  1  0.144853  0.473223  0.033560  1
  Si  Si33  1  0.649330  0.034253  0.465785  1
  Si  Si34  1  0.354875  0.963143  0.961304  1
  Si  Si35  1  0.850915  0.533617  0.535165  1
