# generated using pymatgen
data_Eu(ThH4)3
_symmetry_space_group_name_H-M   'P 1'
_cell_length_a   6.97167100
_cell_length_b   6.99846600
_cell_length_c   6.99846600
_cell_angle_alpha   90.00000000
_cell_angle_beta   90.00000000
_cell_angle_gamma   90.00000000
_symmetry_Int_Tables_number   1
_chemical_formula_structural   Eu(ThH4)3
_chemical_formula_sum   'Eu2 Th6 H24'
_cell_volume   341.46217180
_cell_formula_units_Z   2
loop_
 _symmetry_equiv_pos_site_id
 _symmetry_equiv_pos_as_xyz
  1  'x, y, z'
loop_
 _atom_site_type_symbol
 _atom_site_label
 _atom_site_symmetry_multiplicity
 _atom_site_fract_x
 _atom_site_fract_y
 _atom_site_fract_z
 _atom_site_occupancy
  Eu  Eu0  1  0.250000  0.000000  0.500000  1
  Eu  Eu1  1  0.750000  0.000000  0.500000  1
  Th  Th2  1  0.000000  0.000000  0.000000  1
  Th  Th3  1  0.500000  0.500000  0.500000  1
  Th  Th4  1  0.000000  0.500000  0.249971  1
  Th  Th5  1  0.000000  0.500000  0.750029  1
  Th  Th6  1  0.500000  0.749971  0.000000  1
  Th  Th7  1  0.500000  0.250029  0.000000  1
  H  H8  1  0.000000  0.162305  0.290122  1
  H  H9  1  0.500000  0.209878  0.662305  1
  H  H10  1  0.500000  0.790122  0.337695  1
  H  H11  1  0.810089  0.646875  0.500000  1
  H  H12  1  0.189911  0.646875  0.500000  1
  H  H13  1  0.345202  0.500000  0.804624  1
  H  H14  1  0.654798  0.500000  0.804624  1
  H  H15  1  0.310089  0.000000  0.146875  1
  H  H16  1  0.154798  0.304624  0.000000  1
  H  H17  1  0.845202  0.695376  0.000000  1
  H  H18  1  0.310089  0.000000  0.853125  1
  H  H19  1  0.845202  0.304624  0.000000  1
  H  H20  1  0.689911  0.000000  0.146875  1
  H  H21  1  0.689911  0.000000  0.853125  1
  H  H22  1  0.154798  0.695376  0.000000  1
  H  H23  1  0.000000  0.837695  0.709878  1
  H  H24  1  0.000000  0.162305  0.709878  1
  H  H25  1  0.000000  0.837695  0.290122  1
  H  H26  1  0.654798  0.500000  0.195376  1
  H  H27  1  0.345202  0.500000  0.195376  1
  H  H28  1  0.810089  0.353125  0.500000  1
  H  H29  1  0.189911  0.353125  0.500000  1
  H  H30  1  0.500000  0.790122  0.662305  1
  H  H31  1  0.500000  0.209878  0.337695  1
