# generated using pymatgen
data_Zn22CoNi2
_symmetry_space_group_name_H-M   'P 1'
_cell_length_a   7.67803307
_cell_length_b   7.67803304
_cell_length_c   7.69262764
_cell_angle_alpha   71.58349424
_cell_angle_beta   71.58350462
_cell_angle_gamma   57.95096498
_symmetry_Int_Tables_number   1
_chemical_formula_structural   Zn22CoNi2
_chemical_formula_sum   'Zn22 Co1 Ni2'
_cell_volume   358.44254813
_cell_formula_units_Z   1
loop_
 _symmetry_equiv_pos_site_id
 _symmetry_equiv_pos_as_xyz
  1  'x, y, z'
loop_
 _atom_site_type_symbol
 _atom_site_label
 _atom_site_symmetry_multiplicity
 _atom_site_fract_x
 _atom_site_fract_y
 _atom_site_fract_z
 _atom_site_occupancy
  Zn  Zn0  1  0.343335  0.741392  0.311832  1
  Zn  Zn1  1  0.656665  0.258608  0.688168  1
  Zn  Zn2  1  0.258608  0.656665  0.688168  1
  Zn  Zn3  1  0.741392  0.343335  0.311832  1
  Zn  Zn4  1  0.677624  0.322376  0.000000  1
  Zn  Zn5  1  0.322376  0.677624  0.000000  1
  Zn  Zn6  1  0.831411  0.831411  0.782055  1
  Zn  Zn7  1  0.168589  0.168589  0.217945  1
  Zn  Zn8  1  0.977540  0.977540  0.176694  1
  Zn  Zn9  1  0.022460  0.022460  0.823306  1
  Zn  Zn10  1  0.351890  0.351890  0.272591  1
  Zn  Zn11  1  0.648110  0.648110  0.727409  1
  Zn  Zn12  1  0.685614  0.685614  0.376170  1
  Zn  Zn13  1  0.314386  0.314386  0.623830  1
  Zn  Zn14  1  0.663089  0.023725  0.463529  1
  Zn  Zn15  1  0.336911  0.976275  0.536471  1
  Zn  Zn16  1  0.976275  0.336911  0.536471  1
  Zn  Zn17  1  0.023725  0.663089  0.463529  1
  Zn  Zn18  1  0.616732  0.999370  0.099487  1
  Zn  Zn19  1  0.383268  0.000630  0.900513  1
  Zn  Zn20  1  0.000630  0.383268  0.900513  1
  Zn  Zn21  1  0.999370  0.616732  0.099487  1
  Co  Co22  1  0.000000  0.000000  0.500000  1
  Ni  Ni23  1  0.658042  0.658042  0.054907  1
  Ni  Ni24  1  0.341958  0.341958  0.945093  1
