# generated using pymatgen
data_Y8Ho2B2I15
_symmetry_space_group_name_H-M   'P 1'
_cell_length_a   9.62748380
_cell_length_b   10.36794811
_cell_length_c   11.31805020
_cell_angle_alpha   91.73330297
_cell_angle_beta   114.43777046
_cell_angle_gamma   110.46096480
_symmetry_Int_Tables_number   1
_chemical_formula_structural   Y8Ho2B2I15
_chemical_formula_sum   'Y8 Ho2 B2 I15'
_cell_volume   943.16865791
_cell_formula_units_Z   1
loop_
 _symmetry_equiv_pos_site_id
 _symmetry_equiv_pos_as_xyz
  1  'x, y, z'
loop_
 _atom_site_type_symbol
 _atom_site_label
 _atom_site_symmetry_multiplicity
 _atom_site_fract_x
 _atom_site_fract_y
 _atom_site_fract_z
 _atom_site_occupancy
  Y  Y0  1  0.783875  0.393031  0.267498  1
  Y  Y1  1  0.216125  0.606969  0.732502  1
  Y  Y2  1  0.662729  0.752381  0.825729  1
  Y  Y3  1  0.337271  0.247619  0.174271  1
  Y  Y4  1  0.523181  0.713182  0.086063  1
  Y  Y5  1  0.476819  0.286818  0.913937  1
  Y  Y6  1  0.580345  0.043423  0.308722  1
  Y  Y7  1  0.419655  0.956577  0.691278  1
  Ho  Ho8  1  0.706220  0.069729  0.045481  1
  Ho  Ho9  1  0.293780  0.930271  0.954519  1
  B  B10  1  0.468902  0.824354  0.881151  1
  B  B11  1  0.531098  0.175646  0.118849  1
  I  I12  1  0.000000  0.000000  0.000000  1
  I  I13  1  0.638156  0.882366  0.582922  1
  I  I14  1  0.361844  0.117634  0.417078  1
  I  I15  1  0.884648  0.299362  0.531152  1
  I  I16  1  0.115352  0.700638  0.468848  1
  I  I17  1  0.284012  0.760318  0.176771  1
  I  I18  1  0.715988  0.239682  0.823229  1
  I  I19  1  0.053972  0.339376  0.225110  1
  I  I20  1  0.159882  0.055346  0.702240  1
  I  I21  1  0.840118  0.944654  0.297760  1
  I  I22  1  0.228475  0.409846  0.941969  1
  I  I23  1  0.771525  0.590154  0.058031  1
  I  I24  1  0.409837  0.459626  0.660281  1
  I  I25  1  0.590163  0.540374  0.339719  1
  I  I26  1  0.946028  0.660624  0.774890  1
