# generated using pymatgen
data_Tb4Ga2ReRu5
_symmetry_space_group_name_H-M   'P 1'
_cell_length_a   5.28155863
_cell_length_b   5.53468151
_cell_length_c   8.86628600
_cell_angle_alpha   90.00000000
_cell_angle_beta   90.00000000
_cell_angle_gamma   121.59846026
_symmetry_Int_Tables_number   1
_chemical_formula_structural   Tb4Ga2ReRu5
_chemical_formula_sum   'Tb4 Ga2 Re1 Ru5'
_cell_volume   220.75169016
_cell_formula_units_Z   1
loop_
 _symmetry_equiv_pos_site_id
 _symmetry_equiv_pos_as_xyz
  1  'x, y, z'
loop_
 _atom_site_type_symbol
 _atom_site_label
 _atom_site_symmetry_multiplicity
 _atom_site_fract_x
 _atom_site_fract_y
 _atom_site_fract_z
 _atom_site_occupancy
  Tb  Tb0  1  0.341203  0.670601  0.441490  1
  Tb  Tb1  1  0.665354  0.332676  0.566040  1
  Tb  Tb2  1  0.665354  0.332676  0.933960  1
  Tb  Tb3  1  0.341203  0.670601  0.058510  1
  Ga  Ga4  1  0.826165  0.166833  0.250000  1
  Ga  Ga5  1  0.826165  0.659331  0.250000  1
  Re  Re6  1  0.663337  0.831669  0.750000  1
  Ru  Ru7  1  0.987746  0.993872  0.499973  1
  Ru  Ru8  1  0.987746  0.993872  0.000027  1
  Ru  Ru9  1  0.333646  0.166822  0.250000  1
  Ru  Ru10  1  0.181042  0.838324  0.750000  1
  Ru  Ru11  1  0.181042  0.342719  0.750000  1
