# generated using pymatgen
data_Er4Tm8Co5Pb
_symmetry_space_group_name_H-M   'P 1'
_cell_length_a   8.18091809
_cell_length_b   8.18091810
_cell_length_c   8.18091850
_cell_angle_alpha   110.93439876
_cell_angle_beta   110.77342749
_cell_angle_gamma   106.73992461
_symmetry_Int_Tables_number   1
_chemical_formula_structural   Er4Tm8Co5Pb
_chemical_formula_sum   'Er4 Tm8 Co5 Pb1'
_cell_volume   420.77215696
_cell_formula_units_Z   1
loop_
 _symmetry_equiv_pos_site_id
 _symmetry_equiv_pos_as_xyz
  1  'x, y, z'
loop_
 _atom_site_type_symbol
 _atom_site_label
 _atom_site_symmetry_multiplicity
 _atom_site_fract_x
 _atom_site_fract_y
 _atom_site_fract_z
 _atom_site_occupancy
  Er  Er0  1  0.287090  0.184855  0.471944  1
  Er  Er1  1  0.712910  0.815145  0.528056  1
  Er  Er2  1  0.287090  0.815145  0.102234  1
  Er  Er3  1  0.712910  0.184855  0.897766  1
  Tm  Tm4  1  0.619539  0.312846  0.306693  1
  Tm  Tm5  1  0.380461  0.687154  0.693307  1
  Tm  Tm6  1  0.006153  0.312846  0.693307  1
  Tm  Tm7  1  0.993847  0.687154  0.306693  1
  Tm  Tm8  1  0.211066  0.405374  0.194309  1
  Tm  Tm9  1  0.788934  0.594626  0.805691  1
  Tm  Tm10  1  0.211066  0.016757  0.805691  1
  Tm  Tm11  1  0.788934  0.983243  0.194309  1
  Co  Co12  1  0.000000  0.376257  0.376257  1
  Co  Co13  1  0.000000  0.623743  0.623743  1
  Co  Co14  1  0.387522  0.887522  0.500000  1
  Co  Co15  1  0.612478  0.112478  0.500000  1
  Co  Co16  1  0.000000  0.000000  0.000000  1
  Pb  Pb17  1  0.500000  0.500000  0.000000  1
