# generated using pymatgen
data_LaEu(NiSn2)2
_symmetry_space_group_name_H-M   'P 1'
_cell_length_a   9.46070315
_cell_length_b   9.46070381
_cell_length_c   4.54433200
_cell_angle_alpha   90.00000000
_cell_angle_beta   90.00000000
_cell_angle_gamma   27.91331606
_symmetry_Int_Tables_number   1
_chemical_formula_structural   LaEu(NiSn2)2
_chemical_formula_sum   'La1 Eu1 Ni2 Sn4'
_cell_volume   190.40932299
_cell_formula_units_Z   1
loop_
 _symmetry_equiv_pos_site_id
 _symmetry_equiv_pos_as_xyz
  1  'x, y, z'
loop_
 _atom_site_type_symbol
 _atom_site_label
 _atom_site_symmetry_multiplicity
 _atom_site_fract_x
 _atom_site_fract_y
 _atom_site_fract_z
 _atom_site_occupancy
  La  La0  1  0.888211  0.888211  0.750000  1
  Eu  Eu1  1  0.109777  0.109777  0.250001  1
  Ni  Ni2  1  0.318584  0.318584  0.250001  1
  Ni  Ni3  1  0.683074  0.683074  0.750000  1
  Sn  Sn4  1  0.749528  0.749528  0.250001  1
  Sn  Sn5  1  0.249736  0.249736  0.750000  1
  Sn  Sn6  1  0.453548  0.453548  0.250001  1
  Sn  Sn7  1  0.547542  0.547542  0.750000  1
