# generated using pymatgen
data_Ce4In2IrAu3
_symmetry_space_group_name_H-M   'P 1'
_cell_length_a   8.05206756
_cell_length_b   8.05206756
_cell_length_c   3.77471800
_cell_angle_alpha   90.00000000
_cell_angle_beta   90.00000000
_cell_angle_gamma   89.83289577
_symmetry_Int_Tables_number   1
_chemical_formula_structural   Ce4In2IrAu3
_chemical_formula_sum   'Ce4 In2 Ir1 Au3'
_cell_volume   244.73579028
_cell_formula_units_Z   1
loop_
 _symmetry_equiv_pos_site_id
 _symmetry_equiv_pos_as_xyz
  1  'x, y, z'
loop_
 _atom_site_type_symbol
 _atom_site_label
 _atom_site_symmetry_multiplicity
 _atom_site_fract_x
 _atom_site_fract_y
 _atom_site_fract_z
 _atom_site_occupancy
  Ce  Ce0  1  0.670919  0.170919  0.500000  1
  Ce  Ce1  1  0.311324  0.811324  0.500000  1
  Ce  Ce2  1  0.177069  0.345204  0.500000  1
  Ce  Ce3  1  0.845204  0.677069  0.500000  1
  In  In4  1  0.003390  0.998533  0.000000  1
  In  In5  1  0.498533  0.503390  0.000000  1
  Ir  Ir6  1  0.130785  0.630785  0.000000  1
  Au  Au7  1  0.871381  0.371381  0.000000  1
  Au  Au8  1  0.623547  0.867848  0.000000  1
  Au  Au9  1  0.367848  0.123547  0.000000  1
