# generated using pymatgen
data_Sr4P4PdAu3
_symmetry_space_group_name_H-M   'P 1'
_cell_length_a   4.30067700
_cell_length_b   8.70532927
_cell_length_c   7.46918405
_cell_angle_alpha   89.97912171
_cell_angle_beta   90.00000000
_cell_angle_gamma   90.00000000
_symmetry_Int_Tables_number   1
_chemical_formula_structural   Sr4P4PdAu3
_chemical_formula_sum   'Sr4 P4 Pd1 Au3'
_cell_volume   279.63733929
_cell_formula_units_Z   1
loop_
 _symmetry_equiv_pos_site_id
 _symmetry_equiv_pos_as_xyz
  1  'x, y, z'
loop_
 _atom_site_type_symbol
 _atom_site_label
 _atom_site_symmetry_multiplicity
 _atom_site_fract_x
 _atom_site_fract_y
 _atom_site_fract_z
 _atom_site_occupancy
  Sr  Sr0  1  0.250000  0.494886  0.246349  1
  Sr  Sr1  1  0.750000  0.495619  0.753313  1
  Sr  Sr2  1  0.750000  0.004859  0.754643  1
  Sr  Sr3  1  0.250000  0.004632  0.244467  1
  P  P4  1  0.250000  0.748725  0.915864  1
  P  P5  1  0.750000  0.249745  0.075486  1
  P  P6  1  0.750000  0.751342  0.416773  1
  P  P7  1  0.250000  0.250148  0.591511  1
  Pd  Pd8  1  0.250000  0.250938  0.919159  1
  Au  Au9  1  0.250000  0.750471  0.582308  1
  Au  Au10  1  0.750000  0.249603  0.415872  1
  Au  Au11  1  0.750000  0.749033  0.084256  1
