# generated using pymatgen
data_La5Sn2Ru
_symmetry_space_group_name_H-M   'P 1'
_cell_length_a   8.36320600
_cell_length_b   9.33686500
_cell_length_c   12.89763100
_cell_angle_alpha   90.00000000
_cell_angle_beta   90.00000000
_cell_angle_gamma   90.00000000
_symmetry_Int_Tables_number   1
_chemical_formula_structural   La5Sn2Ru
_chemical_formula_sum   'La20 Sn8 Ru4'
_cell_volume   1007.12603149
_cell_formula_units_Z   4
loop_
 _symmetry_equiv_pos_site_id
 _symmetry_equiv_pos_as_xyz
  1  'x, y, z'
loop_
 _atom_site_type_symbol
 _atom_site_label
 _atom_site_symmetry_multiplicity
 _atom_site_fract_x
 _atom_site_fract_y
 _atom_site_fract_z
 _atom_site_occupancy
  La  La0  1  0.657070  0.750000  0.709590  1
  La  La1  1  0.342930  0.250000  0.290410  1
  La  La2  1  0.157070  0.250000  0.790410  1
  La  La3  1  0.842930  0.750000  0.209590  1
  La  La4  1  0.126941  0.750000  0.802499  1
  La  La5  1  0.873059  0.250000  0.197501  1
  La  La6  1  0.626941  0.250000  0.697501  1
  La  La7  1  0.373059  0.750000  0.302499  1
  La  La8  1  0.555300  0.750000  0.998551  1
  La  La9  1  0.444700  0.250000  0.001449  1
  La  La10  1  0.055300  0.250000  0.501449  1
  La  La11  1  0.944700  0.750000  0.498551  1
  La  La12  1  0.822453  0.467494  0.931526  1
  La  La13  1  0.177547  0.532506  0.068474  1
  La  La14  1  0.322453  0.532506  0.568474  1
  La  La15  1  0.177547  0.967494  0.068474  1
  La  La16  1  0.677547  0.467494  0.431526  1
  La  La17  1  0.822453  0.032506  0.931526  1
  La  La18  1  0.677547  0.032506  0.431526  1
  La  La19  1  0.322453  0.967494  0.568474  1
  Sn  Sn20  1  0.930714  0.006136  0.670467  1
  Sn  Sn21  1  0.069286  0.993864  0.329533  1
  Sn  Sn22  1  0.430714  0.993864  0.829533  1
  Sn  Sn23  1  0.069286  0.506136  0.329533  1
  Sn  Sn24  1  0.569286  0.006136  0.170467  1
  Sn  Sn25  1  0.930714  0.493864  0.670467  1
  Sn  Sn26  1  0.569286  0.493864  0.170467  1
  Sn  Sn27  1  0.430714  0.506136  0.829533  1
  Ru  Ru28  1  0.918730  0.750000  0.984006  1
  Ru  Ru29  1  0.081270  0.250000  0.015994  1
  Ru  Ru30  1  0.418730  0.250000  0.515994  1
  Ru  Ru31  1  0.581270  0.750000  0.484006  1
