# generated using pymatgen
data_Tm3In3HgPd2
_symmetry_space_group_name_H-M   'P 1'
_cell_length_a   7.89370600
_cell_length_b   7.89370643
_cell_length_c   3.73339400
_cell_angle_alpha   90.00000000
_cell_angle_beta   90.00000000
_cell_angle_gamma   119.99998982
_symmetry_Int_Tables_number   1
_chemical_formula_structural   Tm3In3HgPd2
_chemical_formula_sum   'Tm3 In3 Hg1 Pd2'
_cell_volume   201.46352075
_cell_formula_units_Z   1
loop_
 _symmetry_equiv_pos_site_id
 _symmetry_equiv_pos_as_xyz
  1  'x, y, z'
loop_
 _atom_site_type_symbol
 _atom_site_label
 _atom_site_symmetry_multiplicity
 _atom_site_fract_x
 _atom_site_fract_y
 _atom_site_fract_z
 _atom_site_occupancy
  Tm  Tm0  1  0.390383  0.411899  0.500000  1
  Tm  Tm1  1  0.588101  0.978483  0.500000  1
  Tm  Tm2  1  0.021517  0.609617  0.500000  1
  In  In3  1  0.737671  0.740785  0.000000  1
  In  In4  1  0.259215  0.996885  0.000000  1
  In  In5  1  0.003115  0.262329  0.000000  1
  Hg  Hg6  1  0.666667  0.333333  0.000000  1
  Pd  Pd7  1  0.000000  0.000000  0.500000  1
  Pd  Pd8  1  0.333333  0.666667  0.000000  1
