# generated using pymatgen
data_Hf16Rh8CN3
_symmetry_space_group_name_H-M   'P 1'
_cell_length_a   8.70242961
_cell_length_b   8.70242886
_cell_length_c   8.72900419
_cell_angle_alpha   60.10064519
_cell_angle_beta   60.10064769
_cell_angle_gamma   59.99999617
_symmetry_Int_Tables_number   1
_chemical_formula_structural   Hf16Rh8CN3
_chemical_formula_sum   'Hf16 Rh8 C1 N3'
_cell_volume   468.15503583
_cell_formula_units_Z   1
loop_
 _symmetry_equiv_pos_site_id
 _symmetry_equiv_pos_as_xyz
  1  'x, y, z'
loop_
 _atom_site_type_symbol
 _atom_site_label
 _atom_site_symmetry_multiplicity
 _atom_site_fract_x
 _atom_site_fract_y
 _atom_site_fract_z
 _atom_site_occupancy
  Hf  Hf0  1  0.125000  0.625000  0.625000  1
  Hf  Hf1  1  0.625000  0.125000  0.625000  1
  Hf  Hf2  1  0.625000  0.625000  0.125000  1
  Hf  Hf3  1  0.625000  0.625000  0.625000  1
  Hf  Hf4  1  0.816802  0.816802  0.183041  1
  Hf  Hf5  1  0.183594  0.183594  0.816200  1
  Hf  Hf6  1  0.816612  0.183594  0.816200  1
  Hf  Hf7  1  0.183354  0.816802  0.183041  1
  Hf  Hf8  1  0.183594  0.816612  0.816200  1
  Hf  Hf9  1  0.816802  0.183354  0.183041  1
  Hf  Hf10  1  0.433198  0.433198  0.066959  1
  Hf  Hf11  1  0.066406  0.066406  0.433800  1
  Hf  Hf12  1  0.433388  0.066406  0.433800  1
  Hf  Hf13  1  0.066646  0.433198  0.066959  1
  Hf  Hf14  1  0.066406  0.433388  0.433800  1
  Hf  Hf15  1  0.433198  0.066646  0.066959  1
  Rh  Rh16  1  0.768087  0.411815  0.408283  1
  Rh  Rh17  1  0.411815  0.768087  0.408283  1
  Rh  Rh18  1  0.410370  0.410370  0.768891  1
  Rh  Rh19  1  0.411815  0.411815  0.408283  1
  Rh  Rh20  1  0.481913  0.838185  0.841717  1
  Rh  Rh21  1  0.838185  0.481913  0.841717  1
  Rh  Rh22  1  0.839630  0.839630  0.481109  1
  Rh  Rh23  1  0.838185  0.838185  0.841717  1
  C  C24  1  0.125000  0.125000  0.625000  1
  N  N25  1  0.625000  0.125000  0.125000  1
  N  N26  1  0.125000  0.625000  0.125000  1
  N  N27  1  0.125000  0.125000  0.125000  1
