# generated using pymatgen
data_La6NdRu4C9
_symmetry_space_group_name_H-M   'P 1'
_cell_length_a   6.58194137
_cell_length_b   6.58194207
_cell_length_c   11.95953075
_cell_angle_alpha   71.28192931
_cell_angle_beta   71.28192777
_cell_angle_gamma   48.38243928
_symmetry_Int_Tables_number   1
_chemical_formula_structural   La6NdRu4C9
_chemical_formula_sum   'La6 Nd1 Ru4 C9'
_cell_volume   362.57509689
_cell_formula_units_Z   1
loop_
 _symmetry_equiv_pos_site_id
 _symmetry_equiv_pos_as_xyz
  1  'x, y, z'
loop_
 _atom_site_type_symbol
 _atom_site_label
 _atom_site_symmetry_multiplicity
 _atom_site_fract_x
 _atom_site_fract_y
 _atom_site_fract_z
 _atom_site_occupancy
  La  La0  1  0.373527  0.373527  0.843920  1
  La  La1  1  0.145302  0.145302  0.680492  1
  La  La2  1  0.854698  0.854698  0.319508  1
  La  La3  1  0.138981  0.138981  0.382245  1
  La  La4  1  0.861019  0.861019  0.617755  1
  La  La5  1  0.626473  0.626473  0.156080  1
  Nd  Nd6  1  0.000000  0.000000  0.000000  1
  Ru  Ru7  1  0.357932  0.357932  0.141033  1
  Ru  Ru8  1  0.566150  0.566150  0.570614  1
  Ru  Ru9  1  0.433850  0.433850  0.429386  1
  Ru  Ru10  1  0.642068  0.642068  0.858967  1
  C  C11  1  0.384299  0.384299  0.290451  1
  C  C12  1  0.921452  0.921452  0.820651  1
  C  C13  1  0.392154  0.392154  0.613278  1
  C  C14  1  0.196372  0.196372  0.142549  1
  C  C15  1  0.803628  0.803628  0.857451  1
  C  C16  1  0.500000  0.500000  0.000000  1
  C  C17  1  0.078548  0.078548  0.179349  1
  C  C18  1  0.615701  0.615701  0.709549  1
  C  C19  1  0.607846  0.607846  0.386722  1
