# generated using pymatgen
data_Sm2Dy2ReTcB12
_symmetry_space_group_name_H-M   'P 1'
_cell_length_a   3.72026500
_cell_length_b   9.21793283
_cell_length_c   11.64284303
_cell_angle_alpha   90.04827488
_cell_angle_beta   90.00000000
_cell_angle_gamma   90.00000000
_symmetry_Int_Tables_number   1
_chemical_formula_structural   Sm2Dy2ReTcB12
_chemical_formula_sum   'Sm4 Dy4 Re2 Tc2 B24'
_cell_volume   399.26965406
_cell_formula_units_Z   2
loop_
 _symmetry_equiv_pos_site_id
 _symmetry_equiv_pos_as_xyz
  1  'x, y, z'
loop_
 _atom_site_type_symbol
 _atom_site_label
 _atom_site_symmetry_multiplicity
 _atom_site_fract_x
 _atom_site_fract_y
 _atom_site_fract_z
 _atom_site_occupancy
  Sm  Sm0  1  0.000000  0.323530  0.414224  1
  Sm  Sm1  1  0.000000  0.676470  0.585776  1
  Sm  Sm2  1  0.000000  0.823169  0.085832  1
  Sm  Sm3  1  0.000000  0.176831  0.914168  1
  Dy  Dy4  1  0.000000  0.941840  0.369347  1
  Dy  Dy5  1  0.000000  0.058160  0.630653  1
  Dy  Dy6  1  0.000000  0.443401  0.131003  1
  Dy  Dy7  1  0.000000  0.556599  0.868997  1
  Re  Re8  1  0.000000  0.138901  0.180263  1
  Re  Re9  1  0.000000  0.861099  0.819737  1
  Tc  Tc10  1  0.000000  0.639043  0.319844  1
  Tc  Tc11  1  0.000000  0.360957  0.680156  1
  B  B12  1  0.500000  0.554171  0.431521  1
  B  B13  1  0.500000  0.445829  0.568479  1
  B  B14  1  0.500000  0.054106  0.068399  1
  B  B15  1  0.500000  0.945894  0.931601  1
  B  B16  1  0.500000  0.748734  0.416880  1
  B  B17  1  0.500000  0.251266  0.583120  1
  B  B18  1  0.500000  0.249243  0.083057  1
  B  B19  1  0.500000  0.750757  0.916943  1
  B  B20  1  0.500000  0.791029  0.265794  1
  B  B21  1  0.500000  0.208971  0.734206  1
  B  B22  1  0.500000  0.291313  0.234360  1
  B  B23  1  0.500000  0.708687  0.765640  1
  B  B24  1  0.500000  0.630170  0.186335  1
  B  B25  1  0.500000  0.369830  0.813665  1
  B  B26  1  0.500000  0.129870  0.313969  1
  B  B27  1  0.500000  0.870130  0.686031  1
  B  B28  1  0.500000  0.983233  0.212404  1
  B  B29  1  0.500000  0.016767  0.787596  1
  B  B30  1  0.500000  0.483503  0.287718  1
  B  B31  1  0.500000  0.516497  0.712282  1
  B  B32  1  0.500000  0.597918  0.027145  1
  B  B33  1  0.500000  0.402082  0.972855  1
  B  B34  1  0.500000  0.097759  0.472596  1
  B  B35  1  0.500000  0.902241  0.527404  1
