# generated using pymatgen
data_Ho6Tm14FeCo3Bi8
_symmetry_space_group_name_H-M   'P 1'
_cell_length_a   7.88505019
_cell_length_b   8.86466300
_cell_length_c   12.31399373
_cell_angle_alpha   90.00000000
_cell_angle_beta   89.72577956
_cell_angle_gamma   90.00000000
_symmetry_Int_Tables_number   1
_chemical_formula_structural   Ho6Tm14FeCo3Bi8
_chemical_formula_sum   'Ho6 Tm14 Fe1 Co3 Bi8'
_cell_volume   860.71752548
_cell_formula_units_Z   1
loop_
 _symmetry_equiv_pos_site_id
 _symmetry_equiv_pos_as_xyz
  1  'x, y, z'
loop_
 _atom_site_type_symbol
 _atom_site_label
 _atom_site_symmetry_multiplicity
 _atom_site_fract_x
 _atom_site_fract_y
 _atom_site_fract_z
 _atom_site_occupancy
  Ho  Ho0  1  0.651595  0.250000  0.301417  1
  Ho  Ho1  1  0.849026  0.250000  0.800419  1
  Ho  Ho2  1  0.114029  0.250000  0.187097  1
  Ho  Ho3  1  0.385227  0.250000  0.686127  1
  Ho  Ho4  1  0.946151  0.250000  0.502798  1
  Ho  Ho5  1  0.556630  0.250000  0.003788  1
  Tm  Tm6  1  0.346208  0.750000  0.701099  1
  Tm  Tm7  1  0.151085  0.750000  0.198451  1
  Tm  Tm8  1  0.886077  0.750000  0.812061  1
  Tm  Tm9  1  0.613359  0.750000  0.313891  1
  Tm  Tm10  1  0.673807  0.539890  0.563865  1
  Tm  Tm11  1  0.326534  0.464630  0.437003  1
  Tm  Tm12  1  0.171695  0.468183  0.938064  1
  Tm  Tm13  1  0.326534  0.035370  0.437003  1
  Tm  Tm14  1  0.825534  0.543048  0.063088  1
  Tm  Tm15  1  0.673807  0.960110  0.563865  1
  Tm  Tm16  1  0.825534  0.956952  0.063088  1
  Tm  Tm17  1  0.171695  0.031817  0.938064  1
  Tm  Tm18  1  0.056642  0.750000  0.497015  1
  Tm  Tm19  1  0.443686  0.750000  0.996228  1
  Fe  Fe20  1  0.071464  0.750000  0.990029  1
  Co  Co21  1  0.934696  0.250000  0.007145  1
  Co  Co22  1  0.564293  0.250000  0.507140  1
  Co  Co23  1  0.434628  0.750000  0.493581  1
  Bi  Bi24  1  0.570250  0.508584  0.826731  1
  Bi  Bi25  1  0.429836  0.492375  0.172882  1
  Bi  Bi26  1  0.070569  0.492341  0.672325  1
  Bi  Bi27  1  0.429836  0.007625  0.172882  1
  Bi  Bi28  1  0.929378  0.509719  0.326896  1
  Bi  Bi29  1  0.570250  0.991416  0.826731  1
  Bi  Bi30  1  0.929378  0.990281  0.326896  1
  Bi  Bi31  1  0.070569  0.007659  0.672325  1
