# generated using pymatgen
data_ReTc3(RuRh)2
_symmetry_space_group_name_H-M   'P 1'
_cell_length_a   5.52669100
_cell_length_b   5.51156282
_cell_length_c   4.35720700
_cell_angle_alpha   90.00000000
_cell_angle_beta   90.00000000
_cell_angle_gamma   120.09084512
_symmetry_Int_Tables_number   1
_chemical_formula_structural   ReTc3(RuRh)2
_chemical_formula_sum   'Re1 Tc3 Ru2 Rh2'
_cell_volume   114.83664121
_cell_formula_units_Z   1
loop_
 _symmetry_equiv_pos_site_id
 _symmetry_equiv_pos_as_xyz
  1  'x, y, z'
loop_
 _atom_site_type_symbol
 _atom_site_label
 _atom_site_symmetry_multiplicity
 _atom_site_fract_x
 _atom_site_fract_y
 _atom_site_fract_z
 _atom_site_occupancy
  Re  Re0  1  0.836077  0.672153  0.750000  1
  Tc  Tc1  1  0.161177  0.322356  0.250000  1
  Tc  Tc2  1  0.676743  0.840568  0.250000  1
  Tc  Tc3  1  0.163824  0.840568  0.250000  1
  Ru  Ru4  1  0.327555  0.165171  0.750000  1
  Ru  Ru5  1  0.837616  0.165171  0.750000  1
  Rh  Rh6  1  0.331816  0.663633  0.750000  1
  Rh  Rh7  1  0.665190  0.330380  0.250000  1
