# generated using pymatgen
data_Sc12Fe(Si4Rh)3
_symmetry_space_group_name_H-M   'P 1'
_cell_length_a   4.03527300
_cell_length_b   10.20077459
_cell_length_c   11.70171718
_cell_angle_alpha   89.82763559
_cell_angle_beta   90.00000000
_cell_angle_gamma   90.00000000
_symmetry_Int_Tables_number   1
_chemical_formula_structural   Sc12Fe(Si4Rh)3
_chemical_formula_sum   'Sc12 Fe1 Si12 Rh3'
_cell_volume   481.67455483
_cell_formula_units_Z   1
loop_
 _symmetry_equiv_pos_site_id
 _symmetry_equiv_pos_as_xyz
  1  'x, y, z'
loop_
 _atom_site_type_symbol
 _atom_site_label
 _atom_site_symmetry_multiplicity
 _atom_site_fract_x
 _atom_site_fract_y
 _atom_site_fract_z
 _atom_site_occupancy
  Sc  Sc0  1  0.250000  0.876839  0.018989  1
  Sc  Sc1  1  0.250000  0.617564  0.524582  1
  Sc  Sc2  1  0.750000  0.123731  0.978425  1
  Sc  Sc3  1  0.750000  0.376467  0.480797  1
  Sc  Sc4  1  0.250000  0.920317  0.602630  1
  Sc  Sc5  1  0.250000  0.579982  0.102203  1
  Sc  Sc6  1  0.750000  0.079395  0.398699  1
  Sc  Sc7  1  0.750000  0.421105  0.899681  1
  Sc  Sc8  1  0.250000  0.653256  0.797300  1
  Sc  Sc9  1  0.250000  0.841214  0.299795  1
  Sc  Sc10  1  0.750000  0.341958  0.200140  1
  Sc  Sc11  1  0.750000  0.164275  0.700486  1
  Fe  Fe12  1  0.250000  0.391796  0.675058  1
  Si  Si13  1  0.250000  0.017522  0.822174  1
  Si  Si14  1  0.250000  0.485615  0.323090  1
  Si  Si15  1  0.750000  0.985285  0.177433  1
  Si  Si16  1  0.750000  0.503814  0.679934  1
  Si  Si17  1  0.250000  0.257209  0.836325  1
  Si  Si18  1  0.250000  0.249373  0.342866  1
  Si  Si19  1  0.750000  0.749399  0.157499  1
  Si  Si20  1  0.750000  0.748199  0.658305  1
  Si  Si21  1  0.250000  0.199219  0.548459  1
  Si  Si22  1  0.250000  0.306848  0.043085  1
  Si  Si23  1  0.750000  0.805162  0.455978  1
  Si  Si24  1  0.750000  0.692720  0.953994  1
  Rh  Rh25  1  0.250000  0.110822  0.177138  1
  Rh  Rh26  1  0.750000  0.610518  0.323467  1
  Rh  Rh27  1  0.750000  0.890393  0.821468  1
