# generated using pymatgen
data_DyEr7Sb20
_symmetry_space_group_name_H-M   'P 1'
_cell_length_a   4.20379600
_cell_length_b   13.17863765
_cell_length_c   14.62055689
_cell_angle_alpha   78.39821366
_cell_angle_beta   90.00000000
_cell_angle_gamma   90.00000000
_symmetry_Int_Tables_number   1
_chemical_formula_structural   DyEr7Sb20
_chemical_formula_sum   'Dy1 Er7 Sb20'
_cell_volume   793.43451502
_cell_formula_units_Z   1
loop_
 _symmetry_equiv_pos_site_id
 _symmetry_equiv_pos_as_xyz
  1  'x, y, z'
loop_
 _atom_site_type_symbol
 _atom_site_label
 _atom_site_symmetry_multiplicity
 _atom_site_fract_x
 _atom_site_fract_y
 _atom_site_fract_z
 _atom_site_occupancy
  Dy  Dy0  1  0.750000  0.046967  0.640445  1
  Er  Er1  1  0.250000  0.393969  0.770787  1
  Er  Er2  1  0.750000  0.606127  0.229220  1
  Er  Er3  1  0.250000  0.662323  0.855735  1
  Er  Er4  1  0.750000  0.337551  0.144309  1
  Er  Er5  1  0.250000  0.668975  0.576856  1
  Er  Er6  1  0.750000  0.331002  0.423001  1
  Er  Er7  1  0.250000  0.952833  0.360276  1
  Sb  Sb8  1  0.250000  0.143608  0.778707  1
  Sb  Sb9  1  0.750000  0.856882  0.221554  1
  Sb  Sb10  1  0.250000  0.143703  0.482245  1
  Sb  Sb11  1  0.750000  0.856476  0.516840  1
  Sb  Sb12  1  0.250000  0.152285  0.171585  1
  Sb  Sb13  1  0.750000  0.847361  0.828550  1
  Sb  Sb14  1  0.250000  0.420259  0.975587  1
  Sb  Sb15  1  0.750000  0.579694  0.024396  1
  Sb  Sb16  1  0.750000  0.029321  0.909493  1
  Sb  Sb17  1  0.250000  0.970714  0.090426  1
  Sb  Sb18  1  0.750000  0.138806  0.322381  1
  Sb  Sb19  1  0.250000  0.860301  0.677683  1
  Sb  Sb20  1  0.750000  0.278822  0.937555  1
  Sb  Sb21  1  0.250000  0.721181  0.062426  1
  Sb  Sb22  1  0.750000  0.285410  0.652999  1
  Sb  Sb23  1  0.250000  0.715243  0.347032  1
  Sb  Sb24  1  0.750000  0.576064  0.734553  1
  Sb  Sb25  1  0.250000  0.423946  0.265436  1
  Sb  Sb26  1  0.750000  0.572912  0.447613  1
  Sb  Sb27  1  0.250000  0.427266  0.552310  1
