# generated using pymatgen
data_Y4Er2Al24Pd3Ru5
_symmetry_space_group_name_H-M   'P 1'
_cell_length_a   8.84750538
_cell_length_b   8.83279799
_cell_length_c   9.50897303
_cell_angle_alpha   90.22306248
_cell_angle_beta   90.02708723
_cell_angle_gamma   119.63729322
_symmetry_Int_Tables_number   1
_chemical_formula_structural   Y4Er2Al24Pd3Ru5
_chemical_formula_sum   'Y4 Er2 Al24 Pd3 Ru5'
_cell_volume   645.88344582
_cell_formula_units_Z   1
loop_
 _symmetry_equiv_pos_site_id
 _symmetry_equiv_pos_as_xyz
  1  'x, y, z'
loop_
 _atom_site_type_symbol
 _atom_site_label
 _atom_site_symmetry_multiplicity
 _atom_site_fract_x
 _atom_site_fract_y
 _atom_site_fract_z
 _atom_site_occupancy
  Y  Y0  1  0.187404  0.383815  0.252076  1
  Y  Y1  1  0.812596  0.616185  0.747924  1
  Y  Y2  1  0.618190  0.811787  0.250669  1
  Y  Y3  1  0.381810  0.188213  0.749331  1
  Er  Er4  1  0.191050  0.805690  0.249797  1
  Er  Er5  1  0.808950  0.194310  0.750203  1
  Al  Al6  1  0.327914  0.663999  0.027220  1
  Al  Al7  1  0.672086  0.336001  0.972780  1
  Al  Al8  1  0.669308  0.329708  0.524740  1
  Al  Al9  1  0.330692  0.670292  0.475260  1
  Al  Al10  1  0.156717  0.324377  0.578521  1
  Al  Al11  1  0.843283  0.675623  0.421479  1
  Al  Al12  1  0.676136  0.844011  0.577888  1
  Al  Al13  1  0.842769  0.675333  0.077420  1
  Al  Al14  1  0.323864  0.155989  0.422112  1
  Al  Al15  1  0.157231  0.324667  0.922580  1
  Al  Al16  1  0.163804  0.836230  0.576188  1
  Al  Al17  1  0.321831  0.161361  0.080070  1
  Al  Al18  1  0.836196  0.163770  0.423812  1
  Al  Al19  1  0.678169  0.838639  0.919930  1
  Al  Al20  1  0.841825  0.167848  0.077403  1
  Al  Al21  1  0.158175  0.832152  0.922597  1
  Al  Al22  1  0.560735  0.123802  0.253328  1
  Al  Al23  1  0.439265  0.876198  0.746672  1
  Al  Al24  1  0.878165  0.440359  0.249100  1
  Al  Al25  1  0.121835  0.559641  0.750900  1
  Al  Al26  1  0.562598  0.437403  0.248927  1
  Al  Al27  1  0.437402  0.562597  0.751073  1
  Al  Al28  1  0.998484  0.999947  0.250179  1
  Al  Al29  1  0.001516  0.000053  0.749821  1
  Pd  Pd30  1  0.500000  0.000000  0.000000  1
  Pd  Pd31  1  0.500000  0.500000  0.000000  1
  Pd  Pd32  1  0.500000  0.500000  0.500000  1
  Ru  Ru33  1  0.000000  0.500000  0.000000  1
  Ru  Ru34  1  0.500000  0.000000  0.500000  1
  Ru  Ru35  1  0.000000  0.500000  0.500000  1
  Ru  Ru36  1  0.000000  0.000000  0.000000  1
  Ru  Ru37  1  0.000000  0.000000  0.500000  1
