# generated using pymatgen
data_Dy4Al3ZnPt4
_symmetry_space_group_name_H-M   'P 1'
_cell_length_a   4.42898900
_cell_length_b   6.83548416
_cell_length_c   7.81108749
_cell_angle_alpha   89.75418894
_cell_angle_beta   90.00000000
_cell_angle_gamma   90.00000000
_symmetry_Int_Tables_number   1
_chemical_formula_structural   Dy4Al3ZnPt4
_chemical_formula_sum   'Dy4 Al3 Zn1 Pt4'
_cell_volume   236.47290574
_cell_formula_units_Z   1
loop_
 _symmetry_equiv_pos_site_id
 _symmetry_equiv_pos_as_xyz
  1  'x, y, z'
loop_
 _atom_site_type_symbol
 _atom_site_label
 _atom_site_symmetry_multiplicity
 _atom_site_fract_x
 _atom_site_fract_y
 _atom_site_fract_z
 _atom_site_occupancy
  Dy  Dy0  1  0.250000  0.471265  0.181033  1
  Dy  Dy1  1  0.750000  0.532914  0.820468  1
  Dy  Dy2  1  0.750000  0.029537  0.683816  1
  Dy  Dy3  1  0.250000  0.970640  0.314359  1
  Al  Al4  1  0.750000  0.146266  0.063251  1
  Al  Al5  1  0.750000  0.644380  0.439176  1
  Al  Al6  1  0.250000  0.351929  0.562254  1
  Zn  Zn7  1  0.250000  0.848670  0.934658  1
  Pt  Pt8  1  0.250000  0.725412  0.608899  1
  Pt  Pt9  1  0.750000  0.272333  0.383094  1
  Pt  Pt10  1  0.750000  0.771480  0.125855  1
  Pt  Pt11  1  0.250000  0.235172  0.883137  1
