# generated using pymatgen
data_Dy2Th(ZnPt)4
_symmetry_space_group_name_H-M   'P 1'
_cell_length_a   8.25376659
_cell_length_b   8.25376609
_cell_length_c   8.25376544
_cell_angle_alpha   151.46016613
_cell_angle_beta   126.49495423
_cell_angle_gamma   61.75536293
_symmetry_Int_Tables_number   1
_chemical_formula_structural   Dy2Th(ZnPt)4
_chemical_formula_sum   'Dy2 Th1 Zn4 Pt4'
_cell_volume   214.18196440
_cell_formula_units_Z   1
loop_
 _symmetry_equiv_pos_site_id
 _symmetry_equiv_pos_as_xyz
  1  'x, y, z'
loop_
 _atom_site_type_symbol
 _atom_site_label
 _atom_site_symmetry_multiplicity
 _atom_site_fract_x
 _atom_site_fract_y
 _atom_site_fract_z
 _atom_site_occupancy
  Dy  Dy0  1  0.874052  0.874052  0.000000  1
  Dy  Dy1  1  0.125948  0.125948  0.000000  1
  Th  Th2  1  0.500000  0.000000  0.500000  1
  Zn  Zn3  1  0.477647  0.674963  0.802683  1
  Zn  Zn4  1  0.872281  0.674963  0.197317  1
  Zn  Zn5  1  0.127719  0.325037  0.802683  1
  Zn  Zn6  1  0.522353  0.325037  0.197317  1
  Pt  Pt7  1  0.279959  0.779959  0.500000  1
  Pt  Pt8  1  0.720041  0.220041  0.500000  1
  Pt  Pt9  1  0.801422  0.500000  0.301422  1
  Pt  Pt10  1  0.198578  0.500000  0.698578  1
