# generated using pymatgen
data_Ho3Be(PPd4)5
_symmetry_space_group_name_H-M   'P 1'
_cell_length_a   8.66355103
_cell_length_b   8.63094969
_cell_length_c   8.63094880
_cell_angle_alpha   60.25005239
_cell_angle_beta   59.87496718
_cell_angle_gamma   59.87496564
_symmetry_Int_Tables_number   1
_chemical_formula_structural   Ho3Be(PPd4)5
_chemical_formula_sum   'Ho3 Be1 P5 Pd20'
_cell_volume   456.33688881
_cell_formula_units_Z   1
loop_
 _symmetry_equiv_pos_site_id
 _symmetry_equiv_pos_as_xyz
  1  'x, y, z'
loop_
 _atom_site_type_symbol
 _atom_site_label
 _atom_site_symmetry_multiplicity
 _atom_site_fract_x
 _atom_site_fract_y
 _atom_site_fract_z
 _atom_site_occupancy
  Ho  Ho0  1  0.249680  0.250320  0.250320  1
  Ho  Ho1  1  0.749680  0.750320  0.750320  1
  Ho  Ho2  1  0.996456  0.003544  0.003544  1
  Be  Be3  1  0.733639  0.266361  0.266361  1
  P  P4  1  0.263384  0.736616  0.736616  1
  P  P5  1  0.265540  0.734460  0.264448  1
  P  P6  1  0.735552  0.264448  0.734460  1
  P  P7  1  0.265540  0.264448  0.734460  1
  P  P8  1  0.735552  0.734460  0.264448  1
  Pd  Pd9  1  0.386449  0.382903  0.382903  1
  Pd  Pd10  1  0.616270  0.615557  0.615557  1
  Pd  Pd11  1  0.384443  0.383730  0.847385  1
  Pd  Pd12  1  0.384443  0.847385  0.383730  1
  Pd  Pd13  1  0.617097  0.613551  0.152254  1
  Pd  Pd14  1  0.617097  0.152254  0.613551  1
  Pd  Pd15  1  0.847746  0.382903  0.382903  1
  Pd  Pd16  1  0.152615  0.615557  0.615557  1
  Pd  Pd17  1  0.344005  0.000775  0.000775  1
  Pd  Pd18  1  0.654446  0.000775  0.000775  1
  Pd  Pd19  1  0.999225  0.345554  0.655995  1
  Pd  Pd20  1  0.999225  0.655995  0.345554  1
  Pd  Pd21  1  0.996907  0.342710  0.003093  1
  Pd  Pd22  1  0.657290  0.003093  0.342710  1
  Pd  Pd23  1  0.000052  0.653289  0.999948  1
  Pd  Pd24  1  0.346711  0.999948  0.653289  1
  Pd  Pd25  1  0.996907  0.003093  0.342710  1
  Pd  Pd26  1  0.000052  0.999948  0.653289  1
  Pd  Pd27  1  0.657290  0.342710  0.003093  1
  Pd  Pd28  1  0.346711  0.653289  0.999948  1
