# generated using pymatgen
data_Nd5LuTa2O14
_symmetry_space_group_name_H-M   'P 1'
_cell_length_a   6.64374408
_cell_length_b   6.61016999
_cell_length_c   7.67742400
_cell_angle_alpha   90.00000000
_cell_angle_beta   90.00000000
_cell_angle_gamma   108.94322440
_symmetry_Int_Tables_number   1
_chemical_formula_structural   Nd5LuTa2O14
_chemical_formula_sum   'Nd5 Lu1 Ta2 O14'
_cell_volume   318.90333268
_cell_formula_units_Z   1
loop_
 _symmetry_equiv_pos_site_id
 _symmetry_equiv_pos_as_xyz
  1  'x, y, z'
loop_
 _atom_site_type_symbol
 _atom_site_label
 _atom_site_symmetry_multiplicity
 _atom_site_fract_x
 _atom_site_fract_y
 _atom_site_fract_z
 _atom_site_occupancy
  Nd  Nd0  1  0.531147  0.523973  0.498264  1
  Nd  Nd1  1  0.531147  0.523973  0.001736  1
  Nd  Nd2  1  0.006131  0.463638  0.750000  1
  Nd  Nd3  1  0.533382  0.003088  0.750000  1
  Nd  Nd4  1  0.462738  0.002271  0.250000  1
  Lu  Lu5  1  0.002360  0.528106  0.250000  1
  Ta  Ta6  1  0.001416  0.001805  0.496865  1
  Ta  Ta7  1  0.001416  0.001805  0.003135  1
  O  O8  1  0.946059  0.058290  0.750000  1
  O  O9  1  0.060588  0.935020  0.250000  1
  O  O10  1  0.347142  0.631561  0.250000  1
  O  O11  1  0.641611  0.370221  0.750000  1
  O  O12  1  0.371657  0.630762  0.750000  1
  O  O13  1  0.649305  0.379646  0.250000  1
  O  O14  1  0.311282  0.075081  0.969851  1
  O  O15  1  0.678214  0.916779  0.472981  1
  O  O16  1  0.311282  0.075081  0.530149  1
  O  O17  1  0.678214  0.916779  0.027019  1
  O  O18  1  0.034878  0.301776  0.454442  1
  O  O19  1  0.932577  0.679284  0.979406  1
  O  O20  1  0.932577  0.679284  0.520594  1
  O  O21  1  0.034878  0.301776  0.045558  1
