# generated using pymatgen
data_TbYb3(ReB4)4
_symmetry_space_group_name_H-M   'P 1'
_cell_length_a   3.58171300
_cell_length_b   5.99032101
_cell_length_c   11.58160501
_cell_angle_alpha   89.99451388
_cell_angle_beta   90.00000000
_cell_angle_gamma   90.00000000
_symmetry_Int_Tables_number   1
_chemical_formula_structural   TbYb3(ReB4)4
_chemical_formula_sum   'Tb1 Yb3 Re4 B16'
_cell_volume   248.49040643
_cell_formula_units_Z   1
loop_
 _symmetry_equiv_pos_site_id
 _symmetry_equiv_pos_as_xyz
  1  'x, y, z'
loop_
 _atom_site_type_symbol
 _atom_site_label
 _atom_site_symmetry_multiplicity
 _atom_site_fract_x
 _atom_site_fract_y
 _atom_site_fract_z
 _atom_site_occupancy
  Tb  Tb0  1  0.000000  0.871623  0.849187  1
  Yb  Yb1  1  0.000000  0.628268  0.350176  1
  Yb  Yb2  1  0.000000  0.372174  0.648634  1
  Yb  Yb3  1  0.000000  0.128701  0.151387  1
  Re  Re4  1  0.000000  0.632117  0.083838  1
  Re  Re5  1  0.000000  0.369731  0.915094  1
  Re  Re6  1  0.000000  0.131500  0.416283  1
  Re  Re7  1  0.000000  0.869676  0.583878  1
  B  B8  1  0.500000  0.784125  0.185535  1
  B  B9  1  0.500000  0.215869  0.814845  1
  B  B10  1  0.500000  0.284936  0.315198  1
  B  B11  1  0.500000  0.713821  0.684216  1
  B  B12  1  0.500000  0.864257  0.032534  1
  B  B13  1  0.500000  0.135864  0.968907  1
  B  B14  1  0.500000  0.365002  0.467831  1
  B  B15  1  0.500000  0.634462  0.531744  1
  B  B16  1  0.500000  0.885263  0.452544  1
  B  B17  1  0.500000  0.114439  0.547655  1
  B  B18  1  0.500000  0.385093  0.048190  1
  B  B19  1  0.500000  0.612070  0.952907  1
  B  B20  1  0.500000  0.976722  0.307602  1
  B  B21  1  0.500000  0.024449  0.691959  1
  B  B22  1  0.500000  0.476843  0.192608  1
  B  B23  1  0.500000  0.522996  0.807247  1
