# generated using pymatgen
data_Ac16Yb3Si16Hg
_symmetry_space_group_name_H-M   'P 1'
_cell_length_a   8.04015979
_cell_length_b   8.39165197
_cell_length_c   15.97851300
_cell_angle_alpha   90.00000000
_cell_angle_beta   90.00000000
_cell_angle_gamma   89.90403063
_symmetry_Int_Tables_number   1
_chemical_formula_structural   Ac16Yb3Si16Hg
_chemical_formula_sum   'Ac16 Yb3 Si16 Hg1'
_cell_volume   1078.07231939
_cell_formula_units_Z   1
loop_
 _symmetry_equiv_pos_site_id
 _symmetry_equiv_pos_as_xyz
  1  'x, y, z'
loop_
 _atom_site_type_symbol
 _atom_site_label
 _atom_site_symmetry_multiplicity
 _atom_site_fract_x
 _atom_site_fract_y
 _atom_site_fract_z
 _atom_site_occupancy
  Ac  Ac0  1  0.309918  0.186407  0.125834  1
  Ac  Ac1  1  0.811929  0.319280  0.377892  1
  Ac  Ac2  1  0.194487  0.692479  0.871956  1
  Ac  Ac3  1  0.674280  0.824174  0.627614  1
  Ac  Ac4  1  0.309918  0.186407  0.374166  1
  Ac  Ac5  1  0.811929  0.319280  0.122108  1
  Ac  Ac6  1  0.194487  0.692479  0.628044  1
  Ac  Ac7  1  0.674280  0.824174  0.872386  1
  Ac  Ac8  1  0.958525  0.809554  0.399800  1
  Ac  Ac9  1  0.458280  0.688183  0.101579  1
  Ac  Ac10  1  0.540570  0.299122  0.605398  1
  Ac  Ac11  1  0.049786  0.187597  0.895682  1
  Ac  Ac12  1  0.049786  0.187597  0.604318  1
  Ac  Ac13  1  0.540570  0.299122  0.894602  1
  Ac  Ac14  1  0.458280  0.688183  0.398421  1
  Ac  Ac15  1  0.958525  0.809554  0.100200  1
  Yb  Yb16  1  0.861521  0.484815  0.750000  1
  Yb  Yb17  1  0.139176  0.523122  0.250000  1
  Yb  Yb18  1  0.641495  0.979109  0.250000  1
  Si  Si19  1  0.867095  0.526423  0.542108  1
  Si  Si20  1  0.362123  0.972206  0.971401  1
  Si  Si21  1  0.631070  0.021010  0.459647  1
  Si  Si22  1  0.132628  0.477738  0.034633  1
  Si  Si23  1  0.132628  0.477738  0.465367  1
  Si  Si24  1  0.631070  0.021010  0.040353  1
  Si  Si25  1  0.362123  0.972206  0.528599  1
  Si  Si26  1  0.867095  0.526423  0.957892  1
  Si  Si27  1  0.975972  0.910804  0.750000  1
  Si  Si28  1  0.491214  0.560023  0.750000  1
  Si  Si29  1  0.517688  0.419100  0.250000  1
  Si  Si30  1  0.013804  0.080480  0.250000  1
  Si  Si31  1  0.250849  0.382499  0.750000  1
  Si  Si32  1  0.776001  0.130257  0.750000  1
  Si  Si33  1  0.245516  0.879957  0.250000  1
  Si  Si34  1  0.749260  0.620275  0.250000  1
  Hg  Hg35  1  0.356125  0.021213  0.750000  1
