# generated using pymatgen
data_LiMg2Ta7B20
_symmetry_space_group_name_H-M   'P 1'
_cell_length_a   6.11993041
_cell_length_b   6.99712177
_cell_length_c   7.43207707
_cell_angle_alpha   94.65225931
_cell_angle_beta   101.82947925
_cell_angle_gamma   115.93721736
_symmetry_Int_Tables_number   1
_chemical_formula_structural   LiMg2Ta7B20
_chemical_formula_sum   'Li1 Mg2 Ta7 B20'
_cell_volume   274.79770157
_cell_formula_units_Z   1
loop_
 _symmetry_equiv_pos_site_id
 _symmetry_equiv_pos_as_xyz
  1  'x, y, z'
loop_
 _atom_site_type_symbol
 _atom_site_label
 _atom_site_symmetry_multiplicity
 _atom_site_fract_x
 _atom_site_fract_y
 _atom_site_fract_z
 _atom_site_occupancy
  Li  Li0  1  0.999172  0.997708  0.997933  1
  Mg  Mg1  1  0.497379  0.997585  0.998115  1
  Mg  Mg2  1  0.004096  0.608781  0.806272  1
  Ta  Ta3  1  0.498140  0.795839  0.400480  1
  Ta  Ta4  1  0.999092  0.394969  0.201865  1
  Ta  Ta5  1  0.502092  0.204646  0.598554  1
  Ta  Ta6  1  0.999855  0.799761  0.399794  1
  Ta  Ta7  1  0.502294  0.603122  0.800673  1
  Ta  Ta8  1  0.496833  0.395155  0.198389  1
  Ta  Ta9  1  0.001392  0.204745  0.598349  1
  B  B10  1  0.331048  0.230359  0.868758  1
  B  B11  1  0.331332  0.632760  0.066109  1
  B  B12  1  0.165293  0.363548  0.935284  1
  B  B13  1  0.330784  0.030575  0.263572  1
  B  B14  1  0.165608  0.764590  0.134615  1
  B  B15  1  0.833390  0.232906  0.865348  1
  B  B16  1  0.163894  0.163482  0.327317  1
  B  B17  1  0.835214  0.635648  0.064473  1
  B  B18  1  0.333448  0.433411  0.466025  1
  B  B19  1  0.667053  0.366206  0.933961  1
  B  B20  1  0.831491  0.030109  0.263296  1
  B  B21  1  0.667461  0.767009  0.131267  1
  B  B22  1  0.334111  0.836415  0.667889  1
  B  B23  1  0.167186  0.567873  0.537629  1
  B  B24  1  0.664643  0.163610  0.331919  1
  B  B25  1  0.834599  0.435014  0.469132  1
  B  B26  1  0.166785  0.969040  0.731218  1
  B  B27  1  0.836549  0.836512  0.670790  1
  B  B28  1  0.670071  0.569058  0.536328  1
  B  B29  1  0.669694  0.969560  0.734647  1
