# generated using pymatgen
data_Li3Y4Si12Pt17
_symmetry_space_group_name_H-M   'P 1'
_cell_length_a   4.08430600
_cell_length_b   19.70391570
_cell_length_c   7.27814600
_cell_angle_alpha   89.91303819
_cell_angle_beta   90.00000000
_cell_angle_gamma   90.00000000
_symmetry_Int_Tables_number   1
_chemical_formula_structural   Li3Y4Si12Pt17
_chemical_formula_sum   'Li3 Y4 Si12 Pt17'
_cell_volume   585.72137892
_cell_formula_units_Z   1
loop_
 _symmetry_equiv_pos_site_id
 _symmetry_equiv_pos_as_xyz
  1  'x, y, z'
loop_
 _atom_site_type_symbol
 _atom_site_label
 _atom_site_symmetry_multiplicity
 _atom_site_fract_x
 _atom_site_fract_y
 _atom_site_fract_z
 _atom_site_occupancy
  Li  Li0  1  0.250000  0.386027  0.355194  1
  Li  Li1  1  0.250000  0.887936  0.136894  1
  Li  Li2  1  0.750000  0.112651  0.862750  1
  Y  Y3  1  0.750000  0.643402  0.122234  1
  Y  Y4  1  0.250000  0.355054  0.881712  1
  Y  Y5  1  0.250000  0.856331  0.624271  1
  Y  Y6  1  0.750000  0.143813  0.374594  1
  Si  Si7  1  0.750000  0.740674  0.622465  1
  Si  Si8  1  0.250000  0.258482  0.376892  1
  Si  Si9  1  0.250000  0.760511  0.128925  1
  Si  Si10  1  0.750000  0.240315  0.877730  1
  Si  Si11  1  0.750000  0.923962  0.362082  1
  Si  Si12  1  0.250000  0.075924  0.637367  1
  Si  Si13  1  0.250000  0.577980  0.841956  1
  Si  Si14  1  0.750000  0.425678  0.140022  1
  Si  Si15  1  0.750000  0.918313  0.890969  1
  Si  Si16  1  0.250000  0.082057  0.109128  1
  Si  Si17  1  0.250000  0.582685  0.402983  1
  Si  Si18  1  0.750000  0.414176  0.604190  1
  Pt  Pt19  1  0.750000  0.804348  0.325417  1
  Pt  Pt20  1  0.250000  0.195152  0.673746  1
  Pt  Pt21  1  0.250000  0.700353  0.836773  1
  Pt  Pt22  1  0.750000  0.305279  0.173225  1
  Pt  Pt23  1  0.750000  0.997858  0.626862  1
  Pt  Pt24  1  0.250000  0.002058  0.373100  1
  Pt  Pt25  1  0.250000  0.510113  0.120619  1
  Pt  Pt26  1  0.750000  0.490461  0.868635  1
  Pt  Pt27  1  0.750000  0.509917  0.377828  1
  Pt  Pt28  1  0.250000  0.481081  0.618570  1
  Pt  Pt29  1  0.250000  0.989563  0.877465  1
  Pt  Pt30  1  0.750000  0.010694  0.122574  1
  Pt  Pt31  1  0.750000  0.799751  0.924072  1
  Pt  Pt32  1  0.250000  0.201438  0.074246  1
  Pt  Pt33  1  0.250000  0.701802  0.423488  1
  Pt  Pt34  1  0.750000  0.296717  0.573616  1
  Pt  Pt35  1  0.750000  0.617444  0.657407  1
