# generated using pymatgen
data_LiCa2NdCd2Sn3
_symmetry_space_group_name_H-M   'P 1'
_cell_length_a   7.63879528
_cell_length_b   7.58582609
_cell_length_c   4.72530800
_cell_angle_alpha   90.00000000
_cell_angle_beta   90.00000000
_cell_angle_gamma   119.56821965
_symmetry_Int_Tables_number   1
_chemical_formula_structural   LiCa2NdCd2Sn3
_chemical_formula_sum   'Li1 Ca2 Nd1 Cd2 Sn3'
_cell_volume   238.15608630
_cell_formula_units_Z   1
loop_
 _symmetry_equiv_pos_site_id
 _symmetry_equiv_pos_as_xyz
  1  'x, y, z'
loop_
 _atom_site_type_symbol
 _atom_site_label
 _atom_site_symmetry_multiplicity
 _atom_site_fract_x
 _atom_site_fract_y
 _atom_site_fract_z
 _atom_site_occupancy
  Li  Li0  1  0.236143  0.999702  0.000000  1
  Ca  Ca1  1  0.570351  0.999586  0.500000  1
  Ca  Ca2  1  0.432549  0.433253  0.500000  1
  Nd  Nd3  1  0.998903  0.567531  0.500000  1
  Cd  Cd4  1  0.756102  0.755146  0.000000  1
  Cd  Cd5  1  0.000884  0.243157  0.000000  1
  Sn  Sn6  1  0.013488  0.999677  0.500000  1
  Sn  Sn7  1  0.658831  0.326376  0.000000  1
  Sn  Sn8  1  0.332749  0.675572  0.000000  1
