# generated using pymatgen
data_Yb3YNi2Sn5
_symmetry_space_group_name_H-M   'P 1'
_cell_length_a   4.43754500
_cell_length_b   8.76139200
_cell_length_c   13.87893000
_cell_angle_alpha   90.00000000
_cell_angle_beta   90.00000000
_cell_angle_gamma   90.00000000
_symmetry_Int_Tables_number   1
_chemical_formula_structural   Yb3YNi2Sn5
_chemical_formula_sum   'Yb6 Y2 Ni4 Sn10'
_cell_volume   539.59990852
_cell_formula_units_Z   2
loop_
 _symmetry_equiv_pos_site_id
 _symmetry_equiv_pos_as_xyz
  1  'x, y, z'
loop_
 _atom_site_type_symbol
 _atom_site_label
 _atom_site_symmetry_multiplicity
 _atom_site_fract_x
 _atom_site_fract_y
 _atom_site_fract_z
 _atom_site_occupancy
  Yb  Yb0  1  0.500000  0.789117  0.741857  1
  Yb  Yb1  1  0.000000  0.210883  0.758143  1
  Yb  Yb2  1  0.000000  0.210883  0.241857  1
  Yb  Yb3  1  0.500000  0.135525  0.000000  1
  Yb  Yb4  1  0.000000  0.864475  0.500000  1
  Yb  Yb5  1  0.500000  0.789117  0.258143  1
  Y  Y6  1  0.500000  0.701195  0.000000  1
  Y  Y7  1  0.000000  0.298805  0.500000  1
  Ni  Ni8  1  0.500000  0.382955  0.647511  1
  Ni  Ni9  1  0.000000  0.617045  0.852489  1
  Ni  Ni10  1  0.000000  0.617045  0.147511  1
  Ni  Ni11  1  0.500000  0.382955  0.352489  1
  Sn  Sn12  1  0.500000  0.090142  0.393589  1
  Sn  Sn13  1  0.000000  0.552222  0.665347  1
  Sn  Sn14  1  0.000000  0.411550  0.000000  1
  Sn  Sn15  1  0.500000  0.447778  0.165347  1
  Sn  Sn16  1  0.500000  0.588450  0.500000  1
  Sn  Sn17  1  0.500000  0.447778  0.834653  1
  Sn  Sn18  1  0.000000  0.909858  0.893589  1
  Sn  Sn19  1  0.000000  0.552222  0.334653  1
  Sn  Sn20  1  0.500000  0.090142  0.606411  1
  Sn  Sn21  1  0.000000  0.909858  0.106411  1
