# generated using pymatgen
data_SmTm3(Si3Rh)2
_symmetry_space_group_name_H-M   'P 1'
_cell_length_a   8.15084600
_cell_length_b   8.15084626
_cell_length_c   7.86773300
_cell_angle_alpha   90.00000000
_cell_angle_beta   90.00000000
_cell_angle_gamma   119.99999894
_symmetry_Int_Tables_number   1
_chemical_formula_structural   SmTm3(Si3Rh)2
_chemical_formula_sum   'Sm2 Tm6 Si12 Rh4'
_cell_volume   452.67409190
_cell_formula_units_Z   2
loop_
 _symmetry_equiv_pos_site_id
 _symmetry_equiv_pos_as_xyz
  1  'x, y, z'
loop_
 _atom_site_type_symbol
 _atom_site_label
 _atom_site_symmetry_multiplicity
 _atom_site_fract_x
 _atom_site_fract_y
 _atom_site_fract_z
 _atom_site_occupancy
  Sm  Sm0  1  0.000000  0.000000  0.750000  1
  Sm  Sm1  1  0.000000  0.000000  0.250000  1
  Tm  Tm2  1  0.981849  0.490925  0.250000  1
  Tm  Tm3  1  0.509075  0.490925  0.250000  1
  Tm  Tm4  1  0.490925  0.981849  0.750000  1
  Tm  Tm5  1  0.018151  0.509075  0.750000  1
  Tm  Tm6  1  0.490925  0.509075  0.750000  1
  Tm  Tm7  1  0.509075  0.018151  0.250000  1
  Si  Si8  1  0.167960  0.832040  0.500546  1
  Si  Si9  1  0.167960  0.335918  0.500546  1
  Si  Si10  1  0.664082  0.832040  0.500546  1
  Si  Si11  1  0.335918  0.167960  0.000546  1
  Si  Si12  1  0.832040  0.664082  0.499454  1
  Si  Si13  1  0.832040  0.167960  0.000546  1
  Si  Si14  1  0.832040  0.664082  0.000546  1
  Si  Si15  1  0.167960  0.335918  0.999454  1
  Si  Si16  1  0.664082  0.832040  0.999454  1
  Si  Si17  1  0.335918  0.167960  0.499454  1
  Si  Si18  1  0.832040  0.167960  0.499454  1
  Si  Si19  1  0.167960  0.832040  0.999454  1
  Rh  Rh20  1  0.333333  0.666667  0.035092  1
  Rh  Rh21  1  0.666667  0.333333  0.964908  1
  Rh  Rh22  1  0.666667  0.333333  0.535092  1
  Rh  Rh23  1  0.333333  0.666667  0.464908  1
