# generated using pymatgen
data_Er10Sn6P
_symmetry_space_group_name_H-M   'P 1'
_cell_length_a   6.50564300
_cell_length_b   8.96867558
_cell_length_c   8.96873601
_cell_angle_alpha   119.99693853
_cell_angle_beta   90.00202065
_cell_angle_gamma   90.00020092
_symmetry_Int_Tables_number   1
_chemical_formula_structural   Er10Sn6P
_chemical_formula_sum   'Er10 Sn6 P1'
_cell_volume   453.20408039
_cell_formula_units_Z   1
loop_
 _symmetry_equiv_pos_site_id
 _symmetry_equiv_pos_as_xyz
  1  'x, y, z'
loop_
 _atom_site_type_symbol
 _atom_site_label
 _atom_site_symmetry_multiplicity
 _atom_site_fract_x
 _atom_site_fract_y
 _atom_site_fract_z
 _atom_site_occupancy
  Er  Er0  1  0.499990  0.333326  0.666686  1
  Er  Er1  1  0.500010  0.666673  0.333314  1
  Er  Er2  1  0.999992  0.666672  0.333330  1
  Er  Er3  1  0.000008  0.333329  0.666670  1
  Er  Er4  1  0.747735  0.244553  0.999988  1
  Er  Er5  1  0.747712  0.755411  0.755411  1
  Er  Er6  1  0.747727  0.999989  0.244596  1
  Er  Er7  1  0.252265  0.755447  0.000012  1
  Er  Er8  1  0.252288  0.244591  0.244589  1
  Er  Er9  1  0.252273  0.000012  0.755404  1
  Sn  Sn10  1  0.750021  0.605390  0.000013  1
  Sn  Sn11  1  0.750020  0.394634  0.394627  1
  Sn  Sn12  1  0.750026  0.000005  0.605375  1
  Sn  Sn13  1  0.249979  0.394610  0.999987  1
  Sn  Sn14  1  0.249980  0.605366  0.605373  1
  Sn  Sn15  1  0.249974  0.999995  0.394625  1
  P  P16  1  0.499999  0.000001  0.000000  1
