# generated using pymatgen
data_Tb6Dy(HoPb2)3
_symmetry_space_group_name_H-M   'P 1'
_cell_length_a   9.07762700
_cell_length_b   9.07762761
_cell_length_c   6.66077600
_cell_angle_alpha   90.00000000
_cell_angle_beta   90.00000000
_cell_angle_gamma   120.00000143
_symmetry_Int_Tables_number   1
_chemical_formula_structural   Tb6Dy(HoPb2)3
_chemical_formula_sum   'Tb6 Dy1 Ho3 Pb6'
_cell_volume   475.33539050
_cell_formula_units_Z   1
loop_
 _symmetry_equiv_pos_site_id
 _symmetry_equiv_pos_as_xyz
  1  'x, y, z'
loop_
 _atom_site_type_symbol
 _atom_site_label
 _atom_site_symmetry_multiplicity
 _atom_site_fract_x
 _atom_site_fract_y
 _atom_site_fract_z
 _atom_site_occupancy
  Tb  Tb0  1  0.237716  0.000041  0.250089  1
  Tb  Tb1  1  0.237716  0.237675  0.749911  1
  Tb  Tb2  1  0.999959  0.762284  0.749911  1
  Tb  Tb3  1  0.999959  0.237675  0.250089  1
  Tb  Tb4  1  0.762325  0.762284  0.250089  1
  Tb  Tb5  1  0.762325  0.000041  0.749911  1
  Dy  Dy6  1  0.333333  0.666667  0.000000  1
  Ho  Ho7  1  0.666667  0.333333  0.500000  1
  Ho  Ho8  1  0.666667  0.333333  0.000000  1
  Ho  Ho9  1  0.333333  0.666667  0.500000  1
  Pb  Pb10  1  0.604854  0.000321  0.250300  1
  Pb  Pb11  1  0.604854  0.604532  0.749700  1
  Pb  Pb12  1  0.999679  0.395146  0.749700  1
  Pb  Pb13  1  0.999679  0.604532  0.250300  1
  Pb  Pb14  1  0.395468  0.395146  0.250300  1
  Pb  Pb15  1  0.395468  0.000321  0.749700  1
