# generated using pymatgen
data_Rb3Nd(TaSe4)2
_symmetry_space_group_name_H-M   'P 1'
_cell_length_a   9.67767714
_cell_length_b   10.83525730
_cell_length_c   11.66081900
_cell_angle_alpha   107.16425653
_cell_angle_beta   103.01396532
_cell_angle_gamma   114.09860691
_symmetry_Int_Tables_number   1
_chemical_formula_structural   Rb3Nd(TaSe4)2
_chemical_formula_sum   'Rb6 Nd2 Ta4 Se16'
_cell_volume   979.13156143
_cell_formula_units_Z   2
loop_
 _symmetry_equiv_pos_site_id
 _symmetry_equiv_pos_as_xyz
  1  'x, y, z'
loop_
 _atom_site_type_symbol
 _atom_site_label
 _atom_site_symmetry_multiplicity
 _atom_site_fract_x
 _atom_site_fract_y
 _atom_site_fract_z
 _atom_site_occupancy
  Rb  Rb0  1  0.500001  0.500000  0.000000  1
  Rb  Rb1  1  0.000000  0.500001  0.000000  1
  Rb  Rb2  1  0.256964  0.006935  0.013919  1
  Rb  Rb3  1  0.487206  0.737188  0.474321  1
  Rb  Rb4  1  0.512794  0.262811  0.525681  1
  Rb  Rb5  1  0.743037  0.993066  0.986081  1
  Nd  Nd6  1  0.991427  0.241531  0.482775  1
  Nd  Nd7  1  0.008574  0.758469  0.517226  1
  Ta  Ta8  1  0.005765  0.906082  0.254467  1
  Ta  Ta9  1  0.748723  0.348411  0.254433  1
  Ta  Ta10  1  0.251278  0.651590  0.745568  1
  Ta  Ta11  1  0.994236  0.093918  0.745533  1
  Se  Se12  1  0.879218  0.754915  0.023510  1
  Se  Se13  1  0.643801  0.268583  0.023482  1
  Se  Se14  1  0.138429  0.167470  0.292642  1
  Se  Se15  1  0.654220  0.125254  0.292641  1
  Se  Se16  1  0.806104  0.866347  0.351247  1
  Se  Se17  1  0.045214  0.484884  0.351230  1
  Se  Se18  1  0.206661  0.852442  0.356506  1
  Se  Se19  1  0.649837  0.503949  0.356500  1
  Se  Se20  1  0.350163  0.496051  0.643499  1
  Se  Se21  1  0.793338  0.147557  0.643494  1
  Se  Se22  1  0.954787  0.515116  0.648770  1
  Se  Se23  1  0.193896  0.133652  0.648752  1
  Se  Se24  1  0.345777  0.874746  0.707359  1
  Se  Se25  1  0.861571  0.832529  0.707357  1
  Se  Se26  1  0.356200  0.731417  0.976519  1
  Se  Se27  1  0.120781  0.245085  0.976490  1
