# generated using pymatgen
data_La2Ga7Ag
_symmetry_space_group_name_H-M   'P 1'
_cell_length_a   4.40745100
_cell_length_b   4.40745100
_cell_length_c   10.79227900
_cell_angle_alpha   90.00000000
_cell_angle_beta   90.00000000
_cell_angle_gamma   90.00000000
_symmetry_Int_Tables_number   1
_chemical_formula_structural   La2Ga7Ag
_chemical_formula_sum   'La2 Ga7 Ag1'
_cell_volume   209.64675738
_cell_formula_units_Z   1
loop_
 _symmetry_equiv_pos_site_id
 _symmetry_equiv_pos_as_xyz
  1  'x, y, z'
loop_
 _atom_site_type_symbol
 _atom_site_label
 _atom_site_symmetry_multiplicity
 _atom_site_fract_x
 _atom_site_fract_y
 _atom_site_fract_z
 _atom_site_occupancy
  La  La0  1  0.500000  0.000000  0.749852  1
  La  La1  1  0.000000  0.500000  0.250148  1
  Ga  Ga2  1  0.000000  0.500000  0.865668  1
  Ga  Ga3  1  0.500000  0.000000  0.366062  1
  Ga  Ga4  1  0.500000  0.000000  0.134332  1
  Ga  Ga5  1  0.000000  0.500000  0.633938  1
  Ga  Ga6  1  0.000000  0.000000  0.500000  1
  Ga  Ga7  1  0.000000  0.000000  0.000000  1
  Ga  Ga8  1  0.500000  0.500000  0.500000  1
  Ag  Ag9  1  0.500000  0.500000  0.000000  1
