# generated using pymatgen
data_Rb4Na2UO6
_symmetry_space_group_name_H-M   'P 1'
_cell_length_a   10.35119200
_cell_length_b   7.22303547
_cell_length_c   7.77687900
_cell_angle_alpha   58.52352196
_cell_angle_beta   90.00000000
_cell_angle_gamma   90.00000000
_symmetry_Int_Tables_number   1
_chemical_formula_structural   Rb4Na2UO6
_chemical_formula_sum   'Rb8 Na4 U2 O12'
_cell_volume   495.89582046
_cell_formula_units_Z   2
loop_
 _symmetry_equiv_pos_site_id
 _symmetry_equiv_pos_as_xyz
  1  'x, y, z'
loop_
 _atom_site_type_symbol
 _atom_site_label
 _atom_site_symmetry_multiplicity
 _atom_site_fract_x
 _atom_site_fract_y
 _atom_site_fract_z
 _atom_site_occupancy
  Rb  Rb0  1  0.504978  0.700438  0.062172  1
  Rb  Rb1  1  0.680554  0.494749  0.520193  1
  Rb  Rb2  1  0.004978  0.299562  0.437828  1
  Rb  Rb3  1  0.319446  0.505251  0.479807  1
  Rb  Rb4  1  0.819446  0.494749  0.020193  1
  Rb  Rb5  1  0.995022  0.700438  0.562172  1
  Rb  Rb6  1  0.180554  0.505251  0.979807  1
  Rb  Rb7  1  0.495022  0.299562  0.937828  1
  Na  Na8  1  0.741373  0.005523  0.214125  1
  Na  Na9  1  0.258627  0.994477  0.785875  1
  Na  Na10  1  0.241373  0.994477  0.285875  1
  Na  Na11  1  0.758627  0.005523  0.714125  1
  U  U12  1  0.000000  0.000000  0.000000  1
  U  U13  1  0.500000  0.000000  0.500000  1
  O  O14  1  0.830660  0.194798  0.871602  1
  O  O15  1  0.878329  0.746568  0.216241  1
  O  O16  1  0.621671  0.746568  0.716241  1
  O  O17  1  0.021402  0.115828  0.197398  1
  O  O18  1  0.478598  0.115828  0.697398  1
  O  O19  1  0.669340  0.194798  0.371602  1
  O  O20  1  0.978598  0.884172  0.802602  1
  O  O21  1  0.378329  0.253432  0.283759  1
  O  O22  1  0.169340  0.805202  0.128398  1
  O  O23  1  0.330660  0.805202  0.628398  1
  O  O24  1  0.521402  0.884172  0.302602  1
  O  O25  1  0.121671  0.253432  0.783759  1
