# generated using pymatgen
data_ThI16
_symmetry_space_group_name_H-M   'P 1'
_cell_length_a   9.05012773
_cell_length_b   10.35258843
_cell_length_c   14.72799334
_cell_angle_alpha   103.22150836
_cell_angle_beta   90.74960630
_cell_angle_gamma   124.51217997
_symmetry_Int_Tables_number   1
_chemical_formula_structural   ThI16
_chemical_formula_sum   'Th1 I16'
_cell_volume   1089.25726708
_cell_formula_units_Z   1
loop_
 _symmetry_equiv_pos_site_id
 _symmetry_equiv_pos_as_xyz
  1  'x, y, z'
loop_
 _atom_site_type_symbol
 _atom_site_label
 _atom_site_symmetry_multiplicity
 _atom_site_fract_x
 _atom_site_fract_y
 _atom_site_fract_z
 _atom_site_occupancy
  Th  Th0  1  0.000000  0.000000  0.000000  1
  I  I1  1  0.771761  0.937265  0.166621  1
  I  I2  1  0.228239  0.062735  0.833379  1
  I  I3  1  0.325039  0.246597  0.155014  1
  I  I4  1  0.674961  0.753403  0.844986  1
  I  I5  1  0.962860  0.276638  0.982311  1
  I  I6  1  0.037140  0.723362  0.017689  1
  I  I7  1  0.380897  0.547421  0.321218  1
  I  I8  1  0.619103  0.452579  0.678782  1
  I  I9  1  0.899028  0.550097  0.242036  1
  I  I10  1  0.100972  0.449903  0.757964  1
  I  I11  1  0.413673  0.839548  0.090554  1
  I  I12  1  0.586327  0.160452  0.909446  1
  I  I13  1  0.555096  0.196095  0.531684  1
  I  I14  1  0.444904  0.803905  0.468316  1
  I  I15  1  0.749673  0.385787  0.376916  1
  I  I16  1  0.250327  0.614213  0.623084  1
