# generated using pymatgen
data_LiEr3ZnIn3Rh
_symmetry_space_group_name_H-M   'P 1'
_cell_length_a   7.87960600
_cell_length_b   7.87960639
_cell_length_c   3.61883400
_cell_angle_alpha   90.00000000
_cell_angle_beta   90.00000000
_cell_angle_gamma   119.99998995
_symmetry_Int_Tables_number   1
_chemical_formula_structural   LiEr3ZnIn3Rh
_chemical_formula_sum   'Li1 Er3 Zn1 In3 Rh1'
_cell_volume   194.58455424
_cell_formula_units_Z   1
loop_
 _symmetry_equiv_pos_site_id
 _symmetry_equiv_pos_as_xyz
  1  'x, y, z'
loop_
 _atom_site_type_symbol
 _atom_site_label
 _atom_site_symmetry_multiplicity
 _atom_site_fract_x
 _atom_site_fract_y
 _atom_site_fract_z
 _atom_site_occupancy
  Li  Li0  1  0.000000  0.000000  0.500000  1
  Er  Er1  1  0.025197  0.608033  0.500000  1
  Er  Er2  1  0.391967  0.417165  0.500000  1
  Er  Er3  1  0.582835  0.974803  0.500000  1
  Zn  Zn4  1  0.666667  0.333333  0.000000  1
  In  In5  1  0.269185  0.009079  0.000000  1
  In  In6  1  0.739893  0.730815  0.000000  1
  In  In7  1  0.990921  0.260107  0.000000  1
  Rh  Rh8  1  0.333333  0.666667  0.000000  1
