# generated using pymatgen
data_Si8Mo2IrPt5
_symmetry_space_group_name_H-M   'P 1'
_cell_length_a   3.52727500
_cell_length_b   5.52421400
_cell_length_c   24.57916300
_cell_angle_alpha   90.00000000
_cell_angle_beta   90.00000000
_cell_angle_gamma   90.00000000
_symmetry_Int_Tables_number   1
_chemical_formula_structural   Si8Mo2IrPt5
_chemical_formula_sum   'Si16 Mo4 Ir2 Pt10'
_cell_volume   478.93536191
_cell_formula_units_Z   2
loop_
 _symmetry_equiv_pos_site_id
 _symmetry_equiv_pos_as_xyz
  1  'x, y, z'
loop_
 _atom_site_type_symbol
 _atom_site_label
 _atom_site_symmetry_multiplicity
 _atom_site_fract_x
 _atom_site_fract_y
 _atom_site_fract_z
 _atom_site_occupancy
  Si  Si0  1  0.250000  0.173530  0.520971  1
  Si  Si1  1  0.750000  0.326470  0.020971  1
  Si  Si2  1  0.250000  0.672911  0.981800  1
  Si  Si3  1  0.750000  0.827089  0.481800  1
  Si  Si4  1  0.750000  0.317033  0.644607  1
  Si  Si5  1  0.250000  0.182967  0.144607  1
  Si  Si6  1  0.750000  0.819250  0.853927  1
  Si  Si7  1  0.250000  0.680750  0.353927  1
  Si  Si8  1  0.250000  0.668523  0.608989  1
  Si  Si9  1  0.750000  0.831477  0.108989  1
  Si  Si10  1  0.250000  0.161278  0.890475  1
  Si  Si11  1  0.750000  0.338722  0.390475  1
  Si  Si12  1  0.750000  0.829425  0.726070  1
  Si  Si13  1  0.250000  0.670575  0.226070  1
  Si  Si14  1  0.750000  0.331730  0.773750  1
  Si  Si15  1  0.250000  0.168270  0.273750  1
  Mo  Mo16  1  0.250000  0.502534  0.709869  1
  Mo  Mo17  1  0.750000  0.997466  0.209869  1
  Mo  Mo18  1  0.250000  0.005134  0.789580  1
  Mo  Mo19  1  0.750000  0.494866  0.289580  1
  Ir  Ir20  1  0.750000  0.000503  0.573367  1
  Ir  Ir21  1  0.250000  0.499497  0.073367  1
  Pt  Pt22  1  0.750000  0.502586  0.925316  1
  Pt  Pt23  1  0.250000  0.997414  0.425316  1
  Pt  Pt24  1  0.250000  0.004726  0.670359  1
  Pt  Pt25  1  0.750000  0.495274  0.170359  1
  Pt  Pt26  1  0.250000  0.504025  0.829930  1
  Pt  Pt27  1  0.750000  0.995975  0.329930  1
  Pt  Pt28  1  0.750000  0.501948  0.549393  1
  Pt  Pt29  1  0.250000  0.998052  0.049393  1
  Pt  Pt30  1  0.750000  0.004224  0.951596  1
  Pt  Pt31  1  0.250000  0.495776  0.451596  1
