# generated using pymatgen
data_Tm10Si16Ge
_symmetry_space_group_name_H-M   'P 1'
_cell_length_a   10.91889415
_cell_length_b   10.90871822
_cell_length_c   10.91889434
_cell_angle_alpha   144.79758578
_cell_angle_beta   135.94487431
_cell_angle_gamma   57.62018088
_symmetry_Int_Tables_number   1
_chemical_formula_structural   Tm10Si16Ge
_chemical_formula_sum   'Tm10 Si16 Ge1'
_cell_volume   516.96906076
_cell_formula_units_Z   1
loop_
 _symmetry_equiv_pos_site_id
 _symmetry_equiv_pos_as_xyz
  1  'x, y, z'
loop_
 _atom_site_type_symbol
 _atom_site_label
 _atom_site_symmetry_multiplicity
 _atom_site_fract_x
 _atom_site_fract_y
 _atom_site_fract_z
 _atom_site_occupancy
  Tm  Tm0  1  0.755832  0.758888  0.515206  1
  Tm  Tm1  1  0.448269  0.963676  0.013009  1
  Tm  Tm2  1  0.848718  0.368105  0.017082  1
  Tm  Tm3  1  0.950666  0.963676  0.515406  1
  Tm  Tm4  1  0.151108  0.166971  0.519272  1
  Tm  Tm5  1  0.351023  0.368105  0.519386  1
  Tm  Tm6  1  0.243682  0.758888  0.003057  1
  Tm  Tm7  1  0.549003  0.561394  0.508651  1
  Tm  Tm8  1  0.052742  0.561394  0.012391  1
  Tm  Tm9  1  0.647699  0.166971  0.015863  1
  Si  Si10  1  0.199906  0.571833  0.371925  1
  Si  Si11  1  0.000347  0.078761  0.078414  1
  Si  Si12  1  0.698092  0.289558  0.591466  1
  Si  Si13  1  0.799864  0.174933  0.375069  1
  Si  Si14  1  0.895134  0.503837  0.608703  1
  Si  Si15  1  0.420227  0.878561  0.458334  1
  Si  Si16  1  0.104931  0.714292  0.609361  1
  Si  Si17  1  0.301170  0.896117  0.594947  1
  Si  Si18  1  0.578457  0.038956  0.460499  1
  Si  Si19  1  0.999896  0.430659  0.430763  1
  Si  Si20  1  0.879072  0.844309  0.965237  1
  Si  Si21  1  0.399919  0.500421  0.100503  1
  Si  Si22  1  0.122463  0.090910  0.968447  1
  Si  Si23  1  0.283882  0.242061  0.958180  1
  Si  Si24  1  0.499743  0.381495  0.881751  1
  Si  Si25  1  0.598779  0.702352  0.103573  1
  Ge  Ge26  1  0.719374  0.684376  0.965002  1
