# generated using pymatgen
data_TbHo3(Er4Bi3)4
_symmetry_space_group_name_H-M   'P 1'
_cell_length_a   8.21069101
_cell_length_b   9.47988800
_cell_length_c   11.96766802
_cell_angle_alpha   90.00000000
_cell_angle_beta   89.99413918
_cell_angle_gamma   90.00000000
_symmetry_Int_Tables_number   1
_chemical_formula_structural   TbHo3(Er4Bi3)4
_chemical_formula_sum   'Tb1 Ho3 Er16 Bi12'
_cell_volume   931.52056306
_cell_formula_units_Z   1
loop_
 _symmetry_equiv_pos_site_id
 _symmetry_equiv_pos_as_xyz
  1  'x, y, z'
loop_
 _atom_site_type_symbol
 _atom_site_label
 _atom_site_symmetry_multiplicity
 _atom_site_fract_x
 _atom_site_fract_y
 _atom_site_fract_z
 _atom_site_occupancy
  Tb  Tb0  1  0.314267  0.250000  0.218341  1
  Ho  Ho1  1  0.814219  0.250000  0.281913  1
  Ho  Ho2  1  0.685867  0.750000  0.781971  1
  Ho  Ho3  1  0.185882  0.750000  0.718055  1
  Er  Er4  1  0.353575  0.750000  0.216771  1
  Er  Er5  1  0.853638  0.750000  0.283372  1
  Er  Er6  1  0.646425  0.250000  0.783223  1
  Er  Er7  1  0.146340  0.250000  0.716640  1
  Er  Er8  1  0.692019  0.564774  0.059259  1
  Er  Er9  1  0.192080  0.935144  0.440847  1
  Er  Er10  1  0.307952  0.064773  0.940678  1
  Er  Er11  1  0.807899  0.435181  0.559198  1
  Er  Er12  1  0.307952  0.435227  0.940678  1
  Er  Er13  1  0.807899  0.064819  0.559198  1
  Er  Er14  1  0.692019  0.935226  0.059259  1
  Er  Er15  1  0.192080  0.564856  0.440847  1
  Er  Er16  1  0.476640  0.250000  0.489084  1
  Er  Er17  1  0.976403  0.250000  0.010910  1
  Er  Er18  1  0.523461  0.750000  0.511018  1
  Er  Er19  1  0.023429  0.750000  0.988958  1
  Bi  Bi20  1  0.405131  0.750000  0.957787  1
  Bi  Bi21  1  0.905158  0.750000  0.542197  1
  Bi  Bi22  1  0.595306  0.250000  0.041840  1
  Bi  Bi23  1  0.094631  0.250000  0.457964  1
  Bi  Bi24  1  0.566412  0.995657  0.325974  1
  Bi  Bi25  1  0.065796  0.504443  0.174083  1
  Bi  Bi26  1  0.433806  0.495881  0.674111  1
  Bi  Bi27  1  0.933851  0.004095  0.825829  1
  Bi  Bi28  1  0.433806  0.004119  0.674111  1
  Bi  Bi29  1  0.933851  0.495905  0.825829  1
  Bi  Bi30  1  0.566412  0.504343  0.325974  1
  Bi  Bi31  1  0.065796  0.995557  0.174083  1
