# generated using pymatgen
data_Sr5ScFe3OsO15
_symmetry_space_group_name_H-M   'P 1'
_cell_length_a   5.61618911
_cell_length_b   6.94621333
_cell_length_c   9.03348771
_cell_angle_alpha   105.60263803
_cell_angle_beta   71.87056696
_cell_angle_gamma   89.98389829
_symmetry_Int_Tables_number   1
_chemical_formula_structural   Sr5ScFe3OsO15
_chemical_formula_sum   'Sr5 Sc1 Fe3 Os1 O15'
_cell_volume   321.21094047
_cell_formula_units_Z   1
loop_
 _symmetry_equiv_pos_site_id
 _symmetry_equiv_pos_as_xyz
  1  'x, y, z'
loop_
 _atom_site_type_symbol
 _atom_site_label
 _atom_site_symmetry_multiplicity
 _atom_site_fract_x
 _atom_site_fract_y
 _atom_site_fract_z
 _atom_site_occupancy
  Sr  Sr0  1  0.601709  0.600692  0.796564  1
  Sr  Sr1  1  0.210461  0.204996  0.578940  1
  Sr  Sr2  1  0.989051  0.995863  0.022042  1
  Sr  Sr3  1  0.390870  0.409243  0.217817  1
  Sr  Sr4  1  0.806130  0.791726  0.387823  1
  Sc  Sc5  1  0.999804  0.510171  0.000083  1
  Fe  Fe6  1  0.201566  0.687470  0.597228  1
  Fe  Fe7  1  0.393224  0.897626  0.213337  1
  Fe  Fe8  1  0.805384  0.302776  0.389223  1
  Os  Os9  1  0.601171  0.095972  0.797755  1
  O  O10  1  0.103826  0.603292  0.792632  1
  O  O11  1  0.097301  0.103239  0.304708  1
  O  O12  1  0.598342  0.103052  0.304506  1
  O  O13  1  0.699223  0.173599  0.604060  1
  O  O14  1  0.500730  0.026699  0.995845  1
  O  O15  1  0.904823  0.390322  0.191957  1
  O  O16  1  0.292478  0.805725  0.413807  1
  O  O17  1  0.505934  0.493080  0.500138  1
  O  O18  1  0.692459  0.712648  0.100504  1
  O  O19  1  0.993350  0.493769  0.500570  1
  O  O20  1  0.206867  0.712297  0.100566  1
  O  O21  1  0.883793  0.902712  0.713972  1
  O  O22  1  0.319954  0.290241  0.881067  1
  O  O23  1  0.404666  0.901490  0.712223  1
  O  O24  1  0.796881  0.291301  0.882637  1
