# generated using pymatgen
data_Dy5Mg(Co3P2)6
_symmetry_space_group_name_H-M   'P 1'
_cell_length_a   12.05737952
_cell_length_b   12.05737985
_cell_length_c   3.69893100
_cell_angle_alpha   90.00000000
_cell_angle_beta   90.00000000
_cell_angle_gamma   119.96647334
_symmetry_Int_Tables_number   1
_chemical_formula_structural   Dy5Mg(Co3P2)6
_chemical_formula_sum   'Dy5 Mg1 Co18 P12'
_cell_volume   465.86422092
_cell_formula_units_Z   1
loop_
 _symmetry_equiv_pos_site_id
 _symmetry_equiv_pos_as_xyz
  1  'x, y, z'
loop_
 _atom_site_type_symbol
 _atom_site_label
 _atom_site_symmetry_multiplicity
 _atom_site_fract_x
 _atom_site_fract_y
 _atom_site_fract_z
 _atom_site_occupancy
  Dy  Dy0  1  0.666982  0.331337  0.000000  1
  Dy  Dy1  1  0.331337  0.666982  0.000000  1
  Dy  Dy2  1  0.183773  0.183773  0.500000  1
  Dy  Dy3  1  0.812044  0.000854  0.500000  1
  Dy  Dy4  1  0.000854  0.812044  0.500000  1
  Mg  Mg5  1  0.559786  0.559786  0.000000  1
  Co  Co6  1  0.448231  0.001126  0.000000  1
  Co  Co7  1  0.001126  0.448231  0.000000  1
  Co  Co8  1  0.822456  0.201007  0.000000  1
  Co  Co9  1  0.804619  0.622774  0.000000  1
  Co  Co10  1  0.375750  0.174284  0.000000  1
  Co  Co11  1  0.201007  0.822456  0.000000  1
  Co  Co12  1  0.622774  0.804619  0.000000  1
  Co  Co13  1  0.174284  0.375750  0.000000  1
  Co  Co14  1  0.641570  0.125907  0.500000  1
  Co  Co15  1  0.877909  0.516123  0.500000  1
  Co  Co16  1  0.481202  0.353808  0.500000  1
  Co  Co17  1  0.125907  0.641570  0.500000  1
  Co  Co18  1  0.516123  0.877909  0.500000  1
  Co  Co19  1  0.353808  0.481202  0.500000  1
  Co  Co20  1  0.718741  0.718741  0.500000  1
  Co  Co21  1  0.284385  0.998582  0.500000  1
  Co  Co22  1  0.998582  0.284385  0.500000  1
  Co  Co23  1  0.000326  0.000326  0.000000  1
  P  P24  1  0.359070  0.359070  0.000000  1
  P  P25  1  0.632520  0.002693  0.000000  1
  P  P26  1  0.002693  0.632520  0.000000  1
  P  P27  1  0.834231  0.313861  0.500000  1
  P  P28  1  0.692429  0.518712  0.500000  1
  P  P29  1  0.478490  0.164863  0.500000  1
  P  P30  1  0.313861  0.834231  0.500000  1
  P  P31  1  0.518712  0.692429  0.500000  1
  P  P32  1  0.164863  0.478490  0.500000  1
  P  P33  1  0.820374  0.820374  0.000000  1
  P  P34  1  0.180530  0.998650  0.000000  1
  P  P35  1  0.998650  0.180530  0.000000  1
