# generated using pymatgen
data_SmHo2Be2Co9B4
_symmetry_space_group_name_H-M   'P 1'
_cell_length_a   5.05573017
_cell_length_b   5.05929170
_cell_length_c   9.39460100
_cell_angle_alpha   89.99999399
_cell_angle_beta   90.00003402
_cell_angle_gamma   119.99936447
_symmetry_Int_Tables_number   1
_chemical_formula_structural   SmHo2Be2Co9B4
_chemical_formula_sum   'Sm1 Ho2 Be2 Co9 B4'
_cell_volume   208.10636333
_cell_formula_units_Z   1
loop_
 _symmetry_equiv_pos_site_id
 _symmetry_equiv_pos_as_xyz
  1  'x, y, z'
loop_
 _atom_site_type_symbol
 _atom_site_label
 _atom_site_symmetry_multiplicity
 _atom_site_fract_x
 _atom_site_fract_y
 _atom_site_fract_z
 _atom_site_occupancy
  Sm  Sm0  1  0.999994  0.000000  0.999955  1
  Ho  Ho1  1  0.999993  0.999997  0.338725  1
  Ho  Ho2  1  0.999994  0.000000  0.661347  1
  Be  Be3  1  0.333286  0.666542  0.999955  1
  Be  Be4  1  0.666703  0.333460  0.999955  1
  Co  Co5  1  0.499995  0.000001  0.500002  1
  Co  Co6  1  0.499995  0.500000  0.500005  1
  Co  Co7  1  0.999995  0.500000  0.500009  1
  Co  Co8  1  0.499994  0.000000  0.192286  1
  Co  Co9  1  0.499994  0.499999  0.192287  1
  Co  Co10  1  0.999994  0.500000  0.192265  1
  Co  Co11  1  0.499995  0.000001  0.807698  1
  Co  Co12  1  0.499994  0.500000  0.807699  1
  Co  Co13  1  0.999995  0.500000  0.807718  1
  B  B14  1  0.333208  0.666523  0.342990  1
  B  B15  1  0.666780  0.333478  0.342990  1
  B  B16  1  0.666780  0.333480  0.657056  1
  B  B17  1  0.333210  0.666520  0.657056  1
