# generated using pymatgen
data_Ca3La2(YbBi2)3
_symmetry_space_group_name_H-M   'P 1'
_cell_length_a   8.46799831
_cell_length_b   8.42754227
_cell_length_c   8.48490724
_cell_angle_alpha   109.50116818
_cell_angle_beta   109.71094153
_cell_angle_gamma   109.41949222
_symmetry_Int_Tables_number   1
_chemical_formula_structural   Ca3La2(YbBi2)3
_chemical_formula_sum   'Ca3 La2 Yb3 Bi6'
_cell_volume   464.86948225
_cell_formula_units_Z   1
loop_
 _symmetry_equiv_pos_site_id
 _symmetry_equiv_pos_as_xyz
  1  'x, y, z'
loop_
 _atom_site_type_symbol
 _atom_site_label
 _atom_site_symmetry_multiplicity
 _atom_site_fract_x
 _atom_site_fract_y
 _atom_site_fract_z
 _atom_site_occupancy
  Ca  Ca0  1  0.146791  0.502327  0.002793  1
  Ca  Ca1  1  0.357461  0.356675  0.354264  1
  Ca  Ca2  1  0.644528  0.497740  0.000626  1
  La  La3  1  0.854592  0.854991  0.854837  1
  La  La4  1  0.999380  0.144821  0.499980  1
  Yb  Yb5  1  0.497953  0.000892  0.644628  1
  Yb  Yb6  1  0.497078  0.998935  0.143662  1
  Yb  Yb7  1  0.000769  0.643409  0.497760  1
  Bi  Bi8  1  0.252478  0.125952  0.875818  1
  Bi  Bi9  1  0.126312  0.873736  0.249989  1
  Bi  Bi10  1  0.750739  0.374916  0.624811  1
  Bi  Bi11  1  0.873103  0.250342  0.125495  1
  Bi  Bi12  1  0.623190  0.749931  0.375308  1
  Bi  Bi13  1  0.375626  0.625331  0.750030  1
