# generated using pymatgen
data_Y4Er2Al24Os5Pt3
_symmetry_space_group_name_H-M   'P 1'
_cell_length_a   8.81831140
_cell_length_b   8.83910512
_cell_length_c   9.55395827
_cell_angle_alpha   90.10191745
_cell_angle_beta   89.73713182
_cell_angle_gamma   119.55805809
_symmetry_Int_Tables_number   1
_chemical_formula_structural   Y4Er2Al24Os5Pt3
_chemical_formula_sum   'Y4 Er2 Al24 Os5 Pt3'
_cell_volume   647.76865951
_cell_formula_units_Z   1
loop_
 _symmetry_equiv_pos_site_id
 _symmetry_equiv_pos_as_xyz
  1  'x, y, z'
loop_
 _atom_site_type_symbol
 _atom_site_label
 _atom_site_symmetry_multiplicity
 _atom_site_fract_x
 _atom_site_fract_y
 _atom_site_fract_z
 _atom_site_occupancy
  Y  Y0  1  0.187951  0.383558  0.250950  1
  Y  Y1  1  0.812049  0.616442  0.749050  1
  Y  Y2  1  0.613746  0.813722  0.251948  1
  Y  Y3  1  0.386254  0.186278  0.748052  1
  Er  Er4  1  0.195995  0.808754  0.251666  1
  Er  Er5  1  0.804005  0.191246  0.748334  1
  Al  Al6  1  0.335212  0.671401  0.029230  1
  Al  Al7  1  0.664788  0.328599  0.970770  1
  Al  Al8  1  0.669268  0.331191  0.527524  1
  Al  Al9  1  0.330732  0.668809  0.472476  1
  Al  Al10  1  0.157773  0.325426  0.575722  1
  Al  Al11  1  0.842227  0.674574  0.424278  1
  Al  Al12  1  0.673528  0.841074  0.575901  1
  Al  Al13  1  0.837215  0.676315  0.078449  1
  Al  Al14  1  0.326472  0.158926  0.424099  1
  Al  Al15  1  0.162785  0.323685  0.921551  1
  Al  Al16  1  0.163897  0.835073  0.575921  1
  Al  Al17  1  0.325525  0.158464  0.076892  1
  Al  Al18  1  0.836103  0.164927  0.424079  1
  Al  Al19  1  0.674475  0.841536  0.923108  1
  Al  Al20  1  0.831710  0.159263  0.077343  1
  Al  Al21  1  0.168290  0.840737  0.922657  1
  Al  Al22  1  0.560352  0.124541  0.249825  1
  Al  Al23  1  0.439648  0.875459  0.750175  1
  Al  Al24  1  0.874296  0.438362  0.252686  1
  Al  Al25  1  0.125704  0.561638  0.747314  1
  Al  Al26  1  0.562739  0.436534  0.249721  1
  Al  Al27  1  0.437261  0.563466  0.750279  1
  Al  Al28  1  0.999479  0.001855  0.250200  1
  Al  Al29  1  0.000521  0.998145  0.749800  1
  Os  Os30  1  0.500000  0.000000  0.000000  1
  Os  Os31  1  0.500000  0.000000  0.500000  1
  Os  Os32  1  0.000000  0.500000  0.500000  1
  Os  Os33  1  0.000000  0.000000  0.000000  1
  Os  Os34  1  0.000000  0.000000  0.500000  1
  Pt  Pt35  1  0.000000  0.500000  0.000000  1
  Pt  Pt36  1  0.500000  0.500000  0.000000  1
  Pt  Pt37  1  0.500000  0.500000  0.500000  1
