# generated using pymatgen
data_Yb10PtRh
_symmetry_space_group_name_H-M   'P 1'
_cell_length_a   6.74100910
_cell_length_b   7.40390349
_cell_length_c   15.83867300
_cell_angle_alpha   90.00000000
_cell_angle_beta   90.00000000
_cell_angle_gamma   89.88883345
_symmetry_Int_Tables_number   1
_chemical_formula_structural   Yb10PtRh
_chemical_formula_sum   'Yb20 Pt2 Rh2'
_cell_volume   790.50320914
_cell_formula_units_Z   2
loop_
 _symmetry_equiv_pos_site_id
 _symmetry_equiv_pos_as_xyz
  1  'x, y, z'
loop_
 _atom_site_type_symbol
 _atom_site_label
 _atom_site_symmetry_multiplicity
 _atom_site_fract_x
 _atom_site_fract_y
 _atom_site_fract_z
 _atom_site_occupancy
  Yb  Yb0  1  0.354631  0.310842  0.063362  1
  Yb  Yb1  1  0.645369  0.689158  0.936638  1
  Yb  Yb2  1  0.854425  0.189563  0.936436  1
  Yb  Yb3  1  0.645369  0.689158  0.563362  1
  Yb  Yb4  1  0.145575  0.810437  0.063564  1
  Yb  Yb5  1  0.354631  0.310842  0.436638  1
  Yb  Yb6  1  0.145575  0.810437  0.436436  1
  Yb  Yb7  1  0.854425  0.189563  0.563564  1
  Yb  Yb8  1  0.152936  0.091672  0.250000  1
  Yb  Yb9  1  0.847064  0.908328  0.750000  1
  Yb  Yb10  1  0.660362  0.401292  0.750000  1
  Yb  Yb11  1  0.339638  0.598708  0.250000  1
  Yb  Yb12  1  0.322463  0.040254  0.644519  1
  Yb  Yb13  1  0.677537  0.959746  0.355481  1
  Yb  Yb14  1  0.826019  0.465945  0.355194  1
  Yb  Yb15  1  0.677537  0.959746  0.144519  1
  Yb  Yb16  1  0.173981  0.534055  0.644806  1
  Yb  Yb17  1  0.322463  0.040254  0.855481  1
  Yb  Yb18  1  0.173981  0.534055  0.855194  1
  Yb  Yb19  1  0.826019  0.465945  0.144806  1
  Pt  Pt20  1  0.538353  0.259919  0.250000  1
  Pt  Pt21  1  0.461647  0.740081  0.750000  1
  Rh  Rh22  1  0.037068  0.240013  0.750000  1
  Rh  Rh23  1  0.962932  0.759987  0.250000  1
