# generated using pymatgen
data_Cr3InAsSe8
_symmetry_space_group_name_H-M   'P 1'
_cell_length_a   7.65174192
_cell_length_b   7.65174029
_cell_length_c   7.65174027
_cell_angle_alpha   59.58792016
_cell_angle_beta   59.58792442
_cell_angle_gamma   59.58792304
_symmetry_Int_Tables_number   1
_chemical_formula_structural   Cr3InAsSe8
_chemical_formula_sum   'Cr3 In1 As1 Se8'
_cell_volume   313.81858908
_cell_formula_units_Z   1
loop_
 _symmetry_equiv_pos_site_id
 _symmetry_equiv_pos_as_xyz
  1  'x, y, z'
loop_
 _atom_site_type_symbol
 _atom_site_label
 _atom_site_symmetry_multiplicity
 _atom_site_fract_x
 _atom_site_fract_y
 _atom_site_fract_z
 _atom_site_occupancy
  Cr  Cr0  1  0.855743  0.381554  0.381554  1
  Cr  Cr1  1  0.381554  0.855743  0.381554  1
  Cr  Cr2  1  0.381554  0.381554  0.855743  1
  In  In3  1  0.998508  0.998508  0.998508  1
  As  As4  1  0.388988  0.388988  0.388988  1
  Se  Se5  1  0.138303  0.138303  0.138303  1
  Se  Se6  1  0.578587  0.133414  0.133414  1
  Se  Se7  1  0.133414  0.578587  0.133414  1
  Se  Se8  1  0.133414  0.133414  0.578587  1
  Se  Se9  1  0.613280  0.613280  0.613280  1
  Se  Se10  1  0.150242  0.623206  0.623206  1
  Se  Se11  1  0.623206  0.150242  0.623206  1
  Se  Se12  1  0.623206  0.623206  0.150242  1
