# generated using pymatgen
data_La7Er(Si3Pt)4
_symmetry_space_group_name_H-M   'P 1'
_cell_length_a   8.28083800
_cell_length_b   8.28083880
_cell_length_c   8.72425300
_cell_angle_alpha   90.00000000
_cell_angle_beta   90.00000000
_cell_angle_gamma   119.99999679
_symmetry_Int_Tables_number   1
_chemical_formula_structural   La7Er(Si3Pt)4
_chemical_formula_sum   'La7 Er1 Si12 Pt4'
_cell_volume   518.09275165
_cell_formula_units_Z   1
loop_
 _symmetry_equiv_pos_site_id
 _symmetry_equiv_pos_as_xyz
  1  'x, y, z'
loop_
 _atom_site_type_symbol
 _atom_site_label
 _atom_site_symmetry_multiplicity
 _atom_site_fract_x
 _atom_site_fract_y
 _atom_site_fract_z
 _atom_site_occupancy
  La  La0  1  0.000000  0.000000  0.750000  1
  La  La1  1  0.500590  0.499410  0.250000  1
  La  La2  1  0.500590  0.001182  0.250000  1
  La  La3  1  0.998818  0.499410  0.250000  1
  La  La4  1  0.499454  0.500546  0.750000  1
  La  La5  1  0.499454  0.998906  0.750000  1
  La  La6  1  0.001094  0.500546  0.750000  1
  Er  Er7  1  0.000000  0.000000  0.250000  1
  Si  Si8  1  0.164650  0.835350  0.497180  1
  Si  Si9  1  0.164650  0.329302  0.497180  1
  Si  Si10  1  0.670698  0.835350  0.497180  1
  Si  Si11  1  0.835410  0.164590  0.496262  1
  Si  Si12  1  0.835410  0.670819  0.496262  1
  Si  Si13  1  0.329181  0.164590  0.496262  1
  Si  Si14  1  0.835410  0.164590  0.003738  1
  Si  Si15  1  0.835410  0.670819  0.003738  1
  Si  Si16  1  0.329181  0.164590  0.003738  1
  Si  Si17  1  0.164650  0.835350  0.002820  1
  Si  Si18  1  0.164650  0.329302  0.002820  1
  Si  Si19  1  0.670698  0.835350  0.002820  1
  Pt  Pt20  1  0.333333  0.666667  0.496307  1
  Pt  Pt21  1  0.666667  0.333333  0.501114  1
  Pt  Pt22  1  0.666667  0.333333  0.998886  1
  Pt  Pt23  1  0.333333  0.666667  0.003693  1
