# generated using pymatgen
data_Pr3Dy5Cd2IrOs
_symmetry_space_group_name_H-M   'P 1'
_cell_length_a   9.77375370
_cell_length_b   9.77375255
_cell_length_c   9.83092800
_cell_angle_alpha   59.80629754
_cell_angle_beta   59.80630147
_cell_angle_gamma   59.78667169
_symmetry_Int_Tables_number   1
_chemical_formula_structural   Pr3Dy5Cd2IrOs
_chemical_formula_sum   'Pr6 Dy10 Cd4 Ir2 Os2'
_cell_volume   661.03361024
_cell_formula_units_Z   2
loop_
 _symmetry_equiv_pos_site_id
 _symmetry_equiv_pos_as_xyz
  1  'x, y, z'
loop_
 _atom_site_type_symbol
 _atom_site_label
 _atom_site_symmetry_multiplicity
 _atom_site_fract_x
 _atom_site_fract_y
 _atom_site_fract_z
 _atom_site_occupancy
  Pr  Pr0  1  0.941285  0.554293  0.560471  1
  Pr  Pr1  1  0.554293  0.941285  0.943951  1
  Pr  Pr2  1  0.554293  0.941285  0.560471  1
  Pr  Pr3  1  0.941285  0.554293  0.943951  1
  Pr  Pr4  1  0.559048  0.559048  0.940952  1
  Pr  Pr5  1  0.944084  0.944084  0.555916  1
  Dy  Dy6  1  0.346436  0.346436  0.345714  1
  Dy  Dy7  1  0.346436  0.346436  0.961412  1
  Dy  Dy8  1  0.345858  0.964080  0.345031  1
  Dy  Dy9  1  0.964080  0.345858  0.345031  1
  Dy  Dy10  1  0.813036  0.187179  0.188118  1
  Dy  Dy11  1  0.187179  0.813036  0.811667  1
  Dy  Dy12  1  0.187179  0.813036  0.188118  1
  Dy  Dy13  1  0.813036  0.187179  0.811667  1
  Dy  Dy14  1  0.187325  0.187325  0.812675  1
  Dy  Dy15  1  0.811821  0.811821  0.188179  1
  Cd  Cd16  1  0.578564  0.578564  0.579177  1
  Cd  Cd17  1  0.578564  0.578564  0.263695  1
  Cd  Cd18  1  0.578905  0.261923  0.579586  1
  Cd  Cd19  1  0.261923  0.578905  0.579586  1
  Ir  Ir20  1  0.142680  0.579117  0.139102  1
  Ir  Ir21  1  0.579117  0.142680  0.139102  1
  Os  Os22  1  0.141787  0.141787  0.137714  1
  Os  Os23  1  0.141787  0.141787  0.578712  1
