# generated using pymatgen
data_LiEr2(P2Rh3)3
_symmetry_space_group_name_H-M   'P 1'
_cell_length_a   3.93330600
_cell_length_b   10.79662800
_cell_length_c   12.56692300
_cell_angle_alpha   90.00000000
_cell_angle_beta   90.00000000
_cell_angle_gamma   90.00000000
_symmetry_Int_Tables_number   1
_chemical_formula_structural   LiEr2(P2Rh3)3
_chemical_formula_sum   'Li2 Er4 P12 Rh18'
_cell_volume   533.67250283
_cell_formula_units_Z   2
loop_
 _symmetry_equiv_pos_site_id
 _symmetry_equiv_pos_as_xyz
  1  'x, y, z'
loop_
 _atom_site_type_symbol
 _atom_site_label
 _atom_site_symmetry_multiplicity
 _atom_site_fract_x
 _atom_site_fract_y
 _atom_site_fract_z
 _atom_site_occupancy
  Li  Li0  1  0.250000  0.707728  0.990352  1
  Li  Li1  1  0.250000  0.792272  0.490352  1
  Er  Er2  1  0.250000  0.580325  0.703821  1
  Er  Er3  1  0.250000  0.919675  0.203821  1
  Er  Er4  1  0.750000  0.423520  0.300173  1
  Er  Er5  1  0.750000  0.076480  0.800173  1
  P  P6  1  0.250000  0.427557  0.115535  1
  P  P7  1  0.250000  0.072443  0.615535  1
  P  P8  1  0.750000  0.575558  0.881520  1
  P  P9  1  0.750000  0.924442  0.381520  1
  P  P10  1  0.250000  0.261668  0.865209  1
  P  P11  1  0.250000  0.238332  0.365209  1
  P  P12  1  0.750000  0.736923  0.140177  1
  P  P13  1  0.750000  0.763077  0.640177  1
  P  P14  1  0.250000  0.602926  0.390584  1
  P  P15  1  0.250000  0.897074  0.890584  1
  P  P16  1  0.750000  0.401121  0.609157  1
  P  P17  1  0.750000  0.098879  0.109157  1
  Rh  Rh18  1  0.750000  0.277770  0.006005  1
  Rh  Rh19  1  0.750000  0.222230  0.506005  1
  Rh  Rh20  1  0.250000  0.408718  0.479719  1
  Rh  Rh21  1  0.250000  0.091282  0.979719  1
  Rh  Rh22  1  0.750000  0.592615  0.523397  1
  Rh  Rh23  1  0.750000  0.907385  0.023397  1
  Rh  Rh24  1  0.250000  0.232226  0.175632  1
  Rh  Rh25  1  0.250000  0.267774  0.675632  1
  Rh  Rh26  1  0.750000  0.774695  0.826851  1
  Rh  Rh27  1  0.750000  0.725305  0.326851  1
  Rh  Rh28  1  0.250000  0.879717  0.700479  1
  Rh  Rh29  1  0.250000  0.620283  0.200479  1
  Rh  Rh30  1  0.750000  0.117500  0.294324  1
  Rh  Rh31  1  0.750000  0.382500  0.794324  1
  Rh  Rh32  1  0.250000  0.461457  0.930419  1
  Rh  Rh33  1  0.250000  0.038543  0.430419  1
  Rh  Rh34  1  0.750000  0.536631  0.066644  1
  Rh  Rh35  1  0.750000  0.963369  0.566644  1
