# generated using pymatgen
data_K2Li(PPd2)3
_symmetry_space_group_name_H-M   'P 1'
_cell_length_a   6.97823700
_cell_length_b   6.98009861
_cell_length_c   6.97823700
_cell_angle_alpha   128.74881534
_cell_angle_beta   120.13697410
_cell_angle_gamma   82.63965251
_symmetry_Int_Tables_number   1
_chemical_formula_structural   K2Li(PPd2)3
_chemical_formula_sum   'K2 Li1 P3 Pd6'
_cell_volume   220.35238809
_cell_formula_units_Z   1
loop_
 _symmetry_equiv_pos_site_id
 _symmetry_equiv_pos_as_xyz
  1  'x, y, z'
loop_
 _atom_site_type_symbol
 _atom_site_label
 _atom_site_symmetry_multiplicity
 _atom_site_fract_x
 _atom_site_fract_y
 _atom_site_fract_z
 _atom_site_occupancy
  K  K0  1  0.017732  0.012994  0.995262  1
  K  K1  1  0.495567  0.998252  0.502685  1
  Li  Li2  1  0.344681  0.352920  0.008239  1
  P  P3  1  0.830633  0.328541  0.497909  1
  P  P4  1  0.614400  0.614900  0.000501  1
  P  P5  1  0.202149  0.693714  0.491565  1
  Pd  Pd6  1  0.950182  0.505461  0.966804  1
  Pd  Pd7  1  0.538657  0.505461  0.555280  1
  Pd  Pd8  1  0.952028  0.981173  0.444342  1
  Pd  Pd9  1  0.810176  0.505205  0.298243  1
  Pd  Pd10  1  0.206963  0.505205  0.695029  1
  Pd  Pd11  1  0.536833  0.981173  0.029145  1
