# generated using pymatgen
data_La4(NdRh)3
_symmetry_space_group_name_H-M   'P 1'
_cell_length_a   6.45322300
_cell_length_b   10.22869665
_cell_length_c   10.22869703
_cell_angle_alpha   119.99902123
_cell_angle_beta   90.00000000
_cell_angle_gamma   90.00000000
_symmetry_Int_Tables_number   1
_chemical_formula_structural   La4(NdRh)3
_chemical_formula_sum   'La8 Nd6 Rh6'
_cell_volume   584.72572693
_cell_formula_units_Z   2
loop_
 _symmetry_equiv_pos_site_id
 _symmetry_equiv_pos_as_xyz
  1  'x, y, z'
loop_
 _atom_site_type_symbol
 _atom_site_label
 _atom_site_symmetry_multiplicity
 _atom_site_fract_x
 _atom_site_fract_y
 _atom_site_fract_z
 _atom_site_occupancy
  La  La0  1  0.467722  0.333332  0.666668  1
  La  La1  1  0.967722  0.666668  0.333332  1
  La  La2  1  0.251768  0.125716  0.874284  1
  La  La3  1  0.251854  0.748576  0.874285  1
  La  La4  1  0.251854  0.125715  0.251424  1
  La  La5  1  0.751768  0.874284  0.125716  1
  La  La6  1  0.751854  0.251424  0.125715  1
  La  La7  1  0.751854  0.874285  0.748576  1
  Nd  Nd8  1  0.440927  0.541398  0.458602  1
  Nd  Nd9  1  0.440803  0.917212  0.458618  1
  Nd  Nd10  1  0.440803  0.541382  0.082788  1
  Nd  Nd11  1  0.940927  0.458602  0.541398  1
  Nd  Nd12  1  0.940803  0.082788  0.541382  1
  Nd  Nd13  1  0.940803  0.458618  0.917212  1
  Rh  Rh14  1  0.182359  0.811330  0.188670  1
  Rh  Rh15  1  0.182454  0.377318  0.188654  1
  Rh  Rh16  1  0.182454  0.811346  0.622682  1
  Rh  Rh17  1  0.682359  0.188670  0.811330  1
  Rh  Rh18  1  0.682454  0.622682  0.811346  1
  Rh  Rh19  1  0.682454  0.188654  0.377318  1
