# generated using pymatgen
data_Nd16Cd3HgOs3Pt
_symmetry_space_group_name_H-M   'P 1'
_cell_length_a   9.92932487
_cell_length_b   10.00378974
_cell_length_c   10.00368767
_cell_angle_alpha   59.59921036
_cell_angle_beta   59.51828078
_cell_angle_gamma   59.51871069
_symmetry_Int_Tables_number   1
_chemical_formula_structural   Nd16Cd3HgOs3Pt
_chemical_formula_sum   'Nd16 Cd3 Hg1 Os3 Pt1'
_cell_volume   695.37105658
_cell_formula_units_Z   1
loop_
 _symmetry_equiv_pos_site_id
 _symmetry_equiv_pos_as_xyz
  1  'x, y, z'
loop_
 _atom_site_type_symbol
 _atom_site_label
 _atom_site_symmetry_multiplicity
 _atom_site_fract_x
 _atom_site_fract_y
 _atom_site_fract_z
 _atom_site_occupancy
  Nd  Nd0  1  0.343737  0.349428  0.349432  1
  Nd  Nd1  1  0.344853  0.350193  0.955042  1
  Nd  Nd2  1  0.344849  0.955043  0.350197  1
  Nd  Nd3  1  0.962551  0.345256  0.345248  1
  Nd  Nd4  1  0.812831  0.191598  0.191590  1
  Nd  Nd5  1  0.189718  0.808800  0.808803  1
  Nd  Nd6  1  0.190832  0.808763  0.191321  1
  Nd  Nd7  1  0.813217  0.191458  0.803191  1
  Nd  Nd8  1  0.190840  0.191314  0.808758  1
  Nd  Nd9  1  0.813214  0.803189  0.191458  1
  Nd  Nd10  1  0.937493  0.560610  0.560609  1
  Nd  Nd11  1  0.556888  0.940105  0.940104  1
  Nd  Nd12  1  0.556433  0.938480  0.565057  1
  Nd  Nd13  1  0.938955  0.560210  0.941717  1
  Nd  Nd14  1  0.556426  0.565055  0.938495  1
  Nd  Nd15  1  0.938949  0.941719  0.560215  1
  Cd  Cd16  1  0.579006  0.578817  0.261042  1
  Cd  Cd17  1  0.579005  0.261039  0.578817  1
  Cd  Cd18  1  0.259772  0.579209  0.579207  1
  Hg  Hg19  1  0.583371  0.581808  0.581806  1
  Os  Os20  1  0.143228  0.137593  0.137585  1
  Os  Os21  1  0.143187  0.137743  0.581646  1
  Os  Os22  1  0.143199  0.581650  0.137732  1
  Pt  Pt23  1  0.577448  0.140919  0.140931  1
