# generated using pymatgen
data_Zr3Co2WN
_symmetry_space_group_name_H-M   'P 1'
_cell_length_a   8.48417245
_cell_length_b   8.48417179
_cell_length_c   8.48417200
_cell_angle_alpha   59.99999920
_cell_angle_beta   60.00000175
_cell_angle_gamma   59.99999637
_symmetry_Int_Tables_number   1
_chemical_formula_structural   Zr3Co2WN
_chemical_formula_sum   'Zr12 Co8 W4 N4'
_cell_volume   431.83058544
_cell_formula_units_Z   4
loop_
 _symmetry_equiv_pos_site_id
 _symmetry_equiv_pos_as_xyz
  1  'x, y, z'
loop_
 _atom_site_type_symbol
 _atom_site_label
 _atom_site_symmetry_multiplicity
 _atom_site_fract_x
 _atom_site_fract_y
 _atom_site_fract_z
 _atom_site_occupancy
  Zr  Zr0  1  0.807672  0.807672  0.192328  1
  Zr  Zr1  1  0.192328  0.192328  0.807672  1
  Zr  Zr2  1  0.807672  0.192328  0.807672  1
  Zr  Zr3  1  0.192328  0.807672  0.192328  1
  Zr  Zr4  1  0.192328  0.807672  0.807672  1
  Zr  Zr5  1  0.807672  0.192328  0.192328  1
  Zr  Zr6  1  0.442328  0.442328  0.057672  1
  Zr  Zr7  1  0.057672  0.057672  0.442328  1
  Zr  Zr8  1  0.442328  0.057672  0.442328  1
  Zr  Zr9  1  0.057672  0.442328  0.057672  1
  Zr  Zr10  1  0.057672  0.442328  0.442328  1
  Zr  Zr11  1  0.442328  0.057672  0.057672  1
  Co  Co12  1  0.725026  0.424991  0.424991  1
  Co  Co13  1  0.424991  0.725026  0.424991  1
  Co  Co14  1  0.424991  0.424991  0.725026  1
  Co  Co15  1  0.424991  0.424991  0.424991  1
  Co  Co16  1  0.524974  0.825009  0.825009  1
  Co  Co17  1  0.825009  0.524974  0.825009  1
  Co  Co18  1  0.825009  0.825009  0.524974  1
  Co  Co19  1  0.825009  0.825009  0.825009  1
  W  W20  1  0.125000  0.625000  0.625000  1
  W  W21  1  0.625000  0.125000  0.625000  1
  W  W22  1  0.625000  0.625000  0.125000  1
  W  W23  1  0.625000  0.625000  0.625000  1
  N  N24  1  0.625000  0.125000  0.125000  1
  N  N25  1  0.125000  0.625000  0.125000  1
  N  N26  1  0.125000  0.125000  0.625000  1
  N  N27  1  0.125000  0.125000  0.125000  1
