# generated using pymatgen
data_TbPa3(Pd2Pb)2
_symmetry_space_group_name_H-M   'P 1'
_cell_length_a   7.87881885
_cell_length_b   7.87881885
_cell_length_c   3.69548500
_cell_angle_alpha   90.00000000
_cell_angle_beta   90.00000000
_cell_angle_gamma   89.41732550
_symmetry_Int_Tables_number   1
_chemical_formula_structural   TbPa3(Pd2Pb)2
_chemical_formula_sum   'Tb1 Pa3 Pd4 Pb2'
_cell_volume   229.38827574
_cell_formula_units_Z   1
loop_
 _symmetry_equiv_pos_site_id
 _symmetry_equiv_pos_as_xyz
  1  'x, y, z'
loop_
 _atom_site_type_symbol
 _atom_site_label
 _atom_site_symmetry_multiplicity
 _atom_site_fract_x
 _atom_site_fract_y
 _atom_site_fract_z
 _atom_site_occupancy
  Tb  Tb0  1  0.325285  0.825285  0.500000  1
  Pa  Pa1  1  0.672119  0.172119  0.500000  1
  Pa  Pa2  1  0.174453  0.325822  0.500000  1
  Pa  Pa3  1  0.825822  0.674453  0.500000  1
  Pd  Pd4  1  0.379563  0.136020  0.000000  1
  Pd  Pd5  1  0.114720  0.614720  0.000000  1
  Pd  Pd6  1  0.636020  0.879563  0.000000  1
  Pd  Pd7  1  0.867199  0.367199  0.000000  1
  Pb  Pb8  1  0.008017  0.996800  0.000000  1
  Pb  Pb9  1  0.496800  0.508017  0.000000  1
