# generated using pymatgen
data_Dy2Lu2ScSi4
_symmetry_space_group_name_H-M   'P 1'
_cell_length_a   7.20185700
_cell_length_b   7.54493400
_cell_length_c   14.29316000
_cell_angle_alpha   90.00000000
_cell_angle_beta   90.00000000
_cell_angle_gamma   90.00000000
_symmetry_Int_Tables_number   1
_chemical_formula_structural   Dy2Lu2ScSi4
_chemical_formula_sum   'Dy8 Lu8 Sc4 Si16'
_cell_volume   776.65509237
_cell_formula_units_Z   4
loop_
 _symmetry_equiv_pos_site_id
 _symmetry_equiv_pos_as_xyz
  1  'x, y, z'
loop_
 _atom_site_type_symbol
 _atom_site_label
 _atom_site_symmetry_multiplicity
 _atom_site_fract_x
 _atom_site_fract_y
 _atom_site_fract_z
 _atom_site_occupancy
  Dy  Dy0  1  0.013858  0.178736  0.098114  1
  Dy  Dy1  1  0.986142  0.821264  0.901886  1
  Dy  Dy2  1  0.486142  0.678736  0.901886  1
  Dy  Dy3  1  0.986142  0.821264  0.598114  1
  Dy  Dy4  1  0.513858  0.321264  0.098114  1
  Dy  Dy5  1  0.013858  0.178736  0.401886  1
  Dy  Dy6  1  0.513858  0.321264  0.401886  1
  Dy  Dy7  1  0.486142  0.678736  0.598114  1
  Lu  Lu8  1  0.328441  0.177336  0.625050  1
  Lu  Lu9  1  0.671559  0.822664  0.374950  1
  Lu  Lu10  1  0.171559  0.677336  0.374950  1
  Lu  Lu11  1  0.671559  0.822664  0.125050  1
  Lu  Lu12  1  0.828441  0.322664  0.625050  1
  Lu  Lu13  1  0.328441  0.177336  0.874950  1
  Lu  Lu14  1  0.828441  0.322664  0.874950  1
  Lu  Lu15  1  0.171559  0.677336  0.125050  1
  Sc  Sc16  1  0.160965  0.508946  0.750000  1
  Sc  Sc17  1  0.839035  0.491054  0.250000  1
  Sc  Sc18  1  0.339035  0.008946  0.250000  1
  Sc  Sc19  1  0.660965  0.991054  0.750000  1
  Si  Si20  1  0.028473  0.104879  0.750000  1
  Si  Si21  1  0.971527  0.895121  0.250000  1
  Si  Si22  1  0.471527  0.604879  0.250000  1
  Si  Si23  1  0.528473  0.395121  0.750000  1
  Si  Si24  1  0.284790  0.867203  0.750000  1
  Si  Si25  1  0.715210  0.132797  0.250000  1
  Si  Si26  1  0.215210  0.367203  0.250000  1
  Si  Si27  1  0.784790  0.632797  0.750000  1
  Si  Si28  1  0.156489  0.468060  0.539570  1
  Si  Si29  1  0.843511  0.531940  0.460430  1
  Si  Si30  1  0.343511  0.968060  0.460430  1
  Si  Si31  1  0.843511  0.531940  0.039570  1
  Si  Si32  1  0.656489  0.031940  0.539570  1
  Si  Si33  1  0.156489  0.468060  0.960430  1
  Si  Si34  1  0.656489  0.031940  0.960430  1
  Si  Si35  1  0.343511  0.968060  0.039570  1
