# generated using pymatgen
data_GdDyCl8
_symmetry_space_group_name_H-M   'P 1'
_cell_length_a   7.04409866
_cell_length_b   7.04408225
_cell_length_c   8.79797403
_cell_angle_alpha   92.61744540
_cell_angle_beta   92.61789366
_cell_angle_gamma   119.24483249
_symmetry_Int_Tables_number   1
_chemical_formula_structural   GdDyCl8
_chemical_formula_sum   'Gd1 Dy1 Cl8'
_cell_volume   379.34947411
_cell_formula_units_Z   1
loop_
 _symmetry_equiv_pos_site_id
 _symmetry_equiv_pos_as_xyz
  1  'x, y, z'
loop_
 _atom_site_type_symbol
 _atom_site_label
 _atom_site_symmetry_multiplicity
 _atom_site_fract_x
 _atom_site_fract_y
 _atom_site_fract_z
 _atom_site_occupancy
  Gd  Gd0  1  0.168767  0.831235  0.000000  1
  Dy  Dy1  1  0.831327  0.168672  0.000000  1
  Cl  Cl2  1  0.519799  0.134739  0.174101  1
  Cl  Cl3  1  0.131352  0.513077  0.174292  1
  Cl  Cl4  1  0.906420  0.909516  0.175383  1
  Cl  Cl5  1  0.612873  0.613202  0.440290  1
  Cl  Cl6  1  0.386800  0.387128  0.559711  1
  Cl  Cl7  1  0.090481  0.093580  0.824617  1
  Cl  Cl8  1  0.865259  0.480200  0.825899  1
  Cl  Cl9  1  0.486919  0.868648  0.825706  1
