# generated using pymatgen
data_Nd7Th3(Sn3C)2
_symmetry_space_group_name_H-M   'P 1'
_cell_length_a   9.37923344
_cell_length_b   9.34351171
_cell_length_c   6.70220100
_cell_angle_alpha   90.00000000
_cell_angle_beta   90.00000000
_cell_angle_gamma   120.42852050
_symmetry_Int_Tables_number   1
_chemical_formula_structural   Nd7Th3(Sn3C)2
_chemical_formula_sum   'Nd7 Th3 Sn6 C2'
_cell_volume   506.44700693
_cell_formula_units_Z   1
loop_
 _symmetry_equiv_pos_site_id
 _symmetry_equiv_pos_as_xyz
  1  'x, y, z'
loop_
 _atom_site_type_symbol
 _atom_site_label
 _atom_site_symmetry_multiplicity
 _atom_site_fract_x
 _atom_site_fract_y
 _atom_site_fract_z
 _atom_site_occupancy
  Nd  Nd0  1  0.333059  0.666951  0.500895  1
  Nd  Nd1  1  0.666671  0.333532  0.500880  1
  Nd  Nd2  1  0.666671  0.333532  0.999120  1
  Nd  Nd3  1  0.333059  0.666951  0.999105  1
  Nd  Nd4  1  0.224938  0.002226  0.750000  1
  Nd  Nd5  1  0.773817  0.999435  0.250000  1
  Nd  Nd6  1  0.002972  0.223370  0.750000  1
  Th  Th7  1  0.996915  0.784087  0.250000  1
  Th  Th8  1  0.791359  0.790190  0.750000  1
  Th  Th9  1  0.210826  0.212956  0.250000  1
  Sn  Sn10  1  0.600096  0.000593  0.750000  1
  Sn  Sn11  1  0.401540  0.000474  0.250000  1
  Sn  Sn12  1  0.000308  0.598189  0.750000  1
  Sn  Sn13  1  0.999854  0.403287  0.250000  1
  Sn  Sn14  1  0.404783  0.405007  0.750000  1
  Sn  Sn15  1  0.593328  0.594157  0.250000  1
  C  C16  1  0.999902  0.992532  0.494337  1
  C  C17  1  0.999902  0.992532  0.005663  1
