# generated using pymatgen
data_Sc5Pa(GaPt)6
_symmetry_space_group_name_H-M   'P 1'
_cell_length_a   7.30711105
_cell_length_b   7.26730240
_cell_length_c   7.06828800
_cell_angle_alpha   90.00000000
_cell_angle_beta   90.00000000
_cell_angle_gamma   119.78722007
_symmetry_Int_Tables_number   1
_chemical_formula_structural   Sc5Pa(GaPt)6
_chemical_formula_sum   'Sc5 Pa1 Ga6 Pt6'
_cell_volume   325.75492946
_cell_formula_units_Z   1
loop_
 _symmetry_equiv_pos_site_id
 _symmetry_equiv_pos_as_xyz
  1  'x, y, z'
loop_
 _atom_site_type_symbol
 _atom_site_label
 _atom_site_symmetry_multiplicity
 _atom_site_fract_x
 _atom_site_fract_y
 _atom_site_fract_z
 _atom_site_occupancy
  Sc  Sc0  1  0.401523  0.398802  0.250000  1
  Sc  Sc1  1  0.601004  0.994814  0.750000  1
  Sc  Sc2  1  0.394244  0.398744  0.750000  1
  Sc  Sc3  1  0.993872  0.597970  0.250000  1
  Sc  Sc4  1  0.603847  0.007160  0.250000  1
  Pa  Pa5  1  0.005692  0.595886  0.750000  1
  Ga  Ga6  1  0.275017  0.008386  0.003552  1
  Ga  Ga7  1  0.275017  0.008386  0.496448  1
  Ga  Ga8  1  0.000462  0.261681  0.490835  1
  Ga  Ga9  1  0.000462  0.261681  0.009165  1
  Ga  Ga10  1  0.724773  0.733059  0.002991  1
  Ga  Ga11  1  0.724773  0.733059  0.497009  1
  Pt  Pt12  1  0.669034  0.335853  0.502404  1
  Pt  Pt13  1  0.999782  0.997706  0.750000  1
  Pt  Pt14  1  0.669034  0.335853  0.997596  1
  Pt  Pt15  1  0.330910  0.667220  0.011726  1
  Pt  Pt16  1  0.330910  0.667220  0.488274  1
  Pt  Pt17  1  0.999646  0.996519  0.250000  1
