# generated using pymatgen
data_Sr3Ca4La(As7Ir8)2
_symmetry_space_group_name_H-M   'P 1'
_cell_length_a   4.13598700
_cell_length_b   13.28956864
_cell_length_c   13.61696373
_cell_angle_alpha   81.83568149
_cell_angle_beta   90.00000000
_cell_angle_gamma   90.00000000
_symmetry_Int_Tables_number   1
_chemical_formula_structural   Sr3Ca4La(As7Ir8)2
_chemical_formula_sum   'Sr3 Ca4 La1 As14 Ir16'
_cell_volume   740.87721515
_cell_formula_units_Z   1
loop_
 _symmetry_equiv_pos_site_id
 _symmetry_equiv_pos_as_xyz
  1  'x, y, z'
loop_
 _atom_site_type_symbol
 _atom_site_label
 _atom_site_symmetry_multiplicity
 _atom_site_fract_x
 _atom_site_fract_y
 _atom_site_fract_z
 _atom_site_occupancy
  Sr  Sr0  1  0.250000  0.103449  0.793393  1
  Sr  Sr1  1  0.750000  0.896741  0.205921  1
  Sr  Sr2  1  0.250000  0.287200  0.105039  1
  Ca  Ca3  1  0.250000  0.514658  0.291391  1
  Ca  Ca4  1  0.750000  0.484095  0.708274  1
  Ca  Ca5  1  0.250000  0.214136  0.434036  1
  Ca  Ca6  1  0.750000  0.787442  0.564661  1
  La  La7  1  0.750000  0.712473  0.892516  1
  As  As8  1  0.250000  0.057239  0.100195  1
  As  As9  1  0.750000  0.940911  0.899477  1
  As  As10  1  0.250000  0.313034  0.685912  1
  As  As11  1  0.750000  0.687240  0.313761  1
  As  As12  1  0.250000  0.608477  0.567567  1
  As  As13  1  0.750000  0.392643  0.434373  1
  As  As14  1  0.250000  0.848021  0.720407  1
  As  As15  1  0.750000  0.152894  0.280752  1
  As  As16  1  0.750000  0.255337  0.915813  1
  As  As17  1  0.250000  0.742799  0.083490  1
  As  As18  1  0.750000  0.095984  0.585555  1
  As  As19  1  0.250000  0.904227  0.414673  1
  As  As20  1  0.750000  0.470791  0.129027  1
  As  As21  1  0.250000  0.528115  0.871028  1
  Ir  Ir22  1  0.250000  0.983835  0.571800  1
  Ir  Ir23  1  0.750000  0.016326  0.428046  1
  Ir  Ir24  1  0.250000  0.665903  0.732873  1
  Ir  Ir25  1  0.750000  0.335078  0.272453  1
  Ir  Ir26  1  0.250000  0.555998  0.046888  1
  Ir  Ir27  1  0.750000  0.447050  0.949801  1
  Ir  Ir28  1  0.250000  0.056777  0.281662  1
  Ir  Ir29  1  0.750000  0.942417  0.717679  1
  Ir  Ir30  1  0.250000  0.427301  0.526946  1
  Ir  Ir31  1  0.750000  0.574749  0.475267  1
  Ir  Ir32  1  0.250000  0.917598  0.999147  1
  Ir  Ir33  1  0.750000  0.080210  0.000419  1
  Ir  Ir34  1  0.250000  0.720741  0.402419  1
  Ir  Ir35  1  0.750000  0.278731  0.597843  1
  Ir  Ir36  1  0.250000  0.345247  0.857611  1
  Ir  Ir37  1  0.750000  0.654133  0.141884  1
