# generated using pymatgen
data_Sc15PaCd4(CoNi)2
_symmetry_space_group_name_H-M   'P 1'
_cell_length_a   8.92226517
_cell_length_b   8.98453913
_cell_length_c   8.94194998
_cell_angle_alpha   60.05133933
_cell_angle_beta   60.14833222
_cell_angle_gamma   60.29580899
_symmetry_Int_Tables_number   1
_chemical_formula_structural   Sc15PaCd4(CoNi)2
_chemical_formula_sum   'Sc15 Pa1 Cd4 Co2 Ni2'
_cell_volume   508.75149884
_cell_formula_units_Z   1
loop_
 _symmetry_equiv_pos_site_id
 _symmetry_equiv_pos_as_xyz
  1  'x, y, z'
loop_
 _atom_site_type_symbol
 _atom_site_label
 _atom_site_symmetry_multiplicity
 _atom_site_fract_x
 _atom_site_fract_y
 _atom_site_fract_z
 _atom_site_occupancy
  Sc  Sc0  1  0.691514  0.314155  0.682051  1
  Sc  Sc1  1  0.686421  0.314062  0.313276  1
  Sc  Sc2  1  0.934011  0.564231  0.567253  1
  Sc  Sc3  1  0.551699  0.149360  0.150203  1
  Sc  Sc4  1  0.149769  0.151223  0.548542  1
  Sc  Sc5  1  0.936158  0.937240  0.563864  1
  Sc  Sc6  1  0.312375  0.689085  0.313122  1
  Sc  Sc7  1  0.563307  0.939599  0.933568  1
  Sc  Sc8  1  0.562167  0.937553  0.563478  1
  Sc  Sc9  1  0.685465  0.689256  0.312644  1
  Sc  Sc10  1  0.562506  0.563090  0.939904  1
  Sc  Sc11  1  0.934423  0.563175  0.939984  1
  Sc  Sc12  1  0.311895  0.687400  0.688663  1
  Sc  Sc13  1  0.148781  0.149379  0.151016  1
  Sc  Sc14  1  0.312091  0.313875  0.682524  1
  Pa  Pa15  1  0.156122  0.518263  0.169919  1
  Cd  Cd16  1  0.918044  0.247140  0.917250  1
  Cd  Cd17  1  0.916665  0.915190  0.917184  1
  Cd  Cd18  1  0.915619  0.916335  0.252647  1
  Cd  Cd19  1  0.251001  0.915017  0.917419  1
  Co  Co20  1  0.930740  0.369603  0.346325  1
  Co  Co21  1  0.353740  0.368616  0.346606  1
  Ni  Ni22  1  0.359946  0.357189  0.923499  1
  Ni  Ni23  1  0.355541  0.929963  0.359053  1
