# generated using pymatgen
data_Y2Ga9OsPd2
_symmetry_space_group_name_H-M   'P 1'
_cell_length_a   7.62858673
_cell_length_b   7.62858512
_cell_length_c   9.54985600
_cell_angle_alpha   90.00000000
_cell_angle_beta   90.00000000
_cell_angle_gamma   119.61417130
_symmetry_Int_Tables_number   1
_chemical_formula_structural   Y2Ga9OsPd2
_chemical_formula_sum   'Y4 Ga18 Os2 Pd4'
_cell_volume   483.15994463
_cell_formula_units_Z   2
loop_
 _symmetry_equiv_pos_site_id
 _symmetry_equiv_pos_as_xyz
  1  'x, y, z'
loop_
 _atom_site_type_symbol
 _atom_site_label
 _atom_site_symmetry_multiplicity
 _atom_site_fract_x
 _atom_site_fract_y
 _atom_site_fract_z
 _atom_site_occupancy
  Y  Y0  1  0.996383  0.670911  0.250000  1
  Y  Y1  1  0.003617  0.329089  0.750000  1
  Y  Y2  1  0.670911  0.996383  0.250000  1
  Y  Y3  1  0.329089  0.003617  0.750000  1
  Ga  Ga4  1  0.126632  0.126632  0.250000  1
  Ga  Ga5  1  0.873368  0.873368  0.750000  1
  Ga  Ga6  1  0.999253  0.332044  0.081492  1
  Ga  Ga7  1  0.000747  0.667956  0.918508  1
  Ga  Ga8  1  0.000747  0.667956  0.581492  1
  Ga  Ga9  1  0.332044  0.999253  0.418508  1
  Ga  Ga10  1  0.999253  0.332044  0.418508  1
  Ga  Ga11  1  0.667956  0.000747  0.581492  1
  Ga  Ga12  1  0.667956  0.000747  0.918508  1
  Ga  Ga13  1  0.332044  0.999253  0.081492  1
  Ga  Ga14  1  0.327963  0.327963  0.563833  1
  Ga  Ga15  1  0.672037  0.672038  0.436167  1
  Ga  Ga16  1  0.672037  0.672038  0.063833  1
  Ga  Ga17  1  0.327963  0.327963  0.936167  1
  Ga  Ga18  1  0.343674  0.547986  0.250000  1
  Ga  Ga19  1  0.656326  0.452014  0.750000  1
  Ga  Ga20  1  0.547986  0.343674  0.250000  1
  Ga  Ga21  1  0.452014  0.656326  0.750000  1
  Os  Os22  1  0.000000  0.000000  0.000000  1
  Os  Os23  1  0.000000  0.000000  0.500000  1
  Pd  Pd24  1  0.671065  0.328935  0.000000  1
  Pd  Pd25  1  0.328935  0.671065  0.000000  1
  Pd  Pd26  1  0.328935  0.671065  0.500000  1
  Pd  Pd27  1  0.671065  0.328935  0.500000  1
