# generated using pymatgen
data_Sr4ZrTa2FeO12
_symmetry_space_group_name_H-M   'P 1'
_cell_length_a   5.78909200
_cell_length_b   9.95015635
_cell_length_c   9.98726111
_cell_angle_alpha   71.35172540
_cell_angle_beta   90.00000000
_cell_angle_gamma   90.00000000
_symmetry_Int_Tables_number   1
_chemical_formula_structural   Sr4ZrTa2FeO12
_chemical_formula_sum   'Sr8 Zr2 Ta4 Fe2 O24'
_cell_volume   545.08681126
_cell_formula_units_Z   2
loop_
 _symmetry_equiv_pos_site_id
 _symmetry_equiv_pos_as_xyz
  1  'x, y, z'
loop_
 _atom_site_type_symbol
 _atom_site_label
 _atom_site_symmetry_multiplicity
 _atom_site_fract_x
 _atom_site_fract_y
 _atom_site_fract_z
 _atom_site_occupancy
  Sr  Sr0  1  0.470603  0.115635  0.628054  1
  Sr  Sr1  1  0.483427  0.630989  0.126998  1
  Sr  Sr2  1  0.970603  0.884365  0.871946  1
  Sr  Sr3  1  0.983427  0.369011  0.373002  1
  Sr  Sr4  1  0.029397  0.115635  0.128054  1
  Sr  Sr5  1  0.016573  0.630989  0.626998  1
  Sr  Sr6  1  0.529397  0.884365  0.371946  1
  Sr  Sr7  1  0.516573  0.369011  0.873002  1
  Zr  Zr8  1  0.000000  0.500000  0.000000  1
  Zr  Zr9  1  0.500000  0.500000  0.500000  1
  Ta  Ta10  1  0.003694  0.756779  0.250343  1
  Ta  Ta11  1  0.996306  0.243221  0.749657  1
  Ta  Ta12  1  0.503694  0.243221  0.249657  1
  Ta  Ta13  1  0.496306  0.756779  0.750343  1
  Fe  Fe14  1  0.000000  0.000000  0.500000  1
  Fe  Fe15  1  0.500000  0.000000  0.000000  1
  O  O16  1  0.488354  0.662074  0.594402  1
  O  O17  1  0.487966  0.161607  0.095095  1
  O  O18  1  0.987966  0.838393  0.404905  1
  O  O19  1  0.988354  0.337926  0.905598  1
  O  O20  1  0.511646  0.337926  0.405598  1
  O  O21  1  0.512034  0.838393  0.904905  1
  O  O22  1  0.012034  0.161607  0.595095  1
  O  O23  1  0.011646  0.662074  0.094402  1
  O  O24  1  0.229156  0.870425  0.666156  1
  O  O25  1  0.232540  0.379495  0.156649  1
  O  O26  1  0.729156  0.129575  0.833844  1
  O  O27  1  0.732540  0.620505  0.343351  1
  O  O28  1  0.770844  0.129575  0.333844  1
  O  O29  1  0.767460  0.620505  0.843351  1
  O  O30  1  0.270844  0.870425  0.166156  1
  O  O31  1  0.267460  0.379495  0.656649  1
  O  O32  1  0.785644  0.896121  0.137290  1
  O  O33  1  0.781834  0.405191  0.632777  1
  O  O34  1  0.285644  0.103879  0.362710  1
  O  O35  1  0.281834  0.594809  0.867223  1
  O  O36  1  0.214356  0.103879  0.862710  1
  O  O37  1  0.218166  0.594809  0.367223  1
  O  O38  1  0.714356  0.896121  0.637290  1
  O  O39  1  0.718166  0.405191  0.132777  1
