# generated using pymatgen
data_Tb4Y12Tl2Cd2OsPt3
_symmetry_space_group_name_H-M   'P 1'
_cell_length_a   9.72640710
_cell_length_b   9.72640764
_cell_length_c   9.72640800
_cell_angle_alpha   59.72978594
_cell_angle_beta   59.72979093
_cell_angle_gamma   59.72978810
_symmetry_Int_Tables_number   1
_chemical_formula_structural   Tb4Y12Tl2Cd2OsPt3
_chemical_formula_sum   'Tb4 Y12 Tl2 Cd2 Os1 Pt3'
_cell_volume   646.64965215
_cell_formula_units_Z   1
loop_
 _symmetry_equiv_pos_site_id
 _symmetry_equiv_pos_as_xyz
  1  'x, y, z'
loop_
 _atom_site_type_symbol
 _atom_site_label
 _atom_site_symmetry_multiplicity
 _atom_site_fract_x
 _atom_site_fract_y
 _atom_site_fract_z
 _atom_site_occupancy
  Tb  Tb0  1  0.351099  0.351099  0.352313  1
  Tb  Tb1  1  0.351729  0.351729  0.944794  1
  Tb  Tb2  1  0.352523  0.943284  0.352514  1
  Tb  Tb3  1  0.943284  0.352523  0.352514  1
  Y  Y4  1  0.816314  0.188500  0.188248  1
  Y  Y5  1  0.187214  0.810182  0.810503  1
  Y  Y6  1  0.188500  0.816314  0.188248  1
  Y  Y7  1  0.810182  0.187214  0.810503  1
  Y  Y8  1  0.187424  0.187424  0.817206  1
  Y  Y9  1  0.808978  0.808978  0.188649  1
  Y  Y10  1  0.938741  0.565023  0.563202  1
  Y  Y11  1  0.557416  0.941625  0.936839  1
  Y  Y12  1  0.565023  0.938741  0.563202  1
  Y  Y13  1  0.941625  0.557416  0.936839  1
  Y  Y14  1  0.563371  0.563371  0.936312  1
  Y  Y15  1  0.939692  0.939692  0.556898  1
  Tl  Tl16  1  0.584330  0.584330  0.588234  1
  Tl  Tl17  1  0.582194  0.582194  0.244627  1
  Cd  Cd18  1  0.579365  0.250607  0.582416  1
  Cd  Cd19  1  0.250607  0.579365  0.582416  1
  Os  Os20  1  0.144416  0.144416  0.145375  1
  Pt  Pt21  1  0.142669  0.142669  0.571025  1
  Pt  Pt22  1  0.142606  0.570700  0.143563  1
  Pt  Pt23  1  0.570700  0.142606  0.143563  1
