# generated using pymatgen
data_BeFe4P
_symmetry_space_group_name_H-M   'P 1'
_cell_length_a   4.38045076
_cell_length_b   4.38045172
_cell_length_c   4.38045153
_cell_angle_alpha   105.05741549
_cell_angle_beta   105.05742285
_cell_angle_gamma   118.71323286
_symmetry_Int_Tables_number   1
_chemical_formula_structural   BeFe4P
_chemical_formula_sum   'Be1 Fe4 P1'
_cell_volume   63.42376354
_cell_formula_units_Z   1
loop_
 _symmetry_equiv_pos_site_id
 _symmetry_equiv_pos_as_xyz
  1  'x, y, z'
loop_
 _atom_site_type_symbol
 _atom_site_label
 _atom_site_symmetry_multiplicity
 _atom_site_fract_x
 _atom_site_fract_y
 _atom_site_fract_z
 _atom_site_occupancy
  Be  Be0  1  0.750000  0.750000  0.000000  1
  Fe  Fe1  1  0.160175  0.660175  0.820349  1
  Fe  Fe2  1  0.339825  0.160175  0.500000  1
  Fe  Fe3  1  0.660175  0.839825  0.500000  1
  Fe  Fe4  1  0.839825  0.339825  0.179651  1
  P  P5  1  0.250000  0.250000  0.000000  1
