# generated using pymatgen
data_Tb2AlCdPd2
_symmetry_space_group_name_H-M   'P 1'
_cell_length_a   4.41020800
_cell_length_b   7.00949219
_cell_length_c   8.21119283
_cell_angle_alpha   88.66158117
_cell_angle_beta   90.00000000
_cell_angle_gamma   90.00000000
_symmetry_Int_Tables_number   1
_chemical_formula_structural   Tb2AlCdPd2
_chemical_formula_sum   'Tb4 Al2 Cd2 Pd4'
_cell_volume   253.76596608
_cell_formula_units_Z   2
loop_
 _symmetry_equiv_pos_site_id
 _symmetry_equiv_pos_as_xyz
  1  'x, y, z'
loop_
 _atom_site_type_symbol
 _atom_site_label
 _atom_site_symmetry_multiplicity
 _atom_site_fract_x
 _atom_site_fract_y
 _atom_site_fract_z
 _atom_site_occupancy
  Tb  Tb0  1  0.250000  0.537580  0.822591  1
  Tb  Tb1  1  0.750000  0.462420  0.177409  1
  Tb  Tb2  1  0.250000  0.037144  0.687445  1
  Tb  Tb3  1  0.750000  0.962856  0.312555  1
  Al  Al4  1  0.250000  0.141481  0.057664  1
  Al  Al5  1  0.750000  0.858519  0.942336  1
  Cd  Cd6  1  0.250000  0.643572  0.435744  1
  Cd  Cd7  1  0.750000  0.356428  0.564256  1
  Pd  Pd8  1  0.750000  0.758565  0.639583  1
  Pd  Pd9  1  0.250000  0.241435  0.360417  1
  Pd  Pd10  1  0.750000  0.227643  0.898311  1
  Pd  Pd11  1  0.250000  0.772357  0.101689  1
