# generated using pymatgen
data_SnRh2Se5
_symmetry_space_group_name_H-M   'P 1'
_cell_length_a   3.80318300
_cell_length_b   7.76437614
_cell_length_c   12.83181507
_cell_angle_alpha   78.08934574
_cell_angle_beta   90.00000000
_cell_angle_gamma   90.00000000
_symmetry_Int_Tables_number   1
_chemical_formula_structural   SnRh2Se5
_chemical_formula_sum   'Sn2 Rh4 Se10'
_cell_volume   370.75726772
_cell_formula_units_Z   2
loop_
 _symmetry_equiv_pos_site_id
 _symmetry_equiv_pos_as_xyz
  1  'x, y, z'
loop_
 _atom_site_type_symbol
 _atom_site_label
 _atom_site_symmetry_multiplicity
 _atom_site_fract_x
 _atom_site_fract_y
 _atom_site_fract_z
 _atom_site_occupancy
  Sn  Sn0  1  0.500000  0.164079  0.663465  1
  Sn  Sn1  1  0.500000  0.835921  0.336535  1
  Rh  Rh2  1  0.000000  0.256876  0.151554  1
  Rh  Rh3  1  0.000000  0.743124  0.848446  1
  Rh  Rh4  1  0.500000  0.749176  0.147533  1
  Rh  Rh5  1  0.500000  0.250824  0.852467  1
  Se  Se6  1  0.000000  0.957519  0.103888  1
  Se  Se7  1  0.000000  0.042481  0.896112  1
  Se  Se8  1  0.000000  0.460057  0.778625  1
  Se  Se9  1  0.000000  0.539943  0.221375  1
  Se  Se10  1  0.500000  0.663352  0.972916  1
  Se  Se11  1  0.500000  0.336648  0.027084  1
  Se  Se12  1  0.500000  0.190288  0.284230  1
  Se  Se13  1  0.500000  0.809712  0.715770  1
  Se  Se14  1  0.000000  0.247496  0.529111  1
  Se  Se15  1  0.000000  0.752504  0.470889  1
