# generated using pymatgen
data_Tb8Pd24Pb
_symmetry_space_group_name_H-M   'P 1'
_cell_length_a   8.44367300
_cell_length_b   8.44367300
_cell_length_c   8.44367300
_cell_angle_alpha   90.00000000
_cell_angle_beta   90.00000000
_cell_angle_gamma   90.00000000
_symmetry_Int_Tables_number   1
_chemical_formula_structural   Tb8Pd24Pb
_chemical_formula_sum   'Tb8 Pd24 Pb1'
_cell_volume   601.99684868
_cell_formula_units_Z   1
loop_
 _symmetry_equiv_pos_site_id
 _symmetry_equiv_pos_as_xyz
  1  'x, y, z'
loop_
 _atom_site_type_symbol
 _atom_site_label
 _atom_site_symmetry_multiplicity
 _atom_site_fract_x
 _atom_site_fract_y
 _atom_site_fract_z
 _atom_site_occupancy
  Tb  Tb0  1  0.252325  0.252325  0.252325  1
  Tb  Tb1  1  0.747675  0.747675  0.747675  1
  Tb  Tb2  1  0.747675  0.747675  0.252325  1
  Tb  Tb3  1  0.747675  0.252325  0.747675  1
  Tb  Tb4  1  0.252325  0.252325  0.747675  1
  Tb  Tb5  1  0.252325  0.747675  0.252325  1
  Tb  Tb6  1  0.252325  0.747675  0.747675  1
  Tb  Tb7  1  0.747675  0.252325  0.252325  1
  Pd  Pd8  1  0.267786  0.500000  0.000000  1
  Pd  Pd9  1  0.732214  0.500000  0.000000  1
  Pd  Pd10  1  0.000000  0.267786  0.500000  1
  Pd  Pd11  1  0.500000  0.267786  0.000000  1
  Pd  Pd12  1  0.000000  0.732214  0.500000  1
  Pd  Pd13  1  0.500000  0.732214  0.000000  1
  Pd  Pd14  1  0.500000  0.000000  0.267786  1
  Pd  Pd15  1  0.267786  0.000000  0.500000  1
  Pd  Pd16  1  0.500000  0.000000  0.732214  1
  Pd  Pd17  1  0.732214  0.000000  0.500000  1
  Pd  Pd18  1  0.000000  0.500000  0.267786  1
  Pd  Pd19  1  0.000000  0.500000  0.732214  1
  Pd  Pd20  1  0.255670  0.500000  0.500000  1
  Pd  Pd21  1  0.744330  0.500000  0.500000  1
  Pd  Pd22  1  0.500000  0.255670  0.500000  1
  Pd  Pd23  1  0.500000  0.744330  0.500000  1
  Pd  Pd24  1  0.500000  0.500000  0.255670  1
  Pd  Pd25  1  0.500000  0.500000  0.744330  1
  Pd  Pd26  1  0.316723  0.000000  0.000000  1
  Pd  Pd27  1  0.683277  0.000000  0.000000  1
  Pd  Pd28  1  0.000000  0.316723  0.000000  1
  Pd  Pd29  1  0.000000  0.683277  0.000000  1
  Pd  Pd30  1  0.000000  0.000000  0.316723  1
  Pd  Pd31  1  0.000000  0.000000  0.683277  1
  Pb  Pb32  1  0.000000  0.000000  0.000000  1
