# generated using pymatgen
data_YbNb8GeSe16
_symmetry_space_group_name_H-M   'P 1'
_cell_length_a   7.02519400
_cell_length_b   7.02519582
_cell_length_c   14.50951800
_cell_angle_alpha   90.00000000
_cell_angle_beta   90.00000000
_cell_angle_gamma   120.00000083
_symmetry_Int_Tables_number   1
_chemical_formula_structural   YbNb8GeSe16
_chemical_formula_sum   'Yb1 Nb8 Ge1 Se16'
_cell_volume   620.15517193
_cell_formula_units_Z   1
loop_
 _symmetry_equiv_pos_site_id
 _symmetry_equiv_pos_as_xyz
  1  'x, y, z'
loop_
 _atom_site_type_symbol
 _atom_site_label
 _atom_site_symmetry_multiplicity
 _atom_site_fract_x
 _atom_site_fract_y
 _atom_site_fract_z
 _atom_site_occupancy
  Yb  Yb0  1  0.000000  0.000000  0.500000  1
  Nb  Nb1  1  0.000000  0.000000  0.246416  1
  Nb  Nb2  1  0.000000  0.000000  0.753584  1
  Nb  Nb3  1  0.507119  0.014237  0.244881  1
  Nb  Nb4  1  0.492881  0.985763  0.755119  1
  Nb  Nb5  1  0.985763  0.492881  0.244881  1
  Nb  Nb6  1  0.014237  0.507119  0.755119  1
  Nb  Nb7  1  0.507119  0.492881  0.244881  1
  Nb  Nb8  1  0.492881  0.507119  0.755119  1
  Ge  Ge9  1  0.000000  0.000000  0.000000  1
  Se  Se10  1  0.333333  0.666667  0.635730  1
  Se  Se11  1  0.666667  0.333333  0.364270  1
  Se  Se12  1  0.666667  0.333333  0.126967  1
  Se  Se13  1  0.333333  0.666667  0.873033  1
  Se  Se14  1  0.167946  0.335892  0.131701  1
  Se  Se15  1  0.832054  0.664108  0.868299  1
  Se  Se16  1  0.664108  0.832054  0.131701  1
  Se  Se17  1  0.830914  0.661828  0.640709  1
  Se  Se18  1  0.335892  0.167946  0.868299  1
  Se  Se19  1  0.169086  0.338172  0.359291  1
  Se  Se20  1  0.167946  0.832054  0.131701  1
  Se  Se21  1  0.338172  0.169086  0.640709  1
  Se  Se22  1  0.832054  0.167946  0.868299  1
  Se  Se23  1  0.661828  0.830914  0.359291  1
  Se  Se24  1  0.830914  0.169086  0.640709  1
  Se  Se25  1  0.169086  0.830914  0.359291  1
