# generated using pymatgen
data_Hf3Zr3(Ti2Sn3)2
_symmetry_space_group_name_H-M   'P 1'
_cell_length_a   8.32487100
_cell_length_b   8.32487095
_cell_length_c   5.57046400
_cell_angle_alpha   90.00000000
_cell_angle_beta   90.00000000
_cell_angle_gamma   119.99999623
_symmetry_Int_Tables_number   1
_chemical_formula_structural   Hf3Zr3(Ti2Sn3)2
_chemical_formula_sum   'Hf3 Zr3 Ti4 Sn6'
_cell_volume   334.33130423
_cell_formula_units_Z   1
loop_
 _symmetry_equiv_pos_site_id
 _symmetry_equiv_pos_as_xyz
  1  'x, y, z'
loop_
 _atom_site_type_symbol
 _atom_site_label
 _atom_site_symmetry_multiplicity
 _atom_site_fract_x
 _atom_site_fract_y
 _atom_site_fract_z
 _atom_site_occupancy
  Hf  Hf0  1  0.239406  0.239406  0.250000  1
  Hf  Hf1  1  0.760594  0.000000  0.250000  1
  Hf  Hf2  1  0.000000  0.760594  0.250000  1
  Zr  Zr3  1  0.760060  0.760060  0.750000  1
  Zr  Zr4  1  0.239940  0.000000  0.750000  1
  Zr  Zr5  1  0.000000  0.239940  0.750000  1
  Ti  Ti6  1  0.666667  0.333333  0.000294  1
  Ti  Ti7  1  0.333333  0.666667  0.000294  1
  Ti  Ti8  1  0.333333  0.666667  0.499706  1
  Ti  Ti9  1  0.666667  0.333333  0.499706  1
  Sn  Sn10  1  0.400496  0.400496  0.750000  1
  Sn  Sn11  1  0.599504  0.000000  0.750000  1
  Sn  Sn12  1  0.000000  0.599504  0.750000  1
  Sn  Sn13  1  0.599578  0.599578  0.250000  1
  Sn  Sn14  1  0.400422  0.000000  0.250000  1
  Sn  Sn15  1  0.000000  0.400422  0.250000  1
