# generated using pymatgen
data_Nd2CoNi3(SbAs)2
_symmetry_space_group_name_H-M   'P 1'
_cell_length_a   4.33236100
_cell_length_b   4.33236100
_cell_length_c   9.81238000
_cell_angle_alpha   90.00000000
_cell_angle_beta   90.00000000
_cell_angle_gamma   90.00000000
_symmetry_Int_Tables_number   1
_chemical_formula_structural   Nd2CoNi3(SbAs)2
_chemical_formula_sum   'Nd2 Co1 Ni3 Sb2 As2'
_cell_volume   184.17201255
_cell_formula_units_Z   1
loop_
 _symmetry_equiv_pos_site_id
 _symmetry_equiv_pos_as_xyz
  1  'x, y, z'
loop_
 _atom_site_type_symbol
 _atom_site_label
 _atom_site_symmetry_multiplicity
 _atom_site_fract_x
 _atom_site_fract_y
 _atom_site_fract_z
 _atom_site_occupancy
  Nd  Nd0  1  0.500000  0.000000  0.734594  1
  Nd  Nd1  1  0.000000  0.500000  0.262294  1
  Co  Co2  1  0.500000  0.000000  0.398779  1
  Ni  Ni3  1  0.500000  0.500000  0.999954  1
  Ni  Ni4  1  0.000000  0.000000  0.999954  1
  Ni  Ni5  1  0.000000  0.500000  0.604773  1
  Sb  Sb6  1  0.500000  0.000000  0.140414  1
  Sb  Sb7  1  0.000000  0.500000  0.862978  1
  As  As8  1  0.500000  0.500000  0.498130  1
  As  As9  1  0.000000  0.000000  0.498130  1
