# generated using pymatgen
data_Tb5Ho7Ru4
_symmetry_space_group_name_H-M   'P 1'
_cell_length_a   6.32571129
_cell_length_b   7.29953296
_cell_length_c   9.19054899
_cell_angle_alpha   89.98979163
_cell_angle_beta   90.11560810
_cell_angle_gamma   90.05241145
_symmetry_Int_Tables_number   1
_chemical_formula_structural   Tb5Ho7Ru4
_chemical_formula_sum   'Tb5 Ho7 Ru4'
_cell_volume   424.37014401
_cell_formula_units_Z   1
loop_
 _symmetry_equiv_pos_site_id
 _symmetry_equiv_pos_as_xyz
  1  'x, y, z'
loop_
 _atom_site_type_symbol
 _atom_site_label
 _atom_site_symmetry_multiplicity
 _atom_site_fract_x
 _atom_site_fract_y
 _atom_site_fract_z
 _atom_site_occupancy
  Tb  Tb0  1  0.329660  0.677234  0.064939  1
  Tb  Tb1  1  0.865292  0.540166  0.250428  1
  Tb  Tb2  1  0.634792  0.040744  0.250222  1
  Tb  Tb3  1  0.134173  0.459228  0.749650  1
  Tb  Tb4  1  0.365743  0.959620  0.749727  1
  Ho  Ho5  1  0.170080  0.176975  0.434823  1
  Ho  Ho6  1  0.670211  0.323228  0.565269  1
  Ho  Ho7  1  0.829865  0.823254  0.934459  1
  Ho  Ho8  1  0.670449  0.322827  0.934460  1
  Ho  Ho9  1  0.829932  0.823173  0.565251  1
  Ho  Ho10  1  0.329886  0.676665  0.435308  1
  Ho  Ho11  1  0.169787  0.176806  0.065278  1
  Ru  Ru12  1  0.040268  0.886133  0.250353  1
  Ru  Ru13  1  0.459390  0.385409  0.250320  1
  Ru  Ru14  1  0.959315  0.114373  0.750116  1
  Ru  Ru15  1  0.541156  0.614163  0.749399  1
