# generated using pymatgen
data_YbPr2(YGe2)2
_symmetry_space_group_name_H-M   'P 1'
_cell_length_a   7.59629600
_cell_length_b   7.96653200
_cell_length_c   15.06745900
_cell_angle_alpha   90.00000000
_cell_angle_beta   90.00000000
_cell_angle_gamma   90.00000000
_symmetry_Int_Tables_number   1
_chemical_formula_structural   YbPr2(YGe2)2
_chemical_formula_sum   'Yb4 Pr8 Y8 Ge16'
_cell_volume   911.82438544
_cell_formula_units_Z   4
loop_
 _symmetry_equiv_pos_site_id
 _symmetry_equiv_pos_as_xyz
  1  'x, y, z'
loop_
 _atom_site_type_symbol
 _atom_site_label
 _atom_site_symmetry_multiplicity
 _atom_site_fract_x
 _atom_site_fract_y
 _atom_site_fract_z
 _atom_site_occupancy
  Yb  Yb0  1  0.344933  0.012099  0.750000  1
  Yb  Yb1  1  0.844933  0.487901  0.750000  1
  Yb  Yb2  1  0.155067  0.512099  0.250000  1
  Yb  Yb3  1  0.655067  0.987901  0.250000  1
  Pr  Pr4  1  0.976996  0.818292  0.401930  1
  Pr  Pr5  1  0.476996  0.681708  0.098070  1
  Pr  Pr6  1  0.523004  0.318292  0.598070  1
  Pr  Pr7  1  0.023004  0.181708  0.901930  1
  Pr  Pr8  1  0.023004  0.181708  0.598070  1
  Pr  Pr9  1  0.523004  0.318292  0.901930  1
  Pr  Pr10  1  0.476996  0.681708  0.401930  1
  Pr  Pr11  1  0.976996  0.818292  0.098070  1
  Y  Y12  1  0.321197  0.176872  0.123007  1
  Y  Y13  1  0.821197  0.323128  0.376993  1
  Y  Y14  1  0.178803  0.676872  0.876993  1
  Y  Y15  1  0.678803  0.823128  0.623007  1
  Y  Y16  1  0.321197  0.176872  0.376993  1
  Y  Y17  1  0.821197  0.323128  0.123007  1
  Y  Y18  1  0.178803  0.676872  0.623007  1
  Y  Y19  1  0.678803  0.823128  0.876993  1
  Ge  Ge20  1  0.842190  0.534032  0.538042  1
  Ge  Ge21  1  0.342190  0.965968  0.961958  1
  Ge  Ge22  1  0.657810  0.034032  0.461958  1
  Ge  Ge23  1  0.157810  0.465968  0.038042  1
  Ge  Ge24  1  0.157810  0.465968  0.461958  1
  Ge  Ge25  1  0.657810  0.034032  0.038042  1
  Ge  Ge26  1  0.342190  0.965968  0.538042  1
  Ge  Ge27  1  0.842190  0.534032  0.961958  1
  Ge  Ge28  1  0.975787  0.883705  0.750000  1
  Ge  Ge29  1  0.475787  0.616295  0.750000  1
  Ge  Ge30  1  0.524213  0.383705  0.250000  1
  Ge  Ge31  1  0.024213  0.116295  0.250000  1
  Ge  Ge32  1  0.227325  0.379575  0.750000  1
  Ge  Ge33  1  0.727325  0.120425  0.750000  1
  Ge  Ge34  1  0.272675  0.879575  0.250000  1
  Ge  Ge35  1  0.772675  0.620425  0.250000  1
