# generated using pymatgen
data_Tm4Lu8InFe3Pb
_symmetry_space_group_name_H-M   'P 1'
_cell_length_a   8.22670746
_cell_length_b   8.22665530
_cell_length_c   8.22670649
_cell_angle_alpha   108.44846519
_cell_angle_beta   108.64019206
_cell_angle_gamma   111.34166343
_symmetry_Int_Tables_number   1
_chemical_formula_structural   Tm4Lu8InFe3Pb
_chemical_formula_sum   'Tm4 Lu8 In1 Fe3 Pb1'
_cell_volume   428.25495765
_cell_formula_units_Z   1
loop_
 _symmetry_equiv_pos_site_id
 _symmetry_equiv_pos_as_xyz
  1  'x, y, z'
loop_
 _atom_site_type_symbol
 _atom_site_label
 _atom_site_symmetry_multiplicity
 _atom_site_fract_x
 _atom_site_fract_y
 _atom_site_fract_z
 _atom_site_occupancy
  Tm  Tm0  1  0.305655  0.309394  0.615050  1
  Tm  Tm1  1  0.694345  0.690606  0.384950  1
  Tm  Tm2  1  0.694344  0.309394  0.003740  1
  Tm  Tm3  1  0.305656  0.690606  0.996260  1
  Lu  Lu4  1  0.189798  0.425036  0.235240  1
  Lu  Lu5  1  0.810202  0.574964  0.764760  1
  Lu  Lu6  1  0.189802  0.954571  0.764768  1
  Lu  Lu7  1  0.959132  0.192401  0.766735  1
  Lu  Lu8  1  0.810198  0.045429  0.235232  1
  Lu  Lu9  1  0.040868  0.807599  0.233265  1
  Lu  Lu10  1  0.425666  0.192401  0.233270  1
  Lu  Lu11  1  0.574334  0.807599  0.766730  1
  In  In12  1  0.000000  0.500000  0.500000  1
  Fe  Fe13  1  0.384069  0.384070  0.000002  1
  Fe  Fe14  1  0.615931  0.615930  0.999998  1
  Fe  Fe15  1  0.000000  0.000000  0.000000  1
  Pb  Pb16  1  0.500000  0.000000  0.500000  1
