# generated using pymatgen
data_TbSmGa9PdRh2
_symmetry_space_group_name_H-M   'P 1'
_cell_length_a   7.64119997
_cell_length_b   7.64320732
_cell_length_c   9.55971400
_cell_angle_alpha   90.00000000
_cell_angle_beta   90.00000000
_cell_angle_gamma   119.79217105
_symmetry_Int_Tables_number   1
_chemical_formula_structural   TbSmGa9PdRh2
_chemical_formula_sum   'Tb2 Sm2 Ga18 Pd2 Rh4'
_cell_volume   484.52751190
_cell_formula_units_Z   2
loop_
 _symmetry_equiv_pos_site_id
 _symmetry_equiv_pos_as_xyz
  1  'x, y, z'
loop_
 _atom_site_type_symbol
 _atom_site_label
 _atom_site_symmetry_multiplicity
 _atom_site_fract_x
 _atom_site_fract_y
 _atom_site_fract_z
 _atom_site_occupancy
  Tb  Tb0  1  0.669923  0.996601  0.250000  1
  Tb  Tb1  1  0.330077  0.003399  0.750000  1
  Sm  Sm2  1  0.996614  0.670125  0.250000  1
  Sm  Sm3  1  0.003386  0.329875  0.750000  1
  Ga  Ga4  1  0.130411  0.130853  0.250000  1
  Ga  Ga5  1  0.869589  0.869147  0.750000  1
  Ga  Ga6  1  0.999539  0.336741  0.080014  1
  Ga  Ga7  1  0.000461  0.663259  0.919986  1
  Ga  Ga8  1  0.000461  0.663259  0.580014  1
  Ga  Ga9  1  0.338637  0.000424  0.420672  1
  Ga  Ga10  1  0.999539  0.336741  0.419986  1
  Ga  Ga11  1  0.661363  0.999576  0.579328  1
  Ga  Ga12  1  0.661363  0.999576  0.920672  1
  Ga  Ga13  1  0.338637  0.000424  0.079328  1
  Ga  Ga14  1  0.337477  0.336655  0.565297  1
  Ga  Ga15  1  0.662523  0.663345  0.434703  1
  Ga  Ga16  1  0.662523  0.663345  0.065297  1
  Ga  Ga17  1  0.337477  0.336655  0.934703  1
  Ga  Ga18  1  0.337298  0.546664  0.250000  1
  Ga  Ga19  1  0.662702  0.453336  0.750000  1
  Ga  Ga20  1  0.545732  0.335917  0.250000  1
  Ga  Ga21  1  0.454268  0.664083  0.750000  1
  Pd  Pd22  1  0.000000  0.000000  0.000000  1
  Pd  Pd23  1  0.000000  0.000000  0.500000  1
  Rh  Rh24  1  0.671045  0.328770  0.000001  1
  Rh  Rh25  1  0.328955  0.671230  0.999999  1
  Rh  Rh26  1  0.328955  0.671230  0.500001  1
  Rh  Rh27  1  0.671045  0.328770  0.499999  1
