# generated using pymatgen
data_Tb2Er6Be3Si12Pd
_symmetry_space_group_name_H-M   'P 1'
_cell_length_a   7.92675500
_cell_length_b   7.92675508
_cell_length_c   8.00156000
_cell_angle_alpha   90.00000000
_cell_angle_beta   90.00000000
_cell_angle_gamma   120.00000385
_symmetry_Int_Tables_number   1
_chemical_formula_structural   Tb2Er6Be3Si12Pd
_chemical_formula_sum   'Tb2 Er6 Be3 Si12 Pd1'
_cell_volume   435.40775074
_cell_formula_units_Z   1
loop_
 _symmetry_equiv_pos_site_id
 _symmetry_equiv_pos_as_xyz
  1  'x, y, z'
loop_
 _atom_site_type_symbol
 _atom_site_label
 _atom_site_symmetry_multiplicity
 _atom_site_fract_x
 _atom_site_fract_y
 _atom_site_fract_z
 _atom_site_occupancy
  Tb  Tb0  1  0.000000  0.000000  0.248698  1
  Tb  Tb1  1  0.000000  0.000000  0.750991  1
  Er  Er2  1  0.501135  0.002270  0.247808  1
  Er  Er3  1  0.501849  0.003700  0.752224  1
  Er  Er4  1  0.997730  0.498865  0.247808  1
  Er  Er5  1  0.996300  0.498151  0.752224  1
  Er  Er6  1  0.501135  0.498865  0.247808  1
  Er  Er7  1  0.501849  0.498151  0.752224  1
  Be  Be8  1  0.333333  0.666667  0.001382  1
  Be  Be9  1  0.666667  0.333333  0.001090  1
  Be  Be10  1  0.666667  0.333333  0.497941  1
  Si  Si11  1  0.172756  0.345512  0.999381  1
  Si  Si12  1  0.826471  0.652944  0.000286  1
  Si  Si13  1  0.654488  0.827244  0.999381  1
  Si  Si14  1  0.827551  0.655102  0.500113  1
  Si  Si15  1  0.347056  0.173529  0.000286  1
  Si  Si16  1  0.166232  0.332463  0.499505  1
  Si  Si17  1  0.172756  0.827244  0.999381  1
  Si  Si18  1  0.344898  0.172449  0.500113  1
  Si  Si19  1  0.826471  0.173529  0.000286  1
  Si  Si20  1  0.667537  0.833768  0.499505  1
  Si  Si21  1  0.827551  0.172449  0.500113  1
  Si  Si22  1  0.166232  0.833768  0.499505  1
  Pd  Pd23  1  0.333333  0.666667  0.501950  1
