# generated using pymatgen
data_AcY(MgRh)2
_symmetry_space_group_name_H-M   'P 1'
_cell_length_a   4.23592900
_cell_length_b   7.30516700
_cell_length_c   8.72494400
_cell_angle_alpha   90.00000000
_cell_angle_beta   90.00000000
_cell_angle_gamma   90.00000000
_symmetry_Int_Tables_number   1
_chemical_formula_structural   AcY(MgRh)2
_chemical_formula_sum   'Ac2 Y2 Mg4 Rh4'
_cell_volume   269.98613943
_cell_formula_units_Z   2
loop_
 _symmetry_equiv_pos_site_id
 _symmetry_equiv_pos_as_xyz
  1  'x, y, z'
loop_
 _atom_site_type_symbol
 _atom_site_label
 _atom_site_symmetry_multiplicity
 _atom_site_fract_x
 _atom_site_fract_y
 _atom_site_fract_z
 _atom_site_occupancy
  Ac  Ac0  1  0.250000  0.034483  0.325084  1
  Ac  Ac1  1  0.250000  0.534483  0.174916  1
  Y  Y2  1  0.750000  0.959667  0.681505  1
  Y  Y3  1  0.750000  0.459667  0.818495  1
  Mg  Mg4  1  0.250000  0.134478  0.931700  1
  Mg  Mg5  1  0.250000  0.634478  0.568300  1
  Mg  Mg6  1  0.750000  0.868711  0.043805  1
  Mg  Mg7  1  0.750000  0.368711  0.456195  1
  Rh  Rh8  1  0.250000  0.256385  0.633060  1
  Rh  Rh9  1  0.250000  0.756385  0.866940  1
  Rh  Rh10  1  0.750000  0.746276  0.382890  1
  Rh  Rh11  1  0.750000  0.246276  0.117110  1
