# generated using pymatgen
data_FeSnSbO6
_symmetry_space_group_name_H-M   'P 1'
_cell_length_a   4.74606205
_cell_length_b   4.74603309
_cell_length_c   9.47035800
_cell_angle_alpha   89.99999993
_cell_angle_beta   89.99999409
_cell_angle_gamma   90.00259561
_symmetry_Int_Tables_number   1
_chemical_formula_structural   FeSnSbO6
_chemical_formula_sum   'Fe2 Sn2 Sb2 O12'
_cell_volume   213.31950651
_cell_formula_units_Z   2
loop_
 _symmetry_equiv_pos_site_id
 _symmetry_equiv_pos_as_xyz
  1  'x, y, z'
loop_
 _atom_site_type_symbol
 _atom_site_label
 _atom_site_symmetry_multiplicity
 _atom_site_fract_x
 _atom_site_fract_y
 _atom_site_fract_z
 _atom_site_occupancy
  Fe  Fe0  1  0.500005  0.500002  0.167149  1
  Fe  Fe1  1  0.999998  0.000000  0.667142  1
  Sn  Sn2  1  0.000000  0.000001  0.999399  1
  Sn  Sn3  1  0.500000  0.500000  0.499426  1
  Sb  Sb4  1  0.499999  0.500000  0.833198  1
  Sb  Sb5  1  0.000000  0.000000  0.333199  1
  O  O6  1  0.195289  0.804707  0.171715  1
  O  O7  1  0.804709  0.195292  0.171715  1
  O  O8  1  0.304712  0.304712  0.671746  1
  O  O9  1  0.695287  0.695288  0.671746  1
  O  O10  1  0.188823  0.811183  0.497879  1
  O  O11  1  0.811176  0.188817  0.497879  1
  O  O12  1  0.311155  0.311153  0.997924  1
  O  O13  1  0.688846  0.688847  0.997924  1
  O  O14  1  0.198446  0.801552  0.830510  1
  O  O15  1  0.801553  0.198447  0.830510  1
  O  O16  1  0.301553  0.301551  0.330469  1
  O  O17  1  0.698447  0.698448  0.330470  1
