# generated using pymatgen
data_YbSn(CN2)3
_symmetry_space_group_name_H-M   'P 1'
_cell_length_a   6.35865712
_cell_length_b   6.35865823
_cell_length_c   10.30735504
_cell_angle_alpha   89.99999955
_cell_angle_beta   107.96599793
_cell_angle_gamma   59.99999842
_symmetry_Int_Tables_number   1
_chemical_formula_structural   YbSn(CN2)3
_chemical_formula_sum   'Yb2 Sn2 C6 N12'
_cell_volume   337.24953917
_cell_formula_units_Z   2
loop_
 _symmetry_equiv_pos_site_id
 _symmetry_equiv_pos_as_xyz
  1  'x, y, z'
loop_
 _atom_site_type_symbol
 _atom_site_label
 _atom_site_symmetry_multiplicity
 _atom_site_fract_x
 _atom_site_fract_y
 _atom_site_fract_z
 _atom_site_occupancy
  Yb  Yb0  1  0.668096  0.165952  0.502143  1
  Yb  Yb1  1  0.331904  0.334048  0.997857  1
  Sn  Sn2  1  0.671573  0.664212  0.007361  1
  Sn  Sn3  1  0.328426  0.835787  0.492639  1
  C  C4  1  0.158440  0.250001  0.250000  1
  C  C5  1  0.500001  0.591558  0.250000  1
  C  C6  1  0.841559  0.908441  0.250000  1
  C  C7  1  0.229129  0.020871  0.750000  1
  C  C8  1  0.500000  0.479129  0.750000  1
  C  C9  1  0.770870  0.750001  0.750000  1
  N  N10  1  0.056329  0.355730  0.127973  1
  N  N11  1  0.483704  0.587940  0.127973  1
  N  N12  1  0.715914  0.928356  0.127973  1
  N  N13  1  0.284086  0.144270  0.372027  1
  N  N14  1  0.516296  0.571644  0.372027  1
  N  N15  1  0.943671  0.912059  0.372027  1
  N  N16  1  0.112559  0.029111  0.628212  1
  N  N17  1  0.486541  0.484348  0.628212  1
  N  N18  1  0.657324  0.858329  0.628212  1
  N  N19  1  0.342676  0.015653  0.871788  1
  N  N20  1  0.513459  0.470889  0.871788  1
  N  N21  1  0.887441  0.641670  0.871788  1
