# generated using pymatgen
data_Ho3Mg3Ga2Au
_symmetry_space_group_name_H-M   'P 1'
_cell_length_a   7.33792200
_cell_length_b   7.33792262
_cell_length_c   4.34220900
_cell_angle_alpha   90.00000000
_cell_angle_beta   90.00000000
_cell_angle_gamma   120.00000623
_symmetry_Int_Tables_number   1
_chemical_formula_structural   Ho3Mg3Ga2Au
_chemical_formula_sum   'Ho3 Mg3 Ga2 Au1'
_cell_volume   202.48252422
_cell_formula_units_Z   1
loop_
 _symmetry_equiv_pos_site_id
 _symmetry_equiv_pos_as_xyz
  1  'x, y, z'
loop_
 _atom_site_type_symbol
 _atom_site_label
 _atom_site_symmetry_multiplicity
 _atom_site_fract_x
 _atom_site_fract_y
 _atom_site_fract_z
 _atom_site_occupancy
  Ho  Ho0  1  0.580083  0.000000  0.000000  1
  Ho  Ho1  1  0.000000  0.580083  0.000000  1
  Ho  Ho2  1  0.419917  0.419917  0.000000  1
  Mg  Mg3  1  0.243590  0.000000  0.500000  1
  Mg  Mg4  1  0.000000  0.243590  0.500000  1
  Mg  Mg5  1  0.756410  0.756410  0.500000  1
  Ga  Ga6  1  0.333333  0.666667  0.500000  1
  Ga  Ga7  1  0.666667  0.333333  0.500000  1
  Au  Au8  1  0.000000  0.000000  0.000000  1
