# generated using pymatgen
data_Tb2Tm4ZrCo17P12
_symmetry_space_group_name_H-M   'P 1'
_cell_length_a   3.70249600
_cell_length_b   10.57356300
_cell_length_c   12.28117200
_cell_angle_alpha   90.00000000
_cell_angle_beta   90.00000000
_cell_angle_gamma   90.00000000
_symmetry_Int_Tables_number   1
_chemical_formula_structural   Tb2Tm4ZrCo17P12
_chemical_formula_sum   'Tb2 Tm4 Zr1 Co17 P12'
_cell_volume   480.79037961
_cell_formula_units_Z   1
loop_
 _symmetry_equiv_pos_site_id
 _symmetry_equiv_pos_as_xyz
  1  'x, y, z'
loop_
 _atom_site_type_symbol
 _atom_site_label
 _atom_site_symmetry_multiplicity
 _atom_site_fract_x
 _atom_site_fract_y
 _atom_site_fract_z
 _atom_site_occupancy
  Tb  Tb0  1  0.000000  0.500000  0.530085  1
  Tb  Tb1  1  0.500000  0.000000  0.476849  1
  Tm  Tm2  1  0.500000  0.821819  0.207321  1
  Tm  Tm3  1  0.500000  0.178181  0.207321  1
  Tm  Tm4  1  0.000000  0.682812  0.796155  1
  Tm  Tm5  1  0.000000  0.317188  0.796155  1
  Zr  Zr6  1  0.500000  0.500000  0.154108  1
  Co  Co7  1  0.000000  0.000000  0.836450  1
  Co  Co8  1  0.500000  0.500000  0.704040  1
  Co  Co9  1  0.000000  0.000000  0.294962  1
  Co  Co10  1  0.000000  0.500000  0.982989  1
  Co  Co11  1  0.500000  0.000000  0.013950  1
  Co  Co12  1  0.500000  0.326645  0.987690  1
  Co  Co13  1  0.500000  0.673355  0.987690  1
  Co  Co14  1  0.000000  0.161368  0.001451  1
  Co  Co15  1  0.000000  0.838632  0.001451  1
  Co  Co16  1  0.500000  0.293967  0.434297  1
  Co  Co17  1  0.500000  0.706033  0.434297  1
  Co  Co18  1  0.000000  0.202164  0.570900  1
  Co  Co19  1  0.000000  0.797836  0.570900  1
  Co  Co20  1  0.500000  0.879866  0.708121  1
  Co  Co21  1  0.500000  0.120134  0.708121  1
  Co  Co22  1  0.000000  0.623485  0.296893  1
  Co  Co23  1  0.000000  0.376515  0.296893  1
  P  P24  1  0.500000  0.500000  0.881165  1
  P  P25  1  0.000000  0.000000  0.116803  1
  P  P26  1  0.500000  0.500000  0.361803  1
  P  P27  1  0.000000  0.000000  0.654941  1
  P  P28  1  0.500000  0.308811  0.619032  1
  P  P29  1  0.500000  0.691189  0.619032  1
  P  P30  1  0.000000  0.188391  0.385521  1
  P  P31  1  0.000000  0.811609  0.385521  1
  P  P32  1  0.500000  0.852055  0.888054  1
  P  P33  1  0.500000  0.147945  0.888054  1
  P  P34  1  0.000000  0.665965  0.100490  1
  P  P35  1  0.000000  0.334035  0.100490  1
