# generated using pymatgen
data_Er4PdPb2Au3
_symmetry_space_group_name_H-M   'P 1'
_cell_length_a   8.07710908
_cell_length_b   8.07710908
_cell_length_c   3.62182800
_cell_angle_alpha   90.00000000
_cell_angle_beta   90.00000000
_cell_angle_gamma   90.46000700
_symmetry_Int_Tables_number   1
_chemical_formula_structural   Er4PdPb2Au3
_chemical_formula_sum   'Er4 Pd1 Pb2 Au3'
_cell_volume   236.27932454
_cell_formula_units_Z   1
loop_
 _symmetry_equiv_pos_site_id
 _symmetry_equiv_pos_as_xyz
  1  'x, y, z'
loop_
 _atom_site_type_symbol
 _atom_site_label
 _atom_site_symmetry_multiplicity
 _atom_site_fract_x
 _atom_site_fract_y
 _atom_site_fract_z
 _atom_site_occupancy
  Er  Er0  1  0.673540  0.173540  0.500000  1
  Er  Er1  1  0.159018  0.331898  0.500000  1
  Er  Er2  1  0.831898  0.659018  0.500000  1
  Er  Er3  1  0.332673  0.832673  0.500000  1
  Pd  Pd4  1  0.873163  0.373163  0.000000  1
  Pb  Pb5  1  0.998069  0.003981  0.000000  1
  Pb  Pb6  1  0.503981  0.498069  0.000000  1
  Au  Au7  1  0.374361  0.128093  0.000000  1
  Au  Au8  1  0.125203  0.625203  0.000000  1
  Au  Au9  1  0.628093  0.874361  0.000000  1
