# generated using pymatgen
data_Nd3Lu5Pt4
_symmetry_space_group_name_H-M   'P 1'
_cell_length_a   4.75787600
_cell_length_b   7.18335527
_cell_length_c   8.77573507
_cell_angle_alpha   90.20653805
_cell_angle_beta   90.00000000
_cell_angle_gamma   90.00000000
_symmetry_Int_Tables_number   1
_chemical_formula_structural   Nd3Lu5Pt4
_chemical_formula_sum   'Nd3 Lu5 Pt4'
_cell_volume   299.93085637
_cell_formula_units_Z   1
loop_
 _symmetry_equiv_pos_site_id
 _symmetry_equiv_pos_as_xyz
  1  'x, y, z'
loop_
 _atom_site_type_symbol
 _atom_site_label
 _atom_site_symmetry_multiplicity
 _atom_site_fract_x
 _atom_site_fract_y
 _atom_site_fract_z
 _atom_site_occupancy
  Nd  Nd0  1  0.250000  0.489158  0.170631  1
  Nd  Nd1  1  0.750000  0.011113  0.676028  1
  Nd  Nd2  1  0.250000  0.989343  0.326920  1
  Lu  Lu3  1  0.750000  0.641014  0.426522  1
  Lu  Lu4  1  0.250000  0.359790  0.582333  1
  Lu  Lu5  1  0.750000  0.142193  0.075008  1
  Lu  Lu6  1  0.250000  0.855149  0.921498  1
  Lu  Lu7  1  0.750000  0.510894  0.831771  1
  Pt  Pt8  1  0.750000  0.252531  0.406957  1
  Pt  Pt9  1  0.250000  0.745353  0.594025  1
  Pt  Pt10  1  0.750000  0.750378  0.086003  1
  Pt  Pt11  1  0.250000  0.253085  0.902304  1
