# generated using pymatgen
data_Yb2Co10Mo2P7
_symmetry_space_group_name_H-M   'P 1'
_cell_length_a   9.05079656
_cell_length_b   9.05929666
_cell_length_c   3.68020400
_cell_angle_alpha   90.00000000
_cell_angle_beta   90.00000000
_cell_angle_gamma   119.85395913
_symmetry_Int_Tables_number   1
_chemical_formula_structural   Yb2Co10Mo2P7
_chemical_formula_sum   'Yb2 Co10 Mo2 P7'
_cell_volume   261.71043514
_cell_formula_units_Z   1
loop_
 _symmetry_equiv_pos_site_id
 _symmetry_equiv_pos_as_xyz
  1  'x, y, z'
loop_
 _atom_site_type_symbol
 _atom_site_label
 _atom_site_symmetry_multiplicity
 _atom_site_fract_x
 _atom_site_fract_y
 _atom_site_fract_z
 _atom_site_occupancy
  Yb  Yb0  1  0.666832  0.333489  0.500000  1
  Yb  Yb1  1  0.336147  0.666590  0.000000  1
  Co  Co2  1  0.722185  0.877939  0.000000  1
  Co  Co3  1  0.939930  0.372554  0.000000  1
  Co  Co4  1  0.160141  0.282638  0.000000  1
  Co  Co5  1  0.388904  0.440409  0.500000  1
  Co  Co6  1  0.116793  0.837334  0.000000  1
  Co  Co7  1  0.431086  0.057615  0.000000  1
  Co  Co8  1  0.046209  0.614092  0.500000  1
  Co  Co9  1  0.562769  0.947836  0.500000  1
  Co  Co10  1  0.630350  0.569437  0.000000  1
  Co  Co11  1  0.874451  0.780573  0.500000  1
  Mo  Mo12  1  0.218173  0.098399  0.500000  1
  Mo  Mo13  1  0.902955  0.121115  0.500000  1
  P  P14  1  0.414701  0.302182  0.000000  1
  P  P15  1  0.288878  0.879501  0.500000  1
  P  P16  1  0.697124  0.111265  0.000000  1
  P  P17  1  0.597548  0.711147  0.500000  1
  P  P18  1  0.886699  0.587554  0.000000  1
  P  P19  1  0.118826  0.412083  0.500000  1
  P  P20  1  0.999301  0.996247  0.000000  1
