# generated using pymatgen
data_AlI15
_symmetry_space_group_name_H-M   'P 1'
_cell_length_a   8.00419272
_cell_length_b   12.12967213
_cell_length_c   12.97846768
_cell_angle_alpha   60.38558802
_cell_angle_beta   88.15697999
_cell_angle_gamma   97.25706672
_symmetry_Int_Tables_number   1
_chemical_formula_structural   AlI15
_chemical_formula_sum   'Al1 I15'
_cell_volume   1080.12548795
_cell_formula_units_Z   1
loop_
 _symmetry_equiv_pos_site_id
 _symmetry_equiv_pos_as_xyz
  1  'x, y, z'
loop_
 _atom_site_type_symbol
 _atom_site_label
 _atom_site_symmetry_multiplicity
 _atom_site_fract_x
 _atom_site_fract_y
 _atom_site_fract_z
 _atom_site_occupancy
  Al  Al0  1  0.526870  0.163565  0.494338  1
  I  I1  1  0.853011  0.195838  0.966688  1
  I  I2  1  0.570268  0.800603  0.498757  1
  I  I3  1  0.014684  0.728505  0.025251  1
  I  I4  1  0.809483  0.408865  0.741991  1
  I  I5  1  0.419732  0.597771  0.781854  1
  I  I6  1  0.274474  0.777333  0.197824  1
  I  I7  1  0.596150  0.369076  0.298142  1
  I  I8  1  0.267137  0.410967  0.002727  1
  I  I9  1  0.794411  0.633208  0.496635  1
  I  I10  1  0.759961  0.667545  0.907629  1
  I  I11  1  0.307322  0.225283  0.607819  1
  I  I12  1  0.546309  0.989397  0.070802  1
  I  I13  1  0.329643  0.986765  0.471088  1
  I  I14  1  0.173770  0.978028  0.819961  1
  I  I15  1  0.756776  0.067252  0.618495  1
