# generated using pymatgen
data_Hf12Mo5Ir6Au
_symmetry_space_group_name_H-M   'P 1'
_cell_length_a   4.64647500
_cell_length_b   6.57937800
_cell_length_c   13.93176400
_cell_angle_alpha   90.00000000
_cell_angle_beta   90.00011925
_cell_angle_gamma   90.00000000
_symmetry_Int_Tables_number   1
_chemical_formula_structural   Hf12Mo5Ir6Au
_chemical_formula_sum   'Hf12 Mo5 Ir6 Au1'
_cell_volume   425.90677851
_cell_formula_units_Z   1
loop_
 _symmetry_equiv_pos_site_id
 _symmetry_equiv_pos_as_xyz
  1  'x, y, z'
loop_
 _atom_site_type_symbol
 _atom_site_label
 _atom_site_symmetry_multiplicity
 _atom_site_fract_x
 _atom_site_fract_y
 _atom_site_fract_z
 _atom_site_occupancy
  Hf  Hf0  1  0.500001  0.240771  0.000000  1
  Hf  Hf1  1  0.500001  0.759229  0.000000  1
  Hf  Hf2  1  0.999987  0.245792  0.170300  1
  Hf  Hf3  1  0.999987  0.754208  0.170300  1
  Hf  Hf4  1  0.499989  0.250219  0.334507  1
  Hf  Hf5  1  0.499989  0.749781  0.334507  1
  Hf  Hf6  1  0.000000  0.249947  0.500000  1
  Hf  Hf7  1  0.000000  0.750053  0.500000  1
  Hf  Hf8  1  0.500010  0.250219  0.665493  1
  Hf  Hf9  1  0.500010  0.749781  0.665493  1
  Hf  Hf10  1  0.000013  0.245792  0.829700  1
  Hf  Hf11  1  0.000013  0.754208  0.829700  1
  Mo  Mo12  1  0.499989  0.000000  0.165079  1
  Mo  Mo13  1  0.999987  0.500000  0.331595  1
  Mo  Mo14  1  0.500000  0.000000  0.500000  1
  Mo  Mo15  1  0.000013  0.500000  0.668405  1
  Mo  Mo16  1  0.500012  0.000000  0.834921  1
  Ir  Ir17  1  0.000000  0.000000  0.000000  1
  Ir  Ir18  1  0.499984  0.500000  0.166752  1
  Ir  Ir19  1  0.999990  0.000000  0.332697  1
  Ir  Ir20  1  0.500000  0.500000  0.500000  1
  Ir  Ir21  1  0.000010  0.000000  0.667303  1
  Ir  Ir22  1  0.500017  0.500000  0.833248  1
  Au  Au23  1  0.000000  0.500000  0.000000  1
