# generated using pymatgen
data_Ba2CuSiBr
_symmetry_space_group_name_H-M   'P 1'
_cell_length_a   4.48527900
_cell_length_b   4.48527877
_cell_length_c   17.88389800
_cell_angle_alpha   90.00000000
_cell_angle_beta   90.00000000
_cell_angle_gamma   120.00000909
_symmetry_Int_Tables_number   1
_chemical_formula_structural   Ba2CuSiBr
_chemical_formula_sum   'Ba4 Cu2 Si2 Br2'
_cell_volume   311.58151119
_cell_formula_units_Z   2
loop_
 _symmetry_equiv_pos_site_id
 _symmetry_equiv_pos_as_xyz
  1  'x, y, z'
loop_
 _atom_site_type_symbol
 _atom_site_label
 _atom_site_symmetry_multiplicity
 _atom_site_fract_x
 _atom_site_fract_y
 _atom_site_fract_z
 _atom_site_occupancy
  Ba  Ba0  1  0.000000  0.000000  0.384353  1
  Ba  Ba1  1  0.000000  0.000000  0.884353  1
  Ba  Ba2  1  0.000000  0.000000  0.615008  1
  Ba  Ba3  1  0.000000  0.000000  0.115008  1
  Cu  Cu4  1  0.333333  0.666667  0.500963  1
  Cu  Cu5  1  0.666667  0.333333  0.000963  1
  Si  Si6  1  0.666667  0.333333  0.499110  1
  Si  Si7  1  0.333333  0.666667  0.999110  1
  Br  Br8  1  0.333333  0.666667  0.250566  1
  Br  Br9  1  0.666667  0.333333  0.750566  1
