# generated using pymatgen
data_Sc22Fe2IrOs5
_symmetry_space_group_name_H-M   'P 1'
_cell_length_a   9.42211681
_cell_length_b   9.37581597
_cell_length_c   9.42211677
_cell_angle_alpha   60.16242086
_cell_angle_beta   60.28004924
_cell_angle_gamma   60.16242703
_symmetry_Int_Tables_number   1
_chemical_formula_structural   Sc22Fe2IrOs5
_chemical_formula_sum   'Sc22 Fe2 Ir1 Os5'
_cell_volume   591.24592241
_cell_formula_units_Z   1
loop_
 _symmetry_equiv_pos_site_id
 _symmetry_equiv_pos_as_xyz
  1  'x, y, z'
loop_
 _atom_site_type_symbol
 _atom_site_label
 _atom_site_symmetry_multiplicity
 _atom_site_fract_x
 _atom_site_fract_y
 _atom_site_fract_z
 _atom_site_occupancy
  Sc  Sc0  1  0.805332  0.807650  0.194668  1
  Sc  Sc1  1  0.193515  0.806485  0.193515  1
  Sc  Sc2  1  0.805332  0.192350  0.194668  1
  Sc  Sc3  1  0.194668  0.192350  0.805332  1
  Sc  Sc4  1  0.806485  0.193515  0.806485  1
  Sc  Sc5  1  0.194668  0.807650  0.805332  1
  Sc  Sc6  1  0.611391  0.616341  0.155925  1
  Sc  Sc7  1  0.614798  0.153404  0.614798  1
  Sc  Sc8  1  0.155925  0.616341  0.611391  1
  Sc  Sc9  1  0.614798  0.616998  0.614798  1
  Sc  Sc10  1  0.388609  0.383659  0.844075  1
  Sc  Sc11  1  0.385202  0.846596  0.385202  1
  Sc  Sc12  1  0.844075  0.383659  0.388609  1
  Sc  Sc13  1  0.385202  0.383002  0.385202  1
  Sc  Sc14  1  0.844422  0.842689  0.470199  1
  Sc  Sc15  1  0.842814  0.472102  0.842814  1
  Sc  Sc16  1  0.470199  0.842689  0.844422  1
  Sc  Sc17  1  0.842814  0.842267  0.842814  1
  Sc  Sc18  1  0.155578  0.157311  0.529801  1
  Sc  Sc19  1  0.157186  0.527898  0.157186  1
  Sc  Sc20  1  0.529801  0.157311  0.155578  1
  Sc  Sc21  1  0.157186  0.157733  0.157186  1
  Fe  Fe22  1  0.000000  0.000000  0.000000  1
  Fe  Fe23  1  0.500000  0.500000  0.500000  1
  Ir  Ir24  1  0.000000  0.500000  0.000000  1
  Os  Os25  1  0.000000  0.000000  0.500000  1
  Os  Os26  1  0.500000  0.000000  0.500000  1
  Os  Os27  1  0.000000  0.500000  0.500000  1
  Os  Os28  1  0.500000  0.500000  0.000000  1
  Os  Os29  1  0.500000  0.000000  0.000000  1
