# generated using pymatgen
data_Tb4HoTm3Au4
_symmetry_space_group_name_H-M   'P 1'
_cell_length_a   4.92219000
_cell_length_b   7.14788647
_cell_length_c   8.92479607
_cell_angle_alpha   90.11110208
_cell_angle_beta   90.00000000
_cell_angle_gamma   90.00000000
_symmetry_Int_Tables_number   1
_chemical_formula_structural   Tb4HoTm3Au4
_chemical_formula_sum   'Tb4 Ho1 Tm3 Au4'
_cell_volume   314.00278812
_cell_formula_units_Z   1
loop_
 _symmetry_equiv_pos_site_id
 _symmetry_equiv_pos_as_xyz
  1  'x, y, z'
loop_
 _atom_site_type_symbol
 _atom_site_label
 _atom_site_symmetry_multiplicity
 _atom_site_fract_x
 _atom_site_fract_y
 _atom_site_fract_z
 _atom_site_occupancy
  Tb  Tb0  1  0.250000  0.485098  0.176550  1
  Tb  Tb1  1  0.250000  0.987239  0.323411  1
  Tb  Tb2  1  0.750000  0.514312  0.823283  1
  Tb  Tb3  1  0.750000  0.014959  0.677494  1
  Ho  Ho4  1  0.750000  0.647678  0.419462  1
  Tm  Tm5  1  0.250000  0.852432  0.920813  1
  Tm  Tm6  1  0.250000  0.352680  0.580595  1
  Tm  Tm7  1  0.750000  0.147862  0.078977  1
  Au  Au8  1  0.250000  0.252574  0.899766  1
  Au  Au9  1  0.250000  0.753716  0.602353  1
  Au  Au10  1  0.750000  0.747492  0.097504  1
  Au  Au11  1  0.750000  0.243958  0.399792  1
