# generated using pymatgen
data_Pr2Sn4Hg
_symmetry_space_group_name_H-M   'P 1'
_cell_length_a   17.46651979
_cell_length_b   17.46651988
_cell_length_c   4.65949700
_cell_angle_alpha   90.00000000
_cell_angle_beta   90.00000000
_cell_angle_gamma   164.09957213
_symmetry_Int_Tables_number   1
_chemical_formula_structural   Pr2Sn4Hg
_chemical_formula_sum   'Pr4 Sn8 Hg2'
_cell_volume   389.44766416
_cell_formula_units_Z   2
loop_
 _symmetry_equiv_pos_site_id
 _symmetry_equiv_pos_as_xyz
  1  'x, y, z'
loop_
 _atom_site_type_symbol
 _atom_site_label
 _atom_site_symmetry_multiplicity
 _atom_site_fract_x
 _atom_site_fract_y
 _atom_site_fract_z
 _atom_site_occupancy
  Pr  Pr0  1  0.928949  0.071051  0.500000  1
  Pr  Pr1  1  0.071051  0.928949  0.500000  1
  Pr  Pr2  1  0.797480  0.202520  0.500000  1
  Pr  Pr3  1  0.202520  0.797480  0.500000  1
  Sn  Sn4  1  0.637252  0.362748  0.500000  1
  Sn  Sn5  1  0.362748  0.637252  0.500000  1
  Sn  Sn6  1  0.719566  0.280434  0.000000  1
  Sn  Sn7  1  0.280434  0.719566  0.000000  1
  Sn  Sn8  1  0.568688  0.431312  0.000000  1
  Sn  Sn9  1  0.431312  0.568688  0.000000  1
  Sn  Sn10  1  0.862616  0.137384  0.000000  1
  Sn  Sn11  1  0.137384  0.862616  0.000000  1
  Hg  Hg12  1  0.500000  0.500000  0.500000  1
  Hg  Hg13  1  0.000000  0.000000  0.000000  1
