# generated using pymatgen
data_Pd2F5
_symmetry_space_group_name_H-M   'P 1'
_cell_length_a   4.13427079
_cell_length_b   4.99564608
_cell_length_c   5.48181441
_cell_angle_alpha   89.10951563
_cell_angle_beta   98.86036357
_cell_angle_gamma   70.37892157
_symmetry_Int_Tables_number   1
_chemical_formula_structural   Pd2F5
_chemical_formula_sum   'Pd2 F5'
_cell_volume   105.09557465
_cell_formula_units_Z   1
loop_
 _symmetry_equiv_pos_site_id
 _symmetry_equiv_pos_as_xyz
  1  'x, y, z'
loop_
 _atom_site_type_symbol
 _atom_site_label
 _atom_site_symmetry_multiplicity
 _atom_site_fract_x
 _atom_site_fract_y
 _atom_site_fract_z
 _atom_site_occupancy
  Pd  Pd0  1  0.841379  0.133548  0.896649  1
  Pd  Pd1  1  0.841044  0.633690  0.396527  1
  F  F2  1  0.689219  0.501888  0.071368  1
  F  F3  1  0.025842  0.901283  0.231728  1
  F  F4  1  0.656494  0.366101  0.561592  1
  F  F5  1  0.342120  0.132148  0.897313  1
  F  F6  1  0.992238  0.764890  0.722150  1
