# generated using pymatgen
data_Cs2Nd10Si2Br17
_symmetry_space_group_name_H-M   'P 1'
_cell_length_a   9.53636190
_cell_length_b   11.10522676
_cell_length_c   11.10519114
_cell_angle_alpha   107.12427234
_cell_angle_beta   94.03504666
_cell_angle_gamma   94.03613907
_symmetry_Int_Tables_number   1
_chemical_formula_structural   Cs2Nd10Si2Br17
_chemical_formula_sum   'Cs2 Nd10 Si2 Br17'
_cell_volume   1116.02306290
_cell_formula_units_Z   1
loop_
 _symmetry_equiv_pos_site_id
 _symmetry_equiv_pos_as_xyz
  1  'x, y, z'
loop_
 _atom_site_type_symbol
 _atom_site_label
 _atom_site_symmetry_multiplicity
 _atom_site_fract_x
 _atom_site_fract_y
 _atom_site_fract_z
 _atom_site_occupancy
  Cs  Cs0  1  0.000002  0.822263  0.177736  1
  Cs  Cs1  1  0.000001  0.177735  0.822262  1
  Nd  Nd2  1  0.434824  0.160817  0.160821  1
  Nd  Nd3  1  0.572262  0.512950  0.199936  1
  Nd  Nd4  1  0.837724  0.292057  0.292060  1
  Nd  Nd5  1  0.299409  0.434113  0.434112  1
  Nd  Nd6  1  0.427740  0.800060  0.487049  1
  Nd  Nd7  1  0.572259  0.199944  0.512955  1
  Nd  Nd8  1  0.700591  0.565889  0.565888  1
  Nd  Nd9  1  0.162275  0.707941  0.707940  1
  Nd  Nd10  1  0.427736  0.487044  0.800056  1
  Nd  Nd11  1  0.565173  0.839180  0.839184  1
  Si  Si12  1  0.571040  0.359751  0.359750  1
  Si  Si13  1  0.428959  0.640250  0.640249  1
  Br  Br14  1  0.579139  0.689691  0.023623  1
  Br  Br15  1  0.712588  0.069057  0.069057  1
  Br  Br16  1  0.855322  0.449743  0.118369  1
  Br  Br17  1  0.136403  0.208562  0.208563  1
  Br  Br18  1  0.283302  0.601394  0.256298  1
  Br  Br19  1  0.420863  0.976377  0.310310  1
  Br  Br20  1  0.716703  0.743704  0.398606  1
  Br  Br21  1  0.855317  0.118369  0.449738  1
  Br  Br22  1  0.999999  0.499999  0.499999  1
  Br  Br23  1  0.144682  0.881630  0.550266  1
  Br  Br24  1  0.283287  0.256290  0.601389  1
  Br  Br25  1  0.579139  0.023621  0.689688  1
  Br  Br26  1  0.716712  0.398614  0.743709  1
  Br  Br27  1  0.863596  0.791439  0.791438  1
  Br  Br28  1  0.144682  0.550266  0.881629  1
  Br  Br29  1  0.287410  0.930942  0.930942  1
  Br  Br30  1  0.420862  0.310310  0.976378  1
