# generated using pymatgen
data_TbY9Cd3Tc
_symmetry_space_group_name_H-M   'P 1'
_cell_length_a   9.65630691
_cell_length_b   9.64318236
_cell_length_c   9.92048578
_cell_angle_alpha   89.99999970
_cell_angle_beta   89.92652193
_cell_angle_gamma   119.95505173
_symmetry_Int_Tables_number   1
_chemical_formula_structural   TbY9Cd3Tc
_chemical_formula_sum   'Tb2 Y18 Cd6 Tc2'
_cell_volume   800.37047855
_cell_formula_units_Z   2
loop_
 _symmetry_equiv_pos_site_id
 _symmetry_equiv_pos_as_xyz
  1  'x, y, z'
loop_
 _atom_site_type_symbol
 _atom_site_label
 _atom_site_symmetry_multiplicity
 _atom_site_fract_x
 _atom_site_fract_y
 _atom_site_fract_z
 _atom_site_occupancy
  Tb  Tb0  1  0.210139  0.790638  0.439534  1
  Tb  Tb1  1  0.210139  0.419501  0.439534  1
  Y  Y2  1  0.000677  0.000339  0.499819  1
  Y  Y3  1  0.000059  0.000030  0.000241  1
  Y  Y4  1  0.580751  0.790375  0.441511  1
  Y  Y5  1  0.790269  0.209712  0.559570  1
  Y  Y6  1  0.790269  0.580557  0.559570  1
  Y  Y7  1  0.420357  0.210178  0.558976  1
  Y  Y8  1  0.790042  0.209604  0.940362  1
  Y  Y9  1  0.790042  0.580439  0.940362  1
  Y  Y10  1  0.420127  0.210064  0.940879  1
  Y  Y11  1  0.210143  0.790538  0.059571  1
  Y  Y12  1  0.210143  0.419604  0.059571  1
  Y  Y13  1  0.579297  0.789649  0.059167  1
  Y  Y14  1  0.539256  0.460302  0.249852  1
  Y  Y15  1  0.539256  0.078954  0.249852  1
  Y  Y16  1  0.920443  0.460222  0.249903  1
  Y  Y17  1  0.461207  0.539482  0.749971  1
  Y  Y18  1  0.461207  0.921723  0.749971  1
  Y  Y19  1  0.079234  0.539616  0.749965  1
  Cd  Cd20  1  0.886236  0.113528  0.249946  1
  Cd  Cd21  1  0.886236  0.772708  0.249946  1
  Cd  Cd22  1  0.227750  0.113875  0.249571  1
  Cd  Cd23  1  0.113326  0.886149  0.750327  1
  Cd  Cd24  1  0.113326  0.227175  0.750327  1
  Cd  Cd25  1  0.772343  0.886171  0.749954  1
  Tc  Tc26  1  0.330317  0.665159  0.251906  1
  Tc  Tc27  1  0.667411  0.333705  0.749843  1
