# generated using pymatgen
data_Dy2Lu3Sn4
_symmetry_space_group_name_H-M   'P 1'
_cell_length_a   7.93940500
_cell_length_b   8.07062400
_cell_length_c   15.24511400
_cell_angle_alpha   90.00000000
_cell_angle_beta   90.00000000
_cell_angle_gamma   90.00000000
_symmetry_Int_Tables_number   1
_chemical_formula_structural   Dy2Lu3Sn4
_chemical_formula_sum   'Dy8 Lu12 Sn16'
_cell_volume   976.84520111
_cell_formula_units_Z   4
loop_
 _symmetry_equiv_pos_site_id
 _symmetry_equiv_pos_as_xyz
  1  'x, y, z'
loop_
 _atom_site_type_symbol
 _atom_site_label
 _atom_site_symmetry_multiplicity
 _atom_site_fract_x
 _atom_site_fract_y
 _atom_site_fract_z
 _atom_site_occupancy
  Dy  Dy0  1  0.521931  0.320145  0.902744  1
  Dy  Dy1  1  0.021931  0.179855  0.597256  1
  Dy  Dy2  1  0.478069  0.679855  0.402744  1
  Dy  Dy3  1  0.978069  0.820145  0.097256  1
  Dy  Dy4  1  0.478069  0.679855  0.097256  1
  Dy  Dy5  1  0.978069  0.820145  0.402744  1
  Dy  Dy6  1  0.521931  0.320145  0.597256  1
  Dy  Dy7  1  0.021931  0.179855  0.902744  1
  Lu  Lu8  1  0.367674  0.835853  0.877598  1
  Lu  Lu9  1  0.867674  0.664147  0.622402  1
  Lu  Lu10  1  0.632326  0.164147  0.377598  1
  Lu  Lu11  1  0.132326  0.335853  0.122402  1
  Lu  Lu12  1  0.632326  0.164147  0.122402  1
  Lu  Lu13  1  0.132326  0.335853  0.377598  1
  Lu  Lu14  1  0.367674  0.835853  0.622402  1
  Lu  Lu15  1  0.867674  0.664147  0.877598  1
  Lu  Lu16  1  0.197479  0.504450  0.750000  1
  Lu  Lu17  1  0.697479  0.995550  0.750000  1
  Lu  Lu18  1  0.802521  0.495550  0.250000  1
  Lu  Lu19  1  0.302521  0.004450  0.250000  1
  Sn  Sn20  1  0.293860  0.036418  0.041748  1
  Sn  Sn21  1  0.793860  0.463582  0.458252  1
  Sn  Sn22  1  0.706140  0.963582  0.541748  1
  Sn  Sn23  1  0.206140  0.536418  0.958252  1
  Sn  Sn24  1  0.706140  0.963582  0.958252  1
  Sn  Sn25  1  0.206140  0.536418  0.541748  1
  Sn  Sn26  1  0.293860  0.036418  0.458252  1
  Sn  Sn27  1  0.793860  0.463582  0.041748  1
  Sn  Sn28  1  0.564043  0.621446  0.750000  1
  Sn  Sn29  1  0.064043  0.878554  0.750000  1
  Sn  Sn30  1  0.435957  0.378554  0.250000  1
  Sn  Sn31  1  0.935957  0.121446  0.250000  1
  Sn  Sn32  1  0.330502  0.147039  0.750000  1
  Sn  Sn33  1  0.830502  0.352961  0.750000  1
  Sn  Sn34  1  0.669498  0.852961  0.250000  1
  Sn  Sn35  1  0.169498  0.647039  0.250000  1
