# generated using pymatgen
data_Hf8Nb12Zn2Si13Ge
_symmetry_space_group_name_H-M   'P 1'
_cell_length_a   6.68898407
_cell_length_b   6.84833354
_cell_length_c   13.18430121
_cell_angle_alpha   89.81991068
_cell_angle_beta   89.98788175
_cell_angle_gamma   90.00220777
_symmetry_Int_Tables_number   1
_chemical_formula_structural   Hf8Nb12Zn2Si13Ge
_chemical_formula_sum   'Hf8 Nb12 Zn2 Si13 Ge1'
_cell_volume   603.94866661
_cell_formula_units_Z   1
loop_
 _symmetry_equiv_pos_site_id
 _symmetry_equiv_pos_as_xyz
  1  'x, y, z'
loop_
 _atom_site_type_symbol
 _atom_site_label
 _atom_site_symmetry_multiplicity
 _atom_site_fract_x
 _atom_site_fract_y
 _atom_site_fract_z
 _atom_site_occupancy
  Hf  Hf0  1  0.494764  0.670578  0.595162  1
  Hf  Hf1  1  0.994731  0.829794  0.905097  1
  Hf  Hf2  1  0.503492  0.325856  0.092378  1
  Hf  Hf3  1  0.008803  0.171942  0.408799  1
  Hf  Hf4  1  0.501230  0.331504  0.408165  1
  Hf  Hf5  1  0.006217  0.166066  0.090596  1
  Hf  Hf6  1  0.500422  0.676324  0.904256  1
  Hf  Hf7  1  0.000547  0.823770  0.595397  1
  Nb  Nb8  1  0.661491  0.176937  0.626284  1
  Nb  Nb9  1  0.161579  0.323505  0.873831  1
  Nb  Nb10  1  0.336845  0.832437  0.124742  1
  Nb  Nb11  1  0.837673  0.669781  0.375510  1
  Nb  Nb12  1  0.331300  0.828856  0.375999  1
  Nb  Nb13  1  0.831640  0.673670  0.123750  1
  Nb  Nb14  1  0.664220  0.173518  0.876363  1
  Nb  Nb15  1  0.164240  0.327060  0.623629  1
  Nb  Nb16  1  0.836721  0.496189  0.749988  1
  Nb  Nb17  1  0.336985  0.004060  0.750100  1
  Nb  Nb18  1  0.163518  0.506748  0.253509  1
  Nb  Nb19  1  0.659643  0.990956  0.246506  1
  Zn  Zn20  1  0.674243  0.967023  0.462035  1
  Zn  Zn21  1  0.173792  0.534140  0.038036  1
  Si  Si22  1  0.327200  0.036736  0.962375  1
  Si  Si23  1  0.826688  0.462982  0.536966  1
  Si  Si24  1  0.333279  0.034140  0.538320  1
  Si  Si25  1  0.832829  0.466102  0.962182  1
  Si  Si26  1  0.669957  0.964235  0.036788  1
  Si  Si27  1  0.169672  0.536866  0.463100  1
  Si  Si28  1  0.459854  0.388966  0.750580  1
  Si  Si29  1  0.959979  0.111419  0.749445  1
  Si  Si30  1  0.536859  0.613700  0.250421  1
  Si  Si31  1  0.037945  0.888303  0.249654  1
  Si  Si32  1  0.703296  0.861624  0.748614  1
  Si  Si33  1  0.202986  0.638833  0.751373  1
  Si  Si34  1  0.296476  0.142219  0.251001  1
  Ge  Ge35  1  0.798881  0.353156  0.249047  1
