# generated using pymatgen
data_Sr4Ho5Tm(LuSe8)2
_symmetry_space_group_name_H-M   'P 1'
_cell_length_a   4.11978400
_cell_length_b   12.62556264
_cell_length_c   14.90076412
_cell_angle_alpha   89.92564825
_cell_angle_beta   90.00000000
_cell_angle_gamma   90.00000000
_symmetry_Int_Tables_number   1
_chemical_formula_structural   Sr4Ho5Tm(LuSe8)2
_chemical_formula_sum   'Sr4 Ho5 Tm1 Lu2 Se16'
_cell_volume   775.05649802
_cell_formula_units_Z   1
loop_
 _symmetry_equiv_pos_site_id
 _symmetry_equiv_pos_as_xyz
  1  'x, y, z'
loop_
 _atom_site_type_symbol
 _atom_site_label
 _atom_site_symmetry_multiplicity
 _atom_site_fract_x
 _atom_site_fract_y
 _atom_site_fract_z
 _atom_site_occupancy
  Sr  Sr0  1  0.250000  0.759163  0.335271  1
  Sr  Sr1  1  0.250000  0.258037  0.166186  1
  Sr  Sr2  1  0.750000  0.240710  0.663717  1
  Sr  Sr3  1  0.750000  0.740626  0.834819  1
  Ho  Ho4  1  0.250000  0.437128  0.388356  1
  Ho  Ho5  1  0.250000  0.937234  0.111605  1
  Ho  Ho6  1  0.750000  0.563595  0.610690  1
  Ho  Ho7  1  0.750000  0.061952  0.887733  1
  Ho  Ho8  1  0.250000  0.417677  0.903197  1
  Tm  Tm9  1  0.750000  0.582854  0.098338  1
  Lu  Lu10  1  0.250000  0.918195  0.597111  1
  Lu  Lu11  1  0.750000  0.081381  0.402479  1
  Se  Se12  1  0.250000  0.205813  0.826929  1
  Se  Se13  1  0.250000  0.708064  0.670637  1
  Se  Se14  1  0.750000  0.793301  0.172204  1
  Se  Se15  1  0.750000  0.291987  0.329421  1
  Se  Se16  1  0.250000  0.126984  0.528323  1
  Se  Se17  1  0.250000  0.629575  0.972221  1
  Se  Se18  1  0.750000  0.872776  0.471080  1
  Se  Se19  1  0.750000  0.372070  0.031617  1
  Se  Se20  1  0.250000  0.027418  0.286278  1
  Se  Se21  1  0.250000  0.527490  0.215015  1
  Se  Se22  1  0.750000  0.971956  0.713165  1
  Se  Se23  1  0.750000  0.474153  0.784922  1
  Se  Se24  1  0.250000  0.410631  0.577124  1
  Se  Se25  1  0.250000  0.910031  0.922580  1
  Se  Se26  1  0.750000  0.589676  0.422119  1
  Se  Se27  1  0.750000  0.089523  0.076864  1
