# generated using pymatgen
data_Ho2Ni9Ge
_symmetry_space_group_name_H-M   'P 1'
_cell_length_a   4.85943033
_cell_length_b   4.85943135
_cell_length_c   7.96302900
_cell_angle_alpha   90.00000000
_cell_angle_beta   90.00000000
_cell_angle_gamma   119.10182216
_symmetry_Int_Tables_number   1
_chemical_formula_structural   Ho2Ni9Ge
_chemical_formula_sum   'Ho2 Ni9 Ge1'
_cell_volume   164.30079133
_cell_formula_units_Z   1
loop_
 _symmetry_equiv_pos_site_id
 _symmetry_equiv_pos_as_xyz
  1  'x, y, z'
loop_
 _atom_site_type_symbol
 _atom_site_label
 _atom_site_symmetry_multiplicity
 _atom_site_fract_x
 _atom_site_fract_y
 _atom_site_fract_z
 _atom_site_occupancy
  Ho  Ho0  1  0.000000  0.000000  0.762677  1
  Ho  Ho1  1  0.000000  0.000000  0.237323  1
  Ni  Ni2  1  0.666800  0.333200  0.751317  1
  Ni  Ni3  1  0.666800  0.333200  0.248683  1
  Ni  Ni4  1  0.500000  0.500000  0.000000  1
  Ni  Ni5  1  0.333200  0.666800  0.751317  1
  Ni  Ni6  1  0.500000  0.000000  0.500000  1
  Ni  Ni7  1  0.000000  0.500000  0.000000  1
  Ni  Ni8  1  0.500000  0.000000  0.000000  1
  Ni  Ni9  1  0.333200  0.666800  0.248683  1
  Ni  Ni10  1  0.000000  0.500000  0.500000  1
  Ge  Ge11  1  0.500000  0.500000  0.500000  1
