# generated using pymatgen
data_SrEu3(Pt2O7)2
_symmetry_space_group_name_H-M   'P 1'
_cell_length_a   7.42964498
_cell_length_b   7.42964524
_cell_length_c   7.42869803
_cell_angle_alpha   59.99577623
_cell_angle_beta   59.99577663
_cell_angle_gamma   60.00000327
_symmetry_Int_Tables_number   1
_chemical_formula_structural   SrEu3(Pt2O7)2
_chemical_formula_sum   'Sr1 Eu3 Pt4 O14'
_cell_volume   289.93866094
_cell_formula_units_Z   1
loop_
 _symmetry_equiv_pos_site_id
 _symmetry_equiv_pos_as_xyz
  1  'x, y, z'
loop_
 _atom_site_type_symbol
 _atom_site_label
 _atom_site_symmetry_multiplicity
 _atom_site_fract_x
 _atom_site_fract_y
 _atom_site_fract_z
 _atom_site_occupancy
  Sr  Sr0  1  0.125000  0.125000  0.625000  1
  Eu  Eu1  1  0.625000  0.125000  0.125000  1
  Eu  Eu2  1  0.125000  0.625000  0.125000  1
  Eu  Eu3  1  0.125000  0.125000  0.125000  1
  Pt  Pt4  1  0.125000  0.625000  0.625000  1
  Pt  Pt5  1  0.625000  0.125000  0.625000  1
  Pt  Pt6  1  0.625000  0.625000  0.125000  1
  Pt  Pt7  1  0.625000  0.625000  0.625000  1
  O  O8  1  0.257085  0.257085  0.228745  1
  O  O9  1  0.992915  0.992915  0.021255  1
  O  O10  1  0.707610  0.707610  0.291624  1
  O  O11  1  0.294351  0.294351  0.713450  1
  O  O12  1  0.697847  0.294351  0.713450  1
  O  O13  1  0.293157  0.707610  0.291624  1
  O  O14  1  0.294351  0.697847  0.713450  1
  O  O15  1  0.707610  0.293157  0.291624  1
  O  O16  1  0.542390  0.542390  0.958376  1
  O  O17  1  0.955649  0.955649  0.536550  1
  O  O18  1  0.552153  0.955649  0.536550  1
  O  O19  1  0.956843  0.542390  0.958376  1
  O  O20  1  0.955649  0.552153  0.536550  1
  O  O21  1  0.542390  0.956843  0.958376  1
