# generated using pymatgen
data_Y3Co7(P3Ir)2
_symmetry_space_group_name_H-M   'P 1'
_cell_length_a   3.74213600
_cell_length_b   10.65542500
_cell_length_c   12.40066100
_cell_angle_alpha   90.00000000
_cell_angle_beta   90.00000000
_cell_angle_gamma   90.00000000
_symmetry_Int_Tables_number   1
_chemical_formula_structural   Y3Co7(P3Ir)2
_chemical_formula_sum   'Y6 Co14 P12 Ir4'
_cell_volume   494.46457040
_cell_formula_units_Z   2
loop_
 _symmetry_equiv_pos_site_id
 _symmetry_equiv_pos_as_xyz
  1  'x, y, z'
loop_
 _atom_site_type_symbol
 _atom_site_label
 _atom_site_symmetry_multiplicity
 _atom_site_fract_x
 _atom_site_fract_y
 _atom_site_fract_z
 _atom_site_occupancy
  Y  Y0  1  0.000000  0.500000  0.519789  1
  Y  Y1  1  0.500000  0.000000  0.480211  1
  Y  Y2  1  0.500000  0.813090  0.205718  1
  Y  Y3  1  0.500000  0.186910  0.205718  1
  Y  Y4  1  0.000000  0.686910  0.794282  1
  Y  Y5  1  0.000000  0.313090  0.794282  1
  Co  Co6  1  0.000000  0.500000  0.988239  1
  Co  Co7  1  0.500000  0.000000  0.011761  1
  Co  Co8  1  0.500000  0.332423  0.993460  1
  Co  Co9  1  0.500000  0.667577  0.993460  1
  Co  Co10  1  0.000000  0.167577  0.006540  1
  Co  Co11  1  0.000000  0.832423  0.006540  1
  Co  Co12  1  0.500000  0.299862  0.428920  1
  Co  Co13  1  0.500000  0.700138  0.428920  1
  Co  Co14  1  0.000000  0.200138  0.571080  1
  Co  Co15  1  0.000000  0.799862  0.571080  1
  Co  Co16  1  0.500000  0.881099  0.711106  1
  Co  Co17  1  0.500000  0.118901  0.711106  1
  Co  Co18  1  0.000000  0.618901  0.288894  1
  Co  Co19  1  0.000000  0.381099  0.288894  1
  P  P20  1  0.500000  0.500000  0.889566  1
  P  P21  1  0.000000  0.000000  0.110434  1
  P  P22  1  0.500000  0.500000  0.350186  1
  P  P23  1  0.000000  0.000000  0.649814  1
  P  P24  1  0.500000  0.302039  0.613052  1
  P  P25  1  0.500000  0.697961  0.613052  1
  P  P26  1  0.000000  0.197961  0.386948  1
  P  P27  1  0.000000  0.802039  0.386948  1
  P  P28  1  0.500000  0.845113  0.894944  1
  P  P29  1  0.500000  0.154887  0.894944  1
  P  P30  1  0.000000  0.654887  0.105056  1
  P  P31  1  0.000000  0.345113  0.105056  1
  Ir  Ir32  1  0.500000  0.500000  0.160490  1
  Ir  Ir33  1  0.000000  0.000000  0.839510  1
  Ir  Ir34  1  0.500000  0.500000  0.703245  1
  Ir  Ir35  1  0.000000  0.000000  0.296755  1
