# generated using pymatgen
data_Pr2Nd3SmOsI10
_symmetry_space_group_name_H-M   'P 1'
_cell_length_a   8.00729020
_cell_length_b   10.02154886
_cell_length_c   10.05941318
_cell_angle_alpha   107.46946076
_cell_angle_beta   96.85326586
_cell_angle_gamma   105.22343844
_symmetry_Int_Tables_number   1
_chemical_formula_structural   Pr2Nd3SmOsI10
_chemical_formula_sum   'Pr2 Nd3 Sm1 Os1 I10'
_cell_volume   725.54851036
_cell_formula_units_Z   1
loop_
 _symmetry_equiv_pos_site_id
 _symmetry_equiv_pos_as_xyz
  1  'x, y, z'
loop_
 _atom_site_type_symbol
 _atom_site_label
 _atom_site_symmetry_multiplicity
 _atom_site_fract_x
 _atom_site_fract_y
 _atom_site_fract_z
 _atom_site_occupancy
  Pr  Pr0  1  0.617393  0.542500  0.259479  1
  Pr  Pr1  1  0.384556  0.458342  0.741290  1
  Nd  Nd2  1  0.531300  0.217362  0.416404  1
  Nd  Nd3  1  0.470155  0.783039  0.584408  1
  Nd  Nd4  1  0.142032  0.369214  0.328646  1
  Sm  Sm5  1  0.854848  0.629972  0.670164  1
  Os  Os6  1  0.500903  0.500351  0.500281  1
  I  I7  1  0.146807  0.045705  0.227069  1
  I  I8  1  0.854677  0.951113  0.772583  1
  I  I9  1  0.237088  0.411141  0.041094  1
  I  I10  1  0.764828  0.589690  0.956855  1
  I  I11  1  0.709894  0.237533  0.150662  1
  I  I12  1  0.286442  0.761368  0.847745  1
  I  I13  1  0.047284  0.682951  0.412265  1
  I  I14  1  0.951831  0.319735  0.591011  1
  I  I15  1  0.413517  0.129732  0.679112  1
  I  I16  1  0.586444  0.870253  0.320931  1
