# generated using pymatgen
data_Er(S8F)3
_symmetry_space_group_name_H-M   'P 1'
_cell_length_a   4.39281838
_cell_length_b   14.69592405
_cell_length_c   15.24166464
_cell_angle_alpha   120.48673013
_cell_angle_beta   93.31262295
_cell_angle_gamma   96.90445712
_symmetry_Int_Tables_number   1
_chemical_formula_structural   Er(S8F)3
_chemical_formula_sum   'Er1 S24 F3'
_cell_volume   833.61353293
_cell_formula_units_Z   1
loop_
 _symmetry_equiv_pos_site_id
 _symmetry_equiv_pos_as_xyz
  1  'x, y, z'
loop_
 _atom_site_type_symbol
 _atom_site_label
 _atom_site_symmetry_multiplicity
 _atom_site_fract_x
 _atom_site_fract_y
 _atom_site_fract_z
 _atom_site_occupancy
  Er  Er0  1  0.795203  0.998637  0.033588  1
  S  S1  1  0.369503  0.401672  0.992134  1
  S  S2  1  0.584236  0.738697  0.009192  1
  S  S3  1  0.255877  0.521607  0.127191  1
  S  S4  1  0.398983  0.758207  0.138234  1
  S  S5  1  0.573024  0.660091  0.181325  1
  S  S6  1  0.642618  0.369357  0.246672  1
  S  S7  1  0.842773  0.261658  0.270533  1
  S  S8  1  0.905529  0.519650  0.338807  1
  S  S9  1  0.133641  0.866337  0.393519  1
  S  S10  1  0.639863  0.242337  0.380503  1
  S  S11  1  0.392931  0.000463  0.406993  1
  S  S12  1  0.382893  0.811713  0.470702  1
  S  S13  1  0.719726  0.602617  0.473943  1
  S  S14  1  0.264937  0.133754  0.527293  1
  S  S15  1  0.914900  0.339976  0.520895  1
  S  S16  1  0.969012  0.598665  0.590184  1
  S  S17  1  0.243861  0.865461  0.613810  1
  S  S18  1  0.737157  0.478337  0.605679  1
  S  S19  1  0.568641  0.188766  0.659033  1
  S  S20  1  0.550080  0.999834  0.722847  1
  S  S21  1  0.377549  0.134220  0.748251  1
  S  S22  1  0.387564  0.481140  0.819879  1
  S  S23  1  0.275927  0.631539  0.877857  1
  S  S24  1  0.117644  0.397789  0.871837  1
  F  F25  1  0.863713  0.123504  0.016236  1
  F  F26  1  0.301261  0.998891  0.071585  1
  F  F27  1  0.743868  0.875084  0.891281  1
