# generated using pymatgen
data_Tb4MnFe12P12Ir7
_symmetry_space_group_name_H-M   'P 1'
_cell_length_a   3.79738200
_cell_length_b   10.29867407
_cell_length_c   12.22266505
_cell_angle_alpha   89.98831047
_cell_angle_beta   90.00000000
_cell_angle_gamma   90.00000000
_symmetry_Int_Tables_number   1
_chemical_formula_structural   Tb4MnFe12P12Ir7
_chemical_formula_sum   'Tb4 Mn1 Fe12 P12 Ir7'
_cell_volume   478.00396905
_cell_formula_units_Z   1
loop_
 _symmetry_equiv_pos_site_id
 _symmetry_equiv_pos_as_xyz
  1  'x, y, z'
loop_
 _atom_site_type_symbol
 _atom_site_label
 _atom_site_symmetry_multiplicity
 _atom_site_fract_x
 _atom_site_fract_y
 _atom_site_fract_z
 _atom_site_occupancy
  Tb  Tb0  1  0.250000  0.580190  0.712808  1
  Tb  Tb1  1  0.250000  0.919165  0.212094  1
  Tb  Tb2  1  0.750000  0.418881  0.287175  1
  Tb  Tb3  1  0.750000  0.080080  0.787899  1
  Mn  Mn4  1  0.250000  0.703579  0.990450  1
  Fe  Fe5  1  0.250000  0.223869  0.170109  1
  Fe  Fe6  1  0.250000  0.276378  0.670207  1
  Fe  Fe7  1  0.750000  0.777591  0.829363  1
  Fe  Fe8  1  0.750000  0.723384  0.329173  1
  Fe  Fe9  1  0.250000  0.877038  0.695803  1
  Fe  Fe10  1  0.250000  0.623215  0.195375  1
  Fe  Fe11  1  0.750000  0.122141  0.303947  1
  Fe  Fe12  1  0.750000  0.377657  0.804694  1
  Fe  Fe13  1  0.250000  0.460186  0.937083  1
  Fe  Fe14  1  0.250000  0.041789  0.437078  1
  Fe  Fe15  1  0.750000  0.540298  0.063307  1
  Fe  Fe16  1  0.750000  0.958144  0.562402  1
  P  P17  1  0.250000  0.429876  0.112876  1
  P  P18  1  0.250000  0.070870  0.613122  1
  P  P19  1  0.750000  0.573766  0.887788  1
  P  P20  1  0.750000  0.928160  0.386523  1
  P  P21  1  0.250000  0.274683  0.852261  1
  P  P22  1  0.250000  0.226031  0.351840  1
  P  P23  1  0.750000  0.726761  0.144974  1
  P  P24  1  0.750000  0.773689  0.647693  1
  P  P25  1  0.250000  0.604897  0.375666  1
  P  P26  1  0.250000  0.893442  0.878255  1
  P  P27  1  0.750000  0.394988  0.624111  1
  P  P28  1  0.750000  0.105130  0.123016  1
  Ir  Ir29  1  0.250000  0.791593  0.483633  1
  Ir  Ir30  1  0.750000  0.293232  0.015853  1
  Ir  Ir31  1  0.750000  0.208254  0.516175  1
  Ir  Ir32  1  0.250000  0.404987  0.476931  1
  Ir  Ir33  1  0.250000  0.097086  0.976347  1
  Ir  Ir34  1  0.750000  0.594608  0.522986  1
  Ir  Ir35  1  0.750000  0.904360  0.020984  1
