# generated using pymatgen
data_Ho2Al3Cu3Si2
_symmetry_space_group_name_H-M   'P 1'
_cell_length_a   8.20661084
_cell_length_b   8.20661054
_cell_length_c   8.20661109
_cell_angle_alpha   139.39311548
_cell_angle_beta   99.94421293
_cell_angle_gamma   93.90587632
_symmetry_Int_Tables_number   1
_chemical_formula_structural   Ho2Al3Cu3Si2
_chemical_formula_sum   'Ho4 Al6 Cu6 Si4'
_cell_volume   336.78742293
_cell_formula_units_Z   2
loop_
 _symmetry_equiv_pos_site_id
 _symmetry_equiv_pos_as_xyz
  1  'x, y, z'
loop_
 _atom_site_type_symbol
 _atom_site_label
 _atom_site_symmetry_multiplicity
 _atom_site_fract_x
 _atom_site_fract_y
 _atom_site_fract_z
 _atom_site_occupancy
  Ho  Ho0  1  0.127255  0.873974  0.253281  1
  Ho  Ho1  1  0.872745  0.126026  0.746719  1
  Ho  Ho2  1  0.379307  0.626026  0.753281  1
  Ho  Ho3  1  0.620693  0.373974  0.246719  1
  Al  Al4  1  0.000000  0.750000  0.750000  1
  Al  Al5  1  0.000000  0.250000  0.250000  1
  Al  Al6  1  0.249465  0.999465  0.750000  1
  Al  Al7  1  0.750535  0.500535  0.750000  1
  Al  Al8  1  0.750535  0.000535  0.250000  1
  Al  Al9  1  0.249465  0.499465  0.250000  1
  Cu  Cu10  1  0.265270  0.124966  0.140304  1
  Cu  Cu11  1  0.500000  0.250000  0.750000  1
  Cu  Cu12  1  0.984662  0.624966  0.359696  1
  Cu  Cu13  1  0.015338  0.375034  0.640304  1
  Cu  Cu14  1  0.734730  0.875034  0.859696  1
  Cu  Cu15  1  0.500000  0.750000  0.250000  1
  Si  Si16  1  0.760557  0.618860  0.141697  1
  Si  Si17  1  0.477164  0.118860  0.358303  1
  Si  Si18  1  0.522836  0.881140  0.641697  1
  Si  Si19  1  0.239443  0.381140  0.858303  1
