# generated using pymatgen
data_Ho9Tm(Zn2Sb)2
_symmetry_space_group_name_H-M   'P 1'
_cell_length_a   8.48612002
_cell_length_b   8.48612061
_cell_length_c   8.48612000
_cell_angle_alpha   123.48963313
_cell_angle_beta   123.48963578
_cell_angle_gamma   84.05508579
_symmetry_Int_Tables_number   1
_chemical_formula_structural   Ho9Tm(Zn2Sb)2
_chemical_formula_sum   'Ho9 Tm1 Zn4 Sb2'
_cell_volume   406.93798318
_cell_formula_units_Z   1
loop_
 _symmetry_equiv_pos_site_id
 _symmetry_equiv_pos_as_xyz
  1  'x, y, z'
loop_
 _atom_site_type_symbol
 _atom_site_label
 _atom_site_symmetry_multiplicity
 _atom_site_fract_x
 _atom_site_fract_y
 _atom_site_fract_z
 _atom_site_occupancy
  Ho  Ho0  1  0.000000  0.000000  0.000000  1
  Ho  Ho1  1  0.509866  0.010156  0.808909  1
  Ho  Ho2  1  0.201249  0.700959  0.191091  1
  Ho  Ho3  1  0.010156  0.201249  0.500290  1
  Ho  Ho4  1  0.700959  0.509866  0.499710  1
  Ho  Ho5  1  0.490134  0.989844  0.191091  1
  Ho  Ho6  1  0.798751  0.299041  0.808909  1
  Ho  Ho7  1  0.989844  0.798751  0.499710  1
  Ho  Ho8  1  0.299041  0.490134  0.500290  1
  Tm  Tm9  1  0.500000  0.500000  0.000000  1
  Zn  Zn10  1  0.137326  0.636664  0.773993  1
  Zn  Zn11  1  0.862674  0.363336  0.226007  1
  Zn  Zn12  1  0.636664  0.862674  0.499338  1
  Zn  Zn13  1  0.363336  0.137326  0.500662  1
  Sb  Sb14  1  0.250409  0.250409  0.000000  1
  Sb  Sb15  1  0.749591  0.749591  0.000000  1
