# generated using pymatgen
data_Pm(GeIr)2
_symmetry_space_group_name_H-M   'P 1'
_cell_length_a   6.02369469
_cell_length_b   6.02369536
_cell_length_c   6.02369541
_cell_angle_alpha   139.33370781
_cell_angle_beta   139.33370969
_cell_angle_gamma   58.86636725
_symmetry_Int_Tables_number   1
_chemical_formula_structural   Pm(GeIr)2
_chemical_formula_sum   'Pm1 Ge2 Ir2'
_cell_volume   91.93627565
_cell_formula_units_Z   1
loop_
 _symmetry_equiv_pos_site_id
 _symmetry_equiv_pos_as_xyz
  1  'x, y, z'
loop_
 _atom_site_type_symbol
 _atom_site_label
 _atom_site_symmetry_multiplicity
 _atom_site_fract_x
 _atom_site_fract_y
 _atom_site_fract_z
 _atom_site_occupancy
  Pm  Pm0  1  0.000000  0.000000  0.000000  1
  Ge  Ge1  1  0.377847  0.377847  0.000000  1
  Ge  Ge2  1  0.622152  0.622152  0.000000  1
  Ir  Ir3  1  0.750000  0.250000  0.500000  1
  Ir  Ir4  1  0.250000  0.750000  0.500000  1
