# generated using pymatgen
data_Y9HoSi6O
_symmetry_space_group_name_H-M   'P 1'
_cell_length_a   8.41906400
_cell_length_b   8.41906324
_cell_length_c   6.31760900
_cell_angle_alpha   90.00000000
_cell_angle_beta   90.00000000
_cell_angle_gamma   119.99999513
_symmetry_Int_Tables_number   1
_chemical_formula_structural   Y9HoSi6O
_chemical_formula_sum   'Y9 Ho1 Si6 O1'
_cell_volume   387.80283481
_cell_formula_units_Z   1
loop_
 _symmetry_equiv_pos_site_id
 _symmetry_equiv_pos_as_xyz
  1  'x, y, z'
loop_
 _atom_site_type_symbol
 _atom_site_label
 _atom_site_symmetry_multiplicity
 _atom_site_fract_x
 _atom_site_fract_y
 _atom_site_fract_z
 _atom_site_occupancy
  Y  Y0  1  0.666667  0.333333  0.500000  1
  Y  Y1  1  0.666667  0.333333  0.000000  1
  Y  Y2  1  0.333333  0.666667  0.000000  1
  Y  Y3  1  0.000030  0.763521  0.260071  1
  Y  Y4  1  0.236479  0.236509  0.260071  1
  Y  Y5  1  0.763491  0.999970  0.260071  1
  Y  Y6  1  0.000030  0.236509  0.739929  1
  Y  Y7  1  0.763491  0.763521  0.739929  1
  Y  Y8  1  0.236479  0.999970  0.739929  1
  Ho  Ho9  1  0.333333  0.666667  0.500000  1
  Si  Si10  1  0.000127  0.396849  0.250042  1
  Si  Si11  1  0.603151  0.603278  0.250042  1
  Si  Si12  1  0.396722  0.999873  0.250042  1
  Si  Si13  1  0.000127  0.603278  0.749958  1
  Si  Si14  1  0.396722  0.396849  0.749958  1
  Si  Si15  1  0.603151  0.999873  0.749958  1
  O  O16  1  0.000000  0.000000  0.500000  1
