# generated using pymatgen
data_Nd7Tm12ScSn16
_symmetry_space_group_name_H-M   'P 1'
_cell_length_a   8.07425600
_cell_length_b   8.23133022
_cell_length_c   15.49181300
_cell_angle_alpha   90.05630507
_cell_angle_beta   90.00036900
_cell_angle_gamma   89.96853729
_symmetry_Int_Tables_number   1
_chemical_formula_structural   Nd7Tm12ScSn16
_chemical_formula_sum   'Nd7 Tm12 Sc1 Sn16'
_cell_volume   1029.61416871
_cell_formula_units_Z   1
loop_
 _symmetry_equiv_pos_site_id
 _symmetry_equiv_pos_as_xyz
  1  'x, y, z'
loop_
 _atom_site_type_symbol
 _atom_site_label
 _atom_site_symmetry_multiplicity
 _atom_site_fract_x
 _atom_site_fract_y
 _atom_site_fract_z
 _atom_site_occupancy
  Nd  Nd0  1  0.515555  0.320293  0.903551  1
  Nd  Nd1  1  0.014430  0.177610  0.595760  1
  Nd  Nd2  1  0.484568  0.677755  0.403205  1
  Nd  Nd3  1  0.984036  0.823314  0.095459  1
  Nd  Nd4  1  0.484386  0.677555  0.096101  1
  Nd  Nd5  1  0.984854  0.822140  0.403420  1
  Nd  Nd6  1  0.515767  0.321443  0.598229  1
  Tm  Tm7  1  0.359297  0.837920  0.876900  1
  Tm  Tm8  1  0.859697  0.662657  0.625413  1
  Tm  Tm9  1  0.640117  0.163536  0.376213  1
  Tm  Tm10  1  0.139133  0.335365  0.122764  1
  Tm  Tm11  1  0.638725  0.162712  0.122872  1
  Tm  Tm12  1  0.140948  0.337025  0.376211  1
  Tm  Tm13  1  0.359201  0.837125  0.624457  1
  Tm  Tm14  1  0.859514  0.663122  0.876053  1
  Tm  Tm15  1  0.191932  0.503003  0.751232  1
  Tm  Tm16  1  0.693713  0.997394  0.751473  1
  Tm  Tm17  1  0.807611  0.495669  0.249695  1
  Tm  Tm18  1  0.306804  0.003692  0.249548  1
  Sc  Sc19  1  0.017815  0.178806  0.900904  1
  Sn  Sn20  1  0.297987  0.044002  0.038949  1
  Sn  Sn21  1  0.804475  0.458718  0.458357  1
  Sn  Sn22  1  0.694835  0.958237  0.542460  1
  Sn  Sn23  1  0.192651  0.536628  0.956903  1
  Sn  Sn24  1  0.705087  0.966032  0.955828  1
  Sn  Sn25  1  0.195537  0.541638  0.542467  1
  Sn  Sn26  1  0.304636  0.041442  0.457949  1
  Sn  Sn27  1  0.805874  0.457202  0.041325  1
  Sn  Sn28  1  0.557725  0.624570  0.750256  1
  Sn  Sn29  1  0.057318  0.878706  0.751187  1
  Sn  Sn30  1  0.441787  0.374844  0.249600  1
  Sn  Sn31  1  0.941810  0.124681  0.249726  1
  Sn  Sn32  1  0.320629  0.143844  0.751578  1
  Sn  Sn33  1  0.830324  0.350790  0.754702  1
  Sn  Sn34  1  0.675530  0.856520  0.249783  1
  Sn  Sn35  1  0.175688  0.644006  0.249471  1
