# generated using pymatgen
data_Dy8Er12Si15Pt
_symmetry_space_group_name_H-M   'P 1'
_cell_length_a   7.31791605
_cell_length_b   7.69800382
_cell_length_c   14.54734200
_cell_angle_alpha   90.00000000
_cell_angle_beta   90.00000000
_cell_angle_gamma   90.22894282
_symmetry_Int_Tables_number   1
_chemical_formula_structural   Dy8Er12Si15Pt
_chemical_formula_sum   'Dy8 Er12 Si15 Pt1'
_cell_volume   819.49390361
_cell_formula_units_Z   1
loop_
 _symmetry_equiv_pos_site_id
 _symmetry_equiv_pos_as_xyz
  1  'x, y, z'
loop_
 _atom_site_type_symbol
 _atom_site_label
 _atom_site_symmetry_multiplicity
 _atom_site_fract_x
 _atom_site_fract_y
 _atom_site_fract_z
 _atom_site_occupancy
  Dy  Dy0  1  0.015628  0.182515  0.096908  1
  Dy  Dy1  1  0.986068  0.819016  0.905937  1
  Dy  Dy2  1  0.485557  0.678392  0.905083  1
  Dy  Dy3  1  0.986068  0.819016  0.594063  1
  Dy  Dy4  1  0.515075  0.320384  0.096955  1
  Dy  Dy5  1  0.015628  0.182515  0.403092  1
  Dy  Dy6  1  0.515075  0.320384  0.403045  1
  Dy  Dy7  1  0.485557  0.678392  0.594917  1
  Er  Er8  1  0.158563  0.511666  0.750000  1
  Er  Er9  1  0.837500  0.489576  0.250000  1
  Er  Er10  1  0.339530  0.012229  0.250000  1
  Er  Er11  1  0.667080  0.991706  0.750000  1
  Er  Er12  1  0.321204  0.174966  0.623861  1
  Er  Er13  1  0.673529  0.824164  0.374887  1
  Er  Er14  1  0.172667  0.678785  0.376029  1
  Er  Er15  1  0.673529  0.824164  0.125113  1
  Er  Er16  1  0.830208  0.321357  0.623318  1
  Er  Er17  1  0.321204  0.174966  0.876139  1
  Er  Er18  1  0.830208  0.321357  0.876682  1
  Er  Er19  1  0.172667  0.678785  0.123971  1
  Si  Si20  1  0.969912  0.893576  0.250000  1
  Si  Si21  1  0.466957  0.607776  0.250000  1
  Si  Si22  1  0.532692  0.394820  0.750000  1
  Si  Si23  1  0.282117  0.867324  0.750000  1
  Si  Si24  1  0.719359  0.131635  0.250000  1
  Si  Si25  1  0.218496  0.370646  0.250000  1
  Si  Si26  1  0.772557  0.624811  0.750000  1
  Si  Si27  1  0.159437  0.470049  0.537613  1
  Si  Si28  1  0.840964  0.533330  0.461015  1
  Si  Si29  1  0.346396  0.968774  0.461140  1
  Si  Si30  1  0.840964  0.533330  0.038985  1
  Si  Si31  1  0.656232  0.030116  0.538161  1
  Si  Si32  1  0.159437  0.470049  0.962387  1
  Si  Si33  1  0.656232  0.030116  0.961839  1
  Si  Si34  1  0.346396  0.968774  0.038860  1
  Pt  Pt35  1  0.029306  0.100540  0.750000  1
