# generated using pymatgen
data_Cs4PrNpCl10
_symmetry_space_group_name_H-M   'P 1'
_cell_length_a   8.69239357
_cell_length_b   9.12276000
_cell_length_c   14.02680800
_cell_angle_alpha   90.00000000
_cell_angle_beta   90.21211446
_cell_angle_gamma   90.00000000
_symmetry_Int_Tables_number   1
_chemical_formula_structural   Cs4PrNpCl10
_chemical_formula_sum   'Cs8 Pr2 Np2 Cl20'
_cell_volume   1112.29889975
_cell_formula_units_Z   2
loop_
 _symmetry_equiv_pos_site_id
 _symmetry_equiv_pos_as_xyz
  1  'x, y, z'
loop_
 _atom_site_type_symbol
 _atom_site_label
 _atom_site_symmetry_multiplicity
 _atom_site_fract_x
 _atom_site_fract_y
 _atom_site_fract_z
 _atom_site_occupancy
  Cs  Cs0  1  0.944951  0.003817  0.827340  1
  Cs  Cs1  1  0.055049  0.996183  0.172660  1
  Cs  Cs2  1  0.445380  0.995125  0.669826  1
  Cs  Cs3  1  0.055049  0.503817  0.172660  1
  Cs  Cs4  1  0.554620  0.004875  0.330174  1
  Cs  Cs5  1  0.944951  0.496183  0.827340  1
  Cs  Cs6  1  0.554620  0.495125  0.330174  1
  Cs  Cs7  1  0.445380  0.504875  0.669826  1
  Pr  Pr8  1  0.431144  0.250000  0.996217  1
  Pr  Pr9  1  0.568856  0.750000  0.003783  1
  Np  Np10  1  0.938012  0.750000  0.501255  1
  Np  Np11  1  0.061988  0.250000  0.498745  1
  Cl  Cl12  1  0.113080  0.750000  0.666374  1
  Cl  Cl13  1  0.886920  0.250000  0.333626  1
  Cl  Cl14  1  0.612210  0.250000  0.831643  1
  Cl  Cl15  1  0.387790  0.750000  0.168357  1
  Cl  Cl16  1  0.846243  0.039044  0.567520  1
  Cl  Cl17  1  0.153757  0.960956  0.432480  1
  Cl  Cl18  1  0.344979  0.958690  0.930405  1
  Cl  Cl19  1  0.153757  0.539044  0.432480  1
  Cl  Cl20  1  0.655021  0.041310  0.069595  1
  Cl  Cl21  1  0.846243  0.460956  0.567520  1
  Cl  Cl22  1  0.655021  0.458690  0.069595  1
  Cl  Cl23  1  0.344979  0.541310  0.930405  1
  Cl  Cl24  1  0.614060  0.750000  0.512626  1
  Cl  Cl25  1  0.385940  0.250000  0.487374  1
  Cl  Cl26  1  0.107216  0.250000  0.986585  1
  Cl  Cl27  1  0.892784  0.750000  0.013415  1
  Cl  Cl28  1  0.648606  0.750000  0.810638  1
  Cl  Cl29  1  0.351394  0.250000  0.189362  1
  Cl  Cl30  1  0.148516  0.250000  0.688631  1
  Cl  Cl31  1  0.851484  0.750000  0.311369  1
