# generated using pymatgen
data_LaIrF7
_symmetry_space_group_name_H-M   'P 1'
_cell_length_a   5.81721200
_cell_length_b   9.34234703
_cell_length_c   12.45272080
_cell_angle_alpha   62.16302442
_cell_angle_beta   90.00000000
_cell_angle_gamma   90.00000000
_symmetry_Int_Tables_number   1
_chemical_formula_structural   LaIrF7
_chemical_formula_sum   'La4 Ir4 F28'
_cell_volume   598.44583291
_cell_formula_units_Z   4
loop_
 _symmetry_equiv_pos_site_id
 _symmetry_equiv_pos_as_xyz
  1  'x, y, z'
loop_
 _atom_site_type_symbol
 _atom_site_label
 _atom_site_symmetry_multiplicity
 _atom_site_fract_x
 _atom_site_fract_y
 _atom_site_fract_z
 _atom_site_occupancy
  La  La0  1  0.759421  0.810089  0.266136  1
  La  La1  1  0.259421  0.189911  0.233864  1
  La  La2  1  0.240579  0.189911  0.733864  1
  La  La3  1  0.740579  0.810089  0.766136  1
  Ir  Ir4  1  0.243809  0.725731  0.544006  1
  Ir  Ir5  1  0.743809  0.274269  0.955994  1
  Ir  Ir6  1  0.756191  0.274269  0.455994  1
  Ir  Ir7  1  0.256191  0.725731  0.044006  1
  F  F8  1  0.964287  0.714546  0.457389  1
  F  F9  1  0.464287  0.285454  0.042611  1
  F  F10  1  0.035713  0.285454  0.542611  1
  F  F11  1  0.535713  0.714546  0.957389  1
  F  F12  1  0.057781  0.707600  0.922632  1
  F  F13  1  0.557781  0.292400  0.577368  1
  F  F14  1  0.942219  0.292400  0.077368  1
  F  F15  1  0.442219  0.707600  0.422632  1
  F  F16  1  0.738569  0.509329  0.862085  1
  F  F17  1  0.238569  0.490671  0.637915  1
  F  F18  1  0.261431  0.490671  0.137915  1
  F  F19  1  0.761431  0.509329  0.362085  1
  F  F20  1  0.740841  0.038993  0.047268  1
  F  F21  1  0.240841  0.961007  0.452732  1
  F  F22  1  0.259159  0.961007  0.952732  1
  F  F23  1  0.759159  0.038993  0.547268  1
  F  F24  1  0.046930  0.742739  0.666800  1
  F  F25  1  0.546930  0.257261  0.833200  1
  F  F26  1  0.953070  0.257261  0.333200  1
  F  F27  1  0.453070  0.742739  0.166800  1
  F  F28  1  0.018739  0.267910  0.865321  1
  F  F29  1  0.518739  0.732090  0.634679  1
  F  F30  1  0.981261  0.732090  0.134679  1
  F  F31  1  0.481261  0.267910  0.365321  1
  F  F32  1  0.087627  0.969254  0.231454  1
  F  F33  1  0.587627  0.030746  0.268546  1
  F  F34  1  0.912373  0.030746  0.768546  1
  F  F35  1  0.412373  0.969254  0.731454  1
