# generated using pymatgen
data_Sr4In2Ir3Pt
_symmetry_space_group_name_H-M   'P 1'
_cell_length_a   6.07407346
_cell_length_b   6.06471794
_cell_length_c   8.22167625
_cell_angle_alpha   78.86808101
_cell_angle_beta   78.65662575
_cell_angle_gamma   60.00343718
_symmetry_Int_Tables_number   1
_chemical_formula_structural   Sr4In2Ir3Pt
_chemical_formula_sum   'Sr4 In2 Ir3 Pt1'
_cell_volume   255.56976788
_cell_formula_units_Z   1
loop_
 _symmetry_equiv_pos_site_id
 _symmetry_equiv_pos_as_xyz
  1  'x, y, z'
loop_
 _atom_site_type_symbol
 _atom_site_label
 _atom_site_symmetry_multiplicity
 _atom_site_fract_x
 _atom_site_fract_y
 _atom_site_fract_z
 _atom_site_occupancy
  Sr  Sr0  1  0.503207  0.789193  0.353965  1
  Sr  Sr1  1  0.212002  0.497485  0.143899  1
  Sr  Sr2  1  0.495746  0.209386  0.645793  1
  Sr  Sr3  1  0.790069  0.504664  0.856293  1
  In  In4  1  0.894087  0.101764  0.245851  1
  In  In5  1  0.108096  0.887463  0.755136  1
  Ir  Ir6  1  0.298948  0.994045  0.991138  1
  Ir  Ir7  1  0.006420  0.712036  0.508647  1
  Ir  Ir8  1  0.697954  0.008716  0.007534  1
  Pt  Pt9  1  0.993470  0.295247  0.491744  1
