# generated using pymatgen
data_Hf18Re8PdRh
_symmetry_space_group_name_H-M   'P 1'
_cell_length_a   8.55326000
_cell_length_b   8.64314995
_cell_length_c   8.64314900
_cell_angle_alpha   120.00107950
_cell_angle_beta   90.00000000
_cell_angle_gamma   90.00000000
_symmetry_Int_Tables_number   1
_chemical_formula_structural   Hf18Re8PdRh
_chemical_formula_sum   'Hf18 Re8 Pd1 Rh1'
_cell_volume   553.35218438
_cell_formula_units_Z   1
loop_
 _symmetry_equiv_pos_site_id
 _symmetry_equiv_pos_as_xyz
  1  'x, y, z'
loop_
 _atom_site_type_symbol
 _atom_site_label
 _atom_site_symmetry_multiplicity
 _atom_site_fract_x
 _atom_site_fract_y
 _atom_site_fract_z
 _atom_site_occupancy
  Hf  Hf0  1  0.554553  0.803616  0.607230  1
  Hf  Hf1  1  0.554560  0.803614  0.196386  1
  Hf  Hf2  1  0.554553  0.392770  0.196384  1
  Hf  Hf3  1  0.446734  0.193597  0.387195  1
  Hf  Hf4  1  0.446736  0.193593  0.806407  1
  Hf  Hf5  1  0.446734  0.612805  0.806403  1
  Hf  Hf6  1  0.053266  0.193597  0.387195  1
  Hf  Hf7  1  0.053264  0.193593  0.806407  1
  Hf  Hf8  1  0.053266  0.612805  0.806403  1
  Hf  Hf9  1  0.945447  0.803616  0.607230  1
  Hf  Hf10  1  0.945440  0.803614  0.196386  1
  Hf  Hf11  1  0.945447  0.392770  0.196384  1
  Hf  Hf12  1  0.750000  0.457108  0.914202  1
  Hf  Hf13  1  0.750000  0.457108  0.542892  1
  Hf  Hf14  1  0.750000  0.085798  0.542892  1
  Hf  Hf15  1  0.250000  0.542960  0.085926  1
  Hf  Hf16  1  0.250000  0.542952  0.457048  1
  Hf  Hf17  1  0.250000  0.914074  0.457040  1
  Re  Re18  1  0.750000  0.110002  0.219998  1
  Re  Re19  1  0.750000  0.110009  0.889991  1
  Re  Re20  1  0.750000  0.780002  0.889998  1
  Re  Re21  1  0.250000  0.889517  0.779050  1
  Re  Re22  1  0.250000  0.889515  0.110485  1
  Re  Re23  1  0.250000  0.220950  0.110483  1
  Re  Re24  1  0.499894  0.000002  0.999998  1
  Re  Re25  1  0.000106  0.000002  0.999998  1
  Pd  Pd26  1  0.250000  0.333338  0.666662  1
  Rh  Rh27  1  0.750000  0.666666  0.333334  1
