# generated using pymatgen
data_Cd3SbBr3
_symmetry_space_group_name_H-M   'P 1'
_cell_length_a   7.63188500
_cell_length_b   8.80409100
_cell_length_c   14.20674500
_cell_angle_alpha   90.00000000
_cell_angle_beta   90.00000000
_cell_angle_gamma   90.00000000
_symmetry_Int_Tables_number   1
_chemical_formula_structural   Cd3SbBr3
_chemical_formula_sum   'Cd12 Sb4 Br12'
_cell_volume   954.57691135
_cell_formula_units_Z   4
loop_
 _symmetry_equiv_pos_site_id
 _symmetry_equiv_pos_as_xyz
  1  'x, y, z'
loop_
 _atom_site_type_symbol
 _atom_site_label
 _atom_site_symmetry_multiplicity
 _atom_site_fract_x
 _atom_site_fract_y
 _atom_site_fract_z
 _atom_site_occupancy
  Cd  Cd0  1  0.511033  0.750000  0.766653  1
  Cd  Cd1  1  0.011033  0.250000  0.733347  1
  Cd  Cd2  1  0.488967  0.250000  0.233347  1
  Cd  Cd3  1  0.988967  0.750000  0.266653  1
  Cd  Cd4  1  0.500000  0.500000  0.500000  1
  Cd  Cd5  1  0.000000  0.500000  0.000000  1
  Cd  Cd6  1  0.500000  0.000000  0.500000  1
  Cd  Cd7  1  0.000000  0.000000  0.000000  1
  Cd  Cd8  1  0.006920  0.750000  0.588287  1
  Cd  Cd9  1  0.506920  0.250000  0.911713  1
  Cd  Cd10  1  0.993080  0.250000  0.411713  1
  Cd  Cd11  1  0.493080  0.750000  0.088287  1
  Sb  Sb12  1  0.853689  0.750000  0.086120  1
  Sb  Sb13  1  0.353689  0.250000  0.413880  1
  Sb  Sb14  1  0.146311  0.250000  0.913880  1
  Sb  Sb15  1  0.646311  0.750000  0.586120  1
  Br  Br16  1  0.803385  0.019532  0.333211  1
  Br  Br17  1  0.303385  0.980468  0.166789  1
  Br  Br18  1  0.196615  0.519532  0.666789  1
  Br  Br19  1  0.696615  0.480468  0.833211  1
  Br  Br20  1  0.196615  0.980468  0.666789  1
  Br  Br21  1  0.696615  0.019532  0.833211  1
  Br  Br22  1  0.803385  0.480468  0.333211  1
  Br  Br23  1  0.303385  0.519532  0.166789  1
  Br  Br24  1  0.300873  0.750000  0.918373  1
  Br  Br25  1  0.800873  0.250000  0.581627  1
  Br  Br26  1  0.699127  0.250000  0.081627  1
  Br  Br27  1  0.199127  0.750000  0.418373  1
