# generated using pymatgen
data_Yb17Ho(PaPt8)2
_symmetry_space_group_name_H-M   'P 1'
_cell_length_a   7.48675448
_cell_length_b   7.56015177
_cell_length_c   14.59791442
_cell_angle_alpha   90.02674087
_cell_angle_beta   89.62814221
_cell_angle_gamma   89.97026441
_symmetry_Int_Tables_number   1
_chemical_formula_structural   Yb17Ho(PaPt8)2
_chemical_formula_sum   'Yb17 Ho1 Pa2 Pt16'
_cell_volume   826.23895235
_cell_formula_units_Z   1
loop_
 _symmetry_equiv_pos_site_id
 _symmetry_equiv_pos_as_xyz
  1  'x, y, z'
loop_
 _atom_site_type_symbol
 _atom_site_label
 _atom_site_symmetry_multiplicity
 _atom_site_fract_x
 _atom_site_fract_y
 _atom_site_fract_z
 _atom_site_occupancy
  Yb  Yb0  1  0.849092  0.660702  0.376218  1
  Yb  Yb1  1  0.348614  0.832736  0.378355  1
  Yb  Yb2  1  0.855369  0.663566  0.120626  1
  Yb  Yb3  1  0.643314  0.164470  0.879148  1
  Yb  Yb4  1  0.151450  0.330508  0.621789  1
  Yb  Yb5  1  0.495047  0.677466  0.591116  1
  Yb  Yb6  1  0.987245  0.824937  0.904293  1
  Yb  Yb7  1  0.512994  0.325522  0.097080  1
  Yb  Yb8  1  0.004723  0.180944  0.408275  1
  Yb  Yb9  1  0.509728  0.317546  0.407690  1
  Yb  Yb10  1  0.001245  0.184038  0.099073  1
  Yb  Yb11  1  0.497401  0.684095  0.901617  1
  Yb  Yb12  1  0.991519  0.813853  0.590821  1
  Yb  Yb13  1  0.802886  0.507563  0.746761  1
  Yb  Yb14  1  0.312521  0.986436  0.747159  1
  Yb  Yb15  1  0.184612  0.489329  0.254114  1
  Yb  Yb16  1  0.698788  0.006655  0.253561  1
  Ho  Ho17  1  0.650378  0.160496  0.623347  1
  Pa  Pa18  1  0.148751  0.342591  0.876224  1
  Pa  Pa19  1  0.351719  0.843242  0.124183  1
  Pt  Pt20  1  0.686624  0.965869  0.460340  1
  Pt  Pt21  1  0.205542  0.548312  0.035494  1
  Pt  Pt22  1  0.293337  0.049062  0.964398  1
  Pt  Pt23  1  0.814719  0.456216  0.541470  1
  Pt  Pt24  1  0.325432  0.028101  0.544151  1
  Pt  Pt25  1  0.836511  0.460045  0.954564  1
  Pt  Pt26  1  0.662126  0.958724  0.044660  1
  Pt  Pt27  1  0.178163  0.529540  0.458293  1
  Pt  Pt28  1  0.437862  0.376473  0.752810  1
  Pt  Pt29  1  0.950879  0.125773  0.760272  1
  Pt  Pt30  1  0.546891  0.626559  0.239446  1
  Pt  Pt31  1  0.065687  0.878847  0.243476  1
  Pt  Pt32  1  0.688534  0.867973  0.746656  1
  Pt  Pt33  1  0.169823  0.631012  0.756406  1
  Pt  Pt34  1  0.332553  0.134473  0.245186  1
  Pt  Pt35  1  0.807920  0.366326  0.250927  1
