# generated using pymatgen
data_Er2Tm10AlCo4Sn
_symmetry_space_group_name_H-M   'P 1'
_cell_length_a   8.21594029
_cell_length_b   8.21155892
_cell_length_c   8.21229700
_cell_angle_alpha   112.07624472
_cell_angle_beta   109.44104640
_cell_angle_gamma   106.91244584
_symmetry_Int_Tables_number   1
_chemical_formula_structural   Er2Tm10AlCo4Sn
_chemical_formula_sum   'Er2 Tm10 Al1 Co4 Sn1'
_cell_volume   425.77203380
_cell_formula_units_Z   1
loop_
 _symmetry_equiv_pos_site_id
 _symmetry_equiv_pos_as_xyz
  1  'x, y, z'
loop_
 _atom_site_type_symbol
 _atom_site_label
 _atom_site_symmetry_multiplicity
 _atom_site_fract_x
 _atom_site_fract_y
 _atom_site_fract_z
 _atom_site_occupancy
  Er  Er0  1  0.562995  0.265485  0.297113  1
  Er  Er1  1  0.181252  0.218802  0.400451  1
  Tm  Tm2  1  0.180994  0.781070  0.962255  1
  Tm  Tm3  1  0.676339  0.488415  0.812874  1
  Tm  Tm4  1  0.675713  0.862980  0.187498  1
  Tm  Tm5  1  0.967674  0.264896  0.703126  1
  Tm  Tm6  1  0.032169  0.734636  0.297009  1
  Tm  Tm7  1  0.323568  0.135901  0.812106  1
  Tm  Tm8  1  0.323626  0.511658  0.187231  1
  Tm  Tm9  1  0.818670  0.218612  0.037075  1
  Tm  Tm10  1  0.818800  0.781675  0.600198  1
  Tm  Tm11  1  0.438235  0.735203  0.703280  1
  Al  Al12  1  0.001044  0.501132  0.500877  1
  Co  Co13  1  0.884457  0.884315  0.999496  1
  Co  Co14  1  0.337968  0.500208  0.838550  1
  Co  Co15  1  0.662083  0.500262  0.161829  1
  Co  Co16  1  0.114289  0.114908  0.998729  1
  Sn  Sn17  1  0.500129  0.999843  0.500303  1
