# generated using pymatgen
data_Mn8NbTcRu2
_symmetry_space_group_name_H-M   'P 1'
_cell_length_a   4.68635200
_cell_length_b   4.68635124
_cell_length_c   7.68967200
_cell_angle_alpha   90.00000000
_cell_angle_beta   90.00000000
_cell_angle_gamma   120.00000540
_symmetry_Int_Tables_number   1
_chemical_formula_structural   Mn8NbTcRu2
_chemical_formula_sum   'Mn8 Nb1 Tc1 Ru2'
_cell_volume   146.25413881
_cell_formula_units_Z   1
loop_
 _symmetry_equiv_pos_site_id
 _symmetry_equiv_pos_as_xyz
  1  'x, y, z'
loop_
 _atom_site_type_symbol
 _atom_site_label
 _atom_site_symmetry_multiplicity
 _atom_site_fract_x
 _atom_site_fract_y
 _atom_site_fract_z
 _atom_site_occupancy
  Mn  Mn0  1  0.173608  0.347216  0.747607  1
  Mn  Mn1  1  0.825881  0.174119  0.254568  1
  Mn  Mn2  1  0.348238  0.174119  0.254568  1
  Mn  Mn3  1  0.652784  0.826392  0.747607  1
  Mn  Mn4  1  0.000000  0.000000  0.001913  1
  Mn  Mn5  1  0.000000  0.000000  0.499193  1
  Mn  Mn6  1  0.825881  0.651762  0.254568  1
  Mn  Mn7  1  0.173608  0.826392  0.747607  1
  Nb  Nb8  1  0.333333  0.666667  0.062246  1
  Tc  Tc9  1  0.333333  0.666667  0.435768  1
  Ru  Ru10  1  0.666667  0.333333  0.923798  1
  Ru  Ru11  1  0.666667  0.333333  0.570554  1
