# generated using pymatgen
data_Tb11Cd9(PdPt)2
_symmetry_space_group_name_H-M   'P 1'
_cell_length_a   13.22375337
_cell_length_b   13.21817895
_cell_length_c   3.71732000
_cell_angle_alpha   90.00000000
_cell_angle_beta   90.00000000
_cell_angle_gamma   112.48092760
_symmetry_Int_Tables_number   1
_chemical_formula_structural   Tb11Cd9(PdPt)2
_chemical_formula_sum   'Tb11 Cd9 Pd2 Pt2'
_cell_volume   600.38732540
_cell_formula_units_Z   1
loop_
 _symmetry_equiv_pos_site_id
 _symmetry_equiv_pos_as_xyz
  1  'x, y, z'
loop_
 _atom_site_type_symbol
 _atom_site_label
 _atom_site_symmetry_multiplicity
 _atom_site_fract_x
 _atom_site_fract_y
 _atom_site_fract_z
 _atom_site_occupancy
  Tb  Tb0  1  0.415772  0.076393  0.000000  1
  Tb  Tb1  1  0.584228  0.923607  0.000000  1
  Tb  Tb2  1  0.075154  0.415923  0.000000  1
  Tb  Tb3  1  0.924846  0.584077  0.000000  1
  Tb  Tb4  1  0.163423  0.837894  0.000000  1
  Tb  Tb5  1  0.836577  0.162106  0.000000  1
  Tb  Tb6  1  0.374121  0.629051  0.000000  1
  Tb  Tb7  1  0.625879  0.370949  0.000000  1
  Tb  Tb8  1  0.309277  0.306907  0.000000  1
  Tb  Tb9  1  0.690723  0.693093  0.000000  1
  Tb  Tb10  1  0.000000  0.000000  0.000000  1
  Cd  Cd11  1  0.365461  0.842519  0.500000  1
  Cd  Cd12  1  0.634539  0.157481  0.500000  1
  Cd  Cd13  1  0.842555  0.366408  0.500000  1
  Cd  Cd14  1  0.157445  0.633592  0.500000  1
  Cd  Cd15  1  0.213355  0.068388  0.500000  1
  Cd  Cd16  1  0.786645  0.931612  0.500000  1
  Cd  Cd17  1  0.068917  0.214161  0.500000  1
  Cd  Cd18  1  0.931083  0.785839  0.500000  1
  Cd  Cd19  1  0.500000  0.500000  0.500000  1
  Pd  Pd20  1  0.248978  0.450828  0.500000  1
  Pd  Pd21  1  0.751022  0.549172  0.500000  1
  Pt  Pt22  1  0.450773  0.249320  0.500000  1
  Pt  Pt23  1  0.549227  0.750680  0.500000  1
