# generated using pymatgen
data_La17Er2CdIr12
_symmetry_space_group_name_H-M   'P 1'
_cell_length_a   11.41481800
_cell_length_b   11.41481800
_cell_length_c   6.50996300
_cell_angle_alpha   90.00000000
_cell_angle_beta   90.00000000
_cell_angle_gamma   90.00000000
_symmetry_Int_Tables_number   1
_chemical_formula_structural   La17Er2CdIr12
_chemical_formula_sum   'La17 Er2 Cd1 Ir12'
_cell_volume   848.23561450
_cell_formula_units_Z   1
loop_
 _symmetry_equiv_pos_site_id
 _symmetry_equiv_pos_as_xyz
  1  'x, y, z'
loop_
 _atom_site_type_symbol
 _atom_site_label
 _atom_site_symmetry_multiplicity
 _atom_site_fract_x
 _atom_site_fract_y
 _atom_site_fract_z
 _atom_site_occupancy
  La  La0  1  0.278903  0.086617  0.392012  1
  La  La1  1  0.290743  0.909859  0.887900  1
  La  La2  1  0.709257  0.090141  0.887900  1
  La  La3  1  0.721097  0.913383  0.392012  1
  La  La4  1  0.589864  0.789264  0.892187  1
  La  La5  1  0.587249  0.210582  0.387606  1
  La  La6  1  0.412751  0.789418  0.387606  1
  La  La7  1  0.410136  0.210736  0.892187  1
  La  La8  1  0.210582  0.412751  0.612394  1
  La  La9  1  0.210736  0.589864  0.107813  1
  La  La10  1  0.789264  0.410136  0.107813  1
  La  La11  1  0.789418  0.587249  0.612394  1
  La  La12  1  0.909859  0.709257  0.112100  1
  La  La13  1  0.913383  0.278903  0.607988  1
  La  La14  1  0.086617  0.721097  0.607988  1
  La  La15  1  0.090141  0.290743  0.112100  1
  La  La16  1  0.000000  0.000000  0.000000  1
  Er  Er17  1  0.500000  0.500000  0.000000  1
  Er  Er18  1  0.500000  0.500000  0.500000  1
  Cd  Cd19  1  0.000000  0.000000  0.500000  1
  Ir  Ir20  1  0.844565  0.156540  0.241840  1
  Ir  Ir21  1  0.843460  0.844565  0.758160  1
  Ir  Ir22  1  0.156540  0.155435  0.758160  1
  Ir  Ir23  1  0.155435  0.843460  0.241840  1
  Ir  Ir24  1  0.648255  0.353524  0.746858  1
  Ir  Ir25  1  0.646476  0.648255  0.253142  1
  Ir  Ir26  1  0.353524  0.351745  0.253142  1
  Ir  Ir27  1  0.351745  0.646476  0.746858  1
  Ir  Ir28  1  0.500000  0.000000  0.122764  1
  Ir  Ir29  1  0.500000  0.000000  0.616916  1
  Ir  Ir30  1  0.000000  0.500000  0.877236  1
  Ir  Ir31  1  0.000000  0.500000  0.383084  1
