# generated using pymatgen
data_Dy4B16IrRu2Rh
_symmetry_space_group_name_H-M   'P 1'
_cell_length_a   3.56829200
_cell_length_b   5.97264034
_cell_length_c   11.57154474
_cell_angle_alpha   90.10394853
_cell_angle_beta   90.00000000
_cell_angle_gamma   90.00000000
_symmetry_Int_Tables_number   1
_chemical_formula_structural   Dy4B16IrRu2Rh
_chemical_formula_sum   'Dy4 B16 Ir1 Ru2 Rh1'
_cell_volume   246.61379897
_cell_formula_units_Z   1
loop_
 _symmetry_equiv_pos_site_id
 _symmetry_equiv_pos_as_xyz
  1  'x, y, z'
loop_
 _atom_site_type_symbol
 _atom_site_label
 _atom_site_symmetry_multiplicity
 _atom_site_fract_x
 _atom_site_fract_y
 _atom_site_fract_z
 _atom_site_occupancy
  Dy  Dy0  1  0.000000  0.129905  0.648000  1
  Dy  Dy1  1  0.000000  0.870251  0.351664  1
  Dy  Dy2  1  0.000000  0.630369  0.849662  1
  Dy  Dy3  1  0.000000  0.369769  0.150486  1
  B  B4  1  0.500000  0.475310  0.691463  1
  B  B5  1  0.500000  0.524984  0.308213  1
  B  B6  1  0.500000  0.976268  0.806901  1
  B  B7  1  0.500000  0.023265  0.193151  1
  B  B8  1  0.500000  0.289748  0.812354  1
  B  B9  1  0.500000  0.710815  0.187727  1
  B  B10  1  0.500000  0.788901  0.685988  1
  B  B11  1  0.500000  0.211060  0.313946  1
  B  B12  1  0.500000  0.363530  0.970322  1
  B  B13  1  0.500000  0.636868  0.029831  1
  B  B14  1  0.500000  0.863803  0.530444  1
  B  B15  1  0.500000  0.136218  0.469273  1
  B  B16  1  0.500000  0.388129  0.546243  1
  B  B17  1  0.500000  0.611942  0.453614  1
  B  B18  1  0.500000  0.887762  0.952382  1
  B  B19  1  0.500000  0.112402  0.047091  1
  Ir  Ir20  1  0.000000  0.142530  0.904915  1
  Ru  Ru21  1  0.000000  0.640585  0.593153  1
  Ru  Ru22  1  0.000000  0.359772  0.407627  1
  Rh  Rh23  1  0.000000  0.855815  0.095551  1
