# generated using pymatgen
data_Eu4Bi6Rh7
_symmetry_space_group_name_H-M   'P 1'
_cell_length_a   7.91957846
_cell_length_b   7.91958091
_cell_length_c   7.91958000
_cell_angle_alpha   109.47121831
_cell_angle_beta   109.47122456
_cell_angle_gamma   109.47121768
_symmetry_Int_Tables_number   1
_chemical_formula_structural   Eu4Bi6Rh7
_chemical_formula_sum   'Eu4 Bi6 Rh7'
_cell_volume   382.37063544
_cell_formula_units_Z   1
loop_
 _symmetry_equiv_pos_site_id
 _symmetry_equiv_pos_as_xyz
  1  'x, y, z'
loop_
 _atom_site_type_symbol
 _atom_site_label
 _atom_site_symmetry_multiplicity
 _atom_site_fract_x
 _atom_site_fract_y
 _atom_site_fract_z
 _atom_site_occupancy
  Eu  Eu0  1  0.500000  0.000000  0.000000  1
  Eu  Eu1  1  0.000000  0.500000  0.000000  1
  Eu  Eu2  1  0.000000  0.000000  0.500000  1
  Eu  Eu3  1  0.500000  0.500000  0.500000  1
  Bi  Bi4  1  0.000000  0.318355  0.318355  1
  Bi  Bi5  1  0.681645  0.000000  0.681645  1
  Bi  Bi6  1  0.681645  0.681645  0.000000  1
  Bi  Bi7  1  0.000000  0.681645  0.681645  1
  Bi  Bi8  1  0.318355  0.000000  0.318355  1
  Bi  Bi9  1  0.318355  0.318355  0.000000  1
  Rh  Rh10  1  0.000000  0.000000  0.000000  1
  Rh  Rh11  1  0.500000  0.750000  0.250000  1
  Rh  Rh12  1  0.750000  0.500000  0.250000  1
  Rh  Rh13  1  0.250000  0.750000  0.500000  1
  Rh  Rh14  1  0.250000  0.500000  0.750000  1
  Rh  Rh15  1  0.500000  0.250000  0.750000  1
  Rh  Rh16  1  0.750000  0.250000  0.500000  1
