# generated using pymatgen
data_Pr4Ga9SiIr6
_symmetry_space_group_name_H-M   'P 1'
_cell_length_a   8.59776732
_cell_length_b   8.71213771
_cell_length_c   8.71213756
_cell_angle_alpha   140.85087418
_cell_angle_beta   108.28898624
_cell_angle_gamma   85.04755091
_symmetry_Int_Tables_number   1
_chemical_formula_structural   Pr4Ga9SiIr6
_chemical_formula_sum   'Pr4 Ga9 Si1 Ir6'
_cell_volume   377.52890996
_cell_formula_units_Z   1
loop_
 _symmetry_equiv_pos_site_id
 _symmetry_equiv_pos_as_xyz
  1  'x, y, z'
loop_
 _atom_site_type_symbol
 _atom_site_label
 _atom_site_symmetry_multiplicity
 _atom_site_fract_x
 _atom_site_fract_y
 _atom_site_fract_z
 _atom_site_occupancy
  Pr  Pr0  1  0.867144  0.638128  0.229016  1
  Pr  Pr1  1  0.135180  0.364560  0.770617  1
  Pr  Pr2  1  0.402346  0.134629  0.267717  1
  Pr  Pr3  1  0.588115  0.861873  0.726243  1
  Ga  Ga4  1  0.501844  0.751087  0.249819  1
  Ga  Ga5  1  0.501844  0.252023  0.750756  1
  Ga  Ga6  1  0.210227  0.958109  0.750309  1
  Ga  Ga7  1  0.788060  0.542507  0.749401  1
  Ga  Ga8  1  0.788060  0.038659  0.245553  1
  Ga  Ga9  1  0.210227  0.459919  0.252119  1
  Ga  Ga10  1  0.077106  0.905809  0.171298  1
  Ga  Ga11  1  0.920711  0.087796  0.832915  1
  Ga  Ga12  1  0.744248  0.411807  0.332441  1
  Si  Si13  1  0.253743  0.589159  0.664584  1
  Ir  Ir14  1  0.010703  0.750358  0.757219  1
  Ir  Ir15  1  0.010703  0.253483  0.260345  1
  Ir  Ir16  1  0.258077  0.852649  0.405426  1
  Ir  Ir17  1  0.747946  0.149042  0.598905  1
  Ir  Ir18  1  0.450745  0.354265  0.096480  1
  Ir  Ir19  1  0.532971  0.644138  0.888833  1
