# generated using pymatgen
data_Pm2Np(BrO6)2
_symmetry_space_group_name_H-M   'P 1'
_cell_length_a   7.54351139
_cell_length_b   7.54351087
_cell_length_c   11.39495100
_cell_angle_alpha   81.30860299
_cell_angle_beta   81.30859591
_cell_angle_gamma   113.24454468
_symmetry_Int_Tables_number   1
_chemical_formula_structural   Pm2Np(BrO6)2
_chemical_formula_sum   'Pm4 Np2 Br4 O24'
_cell_volume   572.87593878
_cell_formula_units_Z   2
loop_
 _symmetry_equiv_pos_site_id
 _symmetry_equiv_pos_as_xyz
  1  'x, y, z'
loop_
 _atom_site_type_symbol
 _atom_site_label
 _atom_site_symmetry_multiplicity
 _atom_site_fract_x
 _atom_site_fract_y
 _atom_site_fract_z
 _atom_site_occupancy
  Pm  Pm0  1  0.201385  0.465033  0.571985  1
  Pm  Pm1  1  0.798615  0.534967  0.428015  1
  Pm  Pm2  1  0.534967  0.798615  0.928015  1
  Pm  Pm3  1  0.465033  0.201385  0.071985  1
  Np  Np4  1  0.672673  0.327327  0.750000  1
  Np  Np5  1  0.327327  0.672673  0.250000  1
  Br  Br6  1  0.083888  0.325621  0.924317  1
  Br  Br7  1  0.916112  0.674379  0.075683  1
  Br  Br8  1  0.674379  0.916112  0.575683  1
  Br  Br9  1  0.325621  0.083888  0.424317  1
  O  O10  1  0.578992  0.459121  0.618837  1
  O  O11  1  0.421008  0.540879  0.381163  1
  O  O12  1  0.540879  0.421008  0.881163  1
  O  O13  1  0.459121  0.578992  0.118837  1
  O  O14  1  0.481181  0.085424  0.739129  1
  O  O15  1  0.518819  0.914576  0.260871  1
  O  O16  1  0.914576  0.518819  0.760871  1
  O  O17  1  0.085424  0.481181  0.239129  1
  O  O18  1  0.671445  0.138193  0.915258  1
  O  O19  1  0.328555  0.861807  0.084742  1
  O  O20  1  0.861807  0.328555  0.584742  1
  O  O21  1  0.138193  0.671445  0.415258  1
  O  O22  1  0.428468  0.778346  0.589025  1
  O  O23  1  0.571532  0.221654  0.410975  1
  O  O24  1  0.221654  0.571532  0.910975  1
  O  O25  1  0.778346  0.428468  0.089025  1
  O  O26  1  0.154440  0.286192  0.787016  1
  O  O27  1  0.845560  0.713808  0.212984  1
  O  O28  1  0.713808  0.845560  0.712984  1
  O  O29  1  0.286192  0.154440  0.287016  1
  O  O30  1  0.835946  0.800155  0.977102  1
  O  O31  1  0.164054  0.199845  0.022898  1
  O  O32  1  0.199845  0.164054  0.522898  1
  O  O33  1  0.800155  0.835946  0.477102  1
