# generated using pymatgen
data_Rb8Tb3Ho3BeBr20
_symmetry_space_group_name_H-M   'P 1'
_cell_length_a   12.31898581
_cell_length_b   12.32428672
_cell_length_c   12.32942814
_cell_angle_alpha   59.95776038
_cell_angle_beta   60.00041161
_cell_angle_gamma   60.04183733
_symmetry_Int_Tables_number   1
_chemical_formula_structural   Rb8Tb3Ho3BeBr20
_chemical_formula_sum   'Rb8 Tb3 Ho3 Be1 Br20'
_cell_volume   1323.62282429
_cell_formula_units_Z   1
loop_
 _symmetry_equiv_pos_site_id
 _symmetry_equiv_pos_as_xyz
  1  'x, y, z'
loop_
 _atom_site_type_symbol
 _atom_site_label
 _atom_site_symmetry_multiplicity
 _atom_site_fract_x
 _atom_site_fract_y
 _atom_site_fract_z
 _atom_site_occupancy
  Rb  Rb0  1  0.358825  0.358863  0.358845  1
  Rb  Rb1  1  0.641175  0.641193  0.641157  1
  Rb  Rb2  1  0.358807  0.358825  0.923523  1
  Rb  Rb3  1  0.358845  0.923465  0.358825  1
  Rb  Rb4  1  0.641137  0.641175  0.076535  1
  Rb  Rb5  1  0.641157  0.076477  0.641175  1
  Rb  Rb6  1  0.923523  0.358843  0.358807  1
  Rb  Rb7  1  0.076535  0.641155  0.641137  1
  Tb  Tb8  1  0.844031  0.155969  0.155720  1
  Tb  Tb9  1  0.155720  0.844280  0.844031  1
  Tb  Tb10  1  0.155684  0.844316  0.155684  1
  Ho  Ho11  1  0.844322  0.155678  0.844322  1
  Ho  Ho12  1  0.155418  0.155673  0.844327  1
  Ho  Ho13  1  0.844327  0.844582  0.155418  1
  Be  Be14  1  0.999757  0.000243  0.999757  1
  Br  Br15  1  0.331405  0.000974  0.999026  1
  Br  Br16  1  0.669413  0.000011  0.999989  1
  Br  Br17  1  0.999989  0.330587  0.669413  1
  Br  Br18  1  0.999026  0.668595  0.331405  1
  Br  Br19  1  0.000952  0.331379  0.999014  1
  Br  Br20  1  0.668621  0.999048  0.331344  1
  Br  Br21  1  0.999014  0.668656  0.000952  1
  Br  Br22  1  0.331344  0.000986  0.668621  1
  Br  Br23  1  0.999982  0.000018  0.332105  1
  Br  Br24  1  0.999019  0.000981  0.668681  1
  Br  Br25  1  0.668681  0.331319  0.999019  1
  Br  Br26  1  0.332105  0.667895  0.999982  1
  Br  Br27  1  0.677807  0.322193  0.322189  1
  Br  Br28  1  0.322189  0.677811  0.677807  1
  Br  Br29  1  0.322217  0.677783  0.322217  1
  Br  Br30  1  0.678970  0.321030  0.678970  1
  Br  Br31  1  0.321032  0.321044  0.678956  1
  Br  Br32  1  0.678956  0.678968  0.321032  1
  Br  Br33  1  0.250007  0.249993  0.250007  1
  Br  Br34  1  0.750007  0.749993  0.750007  1
