# generated using pymatgen
data_RbSrMoN3
_symmetry_space_group_name_H-M   'P 1'
_cell_length_a   6.65163441
_cell_length_b   6.65163474
_cell_length_c   12.82332507
_cell_angle_alpha   90.05837321
_cell_angle_beta   90.05837217
_cell_angle_gamma   125.18573980
_symmetry_Int_Tables_number   1
_chemical_formula_structural   RbSrMoN3
_chemical_formula_sum   'Rb4 Sr4 Mo4 N12'
_cell_volume   463.69419123
_cell_formula_units_Z   4
loop_
 _symmetry_equiv_pos_site_id
 _symmetry_equiv_pos_as_xyz
  1  'x, y, z'
loop_
 _atom_site_type_symbol
 _atom_site_label
 _atom_site_symmetry_multiplicity
 _atom_site_fract_x
 _atom_site_fract_y
 _atom_site_fract_z
 _atom_site_occupancy
  Rb  Rb0  1  0.966499  0.546590  0.359808  1
  Rb  Rb1  1  0.453410  0.033501  0.140192  1
  Rb  Rb2  1  0.033501  0.453410  0.640192  1
  Rb  Rb3  1  0.546590  0.966499  0.859808  1
  Sr  Sr4  1  0.132235  0.345809  0.082026  1
  Sr  Sr5  1  0.654191  0.867765  0.417974  1
  Sr  Sr6  1  0.867765  0.654191  0.917974  1
  Sr  Sr7  1  0.345809  0.132235  0.582026  1
  Mo  Mo8  1  0.770438  0.724978  0.163366  1
  Mo  Mo9  1  0.275022  0.229562  0.336634  1
  Mo  Mo10  1  0.229562  0.275022  0.836634  1
  Mo  Mo11  1  0.724978  0.770438  0.663366  1
  N  N12  1  0.477232  0.522768  0.250000  1
  N  N13  1  0.522768  0.477232  0.750000  1
  N  N14  1  0.910635  0.570781  0.118863  1
  N  N15  1  0.429219  0.089365  0.381137  1
  N  N16  1  0.089365  0.429219  0.881137  1
  N  N17  1  0.570781  0.910635  0.618863  1
  N  N18  1  0.824376  0.696725  0.547126  1
  N  N19  1  0.303275  0.175624  0.952874  1
  N  N20  1  0.175624  0.303275  0.452874  1
  N  N21  1  0.696725  0.824376  0.047126  1
  N  N22  1  0.987662  0.012338  0.250000  1
  N  N23  1  0.012338  0.987662  0.750000  1
