# generated using pymatgen
data_TlSe23
_symmetry_space_group_name_H-M   'P 1'
_cell_length_a   5.23736715
_cell_length_b   10.19426330
_cell_length_c   16.49151900
_cell_angle_alpha   88.31348080
_cell_angle_beta   86.83688808
_cell_angle_gamma   91.83957472
_symmetry_Int_Tables_number   1
_chemical_formula_structural   TlSe23
_chemical_formula_sum   'Tl1 Se23'
_cell_volume   878.27619183
_cell_formula_units_Z   1
loop_
 _symmetry_equiv_pos_site_id
 _symmetry_equiv_pos_as_xyz
  1  'x, y, z'
loop_
 _atom_site_type_symbol
 _atom_site_label
 _atom_site_symmetry_multiplicity
 _atom_site_fract_x
 _atom_site_fract_y
 _atom_site_fract_z
 _atom_site_occupancy
  Tl  Tl0  1  0.504864  0.422809  0.472021  1
  Se  Se1  1  0.458279  0.817436  0.372724  1
  Se  Se2  1  0.041354  0.316913  0.116988  1
  Se  Se3  1  0.849444  0.195647  0.544280  1
  Se  Se4  1  0.240021  0.735898  0.494634  1
  Se  Se5  1  0.250588  0.264227  0.992017  1
  Se  Se6  1  0.754717  0.704434  0.004101  1
  Se  Se7  1  0.137101  0.418107  0.327533  1
  Se  Se8  1  0.738596  0.641053  0.339024  1
  Se  Se9  1  0.777079  0.132870  0.162080  1
  Se  Se10  1  0.261945  0.870262  0.125664  1
  Se  Se11  1  0.754034  0.611143  0.627274  1
  Se  Se12  1  0.244292  0.342087  0.650473  1
  Se  Se13  1  0.229158  0.861868  0.842891  1
  Se  Se14  1  0.740561  0.125768  0.862353  1
  Se  Se15  1  0.037480  0.668111  0.108667  1
  Se  Se16  1  0.489437  0.791585  0.605098  1
  Se  Se17  1  0.462256  0.142036  0.612717  1
  Se  Se18  1  0.986595  0.667643  0.880231  1
  Se  Se19  1  0.992026  0.317673  0.883586  1
  Se  Se20  1  0.499757  0.498609  0.253479  1
  Se  Se21  1  0.044868  0.987562  0.228632  1
  Se  Se22  1  0.537514  0.467881  0.726666  1
  Se  Se23  1  0.968031  0.998375  0.766867  1
