# generated using pymatgen
data_Yb2DyHoRu8
_symmetry_space_group_name_H-M   'P 1'
_cell_length_a   5.25357912
_cell_length_b   5.25358013
_cell_length_c   8.85834921
_cell_angle_alpha   89.99235486
_cell_angle_beta   90.00763596
_cell_angle_gamma   119.99696363
_symmetry_Int_Tables_number   1
_chemical_formula_structural   Yb2DyHoRu8
_chemical_formula_sum   'Yb2 Dy1 Ho1 Ru8'
_cell_volume   211.74216484
_cell_formula_units_Z   1
loop_
 _symmetry_equiv_pos_site_id
 _symmetry_equiv_pos_as_xyz
  1  'x, y, z'
loop_
 _atom_site_type_symbol
 _atom_site_label
 _atom_site_symmetry_multiplicity
 _atom_site_fract_x
 _atom_site_fract_y
 _atom_site_fract_z
 _atom_site_occupancy
  Yb  Yb0  1  0.333377  0.666623  0.060728  1
  Yb  Yb1  1  0.666656  0.333344  0.938828  1
  Dy  Dy2  1  0.333358  0.666642  0.428513  1
  Ho  Ho3  1  0.666647  0.333353  0.572485  1
  Ru  Ru4  1  0.000036  0.999964  0.500092  1
  Ru  Ru5  1  0.000044  0.999956  0.999918  1
  Ru  Ru6  1  0.171493  0.343093  0.749318  1
  Ru  Ru7  1  0.171529  0.828471  0.749332  1
  Ru  Ru8  1  0.656907  0.828507  0.749318  1
  Ru  Ru9  1  0.828338  0.656632  0.250480  1
  Ru  Ru10  1  0.828248  0.171752  0.250510  1
  Ru  Ru11  1  0.343368  0.171662  0.250480  1
