# generated using pymatgen
data_Ta7Nb3SiB4P
_symmetry_space_group_name_H-M   'P 1'
_cell_length_a   7.28682064
_cell_length_b   7.28630047
_cell_length_c   7.28378116
_cell_angle_alpha   129.33510433
_cell_angle_beta   129.33698243
_cell_angle_gamma   74.47160030
_symmetry_Int_Tables_number   1
_chemical_formula_structural   Ta7Nb3SiB4P
_chemical_formula_sum   'Ta7 Nb3 Si1 B4 P1'
_cell_volume   225.45830964
_cell_formula_units_Z   1
loop_
 _symmetry_equiv_pos_site_id
 _symmetry_equiv_pos_as_xyz
  1  'x, y, z'
loop_
 _atom_site_type_symbol
 _atom_site_label
 _atom_site_symmetry_multiplicity
 _atom_site_fract_x
 _atom_site_fract_y
 _atom_site_fract_z
 _atom_site_occupancy
  Ta  Ta0  1  0.997715  0.997828  0.998275  1
  Ta  Ta1  1  0.502102  0.500853  0.001113  1
  Ta  Ta2  1  0.807708  0.305080  0.833521  1
  Ta  Ta3  1  0.194974  0.692303  0.165992  1
  Ta  Ta4  1  0.470834  0.973769  0.165298  1
  Ta  Ta5  1  0.305509  0.470540  0.497099  1
  Ta  Ta6  1  0.028998  0.194612  0.503203  1
  Nb  Nb7  1  0.526380  0.029480  0.835056  1
  Nb  Nb8  1  0.691632  0.525479  0.497342  1
  Nb  Nb9  1  0.973740  0.808411  0.502743  1
  Si  Si10  1  0.749983  0.749755  0.000073  1
  B  B11  1  0.118403  0.615667  0.734126  1
  B  B12  1  0.886212  0.383411  0.268694  1
  B  B13  1  0.614012  0.885610  0.498653  1
  B  B14  1  0.382709  0.116835  0.498625  1
  P  P15  1  0.249090  0.250368  0.000186  1
