# generated using pymatgen
data_Zn3CrH6
_symmetry_space_group_name_H-M   'P 1'
_cell_length_a   4.93021695
_cell_length_b   4.89572466
_cell_length_c   4.95619167
_cell_angle_alpha   93.28500469
_cell_angle_beta   102.11980882
_cell_angle_gamma   99.81383646
_symmetry_Int_Tables_number   1
_chemical_formula_structural   Zn3CrH6
_chemical_formula_sum   'Zn3 Cr1 H6'
_cell_volume   114.71031596
_cell_formula_units_Z   1
loop_
 _symmetry_equiv_pos_site_id
 _symmetry_equiv_pos_as_xyz
  1  'x, y, z'
loop_
 _atom_site_type_symbol
 _atom_site_label
 _atom_site_symmetry_multiplicity
 _atom_site_fract_x
 _atom_site_fract_y
 _atom_site_fract_z
 _atom_site_occupancy
  Zn  Zn0  1  0.274910  0.978845  0.486857  1
  Zn  Zn1  1  0.712184  0.947497  0.918325  1
  Zn  Zn2  1  0.716133  0.429060  0.465950  1
  Cr  Cr3  1  0.753840  0.938988  0.432076  1
  H  H4  1  0.932190  0.170830  0.692423  1
  H  H5  1  0.470189  0.682757  0.399862  1
  H  H6  1  0.804149  0.709219  0.189735  1
  H  H7  1  0.514397  0.042742  0.181119  1
  H  H8  1  0.977855  0.146457  0.286038  1
  H  H9  1  0.969178  0.758986  0.632143  1
