# generated using pymatgen
data_Hf5ZrTi2(NbGa3)2
_symmetry_space_group_name_H-M   'P 1'
_cell_length_a   7.93885800
_cell_length_b   7.95580589
_cell_length_c   5.41246506
_cell_angle_alpha   89.98522846
_cell_angle_beta   90.00000000
_cell_angle_gamma   119.92954842
_symmetry_Int_Tables_number   1
_chemical_formula_structural   Hf5ZrTi2(NbGa3)2
_chemical_formula_sum   'Hf5 Zr1 Ti2 Nb2 Ga6'
_cell_volume   296.26190158
_cell_formula_units_Z   1
loop_
 _symmetry_equiv_pos_site_id
 _symmetry_equiv_pos_as_xyz
  1  'x, y, z'
loop_
 _atom_site_type_symbol
 _atom_site_label
 _atom_site_symmetry_multiplicity
 _atom_site_fract_x
 _atom_site_fract_y
 _atom_site_fract_z
 _atom_site_occupancy
  Hf  Hf0  1  0.243372  0.000000  0.250000  1
  Hf  Hf1  1  0.244705  0.244646  0.749977  1
  Hf  Hf2  1  0.000059  0.755354  0.750023  1
  Hf  Hf3  1  0.000445  0.244991  0.249952  1
  Hf  Hf4  1  0.755454  0.755009  0.250048  1
  Zr  Zr5  1  0.756960  0.000000  0.750000  1
  Ti  Ti6  1  0.666637  0.333421  0.499903  1
  Ti  Ti7  1  0.333215  0.666579  0.000097  1
  Nb  Nb8  1  0.666589  0.333304  0.000116  1
  Nb  Nb9  1  0.333284  0.666696  0.499884  1
  Ga  Ga10  1  0.601973  0.000000  0.250000  1
  Ga  Ga11  1  0.397201  0.000000  0.750000  1
  Ga  Ga12  1  0.999938  0.602257  0.249981  1
  Ga  Ga13  1  0.000589  0.398690  0.750010  1
  Ga  Ga14  1  0.601899  0.601310  0.749990  1
  Ga  Ga15  1  0.397681  0.397743  0.250019  1
