# generated using pymatgen
data_TbYb2Sm3(Si3Ru)8
_symmetry_space_group_name_H-M   'P 1'
_cell_length_a   10.13075665
_cell_length_b   10.13075642
_cell_length_c   8.17618400
_cell_angle_alpha   90.04860446
_cell_angle_beta   89.95139554
_cell_angle_gamma   132.42444062
_symmetry_Int_Tables_number   1
_chemical_formula_structural   TbYb2Sm3(Si3Ru)8
_chemical_formula_sum   'Tb1 Yb2 Sm3 Si24 Ru8'
_cell_volume   619.42570944
_cell_formula_units_Z   1
loop_
 _symmetry_equiv_pos_site_id
 _symmetry_equiv_pos_as_xyz
  1  'x, y, z'
loop_
 _atom_site_type_symbol
 _atom_site_label
 _atom_site_symmetry_multiplicity
 _atom_site_fract_x
 _atom_site_fract_y
 _atom_site_fract_z
 _atom_site_occupancy
  Tb  Tb0  1  0.002070  0.502070  0.750000  1
  Yb  Yb1  1  0.499992  0.499955  0.500034  1
  Yb  Yb2  1  0.999955  0.999992  0.999966  1
  Sm  Sm3  1  0.501699  0.001699  0.750000  1
  Sm  Sm4  1  0.998068  0.498068  0.250000  1
  Sm  Sm5  1  0.497610  0.997610  0.250000  1
  Si  Si6  1  0.797044  0.204506  0.500865  1
  Si  Si7  1  0.295201  0.702740  0.999069  1
  Si  Si8  1  0.202740  0.795201  0.500931  1
  Si  Si9  1  0.704506  0.297044  0.999135  1
  Si  Si10  1  0.332635  0.332497  0.832228  1
  Si  Si11  1  0.667410  0.667483  0.167897  1
  Si  Si12  1  0.167483  0.167410  0.332103  1
  Si  Si13  1  0.832497  0.832635  0.667772  1
  Si  Si14  1  0.121377  0.890218  0.730167  1
  Si  Si15  1  0.109305  0.877794  0.269458  1
  Si  Si16  1  0.609050  0.377553  0.230680  1
  Si  Si17  1  0.623275  0.392001  0.769459  1
  Si  Si18  1  0.877553  0.109050  0.269320  1
  Si  Si19  1  0.892001  0.123275  0.730541  1
  Si  Si20  1  0.390218  0.621377  0.769833  1
  Si  Si21  1  0.377794  0.609305  0.230542  1
  Si  Si22  1  0.346311  0.114778  0.506265  1
  Si  Si23  1  0.885314  0.654222  0.494233  1
  Si  Si24  1  0.384985  0.153405  0.006827  1
  Si  Si25  1  0.846267  0.614811  0.992584  1
  Si  Si26  1  0.653405  0.884985  0.493173  1
  Si  Si27  1  0.114811  0.346267  0.507416  1
  Si  Si28  1  0.614778  0.846311  0.993735  1
  Si  Si29  1  0.154222  0.385314  0.005767  1
  Ru  Ru30  1  0.671225  0.330375  0.500847  1
  Ru  Ru31  1  0.169496  0.828946  0.998922  1
  Ru  Ru32  1  0.328946  0.669496  0.501078  1
  Ru  Ru33  1  0.830375  0.171225  0.999153  1
  Ru  Ru34  1  0.125737  0.125632  0.625116  1
  Ru  Ru35  1  0.874421  0.874589  0.374657  1
  Ru  Ru36  1  0.374589  0.374421  0.125343  1
  Ru  Ru37  1  0.625632  0.625737  0.874884  1
