# generated using pymatgen
data_Tb6CdHg7
_symmetry_space_group_name_H-M   'P 1'
_cell_length_a   8.32388757
_cell_length_b   8.32388728
_cell_length_c   8.32388736
_cell_angle_alpha   113.66521821
_cell_angle_beta   113.66521020
_cell_angle_gamma   113.66520610
_symmetry_Int_Tables_number   1
_chemical_formula_structural   Tb6CdHg7
_chemical_formula_sum   'Tb6 Cd1 Hg7'
_cell_volume   358.93003117
_cell_formula_units_Z   1
loop_
 _symmetry_equiv_pos_site_id
 _symmetry_equiv_pos_as_xyz
  1  'x, y, z'
loop_
 _atom_site_type_symbol
 _atom_site_label
 _atom_site_symmetry_multiplicity
 _atom_site_fract_x
 _atom_site_fract_y
 _atom_site_fract_z
 _atom_site_occupancy
  Tb  Tb0  1  0.979822  0.248343  0.385129  1
  Tb  Tb1  1  0.248343  0.385129  0.979822  1
  Tb  Tb2  1  0.385129  0.979822  0.248343  1
  Tb  Tb3  1  0.020178  0.751657  0.614871  1
  Tb  Tb4  1  0.751657  0.614871  0.020178  1
  Tb  Tb5  1  0.614871  0.020178  0.751657  1
  Cd  Cd6  1  0.500000  0.500000  0.500000  1
  Hg  Hg7  1  0.000000  0.000000  0.000000  1
  Hg  Hg8  1  0.106631  0.560424  0.258025  1
  Hg  Hg9  1  0.560424  0.258025  0.106631  1
  Hg  Hg10  1  0.258025  0.106631  0.560424  1
  Hg  Hg11  1  0.893369  0.439576  0.741975  1
  Hg  Hg12  1  0.439576  0.741975  0.893369  1
  Hg  Hg13  1  0.741975  0.893369  0.439576  1
