# generated using pymatgen
data_Sm2Y2BCl6
_symmetry_space_group_name_H-M   'P 1'
_cell_length_a   3.91763300
_cell_length_b   12.79996400
_cell_length_c   13.32664900
_cell_angle_alpha   90.00000000
_cell_angle_beta   90.00000000
_cell_angle_gamma   90.00000000
_symmetry_Int_Tables_number   1
_chemical_formula_structural   Sm2Y2BCl6
_chemical_formula_sum   'Sm4 Y4 B2 Cl12'
_cell_volume   668.27229522
_cell_formula_units_Z   2
loop_
 _symmetry_equiv_pos_site_id
 _symmetry_equiv_pos_as_xyz
  1  'x, y, z'
loop_
 _atom_site_type_symbol
 _atom_site_label
 _atom_site_symmetry_multiplicity
 _atom_site_fract_x
 _atom_site_fract_y
 _atom_site_fract_z
 _atom_site_occupancy
  Sm  Sm0  1  0.500000  0.127958  0.849565  1
  Sm  Sm1  1  0.500000  0.872042  0.150435  1
  Sm  Sm2  1  0.500000  0.627958  0.650435  1
  Sm  Sm3  1  0.500000  0.372042  0.349565  1
  Y  Y4  1  0.000000  0.105686  0.083486  1
  Y  Y5  1  0.000000  0.894314  0.916514  1
  Y  Y6  1  0.000000  0.605686  0.416514  1
  Y  Y7  1  0.000000  0.394314  0.583486  1
  B  B8  1  0.500000  0.000000  0.000000  1
  B  B9  1  0.500000  0.500000  0.500000  1
  Cl  Cl10  1  0.500000  0.271185  0.679289  1
  Cl  Cl11  1  0.500000  0.728815  0.320711  1
  Cl  Cl12  1  0.500000  0.771185  0.820711  1
  Cl  Cl13  1  0.500000  0.228815  0.179289  1
  Cl  Cl14  1  0.000000  0.257527  0.932150  1
  Cl  Cl15  1  0.000000  0.742473  0.067850  1
  Cl  Cl16  1  0.000000  0.481299  0.243197  1
  Cl  Cl17  1  0.000000  0.518701  0.756803  1
  Cl  Cl18  1  0.000000  0.981299  0.256803  1
  Cl  Cl19  1  0.000000  0.018701  0.743197  1
  Cl  Cl20  1  0.000000  0.242473  0.432150  1
  Cl  Cl21  1  0.000000  0.757527  0.567850  1
