# generated using pymatgen
data_Er8B24MoRh2W
_symmetry_space_group_name_H-M   'P 1'
_cell_length_a   3.63576200
_cell_length_b   9.15878247
_cell_length_c   11.56276838
_cell_angle_alpha   90.43049238
_cell_angle_beta   90.00000000
_cell_angle_gamma   90.00000000
_symmetry_Int_Tables_number   1
_chemical_formula_structural   Er8B24MoRh2W
_chemical_formula_sum   'Er8 B24 Mo1 Rh2 W1'
_cell_volume   385.01952841
_cell_formula_units_Z   1
loop_
 _symmetry_equiv_pos_site_id
 _symmetry_equiv_pos_as_xyz
  1  'x, y, z'
loop_
 _atom_site_type_symbol
 _atom_site_label
 _atom_site_symmetry_multiplicity
 _atom_site_fract_x
 _atom_site_fract_y
 _atom_site_fract_z
 _atom_site_occupancy
  Er  Er0  1  0.500000  0.318685  0.411665  1
  Er  Er1  1  0.500000  0.680468  0.588219  1
  Er  Er2  1  0.500000  0.175374  0.916416  1
  Er  Er3  1  0.500000  0.825034  0.082966  1
  Er  Er4  1  0.500000  0.444464  0.126373  1
  Er  Er5  1  0.500000  0.556878  0.872717  1
  Er  Er6  1  0.500000  0.054830  0.628386  1
  Er  Er7  1  0.500000  0.944335  0.372875  1
  B  B8  1  0.000000  0.107318  0.472102  1
  B  B9  1  0.000000  0.891693  0.528822  1
  B  B10  1  0.000000  0.395483  0.969774  1
  B  B11  1  0.000000  0.606044  0.029657  1
  B  B12  1  0.000000  0.132783  0.318225  1
  B  B13  1  0.000000  0.867165  0.682678  1
  B  B14  1  0.000000  0.368498  0.815503  1
  B  B15  1  0.000000  0.632309  0.184140  1
  B  B16  1  0.000000  0.051231  0.065322  1
  B  B17  1  0.000000  0.948197  0.934080  1
  B  B18  1  0.000000  0.445755  0.565323  1
  B  B19  1  0.000000  0.553111  0.434297  1
  B  B20  1  0.000000  0.483516  0.288205  1
  B  B21  1  0.000000  0.516734  0.711220  1
  B  B22  1  0.000000  0.020489  0.786563  1
  B  B23  1  0.000000  0.978831  0.214192  1
  B  B24  1  0.000000  0.251209  0.078515  1
  B  B25  1  0.000000  0.749994  0.920692  1
  B  B26  1  0.000000  0.250475  0.579318  1
  B  B27  1  0.000000  0.748530  0.421199  1
  B  B28  1  0.000000  0.296798  0.236811  1
  B  B29  1  0.000000  0.704248  0.763216  1
  B  B30  1  0.000000  0.208947  0.734565  1
  B  B31  1  0.000000  0.790908  0.266191  1
  Mo  Mo32  1  0.500000  0.860689  0.819064  1
  Rh  Rh33  1  0.500000  0.361622  0.678112  1
  Rh  Rh34  1  0.500000  0.638037  0.321652  1
  W  W35  1  0.500000  0.139318  0.180945  1
