# generated using pymatgen
data_La2Tb4SbWO14
_symmetry_space_group_name_H-M   'P 1'
_cell_length_a   6.56811491
_cell_length_b   6.56811502
_cell_length_c   7.66355628
_cell_angle_alpha   89.88069543
_cell_angle_beta   90.11930591
_cell_angle_gamma   108.82554568
_symmetry_Int_Tables_number   1
_chemical_formula_structural   La2Tb4SbWO14
_chemical_formula_sum   'La2 Tb4 Sb1 W1 O14'
_cell_volume   312.92016670
_cell_formula_units_Z   1
loop_
 _symmetry_equiv_pos_site_id
 _symmetry_equiv_pos_as_xyz
  1  'x, y, z'
loop_
 _atom_site_type_symbol
 _atom_site_label
 _atom_site_symmetry_multiplicity
 _atom_site_fract_x
 _atom_site_fract_y
 _atom_site_fract_z
 _atom_site_occupancy
  La  La0  1  0.500000  0.500000  0.500000  1
  La  La1  1  0.500000  0.500000  0.000000  1
  Tb  Tb2  1  0.531825  0.001160  0.749853  1
  Tb  Tb3  1  0.001160  0.531825  0.250147  1
  Tb  Tb4  1  0.468175  0.998840  0.250147  1
  Tb  Tb5  1  0.998840  0.468175  0.749853  1
  Sb  Sb6  1  0.000000  0.000000  0.000000  1
  W  W7  1  0.000000  0.000000  0.500000  1
  O  O8  1  0.681845  0.932195  0.471018  1
  O  O9  1  0.932195  0.681845  0.528982  1
  O  O10  1  0.681514  0.934127  0.029945  1
  O  O11  1  0.934127  0.681514  0.970055  1
  O  O12  1  0.318155  0.067805  0.528982  1
  O  O13  1  0.067805  0.318155  0.471018  1
  O  O14  1  0.318486  0.065873  0.970055  1
  O  O15  1  0.065873  0.318486  0.029945  1
  O  O16  1  0.931747  0.068253  0.750348  1
  O  O17  1  0.068253  0.931747  0.249652  1
  O  O18  1  0.363007  0.636993  0.749714  1
  O  O19  1  0.636993  0.363007  0.250286  1
  O  O20  1  0.642249  0.357751  0.749889  1
  O  O21  1  0.357751  0.642249  0.250111  1
