# generated using pymatgen
data_Y2Ho3Bi2Ru
_symmetry_space_group_name_H-M   'P 1'
_cell_length_a   7.95872900
_cell_length_b   8.99560000
_cell_length_c   12.49161900
_cell_angle_alpha   90.00000000
_cell_angle_beta   90.00000000
_cell_angle_gamma   90.00000000
_symmetry_Int_Tables_number   1
_chemical_formula_structural   Y2Ho3Bi2Ru
_chemical_formula_sum   'Y8 Ho12 Bi8 Ru4'
_cell_volume   894.31925692
_cell_formula_units_Z   4
loop_
 _symmetry_equiv_pos_site_id
 _symmetry_equiv_pos_as_xyz
  1  'x, y, z'
loop_
 _atom_site_type_symbol
 _atom_site_label
 _atom_site_symmetry_multiplicity
 _atom_site_fract_x
 _atom_site_fract_y
 _atom_site_fract_z
 _atom_site_occupancy
  Y  Y0  1  0.840312  0.750000  0.791975  1
  Y  Y1  1  0.159688  0.250000  0.208025  1
  Y  Y2  1  0.340312  0.250000  0.708025  1
  Y  Y3  1  0.659688  0.750000  0.291975  1
  Y  Y4  1  0.374717  0.750000  0.690944  1
  Y  Y5  1  0.625283  0.250000  0.309056  1
  Y  Y6  1  0.874717  0.250000  0.809056  1
  Y  Y7  1  0.125283  0.750000  0.190944  1
  Ho  Ho8  1  0.945527  0.750000  0.504231  1
  Ho  Ho9  1  0.054473  0.250000  0.495769  1
  Ho  Ho10  1  0.445527  0.250000  0.995769  1
  Ho  Ho11  1  0.554473  0.750000  0.004231  1
  Ho  Ho12  1  0.674457  0.041803  0.564551  1
  Ho  Ho13  1  0.325543  0.958197  0.435449  1
  Ho  Ho14  1  0.174457  0.958197  0.935449  1
  Ho  Ho15  1  0.325543  0.541803  0.435449  1
  Ho  Ho16  1  0.825543  0.041803  0.064551  1
  Ho  Ho17  1  0.674457  0.458197  0.564551  1
  Ho  Ho18  1  0.825543  0.458197  0.064551  1
  Ho  Ho19  1  0.174457  0.541803  0.935449  1
  Bi  Bi20  1  0.567136  0.493193  0.827762  1
  Bi  Bi21  1  0.432864  0.506807  0.172238  1
  Bi  Bi22  1  0.067136  0.506807  0.672238  1
  Bi  Bi23  1  0.432864  0.993193  0.172238  1
  Bi  Bi24  1  0.932864  0.493193  0.327762  1
  Bi  Bi25  1  0.567136  0.006807  0.827762  1
  Bi  Bi26  1  0.932864  0.006807  0.327762  1
  Bi  Bi27  1  0.067136  0.993193  0.672238  1
  Ru  Ru28  1  0.574671  0.750000  0.510128  1
  Ru  Ru29  1  0.425329  0.250000  0.489872  1
  Ru  Ru30  1  0.074671  0.250000  0.989872  1
  Ru  Ru31  1  0.925329  0.750000  0.010128  1
