# generated using pymatgen
data_Hf6Ti2Al14GeRh7
_symmetry_space_group_name_H-M   'P 1'
_cell_length_a   8.78202928
_cell_length_b   8.78218436
_cell_length_c   8.78209815
_cell_angle_alpha   120.18715209
_cell_angle_beta   119.76782585
_cell_angle_gamma   90.03816710
_symmetry_Int_Tables_number   1
_chemical_formula_structural   Hf6Ti2Al14GeRh7
_chemical_formula_sum   'Hf6 Ti2 Al14 Ge1 Rh7'
_cell_volume   479.09946097
_cell_formula_units_Z   1
loop_
 _symmetry_equiv_pos_site_id
 _symmetry_equiv_pos_as_xyz
  1  'x, y, z'
loop_
 _atom_site_type_symbol
 _atom_site_label
 _atom_site_symmetry_multiplicity
 _atom_site_fract_x
 _atom_site_fract_y
 _atom_site_fract_z
 _atom_site_occupancy
  Hf  Hf0  1  0.796853  0.293793  0.082925  1
  Hf  Hf1  1  0.210862  0.293756  0.496907  1
  Hf  Hf2  1  0.204549  0.704597  0.500022  1
  Hf  Hf3  1  0.210823  0.713965  0.917074  1
  Hf  Hf4  1  0.796901  0.713942  0.503109  1
  Hf  Hf5  1  0.788034  0.288048  0.500009  1
  Ti  Ti6  1  0.380335  0.123272  0.742929  1
  Ti  Ti7  1  0.380319  0.637378  0.257059  1
  Al  Al8  1  0.163397  0.336361  0.172965  1
  Al  Al9  1  0.163435  0.990488  0.827049  1
  Al  Al10  1  0.159351  0.338069  0.821227  1
  Al  Al11  1  0.516826  0.338061  0.178714  1
  Al  Al12  1  0.836273  0.662935  0.826653  1
  Al  Al13  1  0.836276  0.009611  0.173329  1
  Al  Al14  1  0.835732  0.663263  0.172449  1
  Al  Al15  1  0.490801  0.663256  0.827521  1
  Al  Al16  1  0.380475  0.120306  0.260188  1
  Al  Al17  1  0.860115  0.120311  0.739833  1
  Al  Al18  1  0.619514  0.878206  0.258679  1
  Al  Al19  1  0.619510  0.360819  0.741338  1
  Al  Al20  1  0.618064  0.878346  0.739792  1
  Al  Al21  1  0.138567  0.878355  0.260277  1
  Ge  Ge22  1  0.995834  0.495788  0.500002  1
  Rh  Rh23  1  0.001473  0.000931  0.501913  1
  Rh  Rh24  1  0.499009  0.000925  0.999459  1
  Rh  Rh25  1  0.497983  0.498020  0.000034  1
  Rh  Rh26  1  0.498974  0.499553  0.497988  1
  Rh  Rh27  1  0.001590  0.499568  0.000598  1
  Rh  Rh28  1  0.000752  0.000755  0.999994  1
  Rh  Rh29  1  0.497363  0.997319  0.499964  1
