# generated using pymatgen
data_Dy3YGa4(NiIr)2
_symmetry_space_group_name_H-M   'P 1'
_cell_length_a   4.31044000
_cell_length_b   6.81462487
_cell_length_c   7.58694792
_cell_angle_alpha   89.94279531
_cell_angle_beta   90.00000000
_cell_angle_gamma   90.00000000
_symmetry_Int_Tables_number   1
_chemical_formula_structural   Dy3YGa4(NiIr)2
_chemical_formula_sum   'Dy3 Y1 Ga4 Ni2 Ir2'
_cell_volume   222.85913713
_cell_formula_units_Z   1
loop_
 _symmetry_equiv_pos_site_id
 _symmetry_equiv_pos_as_xyz
  1  'x, y, z'
loop_
 _atom_site_type_symbol
 _atom_site_label
 _atom_site_symmetry_multiplicity
 _atom_site_fract_x
 _atom_site_fract_y
 _atom_site_fract_z
 _atom_site_occupancy
  Dy  Dy0  1  0.250000  0.022573  0.811961  1
  Dy  Dy1  1  0.750000  0.980972  0.190402  1
  Dy  Dy2  1  0.750000  0.480399  0.309899  1
  Y  Y3  1  0.250000  0.521873  0.688897  1
  Ga  Ga4  1  0.250000  0.163409  0.438163  1
  Ga  Ga5  1  0.250000  0.663918  0.062127  1
  Ga  Ga6  1  0.750000  0.840421  0.578486  1
  Ga  Ga7  1  0.750000  0.341605  0.920821  1
  Ni  Ni8  1  0.750000  0.216502  0.608867  1
  Ni  Ni9  1  0.750000  0.719665  0.891485  1
  Ir  Ir10  1  0.250000  0.773961  0.391254  1
  Ir  Ir11  1  0.250000  0.274703  0.107640  1
