# generated using pymatgen
data_SmMg(UPt6)2
_symmetry_space_group_name_H-M   'P 1'
_cell_length_a   5.75811300
_cell_length_b   5.75811313
_cell_length_c   9.46466700
_cell_angle_alpha   90.00000000
_cell_angle_beta   90.00000000
_cell_angle_gamma   120.00000498
_symmetry_Int_Tables_number   1
_chemical_formula_structural   SmMg(UPt6)2
_chemical_formula_sum   'Sm1 Mg1 U2 Pt12'
_cell_volume   271.76675283
_cell_formula_units_Z   1
loop_
 _symmetry_equiv_pos_site_id
 _symmetry_equiv_pos_as_xyz
  1  'x, y, z'
loop_
 _atom_site_type_symbol
 _atom_site_label
 _atom_site_symmetry_multiplicity
 _atom_site_fract_x
 _atom_site_fract_y
 _atom_site_fract_z
 _atom_site_occupancy
  Sm  Sm0  1  0.333333  0.666667  0.250000  1
  Mg  Mg1  1  0.666667  0.333333  0.750000  1
  U  U2  1  0.000000  0.000000  0.502284  1
  U  U3  1  0.000000  0.000000  0.997716  1
  Pt  Pt4  1  0.168395  0.336790  0.750000  1
  Pt  Pt5  1  0.995768  0.497885  0.993310  1
  Pt  Pt6  1  0.830506  0.661013  0.250000  1
  Pt  Pt7  1  0.338987  0.169494  0.250000  1
  Pt  Pt8  1  0.502115  0.497885  0.993310  1
  Pt  Pt9  1  0.830506  0.169494  0.250000  1
  Pt  Pt10  1  0.502115  0.497885  0.506690  1
  Pt  Pt11  1  0.502115  0.004232  0.506690  1
  Pt  Pt12  1  0.168395  0.831605  0.750000  1
  Pt  Pt13  1  0.663210  0.831605  0.750000  1
  Pt  Pt14  1  0.502115  0.004232  0.993310  1
  Pt  Pt15  1  0.995768  0.497885  0.506690  1
