# generated using pymatgen
data_TbTm15Cd4Co3Ni
_symmetry_space_group_name_H-M   'P 1'
_cell_length_a   9.38570624
_cell_length_b   9.37853987
_cell_length_c   9.37854051
_cell_angle_alpha   60.03776368
_cell_angle_beta   60.03684428
_cell_angle_gamma   60.03684925
_symmetry_Int_Tables_number   1
_chemical_formula_structural   TbTm15Cd4Co3Ni
_chemical_formula_sum   'Tb1 Tm15 Cd4 Co3 Ni1'
_cell_volume   584.23561710
_cell_formula_units_Z   1
loop_
 _symmetry_equiv_pos_site_id
 _symmetry_equiv_pos_as_xyz
  1  'x, y, z'
loop_
 _atom_site_type_symbol
 _atom_site_label
 _atom_site_symmetry_multiplicity
 _atom_site_fract_x
 _atom_site_fract_y
 _atom_site_fract_z
 _atom_site_occupancy
  Tb  Tb0  1  0.345425  0.348569  0.348569  1
  Tm  Tm1  1  0.344903  0.347525  0.958042  1
  Tm  Tm2  1  0.344903  0.958042  0.347525  1
  Tm  Tm3  1  0.960764  0.345954  0.345954  1
  Tm  Tm4  1  0.816071  0.187631  0.187631  1
  Tm  Tm5  1  0.187548  0.812240  0.812240  1
  Tm  Tm6  1  0.186539  0.813925  0.187620  1
  Tm  Tm7  1  0.815296  0.188392  0.808524  1
  Tm  Tm8  1  0.186539  0.187620  0.813925  1
  Tm  Tm9  1  0.815296  0.808524  0.188392  1
  Tm  Tm10  1  0.936186  0.563132  0.563132  1
  Tm  Tm11  1  0.561094  0.938099  0.938099  1
  Tm  Tm12  1  0.561081  0.937416  0.564270  1
  Tm  Tm13  1  0.937440  0.562570  0.938846  1
  Tm  Tm14  1  0.561081  0.564270  0.937416  1
  Tm  Tm15  1  0.937440  0.938846  0.562570  1
  Cd  Cd16  1  0.581159  0.580767  0.580767  1
  Cd  Cd17  1  0.581570  0.581653  0.257534  1
  Cd  Cd18  1  0.581570  0.257534  0.581653  1
  Cd  Cd19  1  0.256415  0.581914  0.581914  1
  Co  Co20  1  0.142421  0.141465  0.141465  1
  Co  Co21  1  0.141312  0.139580  0.575444  1
  Co  Co22  1  0.141312  0.575444  0.139580  1
  Ni  Ni23  1  0.576636  0.138888  0.138888  1
