# generated using pymatgen
data_LaPr(CdCu5)2
_symmetry_space_group_name_H-M   'P 1'
_cell_length_a   5.13399900
_cell_length_b   8.44086400
_cell_length_c   10.54245300
_cell_angle_alpha   90.00000000
_cell_angle_beta   90.00000000
_cell_angle_gamma   90.00000000
_symmetry_Int_Tables_number   1
_chemical_formula_structural   LaPr(CdCu5)2
_chemical_formula_sum   'La2 Pr2 Cd4 Cu20'
_cell_volume   456.86128422
_cell_formula_units_Z   2
loop_
 _symmetry_equiv_pos_site_id
 _symmetry_equiv_pos_as_xyz
  1  'x, y, z'
loop_
 _atom_site_type_symbol
 _atom_site_label
 _atom_site_symmetry_multiplicity
 _atom_site_fract_x
 _atom_site_fract_y
 _atom_site_fract_z
 _atom_site_occupancy
  La  La0  1  0.000000  0.755529  0.687804  1
  La  La1  1  0.000000  0.255529  0.312196  1
  Pr  Pr2  1  0.500000  0.244047  0.812392  1
  Pr  Pr3  1  0.500000  0.744047  0.187608  1
  Cd  Cd4  1  0.500000  0.363494  0.113138  1
  Cd  Cd5  1  0.500000  0.863494  0.886862  1
  Cd  Cd6  1  0.000000  0.637779  0.384771  1
  Cd  Cd7  1  0.000000  0.137779  0.615229  1
  Cu  Cu8  1  0.500000  0.684114  0.506899  1
  Cu  Cu9  1  0.500000  0.184114  0.493101  1
  Cu  Cu10  1  0.000000  0.315429  0.991534  1
  Cu  Cu11  1  0.000000  0.815429  0.008466  1
  Cu  Cu12  1  0.500000  0.948616  0.638723  1
  Cu  Cu13  1  0.500000  0.448616  0.361277  1
  Cu  Cu14  1  0.000000  0.051858  0.862405  1
  Cu  Cu15  1  0.000000  0.551858  0.137595  1
  Cu  Cu16  1  0.500000  0.581169  0.734308  1
  Cu  Cu17  1  0.500000  0.081169  0.265692  1
  Cu  Cu18  1  0.000000  0.418193  0.766083  1
  Cu  Cu19  1  0.000000  0.918193  0.233917  1
  Cu  Cu20  1  0.749531  0.068917  0.063923  1
  Cu  Cu21  1  0.250469  0.568917  0.936077  1
  Cu  Cu22  1  0.250505  0.930969  0.435811  1
  Cu  Cu23  1  0.749495  0.430969  0.564189  1
  Cu  Cu24  1  0.749495  0.930969  0.435811  1
  Cu  Cu25  1  0.250505  0.430969  0.564189  1
  Cu  Cu26  1  0.250469  0.068917  0.063923  1
  Cu  Cu27  1  0.749531  0.568917  0.936077  1
