# generated using pymatgen
data_NpCrB6Mo
_symmetry_space_group_name_H-M   'P 1'
_cell_length_a   3.33799900
_cell_length_b   8.89955000
_cell_length_c   11.25658700
_cell_angle_alpha   90.00000000
_cell_angle_beta   90.00000000
_cell_angle_gamma   90.00000000
_symmetry_Int_Tables_number   1
_chemical_formula_structural   NpCrB6Mo
_chemical_formula_sum   'Np4 Cr4 B24 Mo4'
_cell_volume   334.39592922
_cell_formula_units_Z   4
loop_
 _symmetry_equiv_pos_site_id
 _symmetry_equiv_pos_as_xyz
  1  'x, y, z'
loop_
 _atom_site_type_symbol
 _atom_site_label
 _atom_site_symmetry_multiplicity
 _atom_site_fract_x
 _atom_site_fract_y
 _atom_site_fract_z
 _atom_site_occupancy
  Np  Np0  1  0.000000  0.820611  0.086461  1
  Np  Np1  1  0.000000  0.179389  0.913539  1
  Np  Np2  1  0.000000  0.320611  0.413539  1
  Np  Np3  1  0.000000  0.679389  0.586461  1
  Cr  Cr4  1  0.000000  0.143148  0.183500  1
  Cr  Cr5  1  0.000000  0.856852  0.816500  1
  Cr  Cr6  1  0.000000  0.643148  0.316500  1
  Cr  Cr7  1  0.000000  0.356852  0.683500  1
  B  B8  1  0.500000  0.053643  0.066765  1
  B  B9  1  0.500000  0.946357  0.933235  1
  B  B10  1  0.500000  0.553643  0.433235  1
  B  B11  1  0.500000  0.446357  0.566765  1
  B  B12  1  0.500000  0.254204  0.081163  1
  B  B13  1  0.500000  0.745796  0.918837  1
  B  B14  1  0.500000  0.754204  0.418837  1
  B  B15  1  0.500000  0.245796  0.581163  1
  B  B16  1  0.500000  0.297088  0.235679  1
  B  B17  1  0.500000  0.702912  0.764321  1
  B  B18  1  0.500000  0.797088  0.264321  1
  B  B19  1  0.500000  0.202912  0.735679  1
  B  B20  1  0.500000  0.129273  0.318382  1
  B  B21  1  0.500000  0.870727  0.681618  1
  B  B22  1  0.500000  0.629273  0.181618  1
  B  B23  1  0.500000  0.370727  0.818382  1
  B  B24  1  0.500000  0.481088  0.286583  1
  B  B25  1  0.500000  0.518912  0.713417  1
  B  B26  1  0.500000  0.981088  0.213417  1
  B  B27  1  0.500000  0.018912  0.786583  1
  B  B28  1  0.500000  0.099210  0.473990  1
  B  B29  1  0.500000  0.900790  0.526010  1
  B  B30  1  0.500000  0.599210  0.026010  1
  B  B31  1  0.500000  0.400790  0.973990  1
  Mo  Mo32  1  0.000000  0.444519  0.127961  1
  Mo  Mo33  1  0.000000  0.555481  0.872039  1
  Mo  Mo34  1  0.000000  0.944519  0.372039  1
  Mo  Mo35  1  0.000000  0.055481  0.627961  1
