# generated using pymatgen
data_Dy6Cd23P
_symmetry_space_group_name_H-M   'P 1'
_cell_length_a   9.94280363
_cell_length_b   9.94280356
_cell_length_c   9.94280300
_cell_angle_alpha   60.00000520
_cell_angle_beta   60.00000543
_cell_angle_gamma   60.00001107
_symmetry_Int_Tables_number   1
_chemical_formula_structural   Dy6Cd23P
_chemical_formula_sum   'Dy6 Cd23 P1'
_cell_volume   695.04292914
_cell_formula_units_Z   1
loop_
 _symmetry_equiv_pos_site_id
 _symmetry_equiv_pos_as_xyz
  1  'x, y, z'
loop_
 _atom_site_type_symbol
 _atom_site_label
 _atom_site_symmetry_multiplicity
 _atom_site_fract_x
 _atom_site_fract_y
 _atom_site_fract_z
 _atom_site_occupancy
  Dy  Dy0  1  0.802043  0.802043  0.197957  1
  Dy  Dy1  1  0.197957  0.802043  0.197957  1
  Dy  Dy2  1  0.802043  0.197957  0.197957  1
  Dy  Dy3  1  0.197957  0.197957  0.802043  1
  Dy  Dy4  1  0.802043  0.197957  0.802043  1
  Dy  Dy5  1  0.197957  0.802043  0.802043  1
  Cd  Cd6  1  0.836735  0.836735  0.489797  1
  Cd  Cd7  1  0.836735  0.489797  0.836735  1
  Cd  Cd8  1  0.489797  0.836735  0.836735  1
  Cd  Cd9  1  0.836735  0.836735  0.836735  1
  Cd  Cd10  1  0.163265  0.163265  0.510203  1
  Cd  Cd11  1  0.163265  0.510203  0.163265  1
  Cd  Cd12  1  0.510203  0.163265  0.163265  1
  Cd  Cd13  1  0.163265  0.163265  0.163265  1
  Cd  Cd14  1  0.621445  0.621445  0.135666  1
  Cd  Cd15  1  0.621445  0.135666  0.621445  1
  Cd  Cd16  1  0.135666  0.621445  0.621445  1
  Cd  Cd17  1  0.621445  0.621445  0.621445  1
  Cd  Cd18  1  0.378555  0.378555  0.864334  1
  Cd  Cd19  1  0.378555  0.864334  0.378555  1
  Cd  Cd20  1  0.864334  0.378555  0.378555  1
  Cd  Cd21  1  0.378555  0.378555  0.378555  1
  Cd  Cd22  1  0.000000  0.000000  0.500000  1
  Cd  Cd23  1  0.500000  0.000000  0.500000  1
  Cd  Cd24  1  0.000000  0.500000  0.500000  1
  Cd  Cd25  1  0.500000  0.500000  0.000000  1
  Cd  Cd26  1  0.000000  0.500000  0.000000  1
  Cd  Cd27  1  0.500000  0.000000  0.000000  1
  Cd  Cd28  1  0.500000  0.500000  0.500000  1
  P  P29  1  0.000000  0.000000  0.000000  1
