# generated using pymatgen
data_Tm16MgCo4Hg2Au
_symmetry_space_group_name_H-M   'P 1'
_cell_length_a   9.34841358
_cell_length_b   9.33353296
_cell_length_c   9.34685500
_cell_angle_alpha   59.95276949
_cell_angle_beta   60.00551140
_cell_angle_gamma   59.86932120
_symmetry_Int_Tables_number   1
_chemical_formula_structural   Tm16MgCo4Hg2Au
_chemical_formula_sum   'Tm16 Mg1 Co4 Hg2 Au1'
_cell_volume   575.92618800
_cell_formula_units_Z   1
loop_
 _symmetry_equiv_pos_site_id
 _symmetry_equiv_pos_as_xyz
  1  'x, y, z'
loop_
 _atom_site_type_symbol
 _atom_site_label
 _atom_site_symmetry_multiplicity
 _atom_site_fract_x
 _atom_site_fract_y
 _atom_site_fract_z
 _atom_site_occupancy
  Tm  Tm0  1  0.347203  0.345946  0.345204  1
  Tm  Tm1  1  0.347203  0.345946  0.961647  1
  Tm  Tm2  1  0.347098  0.962089  0.345407  1
  Tm  Tm3  1  0.950175  0.350093  0.349865  1
  Tm  Tm4  1  0.809027  0.189730  0.190878  1
  Tm  Tm5  1  0.186474  0.812700  0.813072  1
  Tm  Tm6  1  0.186474  0.812700  0.187754  1
  Tm  Tm7  1  0.809027  0.189730  0.810365  1
  Tm  Tm8  1  0.187466  0.187099  0.812718  1
  Tm  Tm9  1  0.809064  0.810316  0.190310  1
  Tm  Tm10  1  0.936807  0.563234  0.561731  1
  Tm  Tm11  1  0.561359  0.943716  0.932714  1
  Tm  Tm12  1  0.561359  0.943716  0.562210  1
  Tm  Tm13  1  0.936807  0.563234  0.938228  1
  Tm  Tm14  1  0.561437  0.564060  0.937251  1
  Tm  Tm15  1  0.933229  0.943872  0.561450  1
  Mg  Mg16  1  0.288707  0.566539  0.572376  1
  Co  Co17  1  0.138458  0.142299  0.142362  1
  Co  Co18  1  0.138458  0.142299  0.576882  1
  Co  Co19  1  0.138104  0.576397  0.142750  1
  Co  Co20  1  0.576568  0.140614  0.141410  1
  Hg  Hg21  1  0.582474  0.583943  0.586619  1
  Hg  Hg22  1  0.582474  0.583943  0.246961  1
  Au  Au23  1  0.584547  0.235786  0.589832  1
