# generated using pymatgen
data_TbYb7(AgSn)4
_symmetry_space_group_name_H-M   'P 1'
_cell_length_a   7.43414708
_cell_length_b   5.17122500
_cell_length_c   10.35421300
_cell_angle_alpha   90.00000000
_cell_angle_beta   90.03094404
_cell_angle_gamma   90.00000000
_symmetry_Int_Tables_number   1
_chemical_formula_structural   TbYb7(AgSn)4
_chemical_formula_sum   'Tb1 Yb7 Ag4 Sn4'
_cell_volume   398.05365413
_cell_formula_units_Z   1
loop_
 _symmetry_equiv_pos_site_id
 _symmetry_equiv_pos_as_xyz
  1  'x, y, z'
loop_
 _atom_site_type_symbol
 _atom_site_label
 _atom_site_symmetry_multiplicity
 _atom_site_fract_x
 _atom_site_fract_y
 _atom_site_fract_z
 _atom_site_occupancy
  Tb  Tb0  1  0.998809  0.750000  0.125921  1
  Yb  Yb1  1  0.496588  0.750000  0.125980  1
  Yb  Yb2  1  0.000553  0.250000  0.378353  1
  Yb  Yb3  1  0.500079  0.250000  0.373766  1
  Yb  Yb4  1  0.502836  0.750000  0.625732  1
  Yb  Yb5  1  0.001232  0.750000  0.625900  1
  Yb  Yb6  1  0.499636  0.250000  0.874591  1
  Yb  Yb7  1  0.000285  0.250000  0.869889  1
  Ag  Ag8  1  0.754883  0.250000  0.122623  1
  Ag  Ag9  1  0.247514  0.750000  0.374503  1
  Ag  Ag10  1  0.749803  0.250000  0.622756  1
  Ag  Ag11  1  0.247404  0.750000  0.879660  1
  Sn  Sn12  1  0.244899  0.250000  0.123772  1
  Sn  Sn13  1  0.751600  0.750000  0.374366  1
  Sn  Sn14  1  0.252802  0.250000  0.623574  1
  Sn  Sn15  1  0.751076  0.750000  0.878617  1
