# generated using pymatgen
data_Er11In(Hg2Pt)4
_symmetry_space_group_name_H-M   'P 1'
_cell_length_a   12.87931400
_cell_length_b   12.87930058
_cell_length_c   3.69353800
_cell_angle_alpha   90.00000000
_cell_angle_beta   90.00000000
_cell_angle_gamma   111.39904544
_symmetry_Int_Tables_number   1
_chemical_formula_structural   Er11In(Hg2Pt)4
_chemical_formula_sum   'Er11 In1 Hg8 Pt4'
_cell_volume   570.43496087
_cell_formula_units_Z   1
loop_
 _symmetry_equiv_pos_site_id
 _symmetry_equiv_pos_as_xyz
  1  'x, y, z'
loop_
 _atom_site_type_symbol
 _atom_site_label
 _atom_site_symmetry_multiplicity
 _atom_site_fract_x
 _atom_site_fract_y
 _atom_site_fract_z
 _atom_site_occupancy
  Er  Er0  1  0.414865  0.077420  0.000000  1
  Er  Er1  1  0.585135  0.922580  0.000000  1
  Er  Er2  1  0.077411  0.414865  0.000000  1
  Er  Er3  1  0.922589  0.585135  0.000000  1
  Er  Er4  1  0.166775  0.833234  0.000000  1
  Er  Er5  1  0.833225  0.166766  0.000000  1
  Er  Er6  1  0.370949  0.629051  0.000000  1
  Er  Er7  1  0.629051  0.370949  0.000000  1
  Er  Er8  1  0.300342  0.300349  0.000000  1
  Er  Er9  1  0.699658  0.699651  0.000000  1
  Er  Er10  1  0.000000  0.000000  0.000000  1
  In  In11  1  0.500000  0.500000  0.500000  1
  Hg  Hg12  1  0.368116  0.848415  0.500000  1
  Hg  Hg13  1  0.631884  0.151585  0.500000  1
  Hg  Hg14  1  0.848417  0.368114  0.500000  1
  Hg  Hg15  1  0.151583  0.631886  0.500000  1
  Hg  Hg16  1  0.212343  0.060070  0.500000  1
  Hg  Hg17  1  0.787657  0.939930  0.500000  1
  Hg  Hg18  1  0.060064  0.212346  0.500000  1
  Hg  Hg19  1  0.939936  0.787654  0.500000  1
  Pt  Pt20  1  0.448410  0.250447  0.500000  1
  Pt  Pt21  1  0.551590  0.749553  0.500000  1
  Pt  Pt22  1  0.250441  0.448419  0.500000  1
  Pt  Pt23  1  0.749559  0.551581  0.500000  1
