# generated using pymatgen
data_SmEuNpRu3
_symmetry_space_group_name_H-M   'P 1'
_cell_length_a   5.24718615
_cell_length_b   5.24718577
_cell_length_c   5.24718500
_cell_angle_alpha   67.82702596
_cell_angle_beta   67.82702762
_cell_angle_gamma   67.82702065
_symmetry_Int_Tables_number   1
_chemical_formula_structural   SmEuNpRu3
_chemical_formula_sum   'Sm1 Eu1 Np1 Ru3'
_cell_volume   119.15174297
_cell_formula_units_Z   1
loop_
 _symmetry_equiv_pos_site_id
 _symmetry_equiv_pos_as_xyz
  1  'x, y, z'
loop_
 _atom_site_type_symbol
 _atom_site_label
 _atom_site_symmetry_multiplicity
 _atom_site_fract_x
 _atom_site_fract_y
 _atom_site_fract_z
 _atom_site_occupancy
  Sm  Sm0  1  0.376424  0.376424  0.376424  1
  Eu  Eu1  1  0.625105  0.625105  0.625105  1
  Np  Np2  1  0.998631  0.998631  0.998631  1
  Ru  Ru3  1  0.000526  0.498786  0.000526  1
  Ru  Ru4  1  0.498786  0.000526  0.000526  1
  Ru  Ru5  1  0.000526  0.000526  0.498786  1
