# generated using pymatgen
data_Er6Mn2Co16Si5P7
_symmetry_space_group_name_H-M   'P 1'
_cell_length_a   3.70304600
_cell_length_b   10.59013117
_cell_length_c   12.23888144
_cell_angle_alpha   90.12983948
_cell_angle_beta   90.00000000
_cell_angle_gamma   90.00000000
_symmetry_Int_Tables_number   1
_chemical_formula_structural   Er6Mn2Co16Si5P7
_chemical_formula_sum   'Er6 Mn2 Co16 Si5 P7'
_cell_volume   479.95559510
_cell_formula_units_Z   1
loop_
 _symmetry_equiv_pos_site_id
 _symmetry_equiv_pos_as_xyz
  1  'x, y, z'
loop_
 _atom_site_type_symbol
 _atom_site_label
 _atom_site_symmetry_multiplicity
 _atom_site_fract_x
 _atom_site_fract_y
 _atom_site_fract_z
 _atom_site_occupancy
  Er  Er0  1  0.750000  0.247334  0.474235  1
  Er  Er1  1  0.250000  0.749619  0.525537  1
  Er  Er2  1  0.250000  0.932227  0.793226  1
  Er  Er3  1  0.250000  0.567045  0.794475  1
  Er  Er4  1  0.750000  0.067280  0.206241  1
  Er  Er5  1  0.750000  0.433203  0.204771  1
  Mn  Mn6  1  0.250000  0.250207  0.848348  1
  Mn  Mn7  1  0.750000  0.750550  0.150734  1
  Co  Co8  1  0.250000  0.246306  0.301392  1
  Co  Co9  1  0.750000  0.749617  0.697531  1
  Co  Co10  1  0.750000  0.249891  0.009171  1
  Co  Co11  1  0.250000  0.750279  0.989850  1
  Co  Co12  1  0.250000  0.419120  0.003726  1
  Co  Co13  1  0.250000  0.080823  0.003192  1
  Co  Co14  1  0.750000  0.581104  0.995637  1
  Co  Co15  1  0.750000  0.919502  0.995523  1
  Co  Co16  1  0.250000  0.455333  0.572502  1
  Co  Co17  1  0.250000  0.043341  0.568411  1
  Co  Co18  1  0.750000  0.550550  0.434924  1
  Co  Co19  1  0.750000  0.955167  0.432119  1
  Co  Co20  1  0.250000  0.873256  0.289727  1
  Co  Co21  1  0.250000  0.631385  0.288034  1
  Co  Co22  1  0.750000  0.127043  0.709745  1
  Co  Co23  1  0.750000  0.370976  0.710900  1
  Si  Si24  1  0.250000  0.250045  0.117048  1
  Si  Si25  1  0.750000  0.750018  0.882356  1
  Si  Si26  1  0.250000  0.249421  0.653441  1
  Si  Si27  1  0.750000  0.750430  0.345923  1
  Si  Si28  1  0.250000  0.442356  0.384706  1
  P  P29  1  0.250000  0.058088  0.383853  1
  P  P30  1  0.750000  0.558056  0.617541  1
  P  P31  1  0.750000  0.939935  0.616470  1
  P  P32  1  0.250000  0.905464  0.105849  1
  P  P33  1  0.250000  0.595608  0.105786  1
  P  P34  1  0.750000  0.094770  0.893183  1
  P  P35  1  0.750000  0.404650  0.893895  1
