# generated using pymatgen
data_Zn22AgPtRh2
_symmetry_space_group_name_H-M   'P 1'
_cell_length_a   7.97725047
_cell_length_b   7.95354793
_cell_length_c   7.95945360
_cell_angle_alpha   109.41340691
_cell_angle_beta   109.53409698
_cell_angle_gamma   109.49642102
_symmetry_Int_Tables_number   1
_chemical_formula_structural   Zn22AgPtRh2
_chemical_formula_sum   'Zn22 Ag1 Pt1 Rh2'
_cell_volume   388.60895803
_cell_formula_units_Z   1
loop_
 _symmetry_equiv_pos_site_id
 _symmetry_equiv_pos_as_xyz
  1  'x, y, z'
loop_
 _atom_site_type_symbol
 _atom_site_label
 _atom_site_symmetry_multiplicity
 _atom_site_fract_x
 _atom_site_fract_y
 _atom_site_fract_z
 _atom_site_occupancy
  Zn  Zn0  1  0.997054  0.787869  0.000000  1
  Zn  Zn1  1  0.782462  0.992646  0.000000  1
  Zn  Zn2  1  0.997196  0.992932  0.778539  1
  Zn  Zn3  1  0.218656  0.214392  0.221461  1
  Zn  Zn4  1  0.355151  0.622808  0.354806  1
  Zn  Zn5  1  0.268047  0.003169  0.647804  1
  Zn  Zn6  1  0.652455  0.002942  0.270820  1
  Zn  Zn7  1  0.277517  0.652708  0.000000  1
  Zn  Zn8  1  0.731253  0.734006  0.381234  1
  Zn  Zn9  1  0.381635  0.732122  0.729180  1
  Zn  Zn10  1  0.000228  0.655341  0.278454  1
  Zn  Zn11  1  0.000345  0.268003  0.645194  1
  Zn  Zn12  1  0.647382  0.270073  0.000000  1
  Zn  Zn13  1  0.350019  0.352772  0.618766  1
  Zn  Zn14  1  0.620243  0.355365  0.352196  1
  Zn  Zn15  1  0.721774  0.376888  0.721546  1
  Zn  Zn16  1  0.357639  0.357979  0.000000  1
  Zn  Zn17  1  0.998026  0.635660  0.646237  1
  Zn  Zn18  1  0.999445  0.356024  0.357579  1
  Zn  Zn19  1  0.351789  0.989425  0.353763  1
  Zn  Zn20  1  0.641866  0.998445  0.642421  1
  Zn  Zn21  1  0.647355  0.637691  0.000000  1
  Ag  Ag22  1  0.000196  0.350933  0.000000  1
  Pt  Pt23  1  0.346678  0.001559  0.000000  1
  Rh  Rh24  1  0.000440  0.001771  0.345292  1
  Rh  Rh25  1  0.655148  0.656479  0.654708  1
