# generated using pymatgen
data_Ta5TiV4Si6B
_symmetry_space_group_name_H-M   'P 1'
_cell_length_a   7.43927085
_cell_length_b   7.43514985
_cell_length_c   5.01648528
_cell_angle_alpha   90.08175810
_cell_angle_beta   89.95914540
_cell_angle_gamma   119.98166852
_symmetry_Int_Tables_number   1
_chemical_formula_structural   Ta5TiV4Si6B
_chemical_formula_sum   'Ta5 Ti1 V4 Si6 B1'
_cell_volume   240.34219420
_cell_formula_units_Z   1
loop_
 _symmetry_equiv_pos_site_id
 _symmetry_equiv_pos_as_xyz
  1  'x, y, z'
loop_
 _atom_site_type_symbol
 _atom_site_label
 _atom_site_symmetry_multiplicity
 _atom_site_fract_x
 _atom_site_fract_y
 _atom_site_fract_z
 _atom_site_occupancy
  Ta  Ta0  1  0.244352  0.244806  0.244753  1
  Ta  Ta1  1  0.755648  0.000454  0.244753  1
  Ta  Ta2  1  0.000000  0.245649  0.755453  1
  Ta  Ta3  1  0.755197  0.754636  0.754205  1
  Ta  Ta4  1  0.244803  0.999438  0.754205  1
  Ti  Ti5  1  0.000000  0.754601  0.245980  1
  V  V6  1  0.333605  0.666513  0.499899  1
  V  V7  1  0.666395  0.332907  0.499899  1
  V  V8  1  0.666552  0.333222  0.000699  1
  V  V9  1  0.333448  0.666671  0.000699  1
  Si  Si10  1  0.000000  0.407595  0.246715  1
  Si  Si11  1  0.598747  0.596319  0.247174  1
  Si  Si12  1  0.401253  0.997573  0.247174  1
  Si  Si13  1  0.000000  0.597141  0.754978  1
  Si  Si14  1  0.404479  0.404493  0.752959  1
  Si  Si15  1  0.595521  0.000014  0.752959  1
  B  B16  1  0.000000  0.997967  0.497495  1
