# generated using pymatgen
data_Ac3(GaSi2)2
_symmetry_space_group_name_H-M   'P 1'
_cell_length_a   4.55682834
_cell_length_b   4.48049182
_cell_length_c   21.73464945
_cell_angle_alpha   84.08386438
_cell_angle_beta   96.01730182
_cell_angle_gamma   89.99999771
_symmetry_Int_Tables_number   1
_chemical_formula_structural   Ac3(GaSi2)2
_chemical_formula_sum   'Ac6 Ga4 Si8'
_cell_volume   438.93107002
_cell_formula_units_Z   2
loop_
 _symmetry_equiv_pos_site_id
 _symmetry_equiv_pos_as_xyz
  1  'x, y, z'
loop_
 _atom_site_type_symbol
 _atom_site_label
 _atom_site_symmetry_multiplicity
 _atom_site_fract_x
 _atom_site_fract_y
 _atom_site_fract_z
 _atom_site_occupancy
  Ac  Ac0  1  0.375237  0.874763  0.250474  1
  Ac  Ac1  1  0.040733  0.209267  0.581464  1
  Ac  Ac2  1  0.705552  0.544448  0.911106  1
  Ac  Ac3  1  0.293463  0.456537  0.086926  1
  Ac  Ac4  1  0.960171  0.789829  0.420342  1
  Ac  Ac5  1  0.625459  0.124541  0.750917  1
  Ga  Ga6  1  0.904608  0.345392  0.309216  1
  Ga  Ga7  1  0.569769  0.680231  0.639536  1
  Ga  Ga8  1  0.235330  0.014670  0.970660  1
  Ga  Ga9  1  0.763491  0.986509  0.026982  1
  Si  Si10  1  0.431503  0.318497  0.363006  1
  Si  Si11  1  0.096695  0.653305  0.693390  1
  Si  Si12  1  0.847629  0.402371  0.195259  1
  Si  Si13  1  0.512963  0.737037  0.525924  1
  Si  Si14  1  0.178302  0.071698  0.856603  1
  Si  Si15  1  0.820717  0.929283  0.141435  1
  Si  Si16  1  0.486558  0.263442  0.473116  1
  Si  Si17  1  0.151823  0.598177  0.803643  1
