# generated using pymatgen
data_Zr10ZnSn4Bi3
_symmetry_space_group_name_H-M   'P 1'
_cell_length_a   8.87150605
_cell_length_b   8.86251597
_cell_length_c   5.95824803
_cell_angle_alpha   89.99397275
_cell_angle_beta   90.01204228
_cell_angle_gamma   120.03356156
_symmetry_Int_Tables_number   1
_chemical_formula_structural   Zr10ZnSn4Bi3
_chemical_formula_sum   'Zr10 Zn1 Sn4 Bi3'
_cell_volume   405.56139783
_cell_formula_units_Z   1
loop_
 _symmetry_equiv_pos_site_id
 _symmetry_equiv_pos_as_xyz
  1  'x, y, z'
loop_
 _atom_site_type_symbol
 _atom_site_label
 _atom_site_symmetry_multiplicity
 _atom_site_fract_x
 _atom_site_fract_y
 _atom_site_fract_z
 _atom_site_occupancy
  Zr  Zr0  1  0.331665  0.666568  0.001646  1
  Zr  Zr1  1  0.664794  0.333635  0.498413  1
  Zr  Zr2  1  0.665098  0.333432  0.001646  1
  Zr  Zr3  1  0.331157  0.666365  0.498413  1
  Zr  Zr4  1  0.273082  0.000000  0.233715  1
  Zr  Zr5  1  0.274654  0.269623  0.765827  1
  Zr  Zr6  1  0.005031  0.730377  0.765827  1
  Zr  Zr7  1  0.004754  0.277663  0.235275  1
  Zr  Zr8  1  0.727092  0.722337  0.235275  1
  Zr  Zr9  1  0.725345  0.000000  0.764745  1
  Zn  Zn10  1  0.999329  0.000000  0.001421  1
  Sn  Sn11  1  0.000011  0.000000  0.498647  1
  Sn  Sn12  1  0.999606  0.614499  0.252150  1
  Sn  Sn13  1  0.385107  0.385501  0.252150  1
  Sn  Sn14  1  0.386590  0.000000  0.747648  1
  Bi  Bi15  1  0.614259  0.000000  0.252470  1
  Bi  Bi16  1  0.612750  0.613076  0.747365  1
  Bi  Bi17  1  0.999674  0.386924  0.747365  1
