# generated using pymatgen
data_CeTh3(FeB10)2
_symmetry_space_group_name_H-M   'P 1'
_cell_length_a   4.17808600
_cell_length_b   5.62749013
_cell_length_c   11.23328927
_cell_angle_alpha   90.02509081
_cell_angle_beta   90.00000000
_cell_angle_gamma   90.00000000
_symmetry_Int_Tables_number   1
_chemical_formula_structural   CeTh3(FeB10)2
_chemical_formula_sum   'Ce1 Th3 Fe2 B20'
_cell_volume   264.11861933
_cell_formula_units_Z   1
loop_
 _symmetry_equiv_pos_site_id
 _symmetry_equiv_pos_as_xyz
  1  'x, y, z'
loop_
 _atom_site_type_symbol
 _atom_site_label
 _atom_site_symmetry_multiplicity
 _atom_site_fract_x
 _atom_site_fract_y
 _atom_site_fract_z
 _atom_site_occupancy
  Ce  Ce0  1  0.500000  0.290293  0.869081  1
  Th  Th1  1  0.500000  0.708381  0.130047  1
  Th  Th2  1  0.500000  0.790490  0.632751  1
  Th  Th3  1  0.500000  0.209484  0.368912  1
  Fe  Fe4  1  0.000000  0.499839  0.499983  1
  Fe  Fe5  1  0.000000  0.000296  0.999713  1
  B  B6  1  0.000000  0.127186  0.539938  1
  B  B7  1  0.000000  0.873044  0.460177  1
  B  B8  1  0.000000  0.626524  0.959795  1
  B  B9  1  0.000000  0.373179  0.039448  1
  B  B10  1  0.000000  0.148568  0.697544  1
  B  B11  1  0.000000  0.851950  0.302837  1
  B  B12  1  0.299723  0.205180  0.113240  1
  B  B13  1  0.299874  0.795253  0.886324  1
  B  B14  1  0.700512  0.705190  0.386350  1
  B  B15  1  0.700483  0.294628  0.613870  1
  B  B16  1  0.700126  0.795253  0.886324  1
  B  B17  1  0.700277  0.205180  0.113240  1
  B  B18  1  0.299517  0.294628  0.613870  1
  B  B19  1  0.299488  0.705190  0.386350  1
  B  B20  1  0.000000  0.039548  0.187434  1
  B  B21  1  0.000000  0.961348  0.812539  1
  B  B22  1  0.000000  0.539409  0.312398  1
  B  B23  1  0.000000  0.460458  0.687731  1
  B  B24  1  0.000000  0.351808  0.196958  1
  B  B25  1  0.000000  0.647695  0.803146  1
