# generated using pymatgen
data_YbGd3H11
_symmetry_space_group_name_H-M   'P 1'
_cell_length_a   6.42153537
_cell_length_b   6.42153461
_cell_length_c   6.42153500
_cell_angle_alpha   130.84397856
_cell_angle_beta   133.30653718
_cell_angle_gamma   70.12903682
_symmetry_Int_Tables_number   1
_chemical_formula_structural   YbGd3H11
_chemical_formula_sum   'Yb1 Gd3 H11'
_cell_volume   142.90202411
_cell_formula_units_Z   1
loop_
 _symmetry_equiv_pos_site_id
 _symmetry_equiv_pos_as_xyz
  1  'x, y, z'
loop_
 _atom_site_type_symbol
 _atom_site_label
 _atom_site_symmetry_multiplicity
 _atom_site_fract_x
 _atom_site_fract_y
 _atom_site_fract_z
 _atom_site_occupancy
  Yb  Yb0  1  0.500000  0.000000  0.500000  1
  Gd  Gd1  1  0.259989  0.259989  0.000000  1
  Gd  Gd2  1  0.000000  0.500000  0.500000  1
  Gd  Gd3  1  0.740011  0.740011  0.000000  1
  H  H4  1  0.646696  0.111361  0.002507  1
  H  H5  1  0.353304  0.355811  0.464664  1
  H  H6  1  0.108853  0.644189  0.997493  1
  H  H7  1  0.891147  0.888639  0.535336  1
  H  H8  1  0.891147  0.355811  0.002507  1
  H  H9  1  0.646696  0.644189  0.535336  1
  H  H10  1  0.353304  0.888639  0.997493  1
  H  H11  1  0.108853  0.111361  0.464664  1
  H  H12  1  0.759853  0.259853  0.500000  1
  H  H13  1  0.500000  0.500000  0.000000  1
  H  H14  1  0.240147  0.740147  0.500000  1
