# generated using pymatgen
data_V8InGaSe16
_symmetry_space_group_name_H-M   'P 1'
_cell_length_a   7.30058300
_cell_length_b   7.30058300
_cell_length_c   10.35275000
_cell_angle_alpha   90.00000000
_cell_angle_beta   90.00000000
_cell_angle_gamma   90.00000000
_symmetry_Int_Tables_number   1
_chemical_formula_structural   V8InGaSe16
_chemical_formula_sum   'V8 In1 Ga1 Se16'
_cell_volume   551.78617156
_cell_formula_units_Z   1
loop_
 _symmetry_equiv_pos_site_id
 _symmetry_equiv_pos_as_xyz
  1  'x, y, z'
loop_
 _atom_site_type_symbol
 _atom_site_label
 _atom_site_symmetry_multiplicity
 _atom_site_fract_x
 _atom_site_fract_y
 _atom_site_fract_z
 _atom_site_occupancy
  V  V0  1  0.000000  0.792083  0.602144  1
  V  V1  1  0.500000  0.293033  0.105262  1
  V  V2  1  0.792083  0.000000  0.397856  1
  V  V3  1  0.293033  0.500000  0.894738  1
  V  V4  1  0.207917  0.000000  0.397856  1
  V  V5  1  0.706967  0.500000  0.894738  1
  V  V6  1  0.000000  0.207917  0.602144  1
  V  V7  1  0.500000  0.706967  0.105262  1
  In  In8  1  0.000000  0.000000  0.000000  1
  Ga  Ga9  1  0.500000  0.500000  0.500000  1
  Se  Se10  1  0.000000  0.260086  0.369367  1
  Se  Se11  1  0.500000  0.761726  0.871392  1
  Se  Se12  1  0.260086  0.000000  0.630633  1
  Se  Se13  1  0.761726  0.500000  0.128608  1
  Se  Se14  1  0.739914  0.000000  0.630633  1
  Se  Se15  1  0.238274  0.500000  0.128608  1
  Se  Se16  1  0.000000  0.739914  0.369367  1
  Se  Se17  1  0.500000  0.238274  0.871392  1
  Se  Se18  1  0.000000  0.285563  0.854100  1
  Se  Se19  1  0.500000  0.773938  0.364594  1
  Se  Se20  1  0.773938  0.500000  0.635406  1
  Se  Se21  1  0.285563  0.000000  0.145900  1
  Se  Se22  1  0.226062  0.500000  0.635406  1
  Se  Se23  1  0.714437  0.000000  0.145900  1
  Se  Se24  1  0.000000  0.714437  0.854100  1
  Se  Se25  1  0.500000  0.226062  0.364594  1
