# generated using pymatgen
data_GdTm2Se3
_symmetry_space_group_name_H-M   'P 1'
_cell_length_a   4.06576100
_cell_length_b   4.06576221
_cell_length_c   10.00475100
_cell_angle_alpha   90.00000000
_cell_angle_beta   90.00000000
_cell_angle_gamma   119.99998200
_symmetry_Int_Tables_number   1
_chemical_formula_structural   GdTm2Se3
_chemical_formula_sum   'Gd1 Tm2 Se3'
_cell_volume   143.22565452
_cell_formula_units_Z   1
loop_
 _symmetry_equiv_pos_site_id
 _symmetry_equiv_pos_as_xyz
  1  'x, y, z'
loop_
 _atom_site_type_symbol
 _atom_site_label
 _atom_site_symmetry_multiplicity
 _atom_site_fract_x
 _atom_site_fract_y
 _atom_site_fract_z
 _atom_site_occupancy
  Gd  Gd0  1  0.000000  0.000000  0.000000  1
  Tm  Tm1  1  0.333333  0.666667  0.664692  1
  Tm  Tm2  1  0.666667  0.333333  0.335308  1
  Se  Se3  1  0.333333  0.666667  0.175863  1
  Se  Se4  1  0.666667  0.333333  0.824137  1
  Se  Se5  1  0.000000  0.000000  0.500000  1
