# generated using pymatgen
data_Tb3PrGa18(PtRh2)2
_symmetry_space_group_name_H-M   'P 1'
_cell_length_a   7.63387117
_cell_length_b   7.63688357
_cell_length_c   9.56631000
_cell_angle_alpha   90.00000000
_cell_angle_beta   90.00000000
_cell_angle_gamma   119.91154806
_symmetry_Int_Tables_number   1
_chemical_formula_structural   Tb3PrGa18(PtRh2)2
_chemical_formula_sum   'Tb3 Pr1 Ga18 Pt2 Rh4'
_cell_volume   483.41761928
_cell_formula_units_Z   1
loop_
 _symmetry_equiv_pos_site_id
 _symmetry_equiv_pos_as_xyz
  1  'x, y, z'
loop_
 _atom_site_type_symbol
 _atom_site_label
 _atom_site_symmetry_multiplicity
 _atom_site_fract_x
 _atom_site_fract_y
 _atom_site_fract_z
 _atom_site_occupancy
  Tb  Tb0  1  0.003938  0.327853  0.750000  1
  Tb  Tb1  1  0.671659  0.995653  0.250000  1
  Tb  Tb2  1  0.328113  0.004422  0.750000  1
  Pr  Pr3  1  0.996052  0.671531  0.250000  1
  Ga  Ga4  1  0.136577  0.138658  0.250000  1
  Ga  Ga5  1  0.862566  0.863491  0.750000  1
  Ga  Ga6  1  0.998978  0.336068  0.076428  1
  Ga  Ga7  1  0.001395  0.661263  0.917789  1
  Ga  Ga8  1  0.001395  0.661263  0.582211  1
  Ga  Ga9  1  0.341378  0.001513  0.423583  1
  Ga  Ga10  1  0.998978  0.336068  0.423572  1
  Ga  Ga11  1  0.661363  0.001609  0.579901  1
  Ga  Ga12  1  0.661363  0.001609  0.920099  1
  Ga  Ga13  1  0.341378  0.001513  0.076417  1
  Ga  Ga14  1  0.337346  0.337378  0.568953  1
  Ga  Ga15  1  0.659993  0.662105  0.435591  1
  Ga  Ga16  1  0.659993  0.662105  0.064409  1
  Ga  Ga17  1  0.337346  0.337378  0.931047  1
  Ga  Ga18  1  0.339029  0.548577  0.250000  1
  Ga  Ga19  1  0.662795  0.451101  0.750000  1
  Ga  Ga20  1  0.545501  0.334274  0.250000  1
  Ga  Ga21  1  0.451568  0.663460  0.750000  1
  Pt  Pt22  1  0.000507  0.000231  0.998611  1
  Pt  Pt23  1  0.000507  0.000231  0.501389  1
  Rh  Rh24  1  0.670825  0.329701  0.998777  1
  Rh  Rh25  1  0.329316  0.670622  0.998780  1
  Rh  Rh26  1  0.329316  0.670622  0.501220  1
  Rh  Rh27  1  0.670825  0.329701  0.501223  1
