# generated using pymatgen
data_PrDyGeO5
_symmetry_space_group_name_H-M   'P 1'
_cell_length_a   8.35875574
_cell_length_b   8.35886918
_cell_length_c   10.87599885
_cell_angle_alpha   61.24831971
_cell_angle_beta   61.25022112
_cell_angle_gamma   49.77957031
_symmetry_Int_Tables_number   1
_chemical_formula_structural   PrDyGeO5
_chemical_formula_sum   'Pr4 Dy4 Ge4 O20'
_cell_volume   491.94819655
_cell_formula_units_Z   4
loop_
 _symmetry_equiv_pos_site_id
 _symmetry_equiv_pos_as_xyz
  1  'x, y, z'
loop_
 _atom_site_type_symbol
 _atom_site_label
 _atom_site_symmetry_multiplicity
 _atom_site_fract_x
 _atom_site_fract_y
 _atom_site_fract_z
 _atom_site_occupancy
  Pr  Pr0  1  0.722026  0.207273  0.963983  1
  Pr  Pr1  1  0.792723  0.277973  0.536020  1
  Pr  Pr2  1  0.277974  0.792727  0.036017  1
  Pr  Pr3  1  0.207277  0.722027  0.463980  1
  Dy  Dy4  1  0.986529  0.735567  0.837780  1
  Dy  Dy5  1  0.264428  0.013474  0.662222  1
  Dy  Dy6  1  0.013471  0.264433  0.162220  1
  Dy  Dy7  1  0.735572  0.986526  0.337778  1
  Ge  Ge8  1  0.777944  0.595507  0.690926  1
  Ge  Ge9  1  0.404502  0.222057  0.809066  1
  Ge  Ge10  1  0.222056  0.404493  0.309074  1
  Ge  Ge11  1  0.595498  0.777943  0.190934  1
  O  O12  1  0.784829  0.629351  0.057610  1
  O  O13  1  0.370649  0.215171  0.442390  1
  O  O14  1  0.215171  0.370649  0.942390  1
  O  O15  1  0.629351  0.784829  0.557610  1
  O  O16  1  0.585146  0.587783  0.360128  1
  O  O17  1  0.412225  0.414853  0.139871  1
  O  O18  1  0.414854  0.412217  0.639872  1
  O  O19  1  0.587775  0.585147  0.860129  1
  O  O20  1  0.948566  0.656374  0.682882  1
  O  O21  1  0.343624  0.051431  0.817121  1
  O  O22  1  0.051434  0.343626  0.317118  1
  O  O23  1  0.656376  0.948569  0.182879  1
  O  O24  1  0.886584  0.080567  0.391001  1
  O  O25  1  0.919429  0.113418  0.108996  1
  O  O26  1  0.113416  0.919433  0.608999  1
  O  O27  1  0.080571  0.886582  0.891004  1
  O  O28  1  0.077980  0.674755  0.325026  1
  O  O29  1  0.325243  0.922026  0.174972  1
  O  O30  1  0.922020  0.325245  0.674974  1
  O  O31  1  0.674757  0.077974  0.825028  1
