# generated using pymatgen
data_LiY3Si2Ag2Hg
_symmetry_space_group_name_H-M   'P 1'
_cell_length_a   7.29499790
_cell_length_b   7.17359295
_cell_length_c   4.19316800
_cell_angle_alpha   90.00000000
_cell_angle_beta   90.00000000
_cell_angle_gamma   119.45098434
_symmetry_Int_Tables_number   1
_chemical_formula_structural   LiY3Si2Ag2Hg
_chemical_formula_sum   'Li1 Y3 Si2 Ag2 Hg1'
_cell_volume   191.07810801
_cell_formula_units_Z   1
loop_
 _symmetry_equiv_pos_site_id
 _symmetry_equiv_pos_as_xyz
  1  'x, y, z'
loop_
 _atom_site_type_symbol
 _atom_site_label
 _atom_site_symmetry_multiplicity
 _atom_site_fract_x
 _atom_site_fract_y
 _atom_site_fract_z
 _atom_site_occupancy
  Li  Li0  1  0.000000  0.751104  0.000000  1
  Y  Y1  1  0.000000  0.419564  0.500000  1
  Y  Y2  1  0.575555  0.576445  0.500000  1
  Y  Y3  1  0.424445  0.000890  0.500000  1
  Si  Si4  1  0.326943  0.666046  0.000000  1
  Si  Si5  1  0.673057  0.339103  0.000000  1
  Ag  Ag6  1  0.267813  0.266738  0.000000  1
  Ag  Ag7  1  0.732187  0.998925  0.000000  1
  Hg  Hg8  1  0.000000  0.981184  0.500000  1
