# generated using pymatgen
data_Sr2Cu2P4Pd
_symmetry_space_group_name_H-M   'P 1'
_cell_length_a   8.23898333
_cell_length_b   8.23898354
_cell_length_c   8.23896020
_cell_angle_alpha   137.14460707
_cell_angle_beta   110.12573968
_cell_angle_gamma   85.57516843
_symmetry_Int_Tables_number   1
_chemical_formula_structural   Sr2Cu2P4Pd
_chemical_formula_sum   'Sr4 Cu4 P8 Pd2'
_cell_volume   343.47446211
_cell_formula_units_Z   2
loop_
 _symmetry_equiv_pos_site_id
 _symmetry_equiv_pos_as_xyz
  1  'x, y, z'
loop_
 _atom_site_type_symbol
 _atom_site_label
 _atom_site_symmetry_multiplicity
 _atom_site_fract_x
 _atom_site_fract_y
 _atom_site_fract_z
 _atom_site_occupancy
  Sr  Sr0  1  0.099704  0.888398  0.211370  1
  Sr  Sr1  1  0.900296  0.111602  0.788630  1
  Sr  Sr2  1  0.322972  0.611665  0.711370  1
  Sr  Sr3  1  0.677028  0.388335  0.288630  1
  Cu  Cu4  1  0.271311  0.021311  0.750000  1
  Cu  Cu5  1  0.728716  0.478716  0.750000  1
  Cu  Cu6  1  0.271284  0.521284  0.250000  1
  Cu  Cu7  1  0.728689  0.978689  0.250000  1
  P  P8  1  0.488907  0.126777  0.362119  1
  P  P9  1  0.511093  0.873223  0.637881  1
  P  P10  1  0.235342  0.373214  0.862119  1
  P  P11  1  0.764658  0.626786  0.137881  1
  P  P12  1  0.977870  0.348220  0.629665  1
  P  P13  1  0.022130  0.651780  0.370335  1
  P  P14  1  0.718555  0.848205  0.870335  1
  P  P15  1  0.281445  0.151795  0.129665  1
  Pd  Pd16  1  0.500030  0.750030  0.250000  1
  Pd  Pd17  1  0.499970  0.249970  0.750000  1
