# generated using pymatgen
data_LaDy5TmCoI12
_symmetry_space_group_name_H-M   'P 1'
_cell_length_a   9.75883402
_cell_length_b   9.75493728
_cell_length_c   9.76325492
_cell_angle_alpha   106.17368082
_cell_angle_beta   106.20087339
_cell_angle_gamma   106.16224976
_symmetry_Int_Tables_number   1
_chemical_formula_structural   LaDy5TmCoI12
_chemical_formula_sum   'La1 Dy5 Tm1 Co1 I12'
_cell_volume   790.73529523
_cell_formula_units_Z   1
loop_
 _symmetry_equiv_pos_site_id
 _symmetry_equiv_pos_as_xyz
  1  'x, y, z'
loop_
 _atom_site_type_symbol
 _atom_site_label
 _atom_site_symmetry_multiplicity
 _atom_site_fract_x
 _atom_site_fract_y
 _atom_site_fract_z
 _atom_site_occupancy
  La  La0  1  0.998151  0.998010  0.998198  1
  Dy  Dy1  1  0.515156  0.586688  0.782305  1
  Dy  Dy2  1  0.782279  0.514686  0.587529  1
  Dy  Dy3  1  0.587580  0.782841  0.515386  1
  Dy  Dy4  1  0.482198  0.409570  0.215366  1
  Dy  Dy5  1  0.215205  0.481870  0.410156  1
  Tm  Tm6  1  0.411603  0.218876  0.482722  1
  Co  Co7  1  0.498895  0.498723  0.498919  1
  I  I8  1  0.276436  0.824733  0.426535  1
  I  I9  1  0.426100  0.275364  0.822838  1
  I  I10  1  0.824067  0.426297  0.276130  1
  I  I11  1  0.720221  0.173678  0.570844  1
  I  I12  1  0.571307  0.721843  0.174188  1
  I  I13  1  0.173941  0.571267  0.721888  1
  I  I14  1  0.047961  0.124959  0.354302  1
  I  I15  1  0.353850  0.046717  0.126052  1
  I  I16  1  0.125099  0.353891  0.046665  1
  I  I17  1  0.950490  0.872428  0.642440  1
  I  I18  1  0.642365  0.950476  0.872327  1
  I  I19  1  0.872466  0.642453  0.950581  1
