# generated using pymatgen
data_YbSmSiN3
_symmetry_space_group_name_H-M   'P 1'
_cell_length_a   5.90131211
_cell_length_b   5.90131074
_cell_length_c   11.45677100
_cell_angle_alpha   90.00000000
_cell_angle_beta   90.00000000
_cell_angle_gamma   125.82512136
_symmetry_Int_Tables_number   1
_chemical_formula_structural   YbSmSiN3
_chemical_formula_sum   'Yb4 Sm4 Si4 N12'
_cell_volume   323.50197146
_cell_formula_units_Z   4
loop_
 _symmetry_equiv_pos_site_id
 _symmetry_equiv_pos_as_xyz
  1  'x, y, z'
loop_
 _atom_site_type_symbol
 _atom_site_label
 _atom_site_symmetry_multiplicity
 _atom_site_fract_x
 _atom_site_fract_y
 _atom_site_fract_z
 _atom_site_occupancy
  Yb  Yb0  1  0.049960  0.950040  0.856174  1
  Yb  Yb1  1  0.950040  0.049960  0.143826  1
  Yb  Yb2  1  0.450040  0.549960  0.356174  1
  Yb  Yb3  1  0.549960  0.450040  0.643826  1
  Sm  Sm4  1  0.640907  0.359093  0.078660  1
  Sm  Sm5  1  0.359093  0.640907  0.921340  1
  Sm  Sm6  1  0.859093  0.140907  0.578660  1
  Sm  Sm7  1  0.140907  0.859093  0.421340  1
  Si  Si8  1  0.739611  0.260389  0.837190  1
  Si  Si9  1  0.260389  0.739611  0.162810  1
  Si  Si10  1  0.760389  0.239611  0.337190  1
  Si  Si11  1  0.239611  0.760389  0.662810  1
  N  N12  1  0.575866  0.424134  0.868444  1
  N  N13  1  0.424134  0.575866  0.131556  1
  N  N14  1  0.924134  0.075866  0.368444  1
  N  N15  1  0.075866  0.924134  0.631556  1
  N  N16  1  0.529493  0.970507  0.750000  1
  N  N17  1  0.970507  0.529493  0.250000  1
  N  N18  1  0.470507  0.029493  0.250000  1
  N  N19  1  0.029493  0.470507  0.750000  1
  N  N20  1  0.841832  0.158168  0.957787  1
  N  N21  1  0.158168  0.841832  0.042213  1
  N  N22  1  0.658168  0.341832  0.457787  1
  N  N23  1  0.341832  0.658168  0.542213  1
