# generated using pymatgen
data_LiTm10In7
_symmetry_space_group_name_H-M   'P 1'
_cell_length_a   9.12817600
_cell_length_b   9.12817660
_cell_length_c   6.59251900
_cell_angle_alpha   90.00000000
_cell_angle_beta   90.00000000
_cell_angle_gamma   119.99999782
_symmetry_Int_Tables_number   1
_chemical_formula_structural   LiTm10In7
_chemical_formula_sum   'Li1 Tm10 In7'
_cell_volume   475.71853212
_cell_formula_units_Z   1
loop_
 _symmetry_equiv_pos_site_id
 _symmetry_equiv_pos_as_xyz
  1  'x, y, z'
loop_
 _atom_site_type_symbol
 _atom_site_label
 _atom_site_symmetry_multiplicity
 _atom_site_fract_x
 _atom_site_fract_y
 _atom_site_fract_z
 _atom_site_occupancy
  Li  Li0  1  0.000000  0.000000  0.500000  1
  Tm  Tm1  1  0.333333  0.666667  0.500000  1
  Tm  Tm2  1  0.666667  0.333333  0.500000  1
  Tm  Tm3  1  0.666667  0.333333  0.000000  1
  Tm  Tm4  1  0.333333  0.666667  0.000000  1
  Tm  Tm5  1  0.292940  0.000000  0.749147  1
  Tm  Tm6  1  0.707060  0.000000  0.250853  1
  Tm  Tm7  1  0.000000  0.292940  0.749147  1
  Tm  Tm8  1  0.000000  0.707060  0.250853  1
  Tm  Tm9  1  0.707060  0.707060  0.749147  1
  Tm  Tm10  1  0.292940  0.292940  0.250853  1
  In  In11  1  0.000000  0.000000  0.000000  1
  In  In12  1  0.632031  0.000000  0.747054  1
  In  In13  1  0.367969  0.000000  0.252946  1
  In  In14  1  0.000000  0.632031  0.747054  1
  In  In15  1  0.000000  0.367969  0.252946  1
  In  In16  1  0.367969  0.367969  0.747054  1
  In  In17  1  0.632031  0.632031  0.252946  1
