# generated using pymatgen
data_Dy4Ga24Pt7Rh2
_symmetry_space_group_name_H-M   'P 1'
_cell_length_a   7.51720845
_cell_length_b   7.51357840
_cell_length_c   13.20598500
_cell_angle_alpha   84.53233254
_cell_angle_beta   100.91262233
_cell_angle_gamma   119.78521766
_symmetry_Int_Tables_number   1
_chemical_formula_structural   Dy4Ga24Pt7Rh2
_chemical_formula_sum   'Dy4 Ga24 Pt7 Rh2'
_cell_volume   635.64561266
_cell_formula_units_Z   1
loop_
 _symmetry_equiv_pos_site_id
 _symmetry_equiv_pos_as_xyz
  1  'x, y, z'
loop_
 _atom_site_type_symbol
 _atom_site_label
 _atom_site_symmetry_multiplicity
 _atom_site_fract_x
 _atom_site_fract_y
 _atom_site_fract_z
 _atom_site_occupancy
  Dy  Dy0  1  0.731961  0.000774  0.189582  1
  Dy  Dy1  1  0.269252  0.001549  0.810172  1
  Dy  Dy2  1  0.061371  0.666670  0.190171  1
  Dy  Dy3  1  0.936350  0.331809  0.809987  1
  Ga  Ga4  1  0.810616  0.870583  0.819169  1
  Ga  Ga5  1  0.190134  0.128485  0.180868  1
  Ga  Ga6  1  0.986533  0.669476  0.940892  1
  Ga  Ga7  1  0.021936  0.334424  0.058748  1
  Ga  Ga8  1  0.396998  0.663074  0.820083  1
  Ga  Ga9  1  0.597937  0.335871  0.181997  1
  Ga  Ga10  1  0.885947  0.665296  0.677217  1
  Ga  Ga11  1  0.114914  0.334686  0.322002  1
  Ga  Ga12  1  0.603066  0.461954  0.817456  1
  Ga  Ga13  1  0.397302  0.543847  0.180542  1
  Ga  Ga14  1  0.230849  0.338539  0.675184  1
  Ga  Ga15  1  0.768969  0.661591  0.324860  1
  Ga  Ga16  1  0.854146  0.333764  0.558164  1
  Ga  Ga17  1  0.186211  0.999495  0.558159  1
  Ga  Ga18  1  0.814653  0.000177  0.441851  1
  Ga  Ga19  1  0.350248  0.993240  0.059163  1
  Ga  Ga20  1  0.646022  0.998426  0.941288  1
  Ga  Ga21  1  0.558702  0.993892  0.677511  1
  Ga  Ga22  1  0.441473  0.005045  0.323142  1
  Ga  Ga23  1  0.521723  0.668583  0.561386  1
  Ga  Ga24  1  0.478425  0.331375  0.438528  1
  Ga  Ga25  1  0.688092  0.674120  0.051715  1
  Ga  Ga26  1  0.308116  0.329753  0.948226  1
  Ga  Ga27  1  0.146015  0.665406  0.441909  1
  Pt  Pt28  1  0.546649  0.325393  0.637836  1
  Pt  Pt29  1  0.453548  0.673926  0.362117  1
  Pt  Pt30  1  0.888125  0.007349  0.639703  1
  Pt  Pt31  1  0.112086  0.992260  0.360298  1
  Pt  Pt32  1  0.670670  0.329007  0.999780  1
  Pt  Pt33  1  0.206034  0.667341  0.639657  1
  Pt  Pt34  1  0.794791  0.332432  0.360403  1
  Rh  Rh35  1  0.329854  0.670555  0.000260  1
  Rh  Rh36  1  0.000285  0.999831  0.999975  1
