# generated using pymatgen
data_CdBr28
_symmetry_space_group_name_H-M   'P 1'
_cell_length_a   11.08100058
_cell_length_b   14.26806845
_cell_length_c   12.72108000
_cell_angle_alpha   123.45192622
_cell_angle_beta   99.87943871
_cell_angle_gamma   107.91255287
_symmetry_Int_Tables_number   1
_chemical_formula_structural   CdBr28
_chemical_formula_sum   'Cd1 Br28'
_cell_volume   1441.84298122
_cell_formula_units_Z   1
loop_
 _symmetry_equiv_pos_site_id
 _symmetry_equiv_pos_as_xyz
  1  'x, y, z'
loop_
 _atom_site_type_symbol
 _atom_site_label
 _atom_site_symmetry_multiplicity
 _atom_site_fract_x
 _atom_site_fract_y
 _atom_site_fract_z
 _atom_site_occupancy
  Cd  Cd0  1  0.500000  0.000000  0.000000  1
  Br  Br1  1  0.070600  0.114203  0.373122  1
  Br  Br2  1  0.557894  0.104553  0.402768  1
  Br  Br3  1  0.281402  0.370169  0.888683  1
  Br  Br4  1  0.771777  0.295658  0.820272  1
  Br  Br5  1  0.242962  0.563540  0.746841  1
  Br  Br6  1  0.744065  0.540939  0.679892  1
  Br  Br7  1  0.442106  0.895447  0.597232  1
  Br  Br8  1  0.929400  0.885797  0.626878  1
  Br  Br9  1  0.228223  0.704342  0.179728  1
  Br  Br10  1  0.718598  0.629831  0.111317  1
  Br  Br11  1  0.255935  0.459061  0.320108  1
  Br  Br12  1  0.757038  0.436460  0.253159  1
  Br  Br13  1  0.931483  0.083896  0.805578  1
  Br  Br14  1  0.475929  0.072858  0.845383  1
  Br  Br15  1  0.063604  0.694611  0.008237  1
  Br  Br16  1  0.559159  0.618592  0.945811  1
  Br  Br17  1  0.612790  0.245543  0.238003  1
  Br  Br18  1  0.177017  0.296518  0.341419  1
  Br  Br19  1  0.524071  0.927142  0.154617  1
  Br  Br20  1  0.068517  0.916104  0.194422  1
  Br  Br21  1  0.440841  0.381408  0.054189  1
  Br  Br22  1  0.936396  0.305389  0.991763  1
  Br  Br23  1  0.822983  0.703482  0.658581  1
  Br  Br24  1  0.387210  0.754457  0.761997  1
  Br  Br25  1  0.099363  0.360256  0.704349  1
  Br  Br26  1  0.586413  0.278860  0.643717  1
  Br  Br27  1  0.413587  0.721140  0.356283  1
  Br  Br28  1  0.900637  0.639744  0.295651  1
