# generated using pymatgen
data_Y5Er15Cd6CoRu
_symmetry_space_group_name_H-M   'P 1'
_cell_length_a   9.55436601
_cell_length_b   9.55439765
_cell_length_c   9.72112500
_cell_angle_alpha   90.00000000
_cell_angle_beta   90.00000000
_cell_angle_gamma   119.99401604
_symmetry_Int_Tables_number   1
_chemical_formula_structural   Y5Er15Cd6CoRu
_chemical_formula_sum   'Y5 Er15 Cd6 Co1 Ru1'
_cell_volume   768.56133176
_cell_formula_units_Z   1
loop_
 _symmetry_equiv_pos_site_id
 _symmetry_equiv_pos_as_xyz
  1  'x, y, z'
loop_
 _atom_site_type_symbol
 _atom_site_label
 _atom_site_symmetry_multiplicity
 _atom_site_fract_x
 _atom_site_fract_y
 _atom_site_fract_z
 _atom_site_occupancy
  Y  Y0  1  0.541073  0.082518  0.250000  1
  Y  Y1  1  0.917477  0.458933  0.250000  1
  Y  Y2  1  0.458766  0.541256  0.750000  1
  Y  Y3  1  0.458832  0.917698  0.750000  1
  Y  Y4  1  0.082296  0.541174  0.750000  1
  Er  Er5  1  0.999995  0.000004  0.499847  1
  Er  Er6  1  0.999995  0.000004  0.000153  1
  Er  Er7  1  0.212168  0.787826  0.435559  1
  Er  Er8  1  0.212652  0.424291  0.435331  1
  Er  Er9  1  0.575703  0.787341  0.435333  1
  Er  Er10  1  0.790509  0.209492  0.559952  1
  Er  Er11  1  0.790099  0.580848  0.559615  1
  Er  Er12  1  0.419144  0.209898  0.559615  1
  Er  Er13  1  0.790509  0.209492  0.940048  1
  Er  Er14  1  0.790099  0.580848  0.940385  1
  Er  Er15  1  0.419144  0.209898  0.940385  1
  Er  Er16  1  0.212168  0.787826  0.064441  1
  Er  Er17  1  0.212652  0.424291  0.064669  1
  Er  Er18  1  0.575703  0.787341  0.064667  1
  Er  Er19  1  0.540898  0.459107  0.250000  1
  Cd  Cd20  1  0.885649  0.114366  0.250000  1
  Cd  Cd21  1  0.884963  0.770756  0.250000  1
  Cd  Cd22  1  0.229252  0.115039  0.250000  1
  Cd  Cd23  1  0.114221  0.885767  0.750000  1
  Cd  Cd24  1  0.114299  0.228437  0.750000  1
  Cd  Cd25  1  0.771560  0.885701  0.750000  1
  Co  Co26  1  0.333435  0.666557  0.250000  1
  Ru  Ru27  1  0.666734  0.333293  0.750000  1
