# generated using pymatgen
data_Dy6Lu4Si5P
_symmetry_space_group_name_H-M   'P 1'
_cell_length_a   8.34536900
_cell_length_b   8.34825020
_cell_length_c   6.19546800
_cell_angle_alpha   90.00000000
_cell_angle_beta   90.00000000
_cell_angle_gamma   119.98858794
_symmetry_Int_Tables_number   1
_chemical_formula_structural   Dy6Lu4Si5P
_chemical_formula_sum   'Dy6 Lu4 Si5 P1'
_cell_volume   373.84853321
_cell_formula_units_Z   1
loop_
 _symmetry_equiv_pos_site_id
 _symmetry_equiv_pos_as_xyz
  1  'x, y, z'
loop_
 _atom_site_type_symbol
 _atom_site_label
 _atom_site_symmetry_multiplicity
 _atom_site_fract_x
 _atom_site_fract_y
 _atom_site_fract_z
 _atom_site_occupancy
  Dy  Dy0  1  0.000774  0.755711  0.750000  1
  Dy  Dy1  1  0.001048  0.245277  0.250000  1
  Dy  Dy2  1  0.755771  0.754723  0.250000  1
  Dy  Dy3  1  0.753746  0.000000  0.750000  1
  Dy  Dy4  1  0.245062  0.244289  0.750000  1
  Dy  Dy5  1  0.244995  0.000000  0.250000  1
  Lu  Lu6  1  0.666205  0.332483  0.000189  1
  Lu  Lu7  1  0.333721  0.667517  0.499811  1
  Lu  Lu8  1  0.333721  0.667517  0.000189  1
  Lu  Lu9  1  0.666205  0.332483  0.499811  1
  Si  Si10  1  0.395324  0.394736  0.250000  1
  Si  Si11  1  0.000588  0.605264  0.250000  1
  Si  Si12  1  0.000109  0.394564  0.750000  1
  Si  Si13  1  0.605545  0.605436  0.750000  1
  Si  Si14  1  0.606155  0.000000  0.250000  1
  P  P15  1  0.391030  0.000000  0.750000  1
