# generated using pymatgen
data_SrThH6
_symmetry_space_group_name_H-M   'P 1'
_cell_length_a   7.06244300
_cell_length_b   7.14955400
_cell_length_c   7.06244300
_cell_angle_alpha   90.00000000
_cell_angle_beta   90.00000000
_cell_angle_gamma   90.00000000
_symmetry_Int_Tables_number   1
_chemical_formula_structural   SrThH6
_chemical_formula_sum   'Sr4 Th4 H24'
_cell_volume   356.60617743
_cell_formula_units_Z   4
loop_
 _symmetry_equiv_pos_site_id
 _symmetry_equiv_pos_as_xyz
  1  'x, y, z'
loop_
 _atom_site_type_symbol
 _atom_site_label
 _atom_site_symmetry_multiplicity
 _atom_site_fract_x
 _atom_site_fract_y
 _atom_site_fract_z
 _atom_site_occupancy
  Sr  Sr0  1  0.243315  0.000000  0.500000  1
  Sr  Sr1  1  0.756685  0.000000  0.500000  1
  Sr  Sr2  1  0.000000  0.500000  0.256685  1
  Sr  Sr3  1  0.000000  0.500000  0.743315  1
  Th  Th4  1  0.000000  0.000000  0.000000  1
  Th  Th5  1  0.500000  0.500000  0.500000  1
  Th  Th6  1  0.500000  0.750000  0.000000  1
  Th  Th7  1  0.500000  0.250000  0.000000  1
  H  H8  1  0.000000  0.152425  0.286136  1
  H  H9  1  0.500000  0.221067  0.670857  1
  H  H10  1  0.500000  0.778933  0.329143  1
  H  H11  1  0.786136  0.652425  0.500000  1
  H  H12  1  0.213864  0.652425  0.500000  1
  H  H13  1  0.357511  0.500000  0.822839  1
  H  H14  1  0.642489  0.500000  0.822839  1
  H  H15  1  0.322839  0.000000  0.142489  1
  H  H16  1  0.170857  0.278933  0.000000  1
  H  H17  1  0.829143  0.721067  0.000000  1
  H  H18  1  0.322839  0.000000  0.857511  1
  H  H19  1  0.829143  0.278933  0.000000  1
  H  H20  1  0.677161  0.000000  0.142489  1
  H  H21  1  0.677161  0.000000  0.857511  1
  H  H22  1  0.170857  0.721067  0.000000  1
  H  H23  1  0.000000  0.847575  0.713864  1
  H  H24  1  0.000000  0.152425  0.713864  1
  H  H25  1  0.000000  0.847575  0.286136  1
  H  H26  1  0.642489  0.500000  0.177161  1
  H  H27  1  0.357511  0.500000  0.177161  1
  H  H28  1  0.786136  0.347575  0.500000  1
  H  H29  1  0.213864  0.347575  0.500000  1
  H  H30  1  0.500000  0.778933  0.670857  1
  H  H31  1  0.500000  0.221067  0.329143  1
