# generated using pymatgen
data_TbErU(AlIr)3
_symmetry_space_group_name_H-M   'P 1'
_cell_length_a   7.02165568
_cell_length_b   7.19699024
_cell_length_c   3.95751100
_cell_angle_alpha   90.00000000
_cell_angle_beta   90.00000000
_cell_angle_gamma   120.83851741
_symmetry_Int_Tables_number   1
_chemical_formula_structural   TbErU(AlIr)3
_chemical_formula_sum   'Tb1 Er1 U1 Al3 Ir3'
_cell_volume   171.71620719
_cell_formula_units_Z   1
loop_
 _symmetry_equiv_pos_site_id
 _symmetry_equiv_pos_as_xyz
  1  'x, y, z'
loop_
 _atom_site_type_symbol
 _atom_site_label
 _atom_site_symmetry_multiplicity
 _atom_site_fract_x
 _atom_site_fract_y
 _atom_site_fract_z
 _atom_site_occupancy
  Tb  Tb0  1  0.413328  0.415986  0.500000  1
  Er  Er1  1  0.588195  0.003006  0.500000  1
  U  U2  1  0.000326  0.579685  0.500000  1
  Al  Al3  1  0.750862  0.757666  0.000000  1
  Al  Al4  1  0.249614  0.005888  0.000000  1
  Al  Al5  1  0.998767  0.227833  0.000000  1
  Ir  Ir6  1  0.699010  0.360915  0.000000  1
  Ir  Ir7  1  0.301918  0.664495  0.000000  1
  Ir  Ir8  1  0.997980  0.984526  0.500000  1
