# generated using pymatgen
data_DyThSnB2Ru5
_symmetry_space_group_name_H-M   'P 1'
_cell_length_a   9.78192433
_cell_length_b   9.78192425
_cell_length_c   3.20750000
_cell_angle_alpha   90.00000000
_cell_angle_beta   90.00000000
_cell_angle_gamma   89.32865151
_symmetry_Int_Tables_number   1
_chemical_formula_structural   DyThSnB2Ru5
_chemical_formula_sum   'Dy2 Th2 Sn2 B4 Ru10'
_cell_volume   306.89191382
_cell_formula_units_Z   2
loop_
 _symmetry_equiv_pos_site_id
 _symmetry_equiv_pos_as_xyz
  1  'x, y, z'
loop_
 _atom_site_type_symbol
 _atom_site_label
 _atom_site_symmetry_multiplicity
 _atom_site_fract_x
 _atom_site_fract_y
 _atom_site_fract_z
 _atom_site_occupancy
  Dy  Dy0  1  0.825058  0.674942  0.000000  1
  Dy  Dy1  1  0.174942  0.325058  0.000000  1
  Th  Th2  1  0.322695  0.822695  0.000000  1
  Th  Th3  1  0.677305  0.177305  0.000000  1
  Sn  Sn4  1  0.500000  0.500000  0.000000  1
  Sn  Sn5  1  0.000000  0.000000  0.000000  1
  B  B6  1  0.623545  0.876455  0.000000  1
  B  B7  1  0.376455  0.123545  0.000000  1
  B  B8  1  0.117267  0.617267  0.000000  1
  B  B9  1  0.882733  0.382733  0.000000  1
  Ru  Ru10  1  0.571854  0.724084  0.500000  1
  Ru  Ru11  1  0.428146  0.275916  0.500000  1
  Ru  Ru12  1  0.068318  0.773733  0.500000  1
  Ru  Ru13  1  0.931682  0.226267  0.500000  1
  Ru  Ru14  1  0.273733  0.568318  0.500000  1
  Ru  Ru15  1  0.726267  0.431682  0.500000  1
  Ru  Ru16  1  0.224084  0.071854  0.500000  1
  Ru  Ru17  1  0.775916  0.928146  0.500000  1
  Ru  Ru18  1  0.500000  0.000000  0.500000  1
  Ru  Ru19  1  0.000000  0.500000  0.500000  1
