# generated using pymatgen
data_PrHf3(NiAs2)2
_symmetry_space_group_name_H-M   'P 1'
_cell_length_a   4.00703900
_cell_length_b   4.00703912
_cell_length_c   13.50680100
_cell_angle_alpha   90.00000000
_cell_angle_beta   90.00000000
_cell_angle_gamma   119.99999072
_symmetry_Int_Tables_number   1
_chemical_formula_structural   PrHf3(NiAs2)2
_chemical_formula_sum   'Pr1 Hf3 Ni2 As4'
_cell_volume   187.81502216
_cell_formula_units_Z   1
loop_
 _symmetry_equiv_pos_site_id
 _symmetry_equiv_pos_as_xyz
  1  'x, y, z'
loop_
 _atom_site_type_symbol
 _atom_site_label
 _atom_site_symmetry_multiplicity
 _atom_site_fract_x
 _atom_site_fract_y
 _atom_site_fract_z
 _atom_site_occupancy
  Pr  Pr0  1  0.666667  0.333333  0.387334  1
  Hf  Hf1  1  0.333333  0.666667  0.888659  1
  Hf  Hf2  1  0.333333  0.666667  0.634433  1
  Hf  Hf3  1  0.666667  0.333333  0.101087  1
  Ni  Ni4  1  0.000000  0.000000  0.777539  1
  Ni  Ni5  1  0.000000  0.000000  0.192627  1
  As  As6  1  0.333333  0.666667  0.237641  1
  As  As7  1  0.000000  0.000000  0.996288  1
  As  As8  1  0.000000  0.000000  0.526273  1
  As  As9  1  0.666667  0.333333  0.758120  1
