# generated using pymatgen
data_Y4RuWC4
_symmetry_space_group_name_H-M   'P 1'
_cell_length_a   5.11449200
_cell_length_b   6.61504000
_cell_length_c   9.94751000
_cell_angle_alpha   90.00000000
_cell_angle_beta   90.00000000
_cell_angle_gamma   90.00000000
_symmetry_Int_Tables_number   1
_chemical_formula_structural   Y4RuWC4
_chemical_formula_sum   'Y8 Ru2 W2 C8'
_cell_volume   336.54982004
_cell_formula_units_Z   2
loop_
 _symmetry_equiv_pos_site_id
 _symmetry_equiv_pos_as_xyz
  1  'x, y, z'
loop_
 _atom_site_type_symbol
 _atom_site_label
 _atom_site_symmetry_multiplicity
 _atom_site_fract_x
 _atom_site_fract_y
 _atom_site_fract_z
 _atom_site_occupancy
  Y  Y0  1  0.250000  0.462901  0.779444  1
  Y  Y1  1  0.750000  0.037099  0.279444  1
  Y  Y2  1  0.250000  0.965754  0.715340  1
  Y  Y3  1  0.750000  0.534246  0.215340  1
  Y  Y4  1  0.250000  0.824310  0.056359  1
  Y  Y5  1  0.750000  0.675690  0.556359  1
  Y  Y6  1  0.250000  0.320240  0.440591  1
  Y  Y7  1  0.750000  0.179760  0.940591  1
  Ru  Ru8  1  0.250000  0.279661  0.133761  1
  Ru  Ru9  1  0.750000  0.220339  0.633761  1
  W  W10  1  0.250000  0.780894  0.366075  1
  W  W11  1  0.750000  0.719106  0.866075  1
  C  C12  1  0.250000  0.178443  0.953362  1
  C  C13  1  0.750000  0.822236  0.052767  1
  C  C14  1  0.250000  0.677764  0.552767  1
  C  C15  1  0.750000  0.321557  0.453362  1
  C  C16  1  0.250000  0.048516  0.260417  1
  C  C17  1  0.750000  0.451484  0.760417  1
  C  C18  1  0.250000  0.546038  0.241885  1
  C  C19  1  0.750000  0.953962  0.741885  1
