# generated using pymatgen
data_Er6Tm5LuIr4
_symmetry_space_group_name_H-M   'P 1'
_cell_length_a   6.35487293
_cell_length_b   7.17871418
_cell_length_c   9.02434488
_cell_angle_alpha   90.01406287
_cell_angle_beta   90.35714266
_cell_angle_gamma   90.02145483
_symmetry_Int_Tables_number   1
_chemical_formula_structural   Er6Tm5LuIr4
_chemical_formula_sum   'Er6 Tm5 Lu1 Ir4'
_cell_volume   411.68091754
_cell_formula_units_Z   1
loop_
 _symmetry_equiv_pos_site_id
 _symmetry_equiv_pos_as_xyz
  1  'x, y, z'
loop_
 _atom_site_type_symbol
 _atom_site_label
 _atom_site_symmetry_multiplicity
 _atom_site_fract_x
 _atom_site_fract_y
 _atom_site_fract_z
 _atom_site_occupancy
  Er  Er0  1  0.326033  0.678622  0.060892  1
  Er  Er1  1  0.174007  0.178608  0.438779  1
  Er  Er2  1  0.875793  0.531967  0.250365  1
  Er  Er3  1  0.624289  0.032232  0.249402  1
  Er  Er4  1  0.123215  0.467919  0.749801  1
  Er  Er5  1  0.376741  0.968089  0.750496  1
  Tm  Tm6  1  0.673488  0.321724  0.561276  1
  Tm  Tm7  1  0.826804  0.821944  0.938952  1
  Tm  Tm8  1  0.672937  0.321968  0.938473  1
  Tm  Tm9  1  0.827132  0.822135  0.561828  1
  Tm  Tm10  1  0.327582  0.677597  0.439107  1
  Lu  Lu11  1  0.172326  0.177437  0.061138  1
  Ir  Ir12  1  0.041225  0.885975  0.249638  1
  Ir  Ir13  1  0.458095  0.385159  0.249453  1
  Ir  Ir14  1  0.958425  0.114321  0.752514  1
  Ir  Ir15  1  0.541908  0.614299  0.747886  1
