# generated using pymatgen
data_TmLu2In3NiIr2
_symmetry_space_group_name_H-M   'P 1'
_cell_length_a   7.57615400
_cell_length_b   7.60257628
_cell_length_c   3.64637200
_cell_angle_alpha   90.00000000
_cell_angle_beta   90.00000000
_cell_angle_gamma   119.88509987
_symmetry_Int_Tables_number   1
_chemical_formula_structural   TmLu2In3NiIr2
_chemical_formula_sum   'Tm1 Lu2 In3 Ni1 Ir2'
_cell_volume   182.09702564
_cell_formula_units_Z   1
loop_
 _symmetry_equiv_pos_site_id
 _symmetry_equiv_pos_as_xyz
  1  'x, y, z'
loop_
 _atom_site_type_symbol
 _atom_site_label
 _atom_site_symmetry_multiplicity
 _atom_site_fract_x
 _atom_site_fract_y
 _atom_site_fract_z
 _atom_site_occupancy
  Tm  Tm0  1  0.589840  0.000000  0.000000  1
  Lu  Lu1  1  0.000468  0.590809  0.000000  1
  Lu  Lu2  1  0.409659  0.409191  0.000000  1
  In  In3  1  0.251625  0.000000  0.500000  1
  In  In4  1  0.000988  0.252991  0.500000  1
  In  In5  1  0.747997  0.747009  0.500000  1
  Ni  Ni6  1  0.000319  0.000000  0.000000  1
  Ir  Ir7  1  0.331885  0.664666  0.500000  1
  Ir  Ir8  1  0.667220  0.335334  0.500000  1
