# generated using pymatgen
data_K(ZrTe2)4
_symmetry_space_group_name_H-M   'P 1'
_cell_length_a   10.16528119
_cell_length_b   10.16528163
_cell_length_c   11.64250600
_cell_angle_alpha   42.11729397
_cell_angle_beta   42.11729124
_cell_angle_gamma   46.07390639
_symmetry_Int_Tables_number   1
_chemical_formula_structural   K(ZrTe2)4
_chemical_formula_sum   'K1 Zr4 Te8'
_cell_volume   512.82040147
_cell_formula_units_Z   1
loop_
 _symmetry_equiv_pos_site_id
 _symmetry_equiv_pos_as_xyz
  1  'x, y, z'
loop_
 _atom_site_type_symbol
 _atom_site_label
 _atom_site_symmetry_multiplicity
 _atom_site_fract_x
 _atom_site_fract_y
 _atom_site_fract_z
 _atom_site_occupancy
  K  K0  1  0.000000  0.000000  0.000000  1
  Zr  Zr1  1  0.250679  0.250679  0.001916  1
  Zr  Zr2  1  0.749321  0.749321  0.998084  1
  Zr  Zr3  1  0.247519  0.752481  0.500000  1
  Zr  Zr4  1  0.752481  0.247519  0.500000  1
  Te  Te5  1  0.320183  0.320183  0.668736  1
  Te  Te6  1  0.818732  0.818732  0.667076  1
  Te  Te7  1  0.317957  0.819201  0.168959  1
  Te  Te8  1  0.819201  0.317957  0.168959  1
  Te  Te9  1  0.180799  0.682043  0.831041  1
  Te  Te10  1  0.682043  0.180799  0.831041  1
  Te  Te11  1  0.181268  0.181268  0.332924  1
  Te  Te12  1  0.679817  0.679817  0.331264  1
