# generated using pymatgen
data_NbF17
_symmetry_space_group_name_H-M   'P 1'
_cell_length_a   8.77500353
_cell_length_b   8.05925918
_cell_length_c   10.33594251
_cell_angle_alpha   85.98165763
_cell_angle_beta   89.32170350
_cell_angle_gamma   68.88689103
_symmetry_Int_Tables_number   1
_chemical_formula_structural   NbF17
_chemical_formula_sum   'Nb2 F34'
_cell_volume   680.14288173
_cell_formula_units_Z   2
loop_
 _symmetry_equiv_pos_site_id
 _symmetry_equiv_pos_as_xyz
  1  'x, y, z'
loop_
 _atom_site_type_symbol
 _atom_site_label
 _atom_site_symmetry_multiplicity
 _atom_site_fract_x
 _atom_site_fract_y
 _atom_site_fract_z
 _atom_site_occupancy
  Nb  Nb0  1  0.850943  0.251786  0.788528  1
  Nb  Nb1  1  0.149057  0.748214  0.211472  1
  F  F2  1  0.593804  0.209580  0.495404  1
  F  F3  1  0.406196  0.790420  0.504596  1
  F  F4  1  0.833971  0.696617  0.692325  1
  F  F5  1  0.166029  0.303383  0.307675  1
  F  F6  1  0.078919  0.777016  0.850232  1
  F  F7  1  0.921081  0.222984  0.149768  1
  F  F8  1  0.555438  0.148384  0.377595  1
  F  F9  1  0.444562  0.851616  0.622405  1
  F  F10  1  0.637014  0.314800  0.715747  1
  F  F11  1  0.362986  0.685200  0.284253  1
  F  F12  1  0.934944  0.102841  0.632401  1
  F  F13  1  0.065056  0.897159  0.367599  1
  F  F14  1  0.911151  0.368102  0.617635  1
  F  F15  1  0.088849  0.631898  0.382365  1
  F  F16  1  0.860501  0.827758  0.605236  1
  F  F17  1  0.139499  0.172242  0.394764  1
  F  F18  1  0.795040  0.470239  0.865417  1
  F  F19  1  0.204960  0.529761  0.134583  1
  F  F20  1  0.217999  0.690012  0.774293  1
  F  F21  1  0.782001  0.309988  0.225707  1
  F  F22  1  0.927922  0.818395  0.155623  1
  F  F23  1  0.072078  0.181605  0.844377  1
  F  F24  1  0.817049  0.077717  0.903384  1
  F  F25  1  0.182951  0.922283  0.096616  1
  F  F26  1  0.476669  0.593396  0.984025  1
  F  F27  1  0.523331  0.406604  0.015975  1
  F  F28  1  0.460835  0.077351  0.870018  1
  F  F29  1  0.539165  0.922649  0.129982  1
  F  F30  1  0.290904  0.222787  0.624270  1
  F  F31  1  0.709096  0.777213  0.375730  1
  F  F32  1  0.243510  0.395471  0.672159  1
  F  F33  1  0.756490  0.604529  0.327841  1
  F  F34  1  0.558379  0.899224  0.844072  1
  F  F35  1  0.441621  0.100776  0.155928  1
