# generated using pymatgen
data_TbGdNbIr3
_symmetry_space_group_name_H-M   'P 1'
_cell_length_a   5.66041955
_cell_length_b   5.26305375
_cell_length_c   5.66042100
_cell_angle_alpha   57.46936070
_cell_angle_beta   59.99999739
_cell_angle_gamma   57.46936539
_symmetry_Int_Tables_number   1
_chemical_formula_structural   TbGdNbIr3
_chemical_formula_sum   'Tb1 Gd1 Nb1 Ir3'
_cell_volume   114.47295225
_cell_formula_units_Z   1
loop_
 _symmetry_equiv_pos_site_id
 _symmetry_equiv_pos_as_xyz
  1  'x, y, z'
loop_
 _atom_site_type_symbol
 _atom_site_label
 _atom_site_symmetry_multiplicity
 _atom_site_fract_x
 _atom_site_fract_y
 _atom_site_fract_z
 _atom_site_occupancy
  Tb  Tb0  1  0.750623  0.748130  0.750623  1
  Gd  Gd1  1  0.499239  0.502285  0.499239  1
  Nb  Nb2  1  0.124883  0.625353  0.124883  1
  Ir  Ir3  1  0.125043  0.124744  0.625169  1
  Ir  Ir4  1  0.625169  0.124744  0.125043  1
  Ir  Ir5  1  0.125043  0.124744  0.125043  1
