# generated using pymatgen
data_TbHo2Mg3Sn2Au
_symmetry_space_group_name_H-M   'P 1'
_cell_length_a   7.56059239
_cell_length_b   7.56059141
_cell_length_c   4.44372700
_cell_angle_alpha   90.00000000
_cell_angle_beta   90.00000000
_cell_angle_gamma   120.18057518
_symmetry_Int_Tables_number   1
_chemical_formula_structural   TbHo2Mg3Sn2Au
_chemical_formula_sum   'Tb1 Ho2 Mg3 Sn2 Au1'
_cell_volume   219.58186798
_cell_formula_units_Z   1
loop_
 _symmetry_equiv_pos_site_id
 _symmetry_equiv_pos_as_xyz
  1  'x, y, z'
loop_
 _atom_site_type_symbol
 _atom_site_label
 _atom_site_symmetry_multiplicity
 _atom_site_fract_x
 _atom_site_fract_y
 _atom_site_fract_z
 _atom_site_occupancy
  Tb  Tb0  1  0.405869  0.405869  0.000000  1
  Ho  Ho1  1  0.595247  0.000510  0.000000  1
  Ho  Ho2  1  0.000510  0.595247  0.000000  1
  Mg  Mg3  1  0.237372  0.999708  0.500000  1
  Mg  Mg4  1  0.999708  0.237372  0.500000  1
  Mg  Mg5  1  0.762588  0.762588  0.500000  1
  Sn  Sn6  1  0.332543  0.667599  0.500000  1
  Sn  Sn7  1  0.667599  0.332543  0.500000  1
  Au  Au8  1  0.998564  0.998564  0.000000  1
