# generated using pymatgen
data_Tb9Ce3(TcRu)2
_symmetry_space_group_name_H-M   'P 1'
_cell_length_a   6.36296753
_cell_length_b   7.19160891
_cell_length_c   9.56689200
_cell_angle_alpha   90.00000000
_cell_angle_beta   90.00000000
_cell_angle_gamma   91.23366971
_symmetry_Int_Tables_number   1
_chemical_formula_structural   Tb9Ce3(TcRu)2
_chemical_formula_sum   'Tb9 Ce3 Tc2 Ru2'
_cell_volume   437.67925314
_cell_formula_units_Z   1
loop_
 _symmetry_equiv_pos_site_id
 _symmetry_equiv_pos_as_xyz
  1  'x, y, z'
loop_
 _atom_site_type_symbol
 _atom_site_label
 _atom_site_symmetry_multiplicity
 _atom_site_fract_x
 _atom_site_fract_y
 _atom_site_fract_z
 _atom_site_occupancy
  Tb  Tb0  1  0.330735  0.677377  0.062865  1
  Tb  Tb1  1  0.166948  0.177253  0.434616  1
  Tb  Tb2  1  0.669301  0.324984  0.564660  1
  Tb  Tb3  1  0.832471  0.823590  0.932863  1
  Tb  Tb4  1  0.669301  0.324984  0.935340  1
  Tb  Tb5  1  0.832471  0.823590  0.567137  1
  Tb  Tb6  1  0.330735  0.677377  0.437135  1
  Tb  Tb7  1  0.166948  0.177253  0.065384  1
  Tb  Tb8  1  0.365165  0.959842  0.750000  1
  Ce  Ce9  1  0.859662  0.557213  0.250000  1
  Ce  Ce10  1  0.636189  0.055315  0.250000  1
  Ce  Ce11  1  0.149883  0.444078  0.750000  1
  Tc  Tc12  1  0.003450  0.865057  0.250000  1
  Tc  Tc13  1  0.500467  0.360946  0.250000  1
  Ru  Ru14  1  0.970765  0.142714  0.750000  1
  Ru  Ru15  1  0.515507  0.608425  0.750000  1
