# generated using pymatgen
data_Dy2Y2B4I5
_symmetry_space_group_name_H-M   'P 1'
_cell_length_a   9.64867213
_cell_length_b   9.64867245
_cell_length_c   9.72374592
_cell_angle_alpha   76.00413548
_cell_angle_beta   76.00413462
_cell_angle_gamma   25.67953896
_symmetry_Int_Tables_number   1
_chemical_formula_structural   Dy2Y2B4I5
_chemical_formula_sum   'Dy2 Y2 B4 I5'
_cell_volume   380.01849111
_cell_formula_units_Z   1
loop_
 _symmetry_equiv_pos_site_id
 _symmetry_equiv_pos_as_xyz
  1  'x, y, z'
loop_
 _atom_site_type_symbol
 _atom_site_label
 _atom_site_symmetry_multiplicity
 _atom_site_fract_x
 _atom_site_fract_y
 _atom_site_fract_z
 _atom_site_occupancy
  Dy  Dy0  1  0.501838  0.501838  0.755719  1
  Dy  Dy1  1  0.500239  0.500239  0.242909  1
  Y  Y2  1  0.129292  0.129292  0.933511  1
  Y  Y3  1  0.872743  0.872743  0.064991  1
  B  B4  1  0.315224  0.686830  0.999325  1
  B  B5  1  0.686830  0.315224  0.999325  1
  B  B6  1  0.001761  0.001761  0.098519  1
  B  B7  1  0.000259  0.000259  0.900129  1
  I  I8  1  0.672750  0.672750  0.684161  1
  I  I9  1  0.329318  0.329318  0.314521  1
  I  I10  1  0.327621  0.327621  0.855532  1
  I  I11  1  0.674550  0.674550  0.142633  1
  I  I12  1  0.001876  0.001876  0.498922  1
