# generated using pymatgen
data_Yb8Pr11HoSn16
_symmetry_space_group_name_H-M   'P 1'
_cell_length_a   8.02740866
_cell_length_b   8.51658904
_cell_length_c   16.08254502
_cell_angle_alpha   90.06427503
_cell_angle_beta   89.99659257
_cell_angle_gamma   90.05465712
_symmetry_Int_Tables_number   1
_chemical_formula_structural   Yb8Pr11HoSn16
_chemical_formula_sum   'Yb8 Pr11 Ho1 Sn16'
_cell_volume   1099.50033988
_cell_formula_units_Z   1
loop_
 _symmetry_equiv_pos_site_id
 _symmetry_equiv_pos_as_xyz
  1  'x, y, z'
loop_
 _atom_site_type_symbol
 _atom_site_label
 _atom_site_symmetry_multiplicity
 _atom_site_fract_x
 _atom_site_fract_y
 _atom_site_fract_z
 _atom_site_occupancy
  Yb  Yb0  1  0.828564  0.669891  0.623880  1
  Yb  Yb1  1  0.669874  0.171387  0.376073  1
  Yb  Yb2  1  0.170692  0.329130  0.123130  1
  Yb  Yb3  1  0.668716  0.170883  0.123447  1
  Yb  Yb4  1  0.159583  0.499178  0.750351  1
  Yb  Yb5  1  0.660286  0.999707  0.749541  1
  Yb  Yb6  1  0.839932  0.497575  0.248685  1
  Yb  Yb7  1  0.341455  0.001788  0.248065  1
  Pr  Pr8  1  0.166728  0.326066  0.374626  1
  Pr  Pr9  1  0.331638  0.828169  0.624879  1
  Pr  Pr10  1  0.831216  0.672435  0.876864  1
  Pr  Pr11  1  0.492132  0.314673  0.904888  1
  Pr  Pr12  1  0.989536  0.185137  0.596921  1
  Pr  Pr13  1  0.511316  0.685908  0.402931  1
  Pr  Pr14  1  0.009509  0.814509  0.096881  1
  Pr  Pr15  1  0.509309  0.685437  0.095751  1
  Pr  Pr16  1  0.006833  0.815952  0.403367  1
  Pr  Pr17  1  0.492273  0.315994  0.596222  1
  Pr  Pr18  1  0.991262  0.185371  0.904646  1
  Ho  Ho19  1  0.329594  0.829512  0.876827  1
  Sn  Sn20  1  0.328046  0.035374  0.038383  1
  Sn  Sn21  1  0.827407  0.464244  0.460408  1
  Sn  Sn22  1  0.672209  0.964684  0.538998  1
  Sn  Sn23  1  0.175062  0.537176  0.960801  1
  Sn  Sn24  1  0.665822  0.964190  0.961121  1
  Sn  Sn25  1  0.168518  0.536680  0.538657  1
  Sn  Sn26  1  0.330395  0.036547  0.460202  1
  Sn  Sn27  1  0.831185  0.462063  0.040483  1
  Sn  Sn28  1  0.528251  0.606961  0.751529  1
  Sn  Sn29  1  0.030816  0.896794  0.752321  1
  Sn  Sn30  1  0.469629  0.395854  0.249142  1
  Sn  Sn31  1  0.967598  0.104207  0.248793  1
  Sn  Sn32  1  0.289277  0.140202  0.751195  1
  Sn  Sn33  1  0.786976  0.357342  0.750716  1
  Sn  Sn34  1  0.713307  0.858483  0.249201  1
  Sn  Sn35  1  0.215050  0.640498  0.250078  1
