# generated using pymatgen
data_Dy12Ni6Bi
_symmetry_space_group_name_H-M   'P 1'
_cell_length_a   8.43972696
_cell_length_b   8.43972776
_cell_length_c   8.43972800
_cell_angle_alpha   109.47121640
_cell_angle_beta   109.47121833
_cell_angle_gamma   109.47122441
_symmetry_Int_Tables_number   1
_chemical_formula_structural   Dy12Ni6Bi
_chemical_formula_sum   'Dy12 Ni6 Bi1'
_cell_volume   462.76809453
_cell_formula_units_Z   1
loop_
 _symmetry_equiv_pos_site_id
 _symmetry_equiv_pos_as_xyz
  1  'x, y, z'
loop_
 _atom_site_type_symbol
 _atom_site_label
 _atom_site_symmetry_multiplicity
 _atom_site_fract_x
 _atom_site_fract_y
 _atom_site_fract_z
 _atom_site_occupancy
  Dy  Dy0  1  0.811590  0.692773  0.504362  1
  Dy  Dy1  1  0.188410  0.307227  0.495638  1
  Dy  Dy2  1  0.188410  0.692773  0.881183  1
  Dy  Dy3  1  0.811590  0.307227  0.118817  1
  Dy  Dy4  1  0.692773  0.504362  0.811590  1
  Dy  Dy5  1  0.307227  0.495638  0.188410  1
  Dy  Dy6  1  0.692773  0.881183  0.188410  1
  Dy  Dy7  1  0.307227  0.118817  0.811590  1
  Dy  Dy8  1  0.504362  0.811590  0.692773  1
  Dy  Dy9  1  0.495638  0.188410  0.307227  1
  Dy  Dy10  1  0.118817  0.811590  0.307227  1
  Dy  Dy11  1  0.881183  0.188410  0.692773  1
  Ni  Ni12  1  0.875446  0.375446  0.500000  1
  Ni  Ni13  1  0.124554  0.624554  0.500000  1
  Ni  Ni14  1  0.375446  0.500000  0.875446  1
  Ni  Ni15  1  0.624554  0.500000  0.124554  1
  Ni  Ni16  1  0.500000  0.875446  0.375446  1
  Ni  Ni17  1  0.500000  0.124554  0.624554  1
  Bi  Bi18  1  0.000000  0.000000  0.000000  1
