# generated using pymatgen
data_Pr3PdAu3
_symmetry_space_group_name_H-M   'P 1'
_cell_length_a   8.31889269
_cell_length_b   8.42841852
_cell_length_c   8.36803426
_cell_angle_alpha   114.64519555
_cell_angle_beta   114.08415181
_cell_angle_gamma   114.24529010
_symmetry_Int_Tables_number   1
_chemical_formula_structural   Pr3PdAu3
_chemical_formula_sum   'Pr6 Pd2 Au6'
_cell_volume   347.70617248
_cell_formula_units_Z   2
loop_
 _symmetry_equiv_pos_site_id
 _symmetry_equiv_pos_as_xyz
  1  'x, y, z'
loop_
 _atom_site_type_symbol
 _atom_site_label
 _atom_site_symmetry_multiplicity
 _atom_site_fract_x
 _atom_site_fract_y
 _atom_site_fract_z
 _atom_site_occupancy
  Pr  Pr0  1  0.394745  0.009999  0.267361  1
  Pr  Pr1  1  0.022809  0.280327  0.404218  1
  Pr  Pr2  1  0.264493  0.388095  0.010417  1
  Pr  Pr3  1  0.606050  0.974987  0.730451  1
  Pr  Pr4  1  0.984083  0.734084  0.609129  1
  Pr  Pr5  1  0.730585  0.616093  0.984641  1
  Pd  Pd6  1  0.007857  0.006942  0.008697  1
  Pd  Pd7  1  0.434218  0.773490  0.934182  1
  Au  Au8  1  0.495616  0.492340  0.494983  1
  Au  Au9  1  0.235026  0.071200  0.567839  1
  Au  Au10  1  0.062803  0.562848  0.226349  1
  Au  Au11  1  0.564920  0.225386  0.069430  1
  Au  Au12  1  0.760934  0.924866  0.423082  1
  Au  Au13  1  0.935861  0.439341  0.769220  1
