# generated using pymatgen
data_Dy3(LuSn2)2
_symmetry_space_group_name_H-M   'P 1'
_cell_length_a   7.95826200
_cell_length_b   8.09540800
_cell_length_c   15.31920600
_cell_angle_alpha   90.00000000
_cell_angle_beta   90.00000000
_cell_angle_gamma   90.00000000
_symmetry_Int_Tables_number   1
_chemical_formula_structural   Dy3(LuSn2)2
_chemical_formula_sum   'Dy12 Lu8 Sn16'
_cell_volume   986.94563508
_cell_formula_units_Z   4
loop_
 _symmetry_equiv_pos_site_id
 _symmetry_equiv_pos_as_xyz
  1  'x, y, z'
loop_
 _atom_site_type_symbol
 _atom_site_label
 _atom_site_symmetry_multiplicity
 _atom_site_fract_x
 _atom_site_fract_y
 _atom_site_fract_z
 _atom_site_occupancy
  Dy  Dy0  1  0.633436  0.162685  0.122796  1
  Dy  Dy1  1  0.133436  0.337315  0.377204  1
  Dy  Dy2  1  0.366564  0.837315  0.622796  1
  Dy  Dy3  1  0.866564  0.662685  0.877204  1
  Dy  Dy4  1  0.520565  0.320789  0.903555  1
  Dy  Dy5  1  0.020565  0.179211  0.596445  1
  Dy  Dy6  1  0.479435  0.679211  0.403555  1
  Dy  Dy7  1  0.979435  0.820789  0.096445  1
  Dy  Dy8  1  0.480865  0.678877  0.096035  1
  Dy  Dy9  1  0.980865  0.821123  0.403965  1
  Dy  Dy10  1  0.519135  0.321123  0.596035  1
  Dy  Dy11  1  0.019135  0.178877  0.903965  1
  Lu  Lu12  1  0.364411  0.838423  0.876547  1
  Lu  Lu13  1  0.864411  0.661577  0.623453  1
  Lu  Lu14  1  0.635589  0.161577  0.376547  1
  Lu  Lu15  1  0.135589  0.338423  0.123453  1
  Lu  Lu16  1  0.196461  0.504384  0.750774  1
  Lu  Lu17  1  0.696461  0.995616  0.749226  1
  Lu  Lu18  1  0.803539  0.495616  0.250774  1
  Lu  Lu19  1  0.303539  0.004384  0.249226  1
  Sn  Sn20  1  0.292560  0.038564  0.041013  1
  Sn  Sn21  1  0.792560  0.461436  0.458987  1
  Sn  Sn22  1  0.707440  0.961436  0.541013  1
  Sn  Sn23  1  0.207440  0.538564  0.958987  1
  Sn  Sn24  1  0.701431  0.962206  0.957058  1
  Sn  Sn25  1  0.201431  0.537794  0.542942  1
  Sn  Sn26  1  0.298569  0.037794  0.457058  1
  Sn  Sn27  1  0.798569  0.462206  0.042942  1
  Sn  Sn28  1  0.562565  0.618874  0.749938  1
  Sn  Sn29  1  0.062565  0.881126  0.750062  1
  Sn  Sn30  1  0.437435  0.381126  0.249938  1
  Sn  Sn31  1  0.937435  0.118874  0.250062  1
  Sn  Sn32  1  0.329810  0.150549  0.750227  1
  Sn  Sn33  1  0.829810  0.349451  0.749773  1
  Sn  Sn34  1  0.670190  0.849451  0.250227  1
  Sn  Sn35  1  0.170190  0.650549  0.249773  1
