# generated using pymatgen
data_Ac9HoIn6
_symmetry_space_group_name_H-M   'P 1'
_cell_length_a   6.74359445
_cell_length_b   9.90451650
_cell_length_c   9.90451677
_cell_angle_alpha   83.34487578
_cell_angle_beta   70.09690929
_cell_angle_gamma   70.09690257
_symmetry_Int_Tables_number   1
_chemical_formula_structural   Ac9HoIn6
_chemical_formula_sum   'Ac9 Ho1 In6'
_cell_volume   584.87484051
_cell_formula_units_Z   1
loop_
 _symmetry_equiv_pos_site_id
 _symmetry_equiv_pos_as_xyz
  1  'x, y, z'
loop_
 _atom_site_type_symbol
 _atom_site_label
 _atom_site_symmetry_multiplicity
 _atom_site_fract_x
 _atom_site_fract_y
 _atom_site_fract_z
 _atom_site_occupancy
  Ac  Ac0  1  0.722615  0.867388  0.697693  1
  Ac  Ac1  1  0.287697  0.132612  0.302307  1
  Ac  Ac2  1  0.777385  0.302307  0.132612  1
  Ac  Ac3  1  0.212303  0.697693  0.867388  1
  Ac  Ac4  1  0.579692  0.697693  0.132612  1
  Ac  Ac5  1  0.409997  0.302307  0.867388  1
  Ac  Ac6  1  0.090003  0.132612  0.697693  1
  Ac  Ac7  1  0.920308  0.867388  0.302307  1
  Ac  Ac8  1  0.750000  0.500000  0.500000  1
  Ho  Ho9  1  0.250000  0.500000  0.500000  1
  In  In10  1  0.173842  0.500000  0.186262  1
  In  In11  1  0.860104  0.500000  0.813738  1
  In  In12  1  0.326158  0.813738  0.500000  1
  In  In13  1  0.639896  0.186262  0.500000  1
  In  In14  1  0.250000  0.000000  0.000000  1
  In  In15  1  0.750000  0.000000  0.000000  1
