# generated using pymatgen
data_Lu4Zr3(ScPb2)5
_symmetry_space_group_name_H-M   'P 1'
_cell_length_a   6.20794655
_cell_length_b   9.16439132
_cell_length_c   11.28253698
_cell_angle_alpha   114.03822094
_cell_angle_beta   106.07560976
_cell_angle_gamma   89.74712009
_symmetry_Int_Tables_number   1
_chemical_formula_structural   Lu4Zr3(ScPb2)5
_chemical_formula_sum   'Lu4 Zr3 Sc5 Pb10'
_cell_volume   558.98295886
_cell_formula_units_Z   1
loop_
 _symmetry_equiv_pos_site_id
 _symmetry_equiv_pos_as_xyz
  1  'x, y, z'
loop_
 _atom_site_type_symbol
 _atom_site_label
 _atom_site_symmetry_multiplicity
 _atom_site_fract_x
 _atom_site_fract_y
 _atom_site_fract_z
 _atom_site_occupancy
  Lu  Lu0  1  0.146364  0.259523  0.288121  1
  Lu  Lu1  1  0.853894  0.741825  0.712195  1
  Lu  Lu2  1  0.641759  0.028598  0.288121  1
  Lu  Lu3  1  0.358299  0.970369  0.712195  1
  Zr  Zr4  1  0.558573  0.308573  0.617145  1
  Zr  Zr5  1  0.441755  0.691755  0.383511  1
  Zr  Zr6  1  0.942400  0.692400  0.384801  1
  Sc  Sc7  1  0.057135  0.307135  0.614269  1
  Sc  Sc8  1  0.439484  0.676166  0.876034  1
  Sc  Sc9  1  0.562244  0.323813  0.123889  1
  Sc  Sc10  1  0.936550  0.199868  0.876034  1
  Sc  Sc11  1  0.061644  0.800076  0.123889  1
  Pb  Pb12  1  0.292099  0.593857  0.584792  1
  Pb  Pb13  1  0.706973  0.405931  0.415836  1
  Pb  Pb14  1  0.792692  0.990935  0.584792  1
  Pb  Pb15  1  0.208864  0.009905  0.415836  1
  Pb  Pb16  1  0.251022  0.001022  0.002043  1
  Pb  Pb17  1  0.749485  0.999485  0.998970  1
  Pb  Pb18  1  0.069140  0.470939  0.140411  1
  Pb  Pb19  1  0.932232  0.528379  0.858353  1
  Pb  Pb20  1  0.571271  0.669472  0.140411  1
  Pb  Pb21  1  0.426121  0.329974  0.858353  1
