# generated using pymatgen
data_Ta8MnTc4Os3
_symmetry_space_group_name_H-M   'P 1'
_cell_length_a   6.35102900
_cell_length_b   4.48194900
_cell_length_c   8.98801700
_cell_angle_alpha   90.00000000
_cell_angle_beta   90.00001540
_cell_angle_gamma   90.00000000
_symmetry_Int_Tables_number   1
_chemical_formula_structural   Ta8MnTc4Os3
_chemical_formula_sum   'Ta8 Mn1 Tc4 Os3'
_cell_volume   255.84379673
_cell_formula_units_Z   1
loop_
 _symmetry_equiv_pos_site_id
 _symmetry_equiv_pos_as_xyz
  1  'x, y, z'
loop_
 _atom_site_type_symbol
 _atom_site_label
 _atom_site_symmetry_multiplicity
 _atom_site_fract_x
 _atom_site_fract_y
 _atom_site_fract_z
 _atom_site_occupancy
  Ta  Ta0  1  0.494353  0.749999  0.125018  1
  Ta  Ta1  1  0.005635  0.749999  0.125017  1
  Ta  Ta2  1  0.496535  0.250000  0.368479  1
  Ta  Ta3  1  0.003463  0.250000  0.368494  1
  Ta  Ta4  1  0.999422  0.749999  0.625002  1
  Ta  Ta5  1  0.500594  0.749999  0.625003  1
  Ta  Ta6  1  0.003475  0.250000  0.881513  1
  Ta  Ta7  1  0.496521  0.250000  0.881528  1
  Mn  Mn8  1  0.249963  0.250000  0.124939  1
  Tc  Tc9  1  0.749990  0.250000  0.124970  1
  Tc  Tc10  1  0.250005  0.749999  0.375733  1
  Tc  Tc11  1  0.750009  0.250000  0.624968  1
  Tc  Tc12  1  0.250005  0.749999  0.874343  1
  Os  Os13  1  0.750019  0.749999  0.375376  1
  Os  Os14  1  0.249994  0.250000  0.624989  1
  Os  Os15  1  0.750019  0.749999  0.874629  1
