# generated using pymatgen
data_Dy13ErLu2(InRh)4
_symmetry_space_group_name_H-M   'P 1'
_cell_length_a   9.62942084
_cell_length_b   9.63545279
_cell_length_c   9.63187684
_cell_angle_alpha   59.98771346
_cell_angle_beta   60.05916244
_cell_angle_gamma   59.97926995
_symmetry_Int_Tables_number   1
_chemical_formula_structural   Dy13ErLu2(InRh)4
_chemical_formula_sum   'Dy13 Er1 Lu2 In4 Rh4'
_cell_volume   632.05301969
_cell_formula_units_Z   1
loop_
 _symmetry_equiv_pos_site_id
 _symmetry_equiv_pos_as_xyz
  1  'x, y, z'
loop_
 _atom_site_type_symbol
 _atom_site_label
 _atom_site_symmetry_multiplicity
 _atom_site_fract_x
 _atom_site_fract_y
 _atom_site_fract_z
 _atom_site_occupancy
  Dy  Dy0  1  0.935614  0.938934  0.561690  1
  Dy  Dy1  1  0.148246  0.151289  0.549176  1
  Dy  Dy2  1  0.561574  0.939423  0.559581  1
  Dy  Dy3  1  0.148731  0.151500  0.151403  1
  Dy  Dy4  1  0.311741  0.310526  0.688805  1
  Dy  Dy5  1  0.935614  0.563762  0.561690  1
  Dy  Dy6  1  0.560963  0.561126  0.940024  1
  Dy  Dy7  1  0.560963  0.937887  0.940024  1
  Dy  Dy8  1  0.935000  0.562398  0.940205  1
  Dy  Dy9  1  0.148731  0.548365  0.151403  1
  Dy  Dy10  1  0.311741  0.688928  0.688805  1
  Dy  Dy11  1  0.688624  0.311978  0.687421  1
  Dy  Dy12  1  0.553455  0.149178  0.148186  1
  Er  Er13  1  0.313060  0.688193  0.310554  1
  Lu  Lu14  1  0.689143  0.311962  0.311036  1
  Lu  Lu15  1  0.689143  0.687860  0.311036  1
  In  In16  1  0.918960  0.916617  0.247805  1
  In  In17  1  0.249040  0.916855  0.917251  1
  In  In18  1  0.917696  0.248831  0.917124  1
  In  In19  1  0.917696  0.916348  0.917124  1
  Rh  Rh20  1  0.361156  0.356459  0.357104  1
  Rh  Rh21  1  0.923733  0.359471  0.357326  1
  Rh  Rh22  1  0.358219  0.356829  0.928125  1
  Rh  Rh23  1  0.361156  0.925281  0.357104  1
