# generated using pymatgen
data_Eu3Dy(AgTe)12
_symmetry_space_group_name_H-M   'P 1'
_cell_length_a   7.40710467
_cell_length_b   8.34606092
_cell_length_c   13.66022117
_cell_angle_alpha   89.98571567
_cell_angle_beta   90.01105381
_cell_angle_gamma   90.39043995
_symmetry_Int_Tables_number   1
_chemical_formula_structural   Eu3Dy(AgTe)12
_chemical_formula_sum   'Eu3 Dy1 Ag12 Te12'
_cell_volume   844.45722886
_cell_formula_units_Z   1
loop_
 _symmetry_equiv_pos_site_id
 _symmetry_equiv_pos_as_xyz
  1  'x, y, z'
loop_
 _atom_site_type_symbol
 _atom_site_label
 _atom_site_symmetry_multiplicity
 _atom_site_fract_x
 _atom_site_fract_y
 _atom_site_fract_z
 _atom_site_occupancy
  Eu  Eu0  1  0.244048  0.749623  0.832205  1
  Eu  Eu1  1  0.744042  0.250426  0.331540  1
  Eu  Eu2  1  0.744056  0.250367  0.667653  1
  Dy  Dy3  1  0.243988  0.749672  0.167067  1
  Ag  Ag4  1  0.380715  0.121867  0.834351  1
  Ag  Ag5  1  0.629562  0.604417  0.999764  1
  Ag  Ag6  1  0.882201  0.877706  0.665732  1
  Ag  Ag7  1  0.605478  0.623702  0.666806  1
  Ag  Ag8  1  0.860756  0.891294  0.999921  1
  Ag  Ag9  1  0.128366  0.396212  0.499737  1
  Ag  Ag10  1  0.606161  0.624085  0.332805  1
  Ag  Ag11  1  0.361726  0.108160  0.499718  1
  Ag  Ag12  1  0.881260  0.877443  0.333920  1
  Ag  Ag13  1  0.381174  0.123101  0.166081  1
  Ag  Ag14  1  0.106960  0.376677  0.833290  1
  Ag  Ag15  1  0.106553  0.375317  0.167049  1
  Te  Te16  1  0.009307  0.565073  0.330339  1
  Te  Te17  1  0.496814  0.445167  0.167190  1
  Te  Te18  1  0.990469  0.053830  0.167049  1
  Te  Te19  1  0.001851  0.561218  0.667390  1
  Te  Te20  1  0.014694  0.574038  0.003637  1
  Te  Te21  1  0.502541  0.439232  0.833213  1
  Te  Te22  1  0.478047  0.936050  0.330638  1
  Te  Te23  1  0.485547  0.939884  0.667296  1
  Te  Te24  1  0.978670  0.072198  0.499285  1
  Te  Te25  1  0.475044  0.923182  0.003740  1
  Te  Te26  1  0.984806  0.059600  0.833362  1
  Te  Te27  1  0.511158  0.430458  0.499219  1
