# generated using pymatgen
data_MoOs4Rh2W
_symmetry_space_group_name_H-M   'P 1'
_cell_length_a   5.54966230
_cell_length_b   5.55836720
_cell_length_c   4.39022000
_cell_angle_alpha   90.00000000
_cell_angle_beta   90.00000000
_cell_angle_gamma   120.02649288
_symmetry_Int_Tables_number   1
_chemical_formula_structural   MoOs4Rh2W
_chemical_formula_sum   'Mo1 Os4 Rh2 W1'
_cell_volume   117.25050057
_cell_formula_units_Z   1
loop_
 _symmetry_equiv_pos_site_id
 _symmetry_equiv_pos_as_xyz
  1  'x, y, z'
loop_
 _atom_site_type_symbol
 _atom_site_label
 _atom_site_symmetry_multiplicity
 _atom_site_fract_x
 _atom_site_fract_y
 _atom_site_fract_z
 _atom_site_occupancy
  Mo  Mo0  1  0.664476  0.329003  0.750000  1
  Os  Os1  1  0.825923  0.664851  0.250000  1
  Os  Os2  1  0.173389  0.840054  0.750000  1
  Os  Os3  1  0.666914  0.836243  0.750000  1
  Os  Os4  1  0.334702  0.169533  0.250000  1
  Rh  Rh5  1  0.835847  0.166521  0.250000  1
  Rh  Rh6  1  0.163539  0.328759  0.750000  1
  W  W7  1  0.335210  0.665038  0.250000  1
