# generated using pymatgen
data_Ho2Cu7P4Pd
_symmetry_space_group_name_H-M   'P 1'
_cell_length_a   7.26482723
_cell_length_b   7.30353230
_cell_length_c   3.81179800
_cell_angle_alpha   90.00000000
_cell_angle_beta   90.00000000
_cell_angle_gamma   90.26425238
_symmetry_Int_Tables_number   1
_chemical_formula_structural   Ho2Cu7P4Pd
_chemical_formula_sum   'Ho2 Cu7 P4 Pd1'
_cell_volume   202.24765936
_cell_formula_units_Z   1
loop_
 _symmetry_equiv_pos_site_id
 _symmetry_equiv_pos_as_xyz
  1  'x, y, z'
loop_
 _atom_site_type_symbol
 _atom_site_label
 _atom_site_symmetry_multiplicity
 _atom_site_fract_x
 _atom_site_fract_y
 _atom_site_fract_z
 _atom_site_occupancy
  Ho  Ho0  1  0.998116  0.000209  0.000000  1
  Ho  Ho1  1  0.500476  0.500975  0.500000  1
  Cu  Cu2  1  0.164061  0.583902  0.000000  1
  Cu  Cu3  1  0.409105  0.833986  0.000000  1
  Cu  Cu4  1  0.921658  0.654759  0.500000  1
  Cu  Cu5  1  0.836199  0.415546  0.000000  1
  Cu  Cu6  1  0.583056  0.167937  0.000000  1
  Cu  Cu7  1  0.086221  0.335274  0.500000  1
  Cu  Cu8  1  0.331517  0.086993  0.500000  1
  P  P9  1  0.285883  0.287548  0.000000  1
  P  P10  1  0.714434  0.707723  0.000000  1
  P  P11  1  0.787098  0.223370  0.500000  1
  P  P12  1  0.214044  0.787982  0.500000  1
  Pd  Pd13  1  0.668132  0.913797  0.500000  1
