# generated using pymatgen
data_Y3Tm5Re2(B12Rh)2
_symmetry_space_group_name_H-M   'P 1'
_cell_length_a   3.65616100
_cell_length_b   9.10696717
_cell_length_c   11.50682233
_cell_angle_alpha   90.38747466
_cell_angle_beta   90.00000000
_cell_angle_gamma   90.00000000
_symmetry_Int_Tables_number   1
_chemical_formula_structural   Y3Tm5Re2(B12Rh)2
_chemical_formula_sum   'Y3 Tm5 Re2 B24 Rh2'
_cell_volume   383.12858775
_cell_formula_units_Z   1
loop_
 _symmetry_equiv_pos_site_id
 _symmetry_equiv_pos_as_xyz
  1  'x, y, z'
loop_
 _atom_site_type_symbol
 _atom_site_label
 _atom_site_symmetry_multiplicity
 _atom_site_fract_x
 _atom_site_fract_y
 _atom_site_fract_z
 _atom_site_occupancy
  Y  Y0  1  0.500000  0.318282  0.411039  1
  Y  Y1  1  0.500000  0.681687  0.588880  1
  Y  Y2  1  0.500000  0.174429  0.917036  1
  Tm  Tm3  1  0.500000  0.826046  0.082497  1
  Tm  Tm4  1  0.500000  0.442639  0.126606  1
  Tm  Tm5  1  0.500000  0.557771  0.873722  1
  Tm  Tm6  1  0.500000  0.054304  0.628250  1
  Tm  Tm7  1  0.500000  0.945411  0.371694  1
  Re  Re8  1  0.500000  0.138402  0.179885  1
  Re  Re9  1  0.500000  0.860771  0.820437  1
  B  B10  1  0.000000  0.105318  0.471591  1
  B  B11  1  0.000000  0.894578  0.528333  1
  B  B12  1  0.000000  0.395898  0.971136  1
  B  B13  1  0.000000  0.605340  0.029233  1
  B  B14  1  0.000000  0.131145  0.314905  1
  B  B15  1  0.000000  0.868506  0.685039  1
  B  B16  1  0.000000  0.368293  0.816813  1
  B  B17  1  0.000000  0.632664  0.182717  1
  B  B18  1  0.000000  0.052352  0.067699  1
  B  B19  1  0.000000  0.946337  0.932988  1
  B  B20  1  0.000000  0.445264  0.566106  1
  B  B21  1  0.000000  0.554867  0.433745  1
  B  B22  1  0.000000  0.483817  0.287066  1
  B  B23  1  0.000000  0.516526  0.712900  1
  B  B24  1  0.000000  0.016959  0.786595  1
  B  B25  1  0.000000  0.981918  0.213199  1
  B  B26  1  0.000000  0.249202  0.081712  1
  B  B27  1  0.000000  0.750702  0.919283  1
  B  B28  1  0.000000  0.250020  0.579099  1
  B  B29  1  0.000000  0.749893  0.420678  1
  B  B30  1  0.000000  0.293203  0.234570  1
  B  B31  1  0.000000  0.706735  0.765672  1
  B  B32  1  0.000000  0.208250  0.734657  1
  B  B33  1  0.000000  0.792057  0.264610  1
  Rh  Rh34  1  0.500000  0.361464  0.679417  1
  Rh  Rh35  1  0.500000  0.638950  0.320192  1
