# generated using pymatgen
data_Tb2Dy6Sc11Si16Au
_symmetry_space_group_name_H-M   'P 1'
_cell_length_a   7.01993212
_cell_length_b   7.39262360
_cell_length_c   14.02667624
_cell_angle_alpha   90.01499927
_cell_angle_beta   89.98485981
_cell_angle_gamma   89.83225921
_symmetry_Int_Tables_number   1
_chemical_formula_structural   Tb2Dy6Sc11Si16Au
_chemical_formula_sum   'Tb2 Dy6 Sc11 Si16 Au1'
_cell_volume   727.92123437
_cell_formula_units_Z   1
loop_
 _symmetry_equiv_pos_site_id
 _symmetry_equiv_pos_as_xyz
  1  'x, y, z'
loop_
 _atom_site_type_symbol
 _atom_site_label
 _atom_site_symmetry_multiplicity
 _atom_site_fract_x
 _atom_site_fract_y
 _atom_site_fract_z
 _atom_site_occupancy
  Tb  Tb0  1  0.510795  0.323677  0.403487  1
  Tb  Tb1  1  0.484165  0.672776  0.599271  1
  Dy  Dy2  1  0.010938  0.174465  0.096281  1
  Dy  Dy3  1  0.991110  0.814553  0.900673  1
  Dy  Dy4  1  0.484154  0.672975  0.900641  1
  Dy  Dy5  1  0.991115  0.814630  0.599450  1
  Dy  Dy6  1  0.510745  0.323482  0.096601  1
  Dy  Dy7  1  0.010791  0.174413  0.403623  1
  Sc  Sc8  1  0.838687  0.497638  0.249944  1
  Sc  Sc9  1  0.340020  0.003057  0.249953  1
  Sc  Sc10  1  0.657158  0.998637  0.750068  1
  Sc  Sc11  1  0.324483  0.183541  0.626868  1
  Sc  Sc12  1  0.671433  0.823716  0.375297  1
  Sc  Sc13  1  0.170949  0.678535  0.374024  1
  Sc  Sc14  1  0.671407  0.823607  0.124590  1
  Sc  Sc15  1  0.836822  0.327797  0.626887  1
  Sc  Sc16  1  0.324648  0.183681  0.873186  1
  Sc  Sc17  1  0.836653  0.327831  0.873229  1
  Sc  Sc18  1  0.170999  0.678501  0.125856  1
  Si  Si19  1  0.027096  0.097862  0.750069  1
  Si  Si20  1  0.968791  0.886726  0.249959  1
  Si  Si21  1  0.467496  0.618113  0.249872  1
  Si  Si22  1  0.536905  0.383980  0.750123  1
  Si  Si23  1  0.288879  0.885148  0.750164  1
  Si  Si24  1  0.713698  0.126891  0.249828  1
  Si  Si25  1  0.212425  0.372616  0.249822  1
  Si  Si26  1  0.778421  0.628161  0.750200  1
  Si  Si27  1  0.160652  0.459335  0.530600  1
  Si  Si28  1  0.843629  0.535540  0.462090  1
  Si  Si29  1  0.344680  0.965069  0.463106  1
  Si  Si30  1  0.843154  0.535297  0.037958  1
  Si  Si31  1  0.657769  0.033672  0.540636  1
  Si  Si32  1  0.161316  0.459500  0.969296  1
  Si  Si33  1  0.657509  0.033618  0.959390  1
  Si  Si34  1  0.344952  0.965114  0.036872  1
  Au  Au35  1  0.155557  0.515849  0.750086  1
