# generated using pymatgen
data_DySc6CoBr12
_symmetry_space_group_name_H-M   'P 1'
_cell_length_a   8.79250156
_cell_length_b   8.79250157
_cell_length_c   8.79250080
_cell_angle_alpha   106.66919034
_cell_angle_beta   106.66919452
_cell_angle_gamma   106.66920455
_symmetry_Int_Tables_number   1
_chemical_formula_structural   DySc6CoBr12
_chemical_formula_sum   'Dy1 Sc6 Co1 Br12'
_cell_volume   571.11815109
_cell_formula_units_Z   1
loop_
 _symmetry_equiv_pos_site_id
 _symmetry_equiv_pos_as_xyz
  1  'x, y, z'
loop_
 _atom_site_type_symbol
 _atom_site_label
 _atom_site_symmetry_multiplicity
 _atom_site_fract_x
 _atom_site_fract_y
 _atom_site_fract_z
 _atom_site_occupancy
  Dy  Dy0  1  0.500000  0.500000  0.500000  1
  Sc  Sc1  1  0.293637  0.092134  0.019759  1
  Sc  Sc2  1  0.092134  0.019759  0.293637  1
  Sc  Sc3  1  0.019759  0.293637  0.092134  1
  Sc  Sc4  1  0.706363  0.907866  0.980241  1
  Sc  Sc5  1  0.907866  0.980241  0.706363  1
  Sc  Sc6  1  0.980241  0.706363  0.907866  1
  Co  Co7  1  0.000000  0.000000  0.000000  1
  Br  Br8  1  0.218378  0.069629  0.680594  1
  Br  Br9  1  0.069629  0.680594  0.218378  1
  Br  Br10  1  0.680594  0.218378  0.069629  1
  Br  Br11  1  0.781622  0.930371  0.319406  1
  Br  Br12  1  0.930371  0.319406  0.781622  1
  Br  Br13  1  0.319406  0.781622  0.930371  1
  Br  Br14  1  0.378755  0.454123  0.150714  1
  Br  Br15  1  0.454123  0.150714  0.378755  1
  Br  Br16  1  0.150714  0.378755  0.454123  1
  Br  Br17  1  0.621245  0.545877  0.849286  1
  Br  Br18  1  0.545877  0.849286  0.621245  1
  Br  Br19  1  0.849286  0.621245  0.545877  1
