# generated using pymatgen
data_TaTi(CoH3)2
_symmetry_space_group_name_H-M   'P 1'
_cell_length_a   5.21785841
_cell_length_b   5.21785841
_cell_length_c   4.18174400
_cell_angle_alpha   90.00000000
_cell_angle_beta   90.00000000
_cell_angle_gamma   142.17372561
_symmetry_Int_Tables_number   1
_chemical_formula_structural   TaTi(CoH3)2
_chemical_formula_sum   'Ta1 Ti1 Co2 H6'
_cell_volume   69.82215864
_cell_formula_units_Z   1
loop_
 _symmetry_equiv_pos_site_id
 _symmetry_equiv_pos_as_xyz
  1  'x, y, z'
loop_
 _atom_site_type_symbol
 _atom_site_label
 _atom_site_symmetry_multiplicity
 _atom_site_fract_x
 _atom_site_fract_y
 _atom_site_fract_z
 _atom_site_occupancy
  Ta  Ta0  1  0.635756  0.364244  0.250000  1
  Ti  Ti1  1  0.367002  0.632998  0.750000  1
  Co  Co2  1  0.070497  0.929503  0.750000  1
  Co  Co3  1  0.926078  0.073922  0.250000  1
  H  H4  1  0.576216  0.423784  0.750000  1
  H  H5  1  0.190766  0.809234  0.487188  1
  H  H6  1  0.190766  0.809234  0.012812  1
  H  H7  1  0.808154  0.191846  0.985486  1
  H  H8  1  0.808154  0.191846  0.514514  1
  H  H9  1  0.426609  0.573391  0.250000  1
