# generated using pymatgen
data_CaDy(UH4)6
_symmetry_space_group_name_H-M   'P 1'
_cell_length_a   6.64820600
_cell_length_b   6.60018000
_cell_length_c   6.60018000
_cell_angle_alpha   90.00000000
_cell_angle_beta   90.00000000
_cell_angle_gamma   90.00000000
_symmetry_Int_Tables_number   1
_chemical_formula_structural   CaDy(UH4)6
_chemical_formula_sum   'Ca1 Dy1 U6 H24'
_cell_volume   289.61164971
_cell_formula_units_Z   1
loop_
 _symmetry_equiv_pos_site_id
 _symmetry_equiv_pos_as_xyz
  1  'x, y, z'
loop_
 _atom_site_type_symbol
 _atom_site_label
 _atom_site_symmetry_multiplicity
 _atom_site_fract_x
 _atom_site_fract_y
 _atom_site_fract_z
 _atom_site_occupancy
  Ca  Ca0  1  0.750000  0.000000  0.500000  1
  Dy  Dy1  1  0.250000  0.000000  0.500000  1
  U  U2  1  0.001123  0.000000  0.000000  1
  U  U3  1  0.498877  0.500000  0.500000  1
  U  U4  1  0.999933  0.500000  0.251817  1
  U  U5  1  0.999933  0.500000  0.748183  1
  U  U6  1  0.500067  0.751817  0.000000  1
  U  U7  1  0.500067  0.248183  0.000000  1
  H  H8  1  0.009251  0.157369  0.297532  1
  H  H9  1  0.490749  0.202468  0.657369  1
  H  H10  1  0.490749  0.797532  0.342631  1
  H  H11  1  0.808062  0.648428  0.500000  1
  H  H12  1  0.194037  0.653506  0.500000  1
  H  H13  1  0.344749  0.500000  0.804327  1
  H  H14  1  0.655439  0.500000  0.803584  1
  H  H15  1  0.305963  0.000000  0.153506  1
  H  H16  1  0.155251  0.304327  0.000000  1
  H  H17  1  0.844561  0.696416  0.000000  1
  H  H18  1  0.305963  0.000000  0.846494  1
  H  H19  1  0.844561  0.303584  0.000000  1
  H  H20  1  0.691938  0.000000  0.148428  1
  H  H21  1  0.691938  0.000000  0.851572  1
  H  H22  1  0.155251  0.695673  0.000000  1
  H  H23  1  0.009251  0.842631  0.702468  1
  H  H24  1  0.009251  0.157369  0.702468  1
  H  H25  1  0.009251  0.842631  0.297532  1
  H  H26  1  0.655439  0.500000  0.196416  1
  H  H27  1  0.344749  0.500000  0.195673  1
  H  H28  1  0.808062  0.351572  0.500000  1
  H  H29  1  0.194037  0.346494  0.500000  1
  H  H30  1  0.490749  0.797532  0.657369  1
  H  H31  1  0.490749  0.202468  0.342631  1
