# generated using pymatgen
data_Pr3GeAuS7
_symmetry_space_group_name_H-M   'P 1'
_cell_length_a   10.37199900
_cell_length_b   10.37197113
_cell_length_c   5.91681400
_cell_angle_alpha   90.00000000
_cell_angle_beta   90.00000000
_cell_angle_gamma   120.00018216
_symmetry_Int_Tables_number   1
_chemical_formula_structural   Pr3GeAuS7
_chemical_formula_sum   'Pr6 Ge2 Au2 S14'
_cell_volume   551.24100670
_cell_formula_units_Z   2
loop_
 _symmetry_equiv_pos_site_id
 _symmetry_equiv_pos_as_xyz
  1  'x, y, z'
loop_
 _atom_site_type_symbol
 _atom_site_label
 _atom_site_symmetry_multiplicity
 _atom_site_fract_x
 _atom_site_fract_y
 _atom_site_fract_z
 _atom_site_occupancy
  Pr  Pr0  1  0.124939  0.357937  0.257878  1
  Pr  Pr1  1  0.642062  0.766998  0.257876  1
  Pr  Pr2  1  0.233006  0.875067  0.257877  1
  Pr  Pr3  1  0.357937  0.233002  0.757877  1
  Pr  Pr4  1  0.766996  0.124934  0.757878  1
  Pr  Pr5  1  0.875061  0.642063  0.757881  1
  Ge  Ge6  1  0.666664  0.333331  0.173975  1
  Ge  Ge7  1  0.333336  0.666669  0.673974  1
  Au  Au8  1  0.000000  0.999999  0.293247  1
  Au  Au9  1  0.000000  0.000001  0.793246  1
  S  S10  1  0.521055  0.107666  0.017978  1
  S  S11  1  0.586602  0.478934  0.017982  1
  S  S12  1  0.892330  0.413396  0.017985  1
  S  S13  1  0.333335  0.666668  0.047566  1
  S  S14  1  0.905966  0.731415  0.276213  1
  S  S15  1  0.825452  0.094036  0.276211  1
  S  S16  1  0.268583  0.174552  0.276213  1
  S  S17  1  0.478945  0.892334  0.517977  1
  S  S18  1  0.413398  0.521065  0.517983  1
  S  S19  1  0.107670  0.586604  0.517984  1
  S  S20  1  0.666664  0.333332  0.547567  1
  S  S21  1  0.094033  0.268585  0.776212  1
  S  S22  1  0.731416  0.825447  0.776213  1
  S  S23  1  0.174548  0.905964  0.776212  1
