# generated using pymatgen
data_Li3La5(Cu4P3)4
_symmetry_space_group_name_H-M   'P 1'
_cell_length_a   12.79644400
_cell_length_b   12.79644573
_cell_length_c   4.02507700
_cell_angle_alpha   90.00000000
_cell_angle_beta   90.00000000
_cell_angle_gamma   120.00000070
_symmetry_Int_Tables_number   1
_chemical_formula_structural   Li3La5(Cu4P3)4
_chemical_formula_sum   'Li3 La5 Cu16 P12'
_cell_volume   570.79936464
_cell_formula_units_Z   1
loop_
 _symmetry_equiv_pos_site_id
 _symmetry_equiv_pos_as_xyz
  1  'x, y, z'
loop_
 _atom_site_type_symbol
 _atom_site_label
 _atom_site_symmetry_multiplicity
 _atom_site_fract_x
 _atom_site_fract_y
 _atom_site_fract_z
 _atom_site_occupancy
  Li  Li0  1  0.566471  0.566471  0.000000  1
  Li  Li1  1  0.433529  0.000000  0.000000  1
  Li  Li2  1  0.000000  0.433529  0.000000  1
  La  La3  1  0.193212  0.193212  0.500000  1
  La  La4  1  0.806788  0.000000  0.500000  1
  La  La5  1  0.000000  0.806788  0.500000  1
  La  La6  1  0.333333  0.666667  0.000000  1
  La  La7  1  0.666667  0.333333  0.000000  1
  Cu  Cu8  1  0.716570  0.716570  0.500000  1
  Cu  Cu9  1  0.283430  0.000000  0.500000  1
  Cu  Cu10  1  0.000000  0.283430  0.500000  1
  Cu  Cu11  1  0.181064  0.379891  0.000000  1
  Cu  Cu12  1  0.620109  0.801173  0.000000  1
  Cu  Cu13  1  0.198827  0.818936  0.000000  1
  Cu  Cu14  1  0.801173  0.620109  0.000000  1
  Cu  Cu15  1  0.818936  0.198827  0.000000  1
  Cu  Cu16  1  0.379891  0.181064  0.000000  1
  Cu  Cu17  1  0.365943  0.483982  0.500000  1
  Cu  Cu18  1  0.516018  0.881961  0.500000  1
  Cu  Cu19  1  0.118039  0.634057  0.500000  1
  Cu  Cu20  1  0.881961  0.516018  0.500000  1
  Cu  Cu21  1  0.634057  0.118039  0.500000  1
  Cu  Cu22  1  0.483982  0.365943  0.500000  1
  Cu  Cu23  1  0.000000  0.000000  0.000000  1
  P  P24  1  0.821804  0.821804  0.000000  1
  P  P25  1  0.178196  0.000000  0.000000  1
  P  P26  1  0.000000  0.178196  0.000000  1
  P  P27  1  0.171590  0.477347  0.500000  1
  P  P28  1  0.522653  0.694242  0.500000  1
  P  P29  1  0.305758  0.828410  0.500000  1
  P  P30  1  0.694242  0.522653  0.500000  1
  P  P31  1  0.828410  0.305758  0.500000  1
  P  P32  1  0.477347  0.171590  0.500000  1
  P  P33  1  0.369680  0.369680  0.000000  1
  P  P34  1  0.630320  0.000000  0.000000  1
  P  P35  1  0.000000  0.630320  0.000000  1
