# generated using pymatgen
data_Na3Yb2BiO6
_symmetry_space_group_name_H-M   'P 1'
_cell_length_a   11.11515869
_cell_length_b   10.56631063
_cell_length_c   5.89036767
_cell_angle_alpha   79.44751086
_cell_angle_beta   69.15464220
_cell_angle_gamma   31.39783784
_symmetry_Int_Tables_number   1
_chemical_formula_structural   Na3Yb2BiO6
_chemical_formula_sum   'Na6 Yb4 Bi2 O12'
_cell_volume   326.32450892
_cell_formula_units_Z   2
loop_
 _symmetry_equiv_pos_site_id
 _symmetry_equiv_pos_as_xyz
  1  'x, y, z'
loop_
 _atom_site_type_symbol
 _atom_site_label
 _atom_site_symmetry_multiplicity
 _atom_site_fract_x
 _atom_site_fract_y
 _atom_site_fract_z
 _atom_site_occupancy
  Na  Na0  1  0.586977  0.586977  0.913023  1
  Na  Na1  1  0.913023  0.913023  0.586977  1
  Na  Na2  1  0.663023  0.663023  0.336977  1
  Na  Na3  1  0.336977  0.336977  0.663023  1
  Na  Na4  1  0.500000  0.500000  0.500000  1
  Na  Na5  1  0.750000  0.750000  0.750000  1
  Yb  Yb6  1  0.080567  0.080567  0.419433  1
  Yb  Yb7  1  0.830567  0.830567  0.169433  1
  Yb  Yb8  1  0.419433  0.419433  0.080567  1
  Yb  Yb9  1  0.169433  0.169433  0.830567  1
  Bi  Bi10  1  0.250000  0.250000  0.250000  1
  Bi  Bi11  1  0.000000  0.000000  0.000000  1
  O  O12  1  0.389860  0.953456  0.097680  1
  O  O13  1  0.097680  0.559003  0.389860  1
  O  O14  1  0.559003  0.097680  0.953456  1
  O  O15  1  0.152320  0.690997  0.860140  1
  O  O16  1  0.224741  0.775259  0.224741  1
  O  O17  1  0.296544  0.860140  0.690997  1
  O  O18  1  0.025259  0.474741  0.025259  1
  O  O19  1  0.474741  0.025259  0.474741  1
  O  O20  1  0.690997  0.152320  0.296544  1
  O  O21  1  0.860140  0.296544  0.152320  1
  O  O22  1  0.953456  0.389860  0.559003  1
  O  O23  1  0.775259  0.224741  0.775259  1
