# generated using pymatgen
data_NaLa(BIr)4
_symmetry_space_group_name_H-M   'P 1'
_cell_length_a   7.11374644
_cell_length_b   6.15920689
_cell_length_c   5.54119477
_cell_angle_alpha   74.67945362
_cell_angle_beta   56.62089655
_cell_angle_gamma   48.69966074
_symmetry_Int_Tables_number   1
_chemical_formula_structural   NaLa(BIr)4
_chemical_formula_sum   'Na1 La1 B4 Ir4'
_cell_volume   150.40544713
_cell_formula_units_Z   1
loop_
 _symmetry_equiv_pos_site_id
 _symmetry_equiv_pos_as_xyz
  1  'x, y, z'
loop_
 _atom_site_type_symbol
 _atom_site_label
 _atom_site_symmetry_multiplicity
 _atom_site_fract_x
 _atom_site_fract_y
 _atom_site_fract_z
 _atom_site_occupancy
  Na  Na0  1  0.500000  0.500000  0.500000  1
  La  La1  1  0.750000  0.750000  0.750000  1
  B  B2  1  0.179143  0.820857  0.179143  1
  B  B3  1  0.075410  0.424590  0.075410  1
  B  B4  1  0.820857  0.179143  0.820857  1
  B  B5  1  0.424590  0.075410  0.424590  1
  Ir  Ir6  1  0.871142  0.871142  0.128858  1
  Ir  Ir7  1  0.128858  0.128858  0.871142  1
  Ir  Ir8  1  0.382225  0.382225  0.117775  1
  Ir  Ir9  1  0.117775  0.117775  0.382225  1
