# generated using pymatgen
data_NdHo5(P2Rh3)6
_symmetry_space_group_name_H-M   'P 1'
_cell_length_a   3.93486200
_cell_length_b   11.22834300
_cell_length_c   12.79873800
_cell_angle_alpha   90.00000000
_cell_angle_beta   90.00000000
_cell_angle_gamma   90.00000000
_symmetry_Int_Tables_number   1
_chemical_formula_structural   NdHo5(P2Rh3)6
_chemical_formula_sum   'Nd1 Ho5 P12 Rh18'
_cell_volume   565.47358882
_cell_formula_units_Z   1
loop_
 _symmetry_equiv_pos_site_id
 _symmetry_equiv_pos_as_xyz
  1  'x, y, z'
loop_
 _atom_site_type_symbol
 _atom_site_label
 _atom_site_symmetry_multiplicity
 _atom_site_fract_x
 _atom_site_fract_y
 _atom_site_fract_z
 _atom_site_occupancy
  Nd  Nd0  1  0.000000  0.500000  0.520949  1
  Ho  Ho1  1  0.500000  0.000000  0.479378  1
  Ho  Ho2  1  0.500000  0.815466  0.205100  1
  Ho  Ho3  1  0.500000  0.184534  0.205100  1
  Ho  Ho4  1  0.000000  0.685003  0.795024  1
  Ho  Ho5  1  0.000000  0.314997  0.795024  1
  P  P6  1  0.500000  0.314068  0.620599  1
  P  P7  1  0.500000  0.685932  0.620599  1
  P  P8  1  0.000000  0.184230  0.381469  1
  P  P9  1  0.000000  0.815770  0.381469  1
  P  P10  1  0.500000  0.500000  0.879189  1
  P  P11  1  0.000000  0.000000  0.121817  1
  P  P12  1  0.500000  0.846358  0.892608  1
  P  P13  1  0.500000  0.153642  0.892608  1
  P  P14  1  0.000000  0.654694  0.106986  1
  P  P15  1  0.000000  0.345306  0.106986  1
  P  P16  1  0.500000  0.500000  0.347740  1
  P  P17  1  0.000000  0.000000  0.648058  1
  Rh  Rh18  1  0.000000  0.500000  0.980494  1
  Rh  Rh19  1  0.500000  0.000000  0.021079  1
  Rh  Rh20  1  0.500000  0.290068  0.430398  1
  Rh  Rh21  1  0.500000  0.709932  0.430398  1
  Rh  Rh22  1  0.000000  0.201495  0.569494  1
  Rh  Rh23  1  0.000000  0.798505  0.569494  1
  Rh  Rh24  1  0.500000  0.873108  0.711748  1
  Rh  Rh25  1  0.500000  0.126892  0.711748  1
  Rh  Rh26  1  0.000000  0.627720  0.287782  1
  Rh  Rh27  1  0.000000  0.372280  0.287782  1
  Rh  Rh28  1  0.500000  0.333531  0.992841  1
  Rh  Rh29  1  0.500000  0.666469  0.992841  1
  Rh  Rh30  1  0.000000  0.165571  0.006472  1
  Rh  Rh31  1  0.000000  0.834429  0.006472  1
  Rh  Rh32  1  0.500000  0.500000  0.167228  1
  Rh  Rh33  1  0.000000  0.000000  0.830118  1
  Rh  Rh34  1  0.500000  0.500000  0.703989  1
  Rh  Rh35  1  0.000000  0.000000  0.298912  1
