# generated using pymatgen
data_Ho20Ir9Pd2Pt
_symmetry_space_group_name_H-M   'P 1'
_cell_length_a   10.93584248
_cell_length_b   10.93584290
_cell_length_c   6.31896300
_cell_angle_alpha   89.97629774
_cell_angle_beta   89.97629601
_cell_angle_gamma   90.28015048
_symmetry_Int_Tables_number   1
_chemical_formula_structural   Ho20Ir9Pd2Pt
_chemical_formula_sum   'Ho20 Ir9 Pd2 Pt1'
_cell_volume   755.69240090
_cell_formula_units_Z   1
loop_
 _symmetry_equiv_pos_site_id
 _symmetry_equiv_pos_as_xyz
  1  'x, y, z'
loop_
 _atom_site_type_symbol
 _atom_site_label
 _atom_site_symmetry_multiplicity
 _atom_site_fract_x
 _atom_site_fract_y
 _atom_site_fract_z
 _atom_site_occupancy
  Ho  Ho0  1  0.294520  0.086328  0.369306  1
  Ho  Ho1  1  0.293375  0.907101  0.877136  1
  Ho  Ho2  1  0.704905  0.091336  0.874225  1
  Ho  Ho3  1  0.703395  0.910104  0.370930  1
  Ho  Ho4  1  0.583705  0.790375  0.878284  1
  Ho  Ho5  1  0.585517  0.209136  0.378052  1
  Ho  Ho6  1  0.410602  0.791108  0.378208  1
  Ho  Ho7  1  0.415474  0.209596  0.878107  1
  Ho  Ho8  1  0.209625  0.416295  0.621716  1
  Ho  Ho9  1  0.208892  0.589398  0.121792  1
  Ho  Ho10  1  0.790864  0.414483  0.121948  1
  Ho  Ho11  1  0.790404  0.584526  0.621893  1
  Ho  Ho12  1  0.913672  0.705480  0.130694  1
  Ho  Ho13  1  0.908664  0.295095  0.625775  1
  Ho  Ho14  1  0.092899  0.706625  0.622864  1
  Ho  Ho15  1  0.089896  0.296605  0.129070  1
  Ho  Ho16  1  0.001120  0.997879  0.499344  1
  Ho  Ho17  1  0.002121  0.998880  0.000656  1
  Ho  Ho18  1  0.499678  0.499826  0.000793  1
  Ho  Ho19  1  0.500174  0.500322  0.499207  1
  Ir  Ir20  1  0.151695  0.848305  0.250000  1
  Ir  Ir21  1  0.654404  0.345596  0.750000  1
  Ir  Ir22  1  0.655380  0.654899  0.249359  1
  Ir  Ir23  1  0.345101  0.344620  0.250641  1
  Ir  Ir24  1  0.346559  0.653441  0.750000  1
  Ir  Ir25  1  0.500404  0.000031  0.122340  1
  Ir  Ir26  1  0.500218  0.000284  0.624261  1
  Ir  Ir27  1  0.999716  0.499782  0.875739  1
  Ir  Ir28  1  0.999969  0.499596  0.377660  1
  Pd  Pd29  1  0.845086  0.845527  0.749918  1
  Pd  Pd30  1  0.154473  0.154914  0.750082  1
  Pt  Pt31  1  0.847496  0.152504  0.250000  1
