# generated using pymatgen
data_Tm3Lu5(ScGa5)4
_symmetry_space_group_name_H-M   'P 1'
_cell_length_a   5.94786613
_cell_length_b   9.43302304
_cell_length_c   11.21872724
_cell_angle_alpha   89.99258035
_cell_angle_beta   90.02259791
_cell_angle_gamma   90.00675547
_symmetry_Int_Tables_number   1
_chemical_formula_structural   Tm3Lu5(ScGa5)4
_chemical_formula_sum   'Tm3 Lu5 Sc4 Ga20'
_cell_volume   629.44187036
_cell_formula_units_Z   1
loop_
 _symmetry_equiv_pos_site_id
 _symmetry_equiv_pos_as_xyz
  1  'x, y, z'
loop_
 _atom_site_type_symbol
 _atom_site_label
 _atom_site_symmetry_multiplicity
 _atom_site_fract_x
 _atom_site_fract_y
 _atom_site_fract_z
 _atom_site_occupancy
  Tm  Tm0  1  0.391110  0.009587  0.147321  1
  Tm  Tm1  1  0.891149  0.990361  0.352693  1
  Tm  Tm2  1  0.608861  0.509611  0.852512  1
  Lu  Lu3  1  0.891352  0.509601  0.352529  1
  Lu  Lu4  1  0.608725  0.990378  0.852316  1
  Lu  Lu5  1  0.108739  0.009612  0.647674  1
  Lu  Lu6  1  0.391255  0.490374  0.147666  1
  Lu  Lu7  1  0.108743  0.490377  0.647400  1
  Sc  Sc8  1  0.849018  0.750065  0.073428  1
  Sc  Sc9  1  0.651231  0.749918  0.573534  1
  Sc  Sc10  1  0.150940  0.250117  0.926447  1
  Sc  Sc11  1  0.348964  0.249998  0.426619  1
  Ga  Ga12  1  0.877388  0.050277  0.089720  1
  Ga  Ga13  1  0.622965  0.449834  0.589807  1
  Ga  Ga14  1  0.122604  0.550187  0.910004  1
  Ga  Ga15  1  0.377357  0.949720  0.410257  1
  Ga  Ga16  1  0.122812  0.949894  0.909807  1
  Ga  Ga17  1  0.377056  0.550047  0.409906  1
  Ga  Ga18  1  0.877115  0.449906  0.090225  1
  Ga  Ga19  1  0.622900  0.050116  0.590206  1
  Ga  Ga20  1  0.164375  0.749538  0.248219  1
  Ga  Ga21  1  0.335412  0.750215  0.748019  1
  Ga  Ga22  1  0.835850  0.249770  0.751702  1
  Ga  Ga23  1  0.664324  0.250442  0.251816  1
  Ga  Ga24  1  0.382296  0.749757  0.004394  1
  Ga  Ga25  1  0.117706  0.749855  0.504767  1
  Ga  Ga26  1  0.617749  0.249768  0.995573  1
  Ga  Ga27  1  0.882444  0.250334  0.495606  1
  Ga  Ga28  1  0.607738  0.749607  0.295260  1
  Ga  Ga29  1  0.892304  0.750371  0.795233  1
  Ga  Ga30  1  0.391808  0.249953  0.704633  1
  Ga  Ga31  1  0.107710  0.250409  0.204708  1
