# generated using pymatgen
data_Yb8HoPaIr4
_symmetry_space_group_name_H-M   'P 1'
_cell_length_a   6.61285859
_cell_length_b   7.29058700
_cell_length_c   8.60595322
_cell_angle_alpha   97.03422857
_cell_angle_beta   112.59424084
_cell_angle_gamma   89.99999983
_symmetry_Int_Tables_number   1
_chemical_formula_structural   Yb8HoPaIr4
_chemical_formula_sum   'Yb8 Ho1 Pa1 Ir4'
_cell_volume   379.67759125
_cell_formula_units_Z   1
loop_
 _symmetry_equiv_pos_site_id
 _symmetry_equiv_pos_as_xyz
  1  'x, y, z'
loop_
 _atom_site_type_symbol
 _atom_site_label
 _atom_site_symmetry_multiplicity
 _atom_site_fract_x
 _atom_site_fract_y
 _atom_site_fract_z
 _atom_site_occupancy
  Yb  Yb0  1  0.976380  0.923951  0.172515  1
  Yb  Yb1  1  0.803866  0.576049  0.827485  1
  Yb  Yb2  1  0.025793  0.080419  0.825873  1
  Yb  Yb3  1  0.199919  0.419581  0.174127  1
  Yb  Yb4  1  0.642460  0.816686  0.441081  1
  Yb  Yb5  1  0.201379  0.683314  0.558919  1
  Yb  Yb6  1  0.361953  0.180842  0.567583  1
  Yb  Yb7  1  0.794370  0.319158  0.432417  1
  Ho  Ho8  1  0.565062  0.250000  0.000000  1
  Pa  Pa9  1  0.438030  0.750000  0.000000  1
  Ir  Ir10  1  0.793176  0.581881  0.201115  1
  Ir  Ir11  1  0.592062  0.918119  0.798885  1
  Ir  Ir12  1  0.204200  0.445190  0.802850  1
  Ir  Ir13  1  0.401349  0.054810  0.197150  1
