# generated using pymatgen
data_DyY4(OsO6)2
_symmetry_space_group_name_H-M   'P 1'
_cell_length_a   6.89882833
_cell_length_b   6.89882860
_cell_length_c   7.51516700
_cell_angle_alpha   73.98086598
_cell_angle_beta   73.98086385
_cell_angle_gamma   48.46804735
_symmetry_Int_Tables_number   1
_chemical_formula_structural   DyY4(OsO6)2
_chemical_formula_sum   'Dy1 Y4 Os2 O12'
_cell_volume   255.19589831
_cell_formula_units_Z   1
loop_
 _symmetry_equiv_pos_site_id
 _symmetry_equiv_pos_as_xyz
  1  'x, y, z'
loop_
 _atom_site_type_symbol
 _atom_site_label
 _atom_site_symmetry_multiplicity
 _atom_site_fract_x
 _atom_site_fract_y
 _atom_site_fract_z
 _atom_site_occupancy
  Dy  Dy0  1  0.688154  0.688154  0.170965  1
  Y  Y1  1  0.301307  0.301307  0.358054  1
  Y  Y2  1  0.698678  0.698678  0.641822  1
  Y  Y3  1  0.312013  0.312013  0.829018  1
  Y  Y4  1  0.000056  0.000056  0.499934  1
  Os  Os5  1  0.780837  0.219145  0.000094  1
  Os  Os6  1  0.219145  0.780837  0.000094  1
  O  O7  1  0.912417  0.418758  0.915243  1
  O  O8  1  0.418758  0.912417  0.915243  1
  O  O9  1  0.086478  0.581784  0.085230  1
  O  O10  1  0.581784  0.086478  0.085230  1
  O  O11  1  0.098740  0.595817  0.572972  1
  O  O12  1  0.595817  0.098740  0.572972  1
  O  O13  1  0.900916  0.404724  0.426538  1
  O  O14  1  0.404724  0.900916  0.426538  1
  O  O15  1  0.999164  0.999164  0.796988  1
  O  O16  1  0.000842  0.000842  0.203094  1
  O  O17  1  0.500993  0.500993  0.826231  1
  O  O18  1  0.499176  0.499176  0.173741  1
