# generated using pymatgen
data_Tb5TaNb2(Co4P3)4
_symmetry_space_group_name_H-M   'P 1'
_cell_length_a   12.18584900
_cell_length_b   12.18115710
_cell_length_c   3.70248100
_cell_angle_alpha   90.00000000
_cell_angle_beta   90.00000000
_cell_angle_gamma   120.01273966
_symmetry_Int_Tables_number   1
_chemical_formula_structural   Tb5TaNb2(Co4P3)4
_chemical_formula_sum   'Tb5 Ta1 Nb2 Co16 P12'
_cell_volume   475.89598487
_cell_formula_units_Z   1
loop_
 _symmetry_equiv_pos_site_id
 _symmetry_equiv_pos_as_xyz
  1  'x, y, z'
loop_
 _atom_site_type_symbol
 _atom_site_label
 _atom_site_symmetry_multiplicity
 _atom_site_fract_x
 _atom_site_fract_y
 _atom_site_fract_z
 _atom_site_occupancy
  Tb  Tb0  1  0.816315  0.000000  0.500000  1
  Tb  Tb1  1  0.000254  0.816287  0.500000  1
  Tb  Tb2  1  0.183968  0.183713  0.500000  1
  Tb  Tb3  1  0.333342  0.666445  0.000000  1
  Tb  Tb4  1  0.666897  0.333555  0.000000  1
  Ta  Ta5  1  0.442897  0.000000  0.000000  1
  Nb  Nb6  1  0.000020  0.443962  0.000000  1
  Nb  Nb7  1  0.556058  0.556038  0.000000  1
  Co  Co8  1  0.280248  0.000000  0.500000  1
  Co  Co9  1  0.999840  0.279190  0.500000  1
  Co  Co10  1  0.720651  0.720810  0.500000  1
  Co  Co11  1  0.625856  0.803329  0.000000  1
  Co  Co12  1  0.197668  0.823424  0.000000  1
  Co  Co13  1  0.177188  0.373942  0.000000  1
  Co  Co14  1  0.374244  0.176576  0.000000  1
  Co  Co15  1  0.803246  0.626058  0.000000  1
  Co  Co16  1  0.822527  0.196671  0.000000  1
  Co  Co17  1  0.518780  0.874072  0.500000  1
  Co  Co18  1  0.126770  0.646197  0.500000  1
  Co  Co19  1  0.354043  0.480622  0.500000  1
  Co  Co20  1  0.480573  0.353803  0.500000  1
  Co  Co21  1  0.873421  0.519378  0.500000  1
  Co  Co22  1  0.644708  0.125928  0.500000  1
  Co  Co23  1  0.999907  0.000000  0.000000  1
  P  P24  1  0.178108  0.000000  0.000000  1
  P  P25  1  0.999979  0.178546  0.000000  1
  P  P26  1  0.821433  0.821454  0.000000  1
  P  P27  1  0.521145  0.689043  0.500000  1
  P  P28  1  0.311350  0.832011  0.500000  1
  P  P29  1  0.167826  0.478950  0.500000  1
  P  P30  1  0.479338  0.167989  0.500000  1
  P  P31  1  0.688876  0.521050  0.500000  1
  P  P32  1  0.832101  0.310957  0.500000  1
  P  P33  1  0.643524  0.000000  0.000000  1
  P  P34  1  0.999906  0.642915  0.000000  1
  P  P35  1  0.356992  0.357085  0.000000  1
