# generated using pymatgen
data_YThSi5Os3
_symmetry_space_group_name_H-M   'P 1'
_cell_length_a   8.19241437
_cell_length_b   8.19241406
_cell_length_c   5.85700339
_cell_angle_alpha   70.61087937
_cell_angle_beta   70.61088798
_cell_angle_gamma   93.90514093
_symmetry_Int_Tables_number   1
_chemical_formula_structural   YThSi5Os3
_chemical_formula_sum   'Y2 Th2 Si10 Os6'
_cell_volume   342.67692666
_cell_formula_units_Z   2
loop_
 _symmetry_equiv_pos_site_id
 _symmetry_equiv_pos_as_xyz
  1  'x, y, z'
loop_
 _atom_site_type_symbol
 _atom_site_label
 _atom_site_symmetry_multiplicity
 _atom_site_fract_x
 _atom_site_fract_y
 _atom_site_fract_z
 _atom_site_occupancy
  Y  Y0  1  0.133224  0.398976  0.242802  1
  Y  Y1  1  0.601024  0.866776  0.257198  1
  Th  Th2  1  0.866607  0.599233  0.758565  1
  Th  Th3  1  0.400767  0.133393  0.741435  1
  Si  Si4  1  0.061929  0.262450  0.836532  1
  Si  Si5  1  0.737550  0.938071  0.663468  1
  Si  Si6  1  0.935730  0.741695  0.164858  1
  Si  Si7  1  0.258305  0.064270  0.335142  1
  Si  Si8  1  0.208042  0.791958  0.750000  1
  Si  Si9  1  0.792705  0.207295  0.250000  1
  Si  Si10  1  0.510820  0.489180  0.750000  1
  Si  Si11  1  0.485607  0.514393  0.250000  1
  Si  Si12  1  0.777445  0.222555  0.750000  1
  Si  Si13  1  0.231002  0.768998  0.250000  1
  Os  Os14  1  0.255536  0.543124  0.634652  1
  Os  Os15  1  0.456876  0.744464  0.865348  1
  Os  Os16  1  0.745546  0.458420  0.367942  1
  Os  Os17  1  0.541580  0.254454  0.132058  1
  Os  Os18  1  0.003579  0.996421  0.750000  1
  Os  Os19  1  0.996126  0.003874  0.250000  1
