# generated using pymatgen
data_BaF37
_symmetry_space_group_name_H-M   'P 1'
_cell_length_a   6.02359435
_cell_length_b   11.59045143
_cell_length_c   10.50727352
_cell_angle_alpha   80.38801512
_cell_angle_beta   93.46797618
_cell_angle_gamma   75.88455647
_symmetry_Int_Tables_number   1
_chemical_formula_structural   BaF37
_chemical_formula_sum   'Ba1 F37'
_cell_volume   697.50007085
_cell_formula_units_Z   1
loop_
 _symmetry_equiv_pos_site_id
 _symmetry_equiv_pos_as_xyz
  1  'x, y, z'
loop_
 _atom_site_type_symbol
 _atom_site_label
 _atom_site_symmetry_multiplicity
 _atom_site_fract_x
 _atom_site_fract_y
 _atom_site_fract_z
 _atom_site_occupancy
  Ba  Ba0  1  0.188273  0.150125  0.165815  1
  F  F1  1  0.718768  0.852098  0.731435  1
  F  F2  1  0.297721  0.362507  0.883909  1
  F  F3  1  0.708150  0.635786  0.084785  1
  F  F4  1  0.336574  0.236343  0.577204  1
  F  F5  1  0.679141  0.752645  0.444953  1
  F  F6  1  0.813191  0.203848  0.824509  1
  F  F7  1  0.177741  0.792744  0.181380  1
  F  F8  1  0.652042  0.895241  0.014505  1
  F  F9  1  0.305051  0.134350  0.943109  1
  F  F10  1  0.764571  0.585309  0.839392  1
  F  F11  1  0.201336  0.421175  0.165531  1
  F  F12  1  0.408825  0.458751  0.858744  1
  F  F13  1  0.589581  0.561318  0.160632  1
  F  F14  1  0.763321  0.577855  0.705268  1
  F  F15  1  0.285445  0.408106  0.298989  1
  F  F16  1  0.765285  0.057845  0.504617  1
  F  F17  1  0.259712  0.982885  0.457940  1
  F  F18  1  0.322179  0.185411  0.710254  1
  F  F19  1  0.676205  0.794683  0.309184  1
  F  F20  1  0.859254  0.071703  0.629058  1
  F  F21  1  0.191358  0.921086  0.360609  1
  F  F22  1  0.839827  0.951890  0.996319  1
  F  F23  1  0.186509  0.995609  0.025529  1
  F  F24  1  0.869554  0.316049  0.784447  1
  F  F25  1  0.130492  0.681587  0.238638  1
  F  F26  1  0.152483  0.702938  0.927946  1
  F  F27  1  0.776883  0.299509  0.089326  1
  F  F28  1  0.483452  0.917070  0.723444  1
  F  F29  1  0.610113  0.069869  0.286151  1
  F  F30  1  0.114987  0.762764  0.590057  1
  F  F31  1  0.899117  0.270482  0.426372  1
  F  F32  1  0.203559  0.642033  0.660568  1
  F  F33  1  0.813404  0.383404  0.338095  1
  F  F34  1  0.284120  0.782455  0.873706  1
  F  F35  1  0.693076  0.186250  0.186428  1
  F  F36  1  0.458198  0.443486  0.524925  1
  F  F37  1  0.520502  0.552790  0.476228  1
