# generated using pymatgen
data_Cs2UMnS6
_symmetry_space_group_name_H-M   'P 1'
_cell_length_a   7.52480900
_cell_length_b   7.52480910
_cell_length_c   6.21678700
_cell_angle_alpha   90.00000000
_cell_angle_beta   90.00000000
_cell_angle_gamma   120.00001276
_symmetry_Int_Tables_number   1
_chemical_formula_structural   Cs2UMnS6
_chemical_formula_sum   'Cs2 U1 Mn1 S6'
_cell_volume   304.85093474
_cell_formula_units_Z   1
loop_
 _symmetry_equiv_pos_site_id
 _symmetry_equiv_pos_as_xyz
  1  'x, y, z'
loop_
 _atom_site_type_symbol
 _atom_site_label
 _atom_site_symmetry_multiplicity
 _atom_site_fract_x
 _atom_site_fract_y
 _atom_site_fract_z
 _atom_site_occupancy
  Cs  Cs0  1  0.666667  0.333333  0.238914  1
  Cs  Cs1  1  0.333333  0.666667  0.767905  1
  U  U2  1  0.000000  0.000000  0.507530  1
  Mn  Mn3  1  0.000000  0.000000  0.007695  1
  S  S4  1  0.292275  0.146138  0.781226  1
  S  S5  1  0.853862  0.707725  0.781226  1
  S  S6  1  0.853862  0.146138  0.781226  1
  S  S7  1  0.707869  0.853935  0.233893  1
  S  S8  1  0.146065  0.292131  0.233893  1
  S  S9  1  0.146065  0.853935  0.233893  1
