# generated using pymatgen
data_Tb5NdDy10(CdPt)4
_symmetry_space_group_name_H-M   'P 1'
_cell_length_a   9.72124156
_cell_length_b   9.72124123
_cell_length_c   9.69654000
_cell_angle_alpha   60.08401856
_cell_angle_beta   60.08401967
_cell_angle_gamma   59.92051853
_symmetry_Int_Tables_number   1
_chemical_formula_structural   Tb5NdDy10(CdPt)4
_chemical_formula_sum   'Tb5 Nd1 Dy10 Cd4 Pt4'
_cell_volume   648.38566630
_cell_formula_units_Z   1
loop_
 _symmetry_equiv_pos_site_id
 _symmetry_equiv_pos_as_xyz
  1  'x, y, z'
loop_
 _atom_site_type_symbol
 _atom_site_label
 _atom_site_symmetry_multiplicity
 _atom_site_fract_x
 _atom_site_fract_y
 _atom_site_fract_z
 _atom_site_occupancy
  Tb  Tb0  1  0.936293  0.561480  0.564995  1
  Tb  Tb1  1  0.561480  0.936293  0.937232  1
  Tb  Tb2  1  0.561480  0.936293  0.564995  1
  Tb  Tb3  1  0.936293  0.561480  0.937232  1
  Tb  Tb4  1  0.565175  0.565175  0.934825  1
  Nd  Nd5  1  0.935303  0.935303  0.564697  1
  Dy  Dy6  1  0.351680  0.351680  0.350047  1
  Dy  Dy7  1  0.351680  0.351680  0.946591  1
  Dy  Dy8  1  0.354432  0.942760  0.351403  1
  Dy  Dy9  1  0.942760  0.354432  0.351403  1
  Dy  Dy10  1  0.810408  0.190989  0.188639  1
  Dy  Dy11  1  0.190989  0.810408  0.809964  1
  Dy  Dy12  1  0.190989  0.810408  0.188639  1
  Dy  Dy13  1  0.810408  0.190989  0.809964  1
  Dy  Dy14  1  0.190517  0.190517  0.809483  1
  Dy  Dy15  1  0.810893  0.810893  0.189107  1
  Cd  Cd16  1  0.581360  0.581360  0.581383  1
  Cd  Cd17  1  0.581360  0.581360  0.255898  1
  Cd  Cd18  1  0.579050  0.256593  0.582179  1
  Cd  Cd19  1  0.256593  0.579050  0.582179  1
  Pt  Pt20  1  0.144013  0.144013  0.142845  1
  Pt  Pt21  1  0.144013  0.144013  0.569129  1
  Pt  Pt22  1  0.142300  0.570529  0.143585  1
  Pt  Pt23  1  0.570529  0.142300  0.143585  1
