# generated using pymatgen
data_CeDyY(BO3)3
_symmetry_space_group_name_H-M   'P 1'
_cell_length_a   6.66623705
_cell_length_b   6.66623688
_cell_length_c   9.00030422
_cell_angle_alpha   89.97831052
_cell_angle_beta   89.97830478
_cell_angle_gamma   119.77116145
_symmetry_Int_Tables_number   1
_chemical_formula_structural   CeDyY(BO3)3
_chemical_formula_sum   'Ce2 Dy2 Y2 B6 O18'
_cell_volume   347.17307225
_cell_formula_units_Z   2
loop_
 _symmetry_equiv_pos_site_id
 _symmetry_equiv_pos_as_xyz
  1  'x, y, z'
loop_
 _atom_site_type_symbol
 _atom_site_label
 _atom_site_symmetry_multiplicity
 _atom_site_fract_x
 _atom_site_fract_y
 _atom_site_fract_z
 _atom_site_occupancy
  Ce  Ce0  1  0.328670  0.671330  0.500000  1
  Ce  Ce1  1  0.998563  0.001437  0.500000  1
  Dy  Dy2  1  0.328232  0.671768  0.000000  1
  Dy  Dy3  1  0.000465  0.999535  0.000000  1
  Y  Y4  1  0.669227  0.330773  0.500000  1
  Y  Y5  1  0.672186  0.327814  0.000000  1
  B  B6  1  0.337802  0.099547  0.754995  1
  B  B7  1  0.094443  0.334946  0.756419  1
  B  B8  1  0.574045  0.571717  0.755996  1
  B  B9  1  0.428283  0.425955  0.244004  1
  B  B10  1  0.665054  0.905557  0.243581  1
  B  B11  1  0.900453  0.662198  0.245005  1
  O  O12  1  0.452422  0.666395  0.241677  1
  O  O13  1  0.665436  0.447802  0.244012  1
  O  O14  1  0.876861  0.877109  0.242970  1
  O  O15  1  0.122891  0.123139  0.757030  1
  O  O16  1  0.552198  0.334564  0.755988  1
  O  O17  1  0.333605  0.547578  0.758323  1
  O  O18  1  0.016305  0.666349  0.107341  1
  O  O19  1  0.003391  0.657796  0.387541  1
  O  O20  1  0.666357  0.014716  0.104200  1
  O  O21  1  0.665745  0.019802  0.383080  1
  O  O22  1  0.315558  0.314931  0.105187  1
  O  O23  1  0.325754  0.320352  0.387516  1
  O  O24  1  0.679648  0.674246  0.612484  1
  O  O25  1  0.685069  0.684442  0.894813  1
  O  O26  1  0.980198  0.334255  0.616920  1
  O  O27  1  0.985284  0.333643  0.895800  1
  O  O28  1  0.342204  0.996609  0.612459  1
  O  O29  1  0.333651  0.983695  0.892659  1
