# generated using pymatgen
data_Sm2HoSi6Pd19Pt
_symmetry_space_group_name_H-M   'P 1'
_cell_length_a   8.74640838
_cell_length_b   8.74640936
_cell_length_c   8.74640891
_cell_angle_alpha   59.88664666
_cell_angle_beta   59.88664342
_cell_angle_gamma   59.88664350
_symmetry_Int_Tables_number   1
_chemical_formula_structural   Sm2HoSi6Pd19Pt
_chemical_formula_sum   'Sm2 Ho1 Si6 Pd19 Pt1'
_cell_volume   471.90647802
_cell_formula_units_Z   1
loop_
 _symmetry_equiv_pos_site_id
 _symmetry_equiv_pos_as_xyz
  1  'x, y, z'
loop_
 _atom_site_type_symbol
 _atom_site_label
 _atom_site_symmetry_multiplicity
 _atom_site_fract_x
 _atom_site_fract_y
 _atom_site_fract_z
 _atom_site_occupancy
  Sm  Sm0  1  0.250356  0.250356  0.250356  1
  Sm  Sm1  1  0.749560  0.749560  0.749560  1
  Ho  Ho2  1  0.999930  0.999930  0.999930  1
  Si  Si3  1  0.731501  0.267689  0.267689  1
  Si  Si4  1  0.267411  0.733143  0.733143  1
  Si  Si5  1  0.267689  0.731501  0.267689  1
  Si  Si6  1  0.733143  0.267411  0.733143  1
  Si  Si7  1  0.267689  0.267689  0.731501  1
  Si  Si8  1  0.733143  0.733143  0.267411  1
  Pd  Pd9  1  0.615152  0.615152  0.615152  1
  Pd  Pd10  1  0.384279  0.384279  0.846479  1
  Pd  Pd11  1  0.384279  0.846479  0.384279  1
  Pd  Pd12  1  0.616857  0.616857  0.152620  1
  Pd  Pd13  1  0.616857  0.152620  0.616857  1
  Pd  Pd14  1  0.846479  0.384279  0.384279  1
  Pd  Pd15  1  0.152620  0.616857  0.616857  1
  Pd  Pd16  1  0.344908  0.999751  0.999751  1
  Pd  Pd17  1  0.654927  0.999541  0.999541  1
  Pd  Pd18  1  0.999767  0.344811  0.654823  1
  Pd  Pd19  1  0.999767  0.654823  0.344811  1
  Pd  Pd20  1  0.999751  0.344908  0.999751  1
  Pd  Pd21  1  0.654823  0.999767  0.344811  1
  Pd  Pd22  1  0.999541  0.654927  0.999541  1
  Pd  Pd23  1  0.344811  0.999767  0.654823  1
  Pd  Pd24  1  0.999751  0.999751  0.344908  1
  Pd  Pd25  1  0.999541  0.999541  0.654927  1
  Pd  Pd26  1  0.654823  0.344811  0.999767  1
  Pd  Pd27  1  0.344811  0.654823  0.999767  1
  Pt  Pt28  1  0.385832  0.385832  0.385832  1
