# generated using pymatgen
data_PrPa4Ga15
_symmetry_space_group_name_H-M   'P 1'
_cell_length_a   12.66420099
_cell_length_b   12.66420008
_cell_length_c   12.66419958
_cell_angle_alpha   28.18288919
_cell_angle_beta   28.18289723
_cell_angle_gamma   28.18289637
_symmetry_Int_Tables_number   1
_chemical_formula_structural   PrPa4Ga15
_chemical_formula_sum   'Pr1 Pa4 Ga15'
_cell_volume   400.25498725
_cell_formula_units_Z   1
loop_
 _symmetry_equiv_pos_site_id
 _symmetry_equiv_pos_as_xyz
  1  'x, y, z'
loop_
 _atom_site_type_symbol
 _atom_site_label
 _atom_site_symmetry_multiplicity
 _atom_site_fract_x
 _atom_site_fract_y
 _atom_site_fract_z
 _atom_site_occupancy
  Pr  Pr0  1  0.000000  0.000000  0.000000  1
  Pa  Pa1  1  0.130310  0.130310  0.130310  1
  Pa  Pa2  1  0.869690  0.869690  0.869690  1
  Pa  Pa3  1  0.400911  0.400911  0.400911  1
  Pa  Pa4  1  0.599089  0.599089  0.599089  1
  Ga  Ga5  1  0.129430  0.636340  0.636340  1
  Ga  Ga6  1  0.636340  0.636340  0.129430  1
  Ga  Ga7  1  0.636340  0.129430  0.636340  1
  Ga  Ga8  1  0.363660  0.870570  0.363660  1
  Ga  Ga9  1  0.363660  0.363660  0.870570  1
  Ga  Ga10  1  0.870570  0.363660  0.363660  1
  Ga  Ga11  1  0.435845  0.882266  0.882266  1
  Ga  Ga12  1  0.882266  0.882266  0.435845  1
  Ga  Ga13  1  0.882266  0.435845  0.882266  1
  Ga  Ga14  1  0.117734  0.564155  0.117734  1
  Ga  Ga15  1  0.117734  0.117734  0.564155  1
  Ga  Ga16  1  0.564155  0.117734  0.117734  1
  Ga  Ga17  1  0.500000  0.500000  0.000000  1
  Ga  Ga18  1  0.500000  0.000000  0.500000  1
  Ga  Ga19  1  0.000000  0.500000  0.500000  1
