# generated using pymatgen
data_Tm2GaTcRu2
_symmetry_space_group_name_H-M   'P 1'
_cell_length_a   5.31092569
_cell_length_b   5.33228017
_cell_length_c   8.89801000
_cell_angle_alpha   90.00000000
_cell_angle_beta   90.00000000
_cell_angle_gamma   121.62203252
_symmetry_Int_Tables_number   1
_chemical_formula_structural   Tm2GaTcRu2
_chemical_formula_sum   'Tm4 Ga2 Tc2 Ru4'
_cell_volume   214.57230675
_cell_formula_units_Z   2
loop_
 _symmetry_equiv_pos_site_id
 _symmetry_equiv_pos_as_xyz
  1  'x, y, z'
loop_
 _atom_site_type_symbol
 _atom_site_label
 _atom_site_symmetry_multiplicity
 _atom_site_fract_x
 _atom_site_fract_y
 _atom_site_fract_z
 _atom_site_occupancy
  Tm  Tm0  1  0.340424  0.668807  0.440388  1
  Tm  Tm1  1  0.665662  0.335351  0.565677  1
  Tm  Tm2  1  0.665662  0.335351  0.934323  1
  Tm  Tm3  1  0.340424  0.668807  0.059612  1
  Ga  Ga4  1  0.828329  0.167702  0.250000  1
  Ga  Ga5  1  0.827751  0.660670  0.250000  1
  Tc  Tc6  1  0.167855  0.328503  0.750000  1
  Tc  Tc7  1  0.648827  0.817033  0.750000  1
  Ru  Ru8  1  0.003641  0.012285  0.499143  1
  Ru  Ru9  1  0.003641  0.012285  0.000857  1
  Ru  Ru10  1  0.335370  0.164389  0.250000  1
  Ru  Ru11  1  0.172414  0.828816  0.750000  1
