# generated using pymatgen
data_NpS2O9
_symmetry_space_group_name_H-M   'P 1'
_cell_length_a   10.84899400
_cell_length_b   8.08073200
_cell_length_c   16.42023100
_cell_angle_alpha   90.00000000
_cell_angle_beta   90.00000000
_cell_angle_gamma   90.00000000
_symmetry_Int_Tables_number   1
_chemical_formula_structural   NpS2O9
_chemical_formula_sum   'Np8 S16 O72'
_cell_volume   1439.52574046
_cell_formula_units_Z   8
loop_
 _symmetry_equiv_pos_site_id
 _symmetry_equiv_pos_as_xyz
  1  'x, y, z'
loop_
 _atom_site_type_symbol
 _atom_site_label
 _atom_site_symmetry_multiplicity
 _atom_site_fract_x
 _atom_site_fract_y
 _atom_site_fract_z
 _atom_site_occupancy
  Np  Np0  1  0.191847  0.535928  0.881835  1
  Np  Np1  1  0.808153  0.464072  0.381835  1
  Np  Np2  1  0.308153  0.535928  0.381835  1
  Np  Np3  1  0.691847  0.464072  0.881835  1
  Np  Np4  1  0.950469  0.038001  0.151880  1
  Np  Np5  1  0.049531  0.961999  0.651880  1
  Np  Np6  1  0.549531  0.038001  0.651880  1
  Np  Np7  1  0.450469  0.961999  0.151880  1
  S  S8  1  0.224404  0.303627  0.192695  1
  S  S9  1  0.775596  0.696373  0.692695  1
  S  S10  1  0.275596  0.303627  0.692695  1
  S  S11  1  0.724404  0.696373  0.192695  1
  S  S12  1  0.050999  0.437281  0.080876  1
  S  S13  1  0.949001  0.562719  0.580876  1
  S  S14  1  0.449001  0.437281  0.580876  1
  S  S15  1  0.550999  0.562719  0.080876  1
  S  S16  1  0.790724  0.071922  0.959216  1
  S  S17  1  0.209276  0.928078  0.459216  1
  S  S18  1  0.709276  0.071922  0.459216  1
  S  S19  1  0.290724  0.928078  0.959216  1
  S  S20  1  0.961117  0.196323  0.840523  1
  S  S21  1  0.038883  0.803677  0.340523  1
  S  S22  1  0.538883  0.196323  0.340523  1
  S  S23  1  0.461117  0.803677  0.840523  1
  O  O24  1  0.308205  0.412033  0.925511  1
  O  O25  1  0.691795  0.587967  0.425511  1
  O  O26  1  0.191795  0.412033  0.425511  1
  O  O27  1  0.808205  0.587967  0.925511  1
  O  O28  1  0.074616  0.660265  0.839929  1
  O  O29  1  0.925384  0.339735  0.339929  1
  O  O30  1  0.425384  0.660265  0.339929  1
  O  O31  1  0.574616  0.339735  0.839929  1
  O  O32  1  0.832159  0.154372  0.197616  1
  O  O33  1  0.167841  0.845628  0.697616  1
  O  O34  1  0.667841  0.154372  0.697616  1
  O  O35  1  0.332159  0.845628  0.197616  1
  O  O36  1  0.066984  0.921996  0.103611  1
  O  O37  1  0.933016  0.078004  0.603611  1
  O  O38  1  0.433016  0.921996  0.603611  1
  O  O39  1  0.566984  0.078004  0.103611  1
  O  O40  1  0.252431  0.435848  0.249747  1
  O  O41  1  0.747569  0.564152  0.749747  1
  O  O42  1  0.247569  0.435848  0.749747  1
  O  O43  1  0.752431  0.564152  0.249747  1
  O  O44  1  0.331767  0.202558  0.174835  1
  O  O45  1  0.668233  0.797442  0.674835  1
  O  O46  1  0.168233  0.202558  0.674835  1
  O  O47  1  0.831767  0.797442  0.174835  1
  O  O48  1  0.113554  0.211409  0.213706  1
  O  O49  1  0.886446  0.788591  0.713706  1
  O  O50  1  0.386446  0.211409  0.713706  1
  O  O51  1  0.613554  0.788591  0.213706  1
  O  O52  1  0.198828  0.393856  0.106358  1
  O  O53  1  0.801172  0.606144  0.606358  1
  O  O54  1  0.301172  0.393856  0.606358  1
  O  O55  1  0.698828  0.606144  0.106358  1
  O  O56  1  0.000437  0.535055  0.144870  1
  O  O57  1  0.999563  0.464945  0.644870  1
  O  O58  1  0.499563  0.535055  0.644870  1
  O  O59  1  0.500437  0.464945  0.144870  1
  O  O60  1  0.996885  0.271949  0.068509  1
  O  O61  1  0.003115  0.728051  0.568509  1
  O  O62  1  0.503115  0.271949  0.568509  1
  O  O63  1  0.496885  0.728051  0.068509  1
  O  O64  1  0.070265  0.519576  0.002866  1
  O  O65  1  0.929735  0.480424  0.502866  1
  O  O66  1  0.429735  0.519576  0.502866  1
  O  O67  1  0.570265  0.480424  0.002866  1
  O  O68  1  0.722406  0.977460  0.901561  1
  O  O69  1  0.277594  0.022540  0.401561  1
  O  O70  1  0.777594  0.977460  0.401561  1
  O  O71  1  0.222406  0.022540  0.901561  1
  O  O72  1  0.822701  0.989264  0.035467  1
  O  O73  1  0.177299  0.010736  0.535467  1
  O  O74  1  0.677299  0.989264  0.535467  1
  O  O75  1  0.322701  0.010736  0.035467  1
  O  O76  1  0.751509  0.243458  0.973283  1
  O  O77  1  0.248491  0.756542  0.473283  1
  O  O78  1  0.748491  0.243458  0.473283  1
  O  O79  1  0.251509  0.756542  0.973283  1
  O  O80  1  0.936385  0.092412  0.921846  1
  O  O81  1  0.063615  0.907588  0.421846  1
  O  O82  1  0.563615  0.092412  0.421846  1
  O  O83  1  0.436385  0.907588  0.921846  1
  O  O84  1  0.988990  0.072490  0.779364  1
  O  O85  1  0.011010  0.927510  0.279364  1
  O  O86  1  0.511010  0.072490  0.279364  1
  O  O87  1  0.488990  0.927510  0.779364  1
  O  O88  1  0.067595  0.298079  0.860853  1
  O  O89  1  0.932405  0.701921  0.360853  1
  O  O90  1  0.432405  0.298079  0.360853  1
  O  O91  1  0.567595  0.701921  0.860853  1
  O  O92  1  0.849735  0.290028  0.822336  1
  O  O93  1  0.150265  0.709972  0.322336  1
  O  O94  1  0.650265  0.290028  0.322336  1
  O  O95  1  0.349735  0.709972  0.822336  1
