# generated using pymatgen
data_La2NdBi(Mo2O7)2
_symmetry_space_group_name_H-M   'P 1'
_cell_length_a   7.59963062
_cell_length_b   7.52174554
_cell_length_c   7.52869332
_cell_angle_alpha   119.36682523
_cell_angle_beta   120.37918866
_cell_angle_gamma   90.09682954
_symmetry_Int_Tables_number   1
_chemical_formula_structural   La2NdBi(Mo2O7)2
_chemical_formula_sum   'La2 Nd1 Bi1 Mo4 O14'
_cell_volume   305.19522034
_cell_formula_units_Z   1
loop_
 _symmetry_equiv_pos_site_id
 _symmetry_equiv_pos_as_xyz
  1  'x, y, z'
loop_
 _atom_site_type_symbol
 _atom_site_label
 _atom_site_symmetry_multiplicity
 _atom_site_fract_x
 _atom_site_fract_y
 _atom_site_fract_z
 _atom_site_occupancy
  La  La0  1  0.375000  0.625000  0.250000  1
  La  La1  1  0.875000  0.625000  0.250000  1
  Nd  Nd2  1  0.375000  0.125000  0.750000  1
  Bi  Bi3  1  0.375000  0.625000  0.750000  1
  Mo  Mo4  1  0.875000  0.625000  0.750000  1
  Mo  Mo5  1  0.375000  0.125000  0.250000  1
  Mo  Mo6  1  0.875000  0.125000  0.250000  1
  Mo  Mo7  1  0.875000  0.125000  0.750000  1
  O  O8  1  0.781210  0.197655  0.992795  1
  O  O9  1  0.550307  0.460146  0.501120  1
  O  O10  1  0.207871  0.204910  0.998781  1
  O  O11  1  0.956329  0.453727  0.498705  1
  O  O12  1  0.799737  0.798482  0.586498  1
  O  O13  1  0.537288  0.033551  0.084413  1
  O  O14  1  0.251090  0.752174  0.500821  1
  O  O15  1  0.950263  0.451518  0.913502  1
  O  O16  1  0.968790  0.052345  0.507205  1
  O  O17  1  0.542129  0.045090  0.501219  1
  O  O18  1  0.212712  0.216449  0.415587  1
  O  O19  1  0.498910  0.497826  0.999179  1
  O  O20  1  0.793671  0.796273  0.001295  1
  O  O21  1  0.199693  0.789854  0.998880  1
