# generated using pymatgen
data_Nb12Al8ZnCu3C4
_symmetry_space_group_name_H-M   'P 1'
_cell_length_a   8.33844567
_cell_length_b   8.33464975
_cell_length_c   8.33464800
_cell_angle_alpha   59.99999902
_cell_angle_beta   60.01505681
_cell_angle_gamma   60.01505467
_symmetry_Int_Tables_number   1
_chemical_formula_structural   Nb12Al8ZnCu3C4
_chemical_formula_sum   'Nb12 Al8 Zn1 Cu3 C4'
_cell_volume   409.67882140
_cell_formula_units_Z   1
loop_
 _symmetry_equiv_pos_site_id
 _symmetry_equiv_pos_as_xyz
  1  'x, y, z'
loop_
 _atom_site_type_symbol
 _atom_site_label
 _atom_site_symmetry_multiplicity
 _atom_site_fract_x
 _atom_site_fract_y
 _atom_site_fract_z
 _atom_site_occupancy
  Nb  Nb0  1  0.567675  0.933763  0.564799  1
  Nb  Nb1  1  0.317562  0.682806  0.682806  1
  Nb  Nb2  1  0.682325  0.316237  0.316237  1
  Nb  Nb3  1  0.317562  0.682806  0.316826  1
  Nb  Nb4  1  0.682325  0.685201  0.316237  1
  Nb  Nb5  1  0.317562  0.316826  0.682806  1
  Nb  Nb6  1  0.567675  0.564799  0.933763  1
  Nb  Nb7  1  0.932438  0.567194  0.567194  1
  Nb  Nb8  1  0.567675  0.933763  0.933763  1
  Nb  Nb9  1  0.932438  0.933174  0.567194  1
  Nb  Nb10  1  0.682325  0.316237  0.685201  1
  Nb  Nb11  1  0.932438  0.567194  0.933174  1
  Al  Al12  1  0.922979  0.912863  0.912863  1
  Al  Al13  1  0.997802  0.334066  0.334066  1
  Al  Al14  1  0.327021  0.998705  0.337137  1
  Al  Al15  1  0.327021  0.337137  0.998705  1
  Al  Al16  1  0.922979  0.251295  0.912863  1
  Al  Al17  1  0.922979  0.912863  0.251295  1
  Al  Al18  1  0.252198  0.915934  0.915934  1
  Al  Al19  1  0.327021  0.337137  0.337137  1
  Zn  Zn20  1  0.625000  0.125000  0.125000  1
  Cu  Cu21  1  0.125000  0.125000  0.125000  1
  Cu  Cu22  1  0.125000  0.625000  0.125000  1
  Cu  Cu23  1  0.125000  0.125000  0.625000  1
  C  C24  1  0.625000  0.625000  0.625000  1
  C  C25  1  0.125000  0.625000  0.625000  1
  C  C26  1  0.625000  0.125000  0.625000  1
  C  C27  1  0.625000  0.625000  0.125000  1
