# generated using pymatgen
data_Tm3Hf2(ReN4)3
_symmetry_space_group_name_H-M   'P 1'
_cell_length_a   10.97719529
_cell_length_b   10.97719468
_cell_length_c   10.97719500
_cell_angle_alpha   109.47122122
_cell_angle_beta   109.47122011
_cell_angle_gamma   109.47121966
_symmetry_Int_Tables_number   1
_chemical_formula_structural   Tm3Hf2(ReN4)3
_chemical_formula_sum   'Tm12 Hf8 Re12 N48'
_cell_volume   1018.24491591
_cell_formula_units_Z   4
loop_
 _symmetry_equiv_pos_site_id
 _symmetry_equiv_pos_as_xyz
  1  'x, y, z'
loop_
 _atom_site_type_symbol
 _atom_site_label
 _atom_site_symmetry_multiplicity
 _atom_site_fract_x
 _atom_site_fract_y
 _atom_site_fract_z
 _atom_site_occupancy
  Tm  Tm0  1  0.250000  0.375000  0.125000  1
  Tm  Tm1  1  0.375000  0.750000  0.125000  1
  Tm  Tm2  1  0.375000  0.125000  0.250000  1
  Tm  Tm3  1  0.875000  0.625000  0.250000  1
  Tm  Tm4  1  0.750000  0.125000  0.375000  1
  Tm  Tm5  1  0.125000  0.250000  0.375000  1
  Tm  Tm6  1  0.875000  0.750000  0.624999  1
  Tm  Tm7  1  0.250000  0.875000  0.625000  1
  Tm  Tm8  1  0.125000  0.375000  0.750000  1
  Tm  Tm9  1  0.624999  0.875000  0.750000  1
  Tm  Tm10  1  0.625000  0.250000  0.875000  1
  Tm  Tm11  1  0.750000  0.624999  0.875000  1
  Hf  Hf12  1  0.000000  0.000000  0.000000  1
  Hf  Hf13  1  0.499999  0.000000  0.000000  1
  Hf  Hf14  1  0.000000  0.499999  0.000000  1
  Hf  Hf15  1  0.500000  0.500000  0.000000  1
  Hf  Hf16  1  0.000000  0.000000  0.499999  1
  Hf  Hf17  1  0.500000  0.000000  0.500000  1
  Hf  Hf18  1  0.000000  0.500000  0.500000  1
  Hf  Hf19  1  0.499999  0.499999  0.499999  1
  Re  Re20  1  0.875000  0.250001  0.125000  1
  Re  Re21  1  0.750000  0.875000  0.125000  1
  Re  Re22  1  0.624999  0.375000  0.250000  1
  Re  Re23  1  0.125000  0.875000  0.250001  1
  Re  Re24  1  0.250000  0.624999  0.375000  1
  Re  Re25  1  0.625000  0.750000  0.375000  1
  Re  Re26  1  0.375000  0.250000  0.624999  1
  Re  Re27  1  0.750000  0.375000  0.625000  1
  Re  Re28  1  0.875000  0.125000  0.750000  1
  Re  Re29  1  0.375000  0.625000  0.750000  1
  Re  Re30  1  0.250001  0.125000  0.875000  1
  Re  Re31  1  0.125000  0.750000  0.875000  1
  N  N32  1  0.214571  0.123232  0.027083  1
  N  N33  1  0.312512  0.903851  0.027083  1
  N  N34  1  0.714570  0.687487  0.091339  1
  N  N35  1  0.876769  0.403852  0.091339  1
  N  N36  1  0.623232  0.408661  0.096149  1
  N  N37  1  0.972916  0.687487  0.096148  1
  N  N38  1  0.027083  0.214571  0.123232  1
  N  N39  1  0.596148  0.908661  0.123231  1
  N  N40  1  0.472917  0.596149  0.187487  1
  N  N41  1  0.214570  0.591339  0.187487  1
  N  N42  1  0.123232  0.027083  0.214571  1
  N  N43  1  0.591339  0.187487  0.214570  1
  N  N44  1  0.472917  0.376769  0.285430  1
  N  N45  1  0.312512  0.908661  0.285430  1
  N  N46  1  0.908661  0.285430  0.312512  1
  N  N47  1  0.903851  0.027083  0.312512  1
  N  N48  1  0.285430  0.472917  0.376769  1
  N  N49  1  0.591339  0.903852  0.376768  1
  N  N50  1  0.812513  0.527083  0.403852  1
  N  N51  1  0.091339  0.876769  0.403852  1
  N  N52  1  0.812513  0.785429  0.408661  1
  N  N53  1  0.096149  0.623232  0.408661  1
  N  N54  1  0.596149  0.187487  0.472917  1
  N  N55  1  0.376769  0.285430  0.472917  1
  N  N56  1  0.403852  0.812513  0.527083  1
  N  N57  1  0.623232  0.714570  0.527083  1
  N  N58  1  0.187487  0.214570  0.591339  1
  N  N59  1  0.903852  0.376768  0.591339  1
  N  N60  1  0.187487  0.472917  0.596149  1
  N  N61  1  0.908661  0.123231  0.596148  1
  N  N62  1  0.408661  0.096149  0.623232  1
  N  N63  1  0.714570  0.527083  0.623232  1
  N  N64  1  0.091339  0.714570  0.687487  1
  N  N65  1  0.096148  0.972916  0.687487  1
  N  N66  1  0.687487  0.091339  0.714570  1
  N  N67  1  0.527083  0.623232  0.714570  1
  N  N68  1  0.876769  0.972917  0.785430  1
  N  N69  1  0.408661  0.812513  0.785429  1
  N  N70  1  0.527083  0.403852  0.812513  1
  N  N71  1  0.785429  0.408661  0.812513  1
  N  N72  1  0.403852  0.091339  0.876769  1
  N  N73  1  0.972917  0.785430  0.876769  1
  N  N74  1  0.376768  0.591339  0.903852  1
  N  N75  1  0.027083  0.312512  0.903851  1
  N  N76  1  0.285430  0.312512  0.908661  1
  N  N77  1  0.123231  0.596148  0.908661  1
  N  N78  1  0.687487  0.096148  0.972916  1
  N  N79  1  0.785430  0.876769  0.972917  1
