# generated using pymatgen
data_Hf9ZnRe4
_symmetry_space_group_name_H-M   'P 1'
_cell_length_a   8.61657700
_cell_length_b   8.62437099
_cell_length_c   8.62437003
_cell_angle_alpha   120.00143263
_cell_angle_beta   90.00000000
_cell_angle_gamma   90.00000000
_symmetry_Int_Tables_number   1
_chemical_formula_structural   Hf9ZnRe4
_chemical_formula_sum   'Hf18 Zn2 Re8'
_cell_volume   555.02679159
_cell_formula_units_Z   2
loop_
 _symmetry_equiv_pos_site_id
 _symmetry_equiv_pos_as_xyz
  1  'x, y, z'
loop_
 _atom_site_type_symbol
 _atom_site_label
 _atom_site_symmetry_multiplicity
 _atom_site_fract_x
 _atom_site_fract_y
 _atom_site_fract_z
 _atom_site_occupancy
  Hf  Hf0  1  0.550116  0.805946  0.611884  1
  Hf  Hf1  1  0.550110  0.805940  0.194060  1
  Hf  Hf2  1  0.550116  0.388116  0.194054  1
  Hf  Hf3  1  0.449884  0.194054  0.388116  1
  Hf  Hf4  1  0.449890  0.194060  0.805940  1
  Hf  Hf5  1  0.449884  0.611884  0.805946  1
  Hf  Hf6  1  0.050116  0.194054  0.388116  1
  Hf  Hf7  1  0.050110  0.194060  0.805940  1
  Hf  Hf8  1  0.050116  0.611884  0.805946  1
  Hf  Hf9  1  0.949884  0.805946  0.611884  1
  Hf  Hf10  1  0.949890  0.805940  0.194060  1
  Hf  Hf11  1  0.949884  0.388116  0.194054  1
  Hf  Hf12  1  0.750000  0.459576  0.919128  1
  Hf  Hf13  1  0.750000  0.459559  0.540441  1
  Hf  Hf14  1  0.750000  0.080872  0.540424  1
  Hf  Hf15  1  0.250000  0.540424  0.080872  1
  Hf  Hf16  1  0.250000  0.540441  0.459559  1
  Hf  Hf17  1  0.250000  0.919128  0.459576  1
  Zn  Zn18  1  0.750000  0.666674  0.333326  1
  Zn  Zn19  1  0.250000  0.333326  0.666674  1
  Re  Re20  1  0.750000  0.110461  0.220919  1
  Re  Re21  1  0.750000  0.110457  0.889543  1
  Re  Re22  1  0.750000  0.779081  0.889539  1
  Re  Re23  1  0.250000  0.889539  0.779081  1
  Re  Re24  1  0.250000  0.889543  0.110457  1
  Re  Re25  1  0.250000  0.220919  0.110461  1
  Re  Re26  1  0.500000  0.000000  0.000000  1
  Re  Re27  1  0.000000  0.000000  0.000000  1
