# generated using pymatgen
data_Er8Tm12Si15Ag
_symmetry_space_group_name_H-M   'P 1'
_cell_length_a   7.61407429
_cell_length_b   7.59339603
_cell_length_c   13.86314800
_cell_angle_alpha   89.79851277
_cell_angle_beta   89.63642801
_cell_angle_gamma   90.26019799
_symmetry_Int_Tables_number   1
_chemical_formula_structural   Er8Tm12Si15Ag
_chemical_formula_sum   'Er8 Tm12 Si15 Ag1'
_cell_volume   801.49177288
_cell_formula_units_Z   1
loop_
 _symmetry_equiv_pos_site_id
 _symmetry_equiv_pos_as_xyz
  1  'x, y, z'
loop_
 _atom_site_type_symbol
 _atom_site_label
 _atom_site_symmetry_multiplicity
 _atom_site_fract_x
 _atom_site_fract_y
 _atom_site_fract_z
 _atom_site_occupancy
  Er  Er0  1  0.358426  0.004231  0.457120  1
  Er  Er1  1  0.500977  0.849052  0.713409  1
  Er  Er2  1  0.505007  0.143127  0.210871  1
  Er  Er3  1  0.856405  0.493268  0.288749  1
  Er  Er4  1  0.139761  0.518107  0.789576  1
  Er  Er5  1  0.645086  0.992631  0.962171  1
  Er  Er6  1  0.996489  0.359148  0.537191  1
  Er  Er7  1  0.996409  0.644764  0.039814  1
  Tm  Tm8  1  0.317037  0.318856  0.999793  1
  Tm  Tm9  1  0.179800  0.819033  0.249989  1
  Tm  Tm10  1  0.814726  0.180317  0.750218  1
  Tm  Tm11  1  0.678772  0.677727  0.499478  1
  Tm  Tm12  1  0.143630  0.995295  0.875825  1
  Tm  Tm13  1  0.505599  0.640187  0.124067  1
  Tm  Tm14  1  0.496949  0.359099  0.624328  1
  Tm  Tm15  1  0.643426  0.508667  0.878008  1
  Tm  Tm16  1  0.356502  0.491512  0.377501  1
  Tm  Tm17  1  0.857661  0.005911  0.372339  1
  Tm  Tm18  1  0.994593  0.139304  0.126381  1
  Tm  Tm19  1  0.001927  0.858839  0.621426  1
  Si  Si20  1  0.350900  0.704949  0.933713  1
  Si  Si21  1  0.647977  0.293121  0.431024  1
  Si  Si22  1  0.708712  0.351007  0.067016  1
  Si  Si23  1  0.296166  0.650397  0.569506  1
  Si  Si24  1  0.794172  0.848529  0.182895  1
  Si  Si25  1  0.150481  0.204091  0.315520  1
  Si  Si26  1  0.849112  0.798987  0.816854  1
  Si  Si27  1  0.297847  0.942856  0.063064  1
  Si  Si28  1  0.555801  0.795150  0.311985  1
  Si  Si29  1  0.452366  0.200988  0.816497  1
  Si  Si30  1  0.796626  0.560130  0.687684  1
  Si  Si31  1  0.204798  0.442940  0.188173  1
  Si  Si32  1  0.703752  0.058112  0.560139  1
  Si  Si33  1  0.940760  0.297306  0.939109  1
  Si  Si34  1  0.055836  0.701557  0.435802  1
  Ag  Ag35  1  0.205513  0.150798  0.682768  1
