# generated using pymatgen
data_Ba2CaAs2
_symmetry_space_group_name_H-M   'P 1'
_cell_length_a   9.37588674
_cell_length_b   9.37588676
_cell_length_c   8.41646600
_cell_angle_alpha   90.00000000
_cell_angle_beta   90.00000000
_cell_angle_gamma   150.25389153
_symmetry_Int_Tables_number   1
_chemical_formula_structural   Ba2CaAs2
_chemical_formula_sum   'Ba4 Ca2 As4'
_cell_volume   367.09128143
_cell_formula_units_Z   2
loop_
 _symmetry_equiv_pos_site_id
 _symmetry_equiv_pos_as_xyz
  1  'x, y, z'
loop_
 _atom_site_type_symbol
 _atom_site_label
 _atom_site_symmetry_multiplicity
 _atom_site_fract_x
 _atom_site_fract_y
 _atom_site_fract_z
 _atom_site_occupancy
  Ba  Ba0  1  0.543759  0.456242  0.230028  1
  Ba  Ba1  1  0.296158  0.703843  0.389220  1
  Ba  Ba2  1  0.456242  0.543759  0.730028  1
  Ba  Ba3  1  0.703843  0.296158  0.889220  1
  Ca  Ca4  1  0.905558  0.094444  0.083977  1
  Ca  Ca5  1  0.094444  0.905558  0.583977  1
  As  As6  1  0.942282  0.057720  0.431200  1
  As  As7  1  0.674629  0.325372  0.499937  1
  As  As8  1  0.057720  0.942282  0.931200  1
  As  As9  1  0.325372  0.674629  0.999938  1
