# generated using pymatgen
data_Ho8CdGaPt23
_symmetry_space_group_name_H-M   'P 1'
_cell_length_a   8.40208000
_cell_length_b   8.39430900
_cell_length_c   8.30064400
_cell_angle_alpha   90.00000000
_cell_angle_beta   90.00000000
_cell_angle_gamma   90.00000000
_symmetry_Int_Tables_number   1
_chemical_formula_structural   Ho8CdGaPt23
_chemical_formula_sum   'Ho8 Cd1 Ga1 Pt23'
_cell_volume   585.44156393
_cell_formula_units_Z   1
loop_
 _symmetry_equiv_pos_site_id
 _symmetry_equiv_pos_as_xyz
  1  'x, y, z'
loop_
 _atom_site_type_symbol
 _atom_site_label
 _atom_site_symmetry_multiplicity
 _atom_site_fract_x
 _atom_site_fract_y
 _atom_site_fract_z
 _atom_site_occupancy
  Ho  Ho0  1  0.261329  0.244598  0.748852  1
  Ho  Ho1  1  0.250942  0.746229  0.252072  1
  Ho  Ho2  1  0.749058  0.253771  0.252072  1
  Ho  Ho3  1  0.738671  0.755402  0.748852  1
  Ho  Ho4  1  0.749058  0.746229  0.252072  1
  Ho  Ho5  1  0.738671  0.244598  0.748852  1
  Ho  Ho6  1  0.261329  0.755402  0.748852  1
  Ho  Ho7  1  0.250942  0.253771  0.252072  1
  Cd  Cd8  1  0.000000  0.500000  0.734640  1
  Ga  Ga9  1  0.000000  0.000000  0.001090  1
  Pt  Pt10  1  0.500000  0.500000  0.747629  1
  Pt  Pt11  1  0.500000  0.253884  0.497653  1
  Pt  Pt12  1  0.255721  0.500000  0.502259  1
  Pt  Pt13  1  0.500000  0.500000  0.252239  1
  Pt  Pt14  1  0.500000  0.746116  0.497653  1
  Pt  Pt15  1  0.744279  0.500000  0.502259  1
  Pt  Pt16  1  0.000000  0.000000  0.705866  1
  Pt  Pt17  1  0.000000  0.291364  0.995467  1
  Pt  Pt18  1  0.290677  0.000000  0.003237  1
  Pt  Pt19  1  0.000000  0.000000  0.295400  1
  Pt  Pt20  1  0.000000  0.708636  0.995467  1
  Pt  Pt21  1  0.709323  0.000000  0.003237  1
  Pt  Pt22  1  0.500000  0.260303  0.002951  1
  Pt  Pt23  1  0.261316  0.000000  0.498177  1
  Pt  Pt24  1  0.000000  0.260145  0.502190  1
  Pt  Pt25  1  0.500000  0.000000  0.741020  1
  Pt  Pt26  1  0.260732  0.500000  0.997278  1
  Pt  Pt27  1  0.000000  0.500000  0.259301  1
  Pt  Pt28  1  0.500000  0.739697  0.002951  1
  Pt  Pt29  1  0.000000  0.739855  0.502190  1
  Pt  Pt30  1  0.500000  0.000000  0.260695  1
  Pt  Pt31  1  0.738684  0.000000  0.498177  1
  Pt  Pt32  1  0.739268  0.500000  0.997278  1
