# generated using pymatgen
data_Th2Rh6S
_symmetry_space_group_name_H-M   'P 1'
_cell_length_a   6.07289805
_cell_length_b   6.07289692
_cell_length_c   6.07289800
_cell_angle_alpha   59.99999409
_cell_angle_beta   60.00000027
_cell_angle_gamma   59.99999086
_symmetry_Int_Tables_number   1
_chemical_formula_structural   Th2Rh6S
_chemical_formula_sum   'Th2 Rh6 S1'
_cell_volume   158.36997203
_cell_formula_units_Z   1
loop_
 _symmetry_equiv_pos_site_id
 _symmetry_equiv_pos_as_xyz
  1  'x, y, z'
loop_
 _atom_site_type_symbol
 _atom_site_label
 _atom_site_symmetry_multiplicity
 _atom_site_fract_x
 _atom_site_fract_y
 _atom_site_fract_z
 _atom_site_occupancy
  Th  Th0  1  0.250000  0.250000  0.250000  1
  Th  Th1  1  0.750000  0.750000  0.750000  1
  Rh  Rh2  1  0.737572  0.262429  0.262429  1
  Rh  Rh3  1  0.262429  0.737572  0.262429  1
  Rh  Rh4  1  0.737571  0.737571  0.262430  1
  Rh  Rh5  1  0.262430  0.737571  0.737571  1
  Rh  Rh6  1  0.262429  0.262429  0.737572  1
  Rh  Rh7  1  0.737571  0.262430  0.737571  1
  S  S8  1  0.000000  0.000000  0.000000  1
