# generated using pymatgen
data_NaSr(In2Pd)2
_symmetry_space_group_name_H-M   'P 1'
_cell_length_a   5.75413305
_cell_length_b   5.75413195
_cell_length_c   8.06108500
_cell_angle_alpha   90.00000000
_cell_angle_beta   90.00000000
_cell_angle_gamma   133.60329084
_symmetry_Int_Tables_number   1
_chemical_formula_structural   NaSr(In2Pd)2
_chemical_formula_sum   'Na1 Sr1 In4 Pd2'
_cell_volume   193.27296405
_cell_formula_units_Z   1
loop_
 _symmetry_equiv_pos_site_id
 _symmetry_equiv_pos_as_xyz
  1  'x, y, z'
loop_
 _atom_site_type_symbol
 _atom_site_label
 _atom_site_symmetry_multiplicity
 _atom_site_fract_x
 _atom_site_fract_y
 _atom_site_fract_z
 _atom_site_occupancy
  Na  Na0  1  0.937702  0.062298  0.750000  1
  Sr  Sr1  1  0.061783  0.938217  0.250000  1
  In  In2  1  0.650277  0.349723  0.939597  1
  In  In3  1  0.353460  0.646540  0.046480  1
  In  In4  1  0.353460  0.646540  0.453520  1
  In  In5  1  0.650277  0.349723  0.560403  1
  Pd  Pd6  1  0.215847  0.784153  0.750000  1
  Pd  Pd7  1  0.777195  0.222805  0.250000  1
