# generated using pymatgen
data_Ho6Al20Si4Os3Ru5
_symmetry_space_group_name_H-M   'P 1'
_cell_length_a   8.67424766
_cell_length_b   8.67636786
_cell_length_c   9.61562011
_cell_angle_alpha   90.07254978
_cell_angle_beta   89.93149104
_cell_angle_gamma   119.99706639
_symmetry_Int_Tables_number   1
_chemical_formula_structural   Ho6Al20Si4Os3Ru5
_chemical_formula_sum   'Ho6 Al20 Si4 Os3 Ru5'
_cell_volume   626.74387882
_cell_formula_units_Z   1
loop_
 _symmetry_equiv_pos_site_id
 _symmetry_equiv_pos_as_xyz
  1  'x, y, z'
loop_
 _atom_site_type_symbol
 _atom_site_label
 _atom_site_symmetry_multiplicity
 _atom_site_fract_x
 _atom_site_fract_y
 _atom_site_fract_z
 _atom_site_occupancy
  Ho  Ho0  1  0.196730  0.390873  0.248509  1
  Ho  Ho1  1  0.803270  0.609127  0.751491  1
  Ho  Ho2  1  0.609656  0.805950  0.248407  1
  Ho  Ho3  1  0.390344  0.194050  0.751593  1
  Ho  Ho4  1  0.197716  0.807058  0.248970  1
  Ho  Ho5  1  0.802284  0.192942  0.751030  1
  Al  Al6  1  0.164508  0.329609  0.577379  1
  Al  Al7  1  0.835492  0.670391  0.422621  1
  Al  Al8  1  0.670118  0.834658  0.576788  1
  Al  Al9  1  0.835665  0.670711  0.077950  1
  Al  Al10  1  0.329882  0.165342  0.423212  1
  Al  Al11  1  0.164335  0.329289  0.922050  1
  Al  Al12  1  0.164233  0.834589  0.577119  1
  Al  Al13  1  0.329485  0.164990  0.077488  1
  Al  Al14  1  0.835767  0.165411  0.422881  1
  Al  Al15  1  0.670515  0.835010  0.922512  1
  Al  Al16  1  0.835867  0.165389  0.077768  1
  Al  Al17  1  0.164133  0.834611  0.922232  1
  Al  Al18  1  0.564941  0.129093  0.249938  1
  Al  Al19  1  0.435059  0.870907  0.750062  1
  Al  Al20  1  0.875178  0.437878  0.249866  1
  Al  Al21  1  0.124822  0.562122  0.750134  1
  Al  Al22  1  0.564270  0.437064  0.250490  1
  Al  Al23  1  0.435730  0.562936  0.749510  1
  Al  Al24  1  0.000539  0.000419  0.249875  1
  Al  Al25  1  0.999461  0.999581  0.750125  1
  Si  Si26  1  0.333097  0.666549  0.037080  1
  Si  Si27  1  0.666903  0.333451  0.962920  1
  Si  Si28  1  0.666745  0.333422  0.538613  1
  Si  Si29  1  0.333255  0.666578  0.461387  1
  Os  Os30  1  0.500000  0.000000  0.000000  1
  Os  Os31  1  0.500000  0.000000  0.500000  1
  Os  Os32  1  0.500000  0.500000  0.000000  1
  Ru  Ru33  1  0.000000  0.500000  0.000000  1
  Ru  Ru34  1  0.000000  0.500000  0.500000  1
  Ru  Ru35  1  0.500000  0.500000  0.500000  1
  Ru  Ru36  1  0.000000  0.000000  0.000000  1
  Ru  Ru37  1  0.000000  0.000000  0.500000  1
