# generated using pymatgen
data_DyHoNi9Sn2Pd
_symmetry_space_group_name_H-M   'P 1'
_cell_length_a   4.91913400
_cell_length_b   8.02713321
_cell_length_c   10.25408200
_cell_angle_alpha   89.92874369
_cell_angle_beta   90.00000000
_cell_angle_gamma   90.00000000
_symmetry_Int_Tables_number   1
_chemical_formula_structural   DyHoNi9Sn2Pd
_chemical_formula_sum   'Dy2 Ho2 Ni18 Sn4 Pd2'
_cell_volume   404.89794576
_cell_formula_units_Z   2
loop_
 _symmetry_equiv_pos_site_id
 _symmetry_equiv_pos_as_xyz
  1  'x, y, z'
loop_
 _atom_site_type_symbol
 _atom_site_label
 _atom_site_symmetry_multiplicity
 _atom_site_fract_x
 _atom_site_fract_y
 _atom_site_fract_z
 _atom_site_occupancy
  Dy  Dy0  1  0.250000  0.740654  0.060587  1
  Dy  Dy1  1  0.750000  0.259346  0.939413  1
  Ho  Ho2  1  0.750000  0.751674  0.552728  1
  Ho  Ho3  1  0.250000  0.248326  0.447272  1
  Ni  Ni4  1  0.250000  0.809211  0.739154  1
  Ni  Ni5  1  0.750000  0.190789  0.260846  1
  Ni  Ni6  1  0.750000  0.685091  0.250430  1
  Ni  Ni7  1  0.250000  0.314909  0.749570  1
  Ni  Ni8  1  0.500261  0.564822  0.809425  1
  Ni  Ni9  1  0.499739  0.435178  0.190575  1
  Ni  Ni10  1  0.498220  0.933158  0.314454  1
  Ni  Ni11  1  0.000261  0.435178  0.190575  1
  Ni  Ni12  1  0.501780  0.066842  0.685546  1
  Ni  Ni13  1  0.999739  0.564822  0.809425  1
  Ni  Ni14  1  0.998220  0.066842  0.685546  1
  Ni  Ni15  1  0.001780  0.933158  0.314454  1
  Ni  Ni16  1  0.250000  0.911084  0.518154  1
  Ni  Ni17  1  0.750000  0.088916  0.481846  1
  Ni  Ni18  1  0.750000  0.587051  0.018470  1
  Ni  Ni19  1  0.250000  0.412949  0.981530  1
  Ni  Ni20  1  0.250000  0.553507  0.599075  1
  Ni  Ni21  1  0.750000  0.446493  0.400925  1
  Sn  Sn22  1  0.250000  0.638485  0.359998  1
  Sn  Sn23  1  0.750000  0.361515  0.640002  1
  Sn  Sn24  1  0.750000  0.852990  0.847178  1
  Sn  Sn25  1  0.250000  0.147010  0.152822  1
  Pd  Pd26  1  0.750000  0.949375  0.091434  1
  Pd  Pd27  1  0.250000  0.050625  0.908566  1
