# generated using pymatgen
data_Ho8Zn2CoSi12Pd
_symmetry_space_group_name_H-M   'P 1'
_cell_length_a   8.05721400
_cell_length_b   8.05721486
_cell_length_c   8.07429300
_cell_angle_alpha   90.00000000
_cell_angle_beta   90.00000000
_cell_angle_gamma   119.99999647
_symmetry_Int_Tables_number   1
_chemical_formula_structural   Ho8Zn2CoSi12Pd
_chemical_formula_sum   'Ho8 Zn2 Co1 Si12 Pd1'
_cell_volume   453.94683854
_cell_formula_units_Z   1
loop_
 _symmetry_equiv_pos_site_id
 _symmetry_equiv_pos_as_xyz
  1  'x, y, z'
loop_
 _atom_site_type_symbol
 _atom_site_label
 _atom_site_symmetry_multiplicity
 _atom_site_fract_x
 _atom_site_fract_y
 _atom_site_fract_z
 _atom_site_occupancy
  Ho  Ho0  1  0.497022  0.994042  0.246320  1
  Ho  Ho1  1  0.495781  0.991562  0.753265  1
  Ho  Ho2  1  0.005958  0.502978  0.246320  1
  Ho  Ho3  1  0.008438  0.504219  0.753265  1
  Ho  Ho4  1  0.497022  0.502978  0.246320  1
  Ho  Ho5  1  0.495781  0.504219  0.753265  1
  Ho  Ho6  1  0.000000  0.000000  0.249880  1
  Ho  Ho7  1  0.000000  0.000000  0.750970  1
  Zn  Zn8  1  0.666667  0.333333  0.996252  1
  Zn  Zn9  1  0.666667  0.333333  0.501812  1
  Co  Co10  1  0.333333  0.666667  0.003003  1
  Si  Si11  1  0.175049  0.350095  0.999799  1
  Si  Si12  1  0.836819  0.673639  0.000679  1
  Si  Si13  1  0.649905  0.824951  0.999799  1
  Si  Si14  1  0.834747  0.669495  0.500866  1
  Si  Si15  1  0.326361  0.163181  0.000679  1
  Si  Si16  1  0.166703  0.333405  0.499570  1
  Si  Si17  1  0.175049  0.824951  0.999799  1
  Si  Si18  1  0.330505  0.165253  0.500866  1
  Si  Si19  1  0.836819  0.163181  0.000679  1
  Si  Si20  1  0.666595  0.833297  0.499570  1
  Si  Si21  1  0.834747  0.165253  0.500866  1
  Si  Si22  1  0.166703  0.833297  0.499570  1
  Pd  Pd23  1  0.333333  0.666667  0.496587  1
