# generated using pymatgen
data_Tb7Tm(AlRu)8
_symmetry_space_group_name_H-M   'P 1'
_cell_length_a   4.08529800
_cell_length_b   7.01394675
_cell_length_c   16.00296830
_cell_angle_alpha   90.23561555
_cell_angle_beta   90.00000000
_cell_angle_gamma   90.00000000
_symmetry_Int_Tables_number   1
_chemical_formula_structural   Tb7Tm(AlRu)8
_chemical_formula_sum   'Tb7 Tm1 Al8 Ru8'
_cell_volume   458.54617855
_cell_formula_units_Z   1
loop_
 _symmetry_equiv_pos_site_id
 _symmetry_equiv_pos_as_xyz
  1  'x, y, z'
loop_
 _atom_site_type_symbol
 _atom_site_label
 _atom_site_symmetry_multiplicity
 _atom_site_fract_x
 _atom_site_fract_y
 _atom_site_fract_z
 _atom_site_occupancy
  Tb  Tb0  1  0.750000  0.964758  0.219714  1
  Tb  Tb1  1  0.250000  0.162844  0.563531  1
  Tb  Tb2  1  0.750000  0.842373  0.437353  1
  Tb  Tb3  1  0.750000  0.464758  0.280767  1
  Tb  Tb4  1  0.750000  0.338701  0.062374  1
  Tb  Tb5  1  0.250000  0.656992  0.936321  1
  Tb  Tb6  1  0.250000  0.035295  0.779829  1
  Tm  Tm7  1  0.250000  0.537768  0.717953  1
  Al  Al8  1  0.750000  0.504117  0.566205  1
  Al  Al9  1  0.750000  0.363195  0.848574  1
  Al  Al10  1  0.750000  0.996152  0.933816  1
  Al  Al11  1  0.750000  0.866491  0.651296  1
  Al  Al12  1  0.250000  0.501416  0.435052  1
  Al  Al13  1  0.250000  0.997182  0.065427  1
  Al  Al14  1  0.250000  0.634280  0.150785  1
  Al  Al15  1  0.250000  0.136353  0.349411  1
  Ru  Ru16  1  0.750000  0.738608  0.811201  1
  Ru  Ru17  1  0.250000  0.229952  0.936416  1
  Ru  Ru18  1  0.750000  0.266753  0.436866  1
  Ru  Ru19  1  0.250000  0.753432  0.312194  1
  Ru  Ru20  1  0.750000  0.763862  0.063755  1
  Ru  Ru21  1  0.750000  0.253852  0.688871  1
  Ru  Ru22  1  0.250000  0.253581  0.187723  1
  Ru  Ru23  1  0.250000  0.737284  0.564569  1
