# generated using pymatgen
data_Er3PaTlInPd4
_symmetry_space_group_name_H-M   'P 1'
_cell_length_a   7.79643931
_cell_length_b   7.78581452
_cell_length_c   3.64387200
_cell_angle_alpha   90.00000000
_cell_angle_beta   90.00000000
_cell_angle_gamma   91.43125070
_symmetry_Int_Tables_number   1
_chemical_formula_structural   Er3PaTlInPd4
_chemical_formula_sum   'Er3 Pa1 Tl1 In1 Pd4'
_cell_volume   221.11996377
_cell_formula_units_Z   1
loop_
 _symmetry_equiv_pos_site_id
 _symmetry_equiv_pos_as_xyz
  1  'x, y, z'
loop_
 _atom_site_type_symbol
 _atom_site_label
 _atom_site_symmetry_multiplicity
 _atom_site_fract_x
 _atom_site_fract_y
 _atom_site_fract_z
 _atom_site_occupancy
  Er  Er0  1  0.825207  0.668472  0.500000  1
  Er  Er1  1  0.169883  0.327005  0.500000  1
  Er  Er2  1  0.674078  0.175321  0.500000  1
  Pa  Pa3  1  0.331584  0.829882  0.500000  1
  Tl  Tl4  1  0.995968  0.000676  0.000000  1
  In  In5  1  0.500621  0.496100  0.000000  1
  Pd  Pd6  1  0.371656  0.122708  0.000000  1
  Pd  Pd7  1  0.874308  0.377723  0.000000  1
  Pd  Pd8  1  0.137116  0.633687  0.000000  1
  Pd  Pd9  1  0.619579  0.868425  0.000000  1
