# generated using pymatgen
data_Ca5As3H
_symmetry_space_group_name_H-M   'P 1'
_cell_length_a   8.48392800
_cell_length_b   8.48392785
_cell_length_c   6.68953600
_cell_angle_alpha   90.00000000
_cell_angle_beta   90.00000000
_cell_angle_gamma   120.00000058
_symmetry_Int_Tables_number   1
_chemical_formula_structural   Ca5As3H
_chemical_formula_sum   'Ca10 As6 H2'
_cell_volume   416.98512724
_cell_formula_units_Z   2
loop_
 _symmetry_equiv_pos_site_id
 _symmetry_equiv_pos_as_xyz
  1  'x, y, z'
loop_
 _atom_site_type_symbol
 _atom_site_label
 _atom_site_symmetry_multiplicity
 _atom_site_fract_x
 _atom_site_fract_y
 _atom_site_fract_z
 _atom_site_occupancy
  Ca  Ca0  1  0.753220  0.753220  0.250000  1
  Ca  Ca1  1  0.753220  0.000000  0.750000  1
  Ca  Ca2  1  0.000000  0.246780  0.250000  1
  Ca  Ca3  1  0.000000  0.753220  0.750000  1
  Ca  Ca4  1  0.246780  0.246780  0.750000  1
  Ca  Ca5  1  0.246780  0.000000  0.250000  1
  Ca  Ca6  1  0.333333  0.666667  0.500000  1
  Ca  Ca7  1  0.666667  0.333333  0.000000  1
  Ca  Ca8  1  0.666667  0.333333  0.500000  1
  Ca  Ca9  1  0.333333  0.666667  0.000000  1
  As  As10  1  0.390620  0.000000  0.750000  1
  As  As11  1  0.390620  0.390620  0.250000  1
  As  As12  1  0.000000  0.609380  0.250000  1
  As  As13  1  0.000000  0.390620  0.750000  1
  As  As14  1  0.609380  0.609380  0.750000  1
  As  As15  1  0.609380  0.000000  0.250000  1
  H  H16  1  0.000000  0.000000  0.500000  1
  H  H17  1  0.000000  0.000000  0.000000  1
