# generated using pymatgen
data_HoThCdAu2
_symmetry_space_group_name_H-M   'P 1'
_cell_length_a   8.08873300
_cell_length_b   8.05288600
_cell_length_c   3.81837400
_cell_angle_alpha   90.00000000
_cell_angle_beta   90.00000000
_cell_angle_gamma   90.00000000
_symmetry_Int_Tables_number   1
_chemical_formula_structural   HoThCdAu2
_chemical_formula_sum   'Ho2 Th2 Cd2 Au4'
_cell_volume   248.71988907
_cell_formula_units_Z   2
loop_
 _symmetry_equiv_pos_site_id
 _symmetry_equiv_pos_as_xyz
  1  'x, y, z'
loop_
 _atom_site_type_symbol
 _atom_site_label
 _atom_site_symmetry_multiplicity
 _atom_site_fract_x
 _atom_site_fract_y
 _atom_site_fract_z
 _atom_site_occupancy
  Ho  Ho0  1  0.672181  0.176124  0.500000  1
  Ho  Ho1  1  0.172181  0.323876  0.500000  1
  Th  Th2  1  0.326803  0.831417  0.500000  1
  Th  Th3  1  0.826803  0.668583  0.500000  1
  Cd  Cd4  1  0.498316  0.492886  0.000000  1
  Cd  Cd5  1  0.998316  0.007114  0.000000  1
  Au  Au6  1  0.130367  0.622329  0.000000  1
  Au  Au7  1  0.630367  0.877671  0.000000  1
  Au  Au8  1  0.372333  0.133905  0.000000  1
  Au  Au9  1  0.872333  0.366095  0.000000  1
