# generated using pymatgen
data_LaPr(Fe8P5)2
_symmetry_space_group_name_H-M   'P 1'
_cell_length_a   3.60097700
_cell_length_b   9.13856900
_cell_length_c   10.58068700
_cell_angle_alpha   90.00000000
_cell_angle_beta   90.00000000
_cell_angle_gamma   90.00000000
_symmetry_Int_Tables_number   1
_chemical_formula_structural   LaPr(Fe8P5)2
_chemical_formula_sum   'La1 Pr1 Fe16 P10'
_cell_volume   348.18688600
_cell_formula_units_Z   1
loop_
 _symmetry_equiv_pos_site_id
 _symmetry_equiv_pos_as_xyz
  1  'x, y, z'
loop_
 _atom_site_type_symbol
 _atom_site_label
 _atom_site_symmetry_multiplicity
 _atom_site_fract_x
 _atom_site_fract_y
 _atom_site_fract_z
 _atom_site_occupancy
  La  La0  1  0.750000  0.819380  0.750000  1
  Pr  Pr1  1  0.250000  0.181113  0.250000  1
  Fe  Fe2  1  0.750000  0.517830  0.920876  1
  Fe  Fe3  1  0.750000  0.517830  0.579124  1
  Fe  Fe4  1  0.250000  0.481333  0.079590  1
  Fe  Fe5  1  0.250000  0.481333  0.420410  1
  Fe  Fe6  1  0.750000  0.109430  0.991241  1
  Fe  Fe7  1  0.750000  0.109430  0.508759  1
  Fe  Fe8  1  0.250000  0.891057  0.009514  1
  Fe  Fe9  1  0.250000  0.891057  0.490486  1
  Fe  Fe10  1  0.750000  0.692323  0.105300  1
  Fe  Fe11  1  0.750000  0.692323  0.394700  1
  Fe  Fe12  1  0.250000  0.307721  0.894655  1
  Fe  Fe13  1  0.250000  0.307721  0.605345  1
  Fe  Fe14  1  0.750000  0.153940  0.750000  1
  Fe  Fe15  1  0.250000  0.846094  0.250000  1
  Fe  Fe16  1  0.250000  0.543536  0.750000  1
  Fe  Fe17  1  0.750000  0.456467  0.250000  1
  P  P18  1  0.750000  0.933245  0.130478  1
  P  P19  1  0.750000  0.933245  0.369522  1
  P  P20  1  0.250000  0.067246  0.870184  1
  P  P21  1  0.250000  0.067246  0.629816  1
  P  P22  1  0.750000  0.338302  0.061333  1
  P  P23  1  0.750000  0.338302  0.438667  1
  P  P24  1  0.250000  0.661167  0.939392  1
  P  P25  1  0.250000  0.661167  0.560608  1
  P  P26  1  0.750000  0.390999  0.750000  1
  P  P27  1  0.250000  0.609162  0.250000  1
