# generated using pymatgen
data_EuMg3(BrO3)8
_symmetry_space_group_name_H-M   'P 1'
_cell_length_a   5.94358790
_cell_length_b   10.85065591
_cell_length_c   10.91864661
_cell_angle_alpha   119.02981995
_cell_angle_beta   90.24226491
_cell_angle_gamma   88.48109785
_symmetry_Int_Tables_number   1
_chemical_formula_structural   EuMg3(BrO3)8
_chemical_formula_sum   'Eu1 Mg3 Br8 O24'
_cell_volume   615.45112196
_cell_formula_units_Z   1
loop_
 _symmetry_equiv_pos_site_id
 _symmetry_equiv_pos_as_xyz
  1  'x, y, z'
loop_
 _atom_site_type_symbol
 _atom_site_label
 _atom_site_symmetry_multiplicity
 _atom_site_fract_x
 _atom_site_fract_y
 _atom_site_fract_z
 _atom_site_occupancy
  Eu  Eu0  1  0.120227  0.772087  0.508660  1
  Mg  Mg1  1  0.648228  0.234288  0.491822  1
  Mg  Mg2  1  0.142532  0.261500  0.004674  1
  Mg  Mg3  1  0.646636  0.739708  0.991515  1
  Br  Br4  1  0.276428  0.401803  0.341494  1
  Br  Br5  1  0.746640  0.572456  0.651342  1
  Br  Br6  1  0.267090  0.919645  0.868396  1
  Br  Br7  1  0.778187  0.084960  0.151286  1
  Br  Br8  1  0.773040  0.114676  0.714272  1
  Br  Br9  1  0.313877  0.926683  0.296634  1
  Br  Br10  1  0.292235  0.417496  0.813830  1
  Br  Br11  1  0.780890  0.573148  0.167268  1
  O  O12  1  0.438539  0.893666  0.977918  1
  O  O13  1  0.944631  0.124014  0.050920  1
  O  O14  1  0.364295  0.804664  0.706230  1
  O  O15  1  0.877750  0.181932  0.316200  1
  O  O16  1  0.362389  0.293109  0.174579  1
  O  O17  1  0.845387  0.682697  0.813158  1
  O  O18  1  0.941009  0.238225  0.833707  1
  O  O19  1  0.457462  0.783997  0.172611  1
  O  O20  1  0.887068  0.959404  0.688099  1
  O  O21  1  0.460271  0.071116  0.330605  1
  O  O22  1  0.343761  0.077494  0.887590  1
  O  O23  1  0.863097  0.917420  0.105183  1
  O  O24  1  0.430216  0.286747  0.674102  1
  O  O25  1  0.894006  0.712371  0.305723  1
  O  O26  1  0.354611  0.382290  0.945848  1
  O  O27  1  0.845058  0.598397  0.030235  1
  O  O28  1  0.426568  0.567104  0.852780  1
  O  O29  1  0.944254  0.434526  0.147281  1
  O  O30  1  0.360469  0.561937  0.372931  1
  O  O31  1  0.841566  0.410529  0.618457  1
  O  O32  1  0.450370  0.369580  0.445574  1
  O  O33  1  0.910327  0.605393  0.545424  1
  O  O34  1  0.832994  0.113837  0.561824  1
  O  O35  1  0.347492  0.911101  0.441831  1
