# generated using pymatgen
data_YTm3Pt4F28
_symmetry_space_group_name_H-M   'P 1'
_cell_length_a   5.50857537
_cell_length_b   8.82534816
_cell_length_c   11.92410022
_cell_angle_alpha   62.51627641
_cell_angle_beta   90.03829086
_cell_angle_gamma   90.00207229
_symmetry_Int_Tables_number   1
_chemical_formula_structural   YTm3Pt4F28
_chemical_formula_sum   'Y1 Tm3 Pt4 F28'
_cell_volume   514.26831664
_cell_formula_units_Z   1
loop_
 _symmetry_equiv_pos_site_id
 _symmetry_equiv_pos_as_xyz
  1  'x, y, z'
loop_
 _atom_site_type_symbol
 _atom_site_label
 _atom_site_symmetry_multiplicity
 _atom_site_fract_x
 _atom_site_fract_y
 _atom_site_fract_z
 _atom_site_occupancy
  Y  Y0  1  0.239016  0.815915  0.763976  1
  Tm  Tm1  1  0.260863  0.815902  0.263739  1
  Tm  Tm2  1  0.738188  0.186779  0.736077  1
  Tm  Tm3  1  0.761018  0.184278  0.236408  1
  Pt  Pt4  1  0.759390  0.726854  0.044624  1
  Pt  Pt5  1  0.240360  0.270825  0.958107  1
  Pt  Pt6  1  0.260119  0.273855  0.456243  1
  Pt  Pt7  1  0.741338  0.727151  0.540942  1
  F  F8  1  0.938611  0.704148  0.412394  1
  F  F9  1  0.060941  0.296391  0.584645  1
  F  F10  1  0.439939  0.294898  0.085821  1
  F  F11  1  0.563716  0.703346  0.915720  1
  F  F12  1  0.465135  0.727179  0.138018  1
  F  F13  1  0.533912  0.272896  0.863428  1
  F  F14  1  0.967067  0.273419  0.361875  1
  F  F15  1  0.036082  0.725024  0.634310  1
  F  F16  1  0.951920  0.744510  0.177405  1
  F  F17  1  0.046101  0.254364  0.825072  1
  F  F18  1  0.454212  0.256148  0.323717  1
  F  F19  1  0.551956  0.742795  0.675259  1
  F  F20  1  0.770933  0.475880  0.143645  1
  F  F21  1  0.227423  0.520806  0.858398  1
  F  F22  1  0.272361  0.524526  0.357155  1
  F  F23  1  0.728574  0.476455  0.641320  1
  F  F24  1  0.939494  0.278010  0.045559  1
  F  F25  1  0.060581  0.718836  0.958724  1
  F  F26  1  0.438296  0.721299  0.454499  1
  F  F27  1  0.560725  0.280257  0.544242  1
  F  F28  1  0.743004  0.977644  0.447442  1
  F  F29  1  0.258220  0.023667  0.549606  1
  F  F30  1  0.242194  0.020407  0.052463  1
  F  F31  1  0.758531  0.977328  0.949277  1
  F  F32  1  0.582159  0.971401  0.232719  1
  F  F33  1  0.415736  0.034808  0.768120  1
  F  F34  1  0.082427  0.029027  0.267374  1
  F  F35  1  0.909457  0.972973  0.731677  1
