# generated using pymatgen
data_Tb4MnRuC8
_symmetry_space_group_name_H-M   'P 1'
_cell_length_a   6.65413769
_cell_length_b   6.65413633
_cell_length_c   6.65413679
_cell_angle_alpha   134.10690421
_cell_angle_beta   109.79595131
_cell_angle_gamma   88.01311281
_symmetry_Int_Tables_number   1
_chemical_formula_structural   Tb4MnRuC8
_chemical_formula_sum   'Tb4 Mn1 Ru1 C8'
_cell_volume   190.03657919
_cell_formula_units_Z   1
loop_
 _symmetry_equiv_pos_site_id
 _symmetry_equiv_pos_as_xyz
  1  'x, y, z'
loop_
 _atom_site_type_symbol
 _atom_site_label
 _atom_site_symmetry_multiplicity
 _atom_site_fract_x
 _atom_site_fract_y
 _atom_site_fract_z
 _atom_site_occupancy
  Tb  Tb0  1  0.504439  0.354980  0.154586  1
  Tb  Tb1  1  0.495561  0.650146  0.850540  1
  Tb  Tb2  1  0.200393  0.849854  0.345414  1
  Tb  Tb3  1  0.799607  0.145020  0.649460  1
  Mn  Mn4  1  0.000000  0.750000  0.750000  1
  Ru  Ru5  1  0.000000  0.250000  0.250000  1
  C  C6  1  0.250694  0.053975  0.148686  1
  C  C7  1  0.749306  0.897990  0.803280  1
  C  C8  1  0.905290  0.602010  0.351314  1
  C  C9  1  0.094710  0.446025  0.696720  1
  C  C10  1  0.467011  0.127002  0.339008  1
  C  C11  1  0.532989  0.871998  0.659992  1
  C  C12  1  0.787994  0.628002  0.160992  1
  C  C13  1  0.212006  0.372998  0.840008  1
