# generated using pymatgen
data_Ho16MgCd3IrPt3
_symmetry_space_group_name_H-M   'P 1'
_cell_length_a   9.67612839
_cell_length_b   9.64723578
_cell_length_c   9.64722746
_cell_angle_alpha   59.79273104
_cell_angle_beta   60.00890718
_cell_angle_gamma   60.00873568
_symmetry_Int_Tables_number   1
_chemical_formula_structural   Ho16MgCd3IrPt3
_chemical_formula_sum   'Ho16 Mg1 Cd3 Ir1 Pt3'
_cell_volume   635.86487392
_cell_formula_units_Z   1
loop_
 _symmetry_equiv_pos_site_id
 _symmetry_equiv_pos_as_xyz
  1  'x, y, z'
loop_
 _atom_site_type_symbol
 _atom_site_label
 _atom_site_symmetry_multiplicity
 _atom_site_fract_x
 _atom_site_fract_y
 _atom_site_fract_z
 _atom_site_occupancy
  Ho  Ho0  1  0.601753  0.598311  0.598311  1
  Ho  Ho1  1  0.604397  0.599803  0.198599  1
  Ho  Ho2  1  0.604397  0.198600  0.599803  1
  Ho  Ho3  1  0.192005  0.603850  0.603850  1
  Ho  Ho4  1  0.056644  0.441076  0.441075  1
  Ho  Ho5  1  0.439035  0.061122  0.061123  1
  Ho  Ho6  1  0.442890  0.058631  0.440901  1
  Ho  Ho7  1  0.059315  0.437409  0.064884  1
  Ho  Ho8  1  0.442889  0.440902  0.058630  1
  Ho  Ho9  1  0.059314  0.064885  0.437410  1
  Ho  Ho10  1  0.185732  0.816072  0.816071  1
  Ho  Ho11  1  0.814251  0.187439  0.187439  1
  Ho  Ho12  1  0.817308  0.185924  0.813728  1
  Ho  Ho13  1  0.186843  0.813209  0.186660  1
  Ho  Ho14  1  0.817308  0.813728  0.185924  1
  Ho  Ho15  1  0.186841  0.186658  0.813211  1
  Mg  Mg16  1  0.825498  0.825175  0.825179  1
  Cd  Cd17  1  0.831331  0.831943  0.502679  1
  Cd  Cd18  1  0.831332  0.502677  0.831944  1
  Cd  Cd19  1  0.504035  0.831034  0.831035  1
  Ir  Ir20  1  0.823404  0.392200  0.392196  1
  Pt  Pt21  1  0.392187  0.394462  0.394460  1
  Pt  Pt22  1  0.390644  0.393009  0.821887  1
  Pt  Pt23  1  0.390649  0.821883  0.393006  1
