# generated using pymatgen
data_Ho7ThGaPd24
_symmetry_space_group_name_H-M   'P 1'
_cell_length_a   8.36945419
_cell_length_b   8.36945419
_cell_length_c   8.36945419
_cell_angle_alpha   90.01733493
_cell_angle_beta   90.01733493
_cell_angle_gamma   89.98266507
_symmetry_Int_Tables_number   1
_chemical_formula_structural   Ho7ThGaPd24
_chemical_formula_sum   'Ho7 Th1 Ga1 Pd24'
_cell_volume   586.26146704
_cell_formula_units_Z   1
loop_
 _symmetry_equiv_pos_site_id
 _symmetry_equiv_pos_as_xyz
  1  'x, y, z'
loop_
 _atom_site_type_symbol
 _atom_site_label
 _atom_site_symmetry_multiplicity
 _atom_site_fract_x
 _atom_site_fract_y
 _atom_site_fract_z
 _atom_site_occupancy
  Ho  Ho0  1  0.251913  0.748016  0.251984  1
  Ho  Ho1  1  0.748016  0.251913  0.251984  1
  Ho  Ho2  1  0.748016  0.748016  0.748087  1
  Ho  Ho3  1  0.748056  0.748056  0.251944  1
  Ho  Ho4  1  0.748169  0.251928  0.748072  1
  Ho  Ho5  1  0.251928  0.748169  0.748072  1
  Ho  Ho6  1  0.251928  0.251928  0.251831  1
  Th  Th7  1  0.252836  0.252836  0.747164  1
  Ga  Ga8  1  0.999342  0.999342  0.000658  1
  Pd  Pd9  1  0.500560  0.500560  0.746671  1
  Pd  Pd10  1  0.500560  0.253329  0.499440  1
  Pd  Pd11  1  0.253329  0.500560  0.499440  1
  Pd  Pd12  1  0.500081  0.500081  0.253245  1
  Pd  Pd13  1  0.500081  0.746755  0.499919  1
  Pd  Pd14  1  0.746755  0.500081  0.499919  1
  Pd  Pd15  1  0.999141  0.999141  0.708162  1
  Pd  Pd16  1  0.999141  0.291838  0.000859  1
  Pd  Pd17  1  0.291838  0.999141  0.000859  1
  Pd  Pd18  1  0.999899  0.999899  0.291490  1
  Pd  Pd19  1  0.999899  0.708510  0.000101  1
  Pd  Pd20  1  0.708510  0.999899  0.000101  1
  Pd  Pd21  1  0.999572  0.500408  0.739704  1
  Pd  Pd22  1  0.500408  0.260296  0.000428  1
  Pd  Pd23  1  0.260296  0.999572  0.499592  1
  Pd  Pd24  1  0.999572  0.260296  0.499592  1
  Pd  Pd25  1  0.500408  0.999572  0.739704  1
  Pd  Pd26  1  0.260296  0.500408  0.000428  1
  Pd  Pd27  1  0.999904  0.500104  0.260284  1
  Pd  Pd28  1  0.500104  0.739716  0.000096  1
  Pd  Pd29  1  0.999904  0.739716  0.499896  1
  Pd  Pd30  1  0.500104  0.999904  0.260284  1
  Pd  Pd31  1  0.739716  0.999904  0.499896  1
  Pd  Pd32  1  0.739716  0.500104  0.000096  1
