# generated using pymatgen
data_TmLu5TcOs
_symmetry_space_group_name_H-M   'P 1'
_cell_length_a   7.31473100
_cell_length_b   8.86124200
_cell_length_c   6.15722900
_cell_angle_alpha   90.00000000
_cell_angle_beta   90.00000000
_cell_angle_gamma   90.00000000
_symmetry_Int_Tables_number   1
_chemical_formula_structural   TmLu5TcOs
_chemical_formula_sum   'Tm2 Lu10 Tc2 Os2'
_cell_volume   399.09681601
_cell_formula_units_Z   2
loop_
 _symmetry_equiv_pos_site_id
 _symmetry_equiv_pos_as_xyz
  1  'x, y, z'
loop_
 _atom_site_type_symbol
 _atom_site_label
 _atom_site_symmetry_multiplicity
 _atom_site_fract_x
 _atom_site_fract_y
 _atom_site_fract_z
 _atom_site_occupancy
  Tm  Tm0  1  0.539283  0.250000  0.875978  1
  Tm  Tm1  1  0.039283  0.250000  0.624022  1
  Lu  Lu2  1  0.674875  0.060898  0.338346  1
  Lu  Lu3  1  0.174875  0.439102  0.161654  1
  Lu  Lu4  1  0.324845  0.562594  0.664092  1
  Lu  Lu5  1  0.824845  0.937406  0.835908  1
  Lu  Lu6  1  0.324845  0.937406  0.664092  1
  Lu  Lu7  1  0.824845  0.562594  0.835908  1
  Lu  Lu8  1  0.674875  0.439102  0.338346  1
  Lu  Lu9  1  0.174875  0.060898  0.161654  1
  Lu  Lu10  1  0.459633  0.750000  0.128774  1
  Lu  Lu11  1  0.959633  0.750000  0.371226  1
  Tc  Tc12  1  0.883364  0.250000  0.039662  1
  Tc  Tc13  1  0.383364  0.250000  0.460338  1
  Os  Os14  1  0.118277  0.750000  0.960729  1
  Os  Os15  1  0.618277  0.750000  0.539271  1
