# generated using pymatgen
data_Rb8YEr3F20
_symmetry_space_group_name_H-M   'P 1'
_cell_length_a   6.95754161
_cell_length_b   7.41475400
_cell_length_c   11.52154178
_cell_angle_alpha   90.00000000
_cell_angle_beta   90.18879233
_cell_angle_gamma   90.00000000
_symmetry_Int_Tables_number   1
_chemical_formula_structural   Rb8YEr3F20
_chemical_formula_sum   'Rb8 Y1 Er3 F20'
_cell_volume   594.37536473
_cell_formula_units_Z   1
loop_
 _symmetry_equiv_pos_site_id
 _symmetry_equiv_pos_as_xyz
  1  'x, y, z'
loop_
 _atom_site_type_symbol
 _atom_site_label
 _atom_site_symmetry_multiplicity
 _atom_site_fract_x
 _atom_site_fract_y
 _atom_site_fract_z
 _atom_site_occupancy
  Rb  Rb0  1  0.535635  0.997017  0.829979  1
  Rb  Rb1  1  0.464482  0.498007  0.170034  1
  Rb  Rb2  1  0.964905  0.996919  0.328529  1
  Rb  Rb3  1  0.035034  0.498405  0.671730  1
  Rb  Rb4  1  0.535635  0.502983  0.829979  1
  Rb  Rb5  1  0.464482  0.001993  0.170034  1
  Rb  Rb6  1  0.964905  0.503081  0.328529  1
  Rb  Rb7  1  0.035034  0.001595  0.671730  1
  Y  Y8  1  0.559993  0.250000  0.501426  1
  Er  Er9  1  0.439998  0.750000  0.498551  1
  Er  Er10  1  0.940872  0.250000  0.001518  1
  Er  Er11  1  0.058616  0.750000  0.998633  1
  F  F12  1  0.882657  0.750000  0.841478  1
  F  F13  1  0.116688  0.250000  0.158634  1
  F  F14  1  0.616199  0.750000  0.341842  1
  F  F15  1  0.382237  0.250000  0.660276  1
  F  F16  1  0.850394  0.250000  0.819396  1
  F  F17  1  0.149271  0.750000  0.180435  1
  F  F18  1  0.650758  0.250000  0.317141  1
  F  F19  1  0.350638  0.750000  0.680781  1
  F  F20  1  0.641724  0.962462  0.569745  1
  F  F21  1  0.358036  0.467211  0.429867  1
  F  F22  1  0.858461  0.964201  0.068021  1
  F  F23  1  0.140929  0.464507  0.931981  1
  F  F24  1  0.371038  0.750000  0.983842  1
  F  F25  1  0.628673  0.250000  0.016064  1
  F  F26  1  0.127046  0.750000  0.484579  1
  F  F27  1  0.876511  0.250000  0.515633  1
  F  F28  1  0.140929  0.035493  0.931981  1
  F  F29  1  0.858461  0.535799  0.068021  1
  F  F30  1  0.358036  0.032789  0.429867  1
  F  F31  1  0.641724  0.537538  0.569745  1
