# generated using pymatgen
data_TbTm2Mg3Si2Ag
_symmetry_space_group_name_H-M   'P 1'
_cell_length_a   7.20662300
_cell_length_b   7.23611135
_cell_length_c   4.30180000
_cell_angle_alpha   90.00000000
_cell_angle_beta   90.00000000
_cell_angle_gamma   119.86528136
_symmetry_Int_Tables_number   1
_chemical_formula_structural   TbTm2Mg3Si2Ag
_chemical_formula_sum   'Tb1 Tm2 Mg3 Si2 Ag1'
_cell_volume   194.53863012
_cell_formula_units_Z   1
loop_
 _symmetry_equiv_pos_site_id
 _symmetry_equiv_pos_as_xyz
  1  'x, y, z'
loop_
 _atom_site_type_symbol
 _atom_site_label
 _atom_site_symmetry_multiplicity
 _atom_site_fract_x
 _atom_site_fract_y
 _atom_site_fract_z
 _atom_site_occupancy
  Tb  Tb0  1  0.576241  0.000000  0.000000  1
  Tm  Tm1  1  0.999195  0.576114  0.000000  1
  Tm  Tm2  1  0.423081  0.423886  0.000000  1
  Mg  Mg3  1  0.247864  0.000000  0.500000  1
  Mg  Mg4  1  0.000516  0.248831  0.500000  1
  Mg  Mg5  1  0.751686  0.751169  0.500000  1
  Si  Si6  1  0.331255  0.663743  0.500000  1
  Si  Si7  1  0.667513  0.336257  0.500000  1
  Ag  Ag8  1  0.002649  0.000000  0.000000  1
