# generated using pymatgen
data_Hf4InPbC2
_symmetry_space_group_name_H-M   'P 1'
_cell_length_a   3.33859900
_cell_length_b   3.33859828
_cell_length_c   14.87916500
_cell_angle_alpha   90.00000000
_cell_angle_beta   90.00000000
_cell_angle_gamma   119.99999726
_symmetry_Int_Tables_number   1
_chemical_formula_structural   Hf4InPbC2
_chemical_formula_sum   'Hf4 In1 Pb1 C2'
_cell_volume   143.62750864
_cell_formula_units_Z   1
loop_
 _symmetry_equiv_pos_site_id
 _symmetry_equiv_pos_as_xyz
  1  'x, y, z'
loop_
 _atom_site_type_symbol
 _atom_site_label
 _atom_site_symmetry_multiplicity
 _atom_site_fract_x
 _atom_site_fract_y
 _atom_site_fract_z
 _atom_site_occupancy
  Hf  Hf0  1  0.333333  0.666667  0.420458  1
  Hf  Hf1  1  0.666667  0.333333  0.583641  1
  Hf  Hf2  1  0.666667  0.333333  0.916359  1
  Hf  Hf3  1  0.333333  0.666667  0.079542  1
  In  In4  1  0.333333  0.666667  0.750000  1
  Pb  Pb5  1  0.666667  0.333333  0.250000  1
  C  C6  1  0.000000  0.000000  0.502002  1
  C  C7  1  0.000000  0.000000  0.997998  1
