# generated using pymatgen
data_Eu2CrPtF14
_symmetry_space_group_name_H-M   'P 1'
_cell_length_a   5.60370578
_cell_length_b   5.89142531
_cell_length_c   8.15449400
_cell_angle_alpha   101.53756389
_cell_angle_beta   90.17039359
_cell_angle_gamma   89.79450204
_symmetry_Int_Tables_number   1
_chemical_formula_structural   Eu2CrPtF14
_chemical_formula_sum   'Eu2 Cr1 Pt1 F14'
_cell_volume   263.76881860
_cell_formula_units_Z   1
loop_
 _symmetry_equiv_pos_site_id
 _symmetry_equiv_pos_as_xyz
  1  'x, y, z'
loop_
 _atom_site_type_symbol
 _atom_site_label
 _atom_site_symmetry_multiplicity
 _atom_site_fract_x
 _atom_site_fract_y
 _atom_site_fract_z
 _atom_site_occupancy
  Eu  Eu0  1  0.704934  0.663579  0.683648  1
  Eu  Eu1  1  0.200701  0.338311  0.311007  1
  Cr  Cr2  1  0.710926  0.809453  0.218730  1
  Pt  Pt3  1  0.213357  0.194248  0.777121  1
  F  F4  1  0.874383  0.421202  0.476877  1
  F  F5  1  0.374776  0.556976  0.530268  1
  F  F6  1  0.385222  0.910238  0.785967  1
  F  F7  1  0.914322  0.054829  0.218305  1
  F  F8  1  0.914613  0.020769  0.767584  1
  F  F9  1  0.451153  0.014000  0.231120  1
  F  F10  1  0.040385  0.486937  0.790133  1
  F  F11  1  0.511182  0.558948  0.213032  1
  F  F12  1  0.703323  0.757971  0.988928  1
  F  F13  1  0.201096  0.254111  0.019163  1
  F  F14  1  0.720411  0.865303  0.450891  1
  F  F15  1  0.231434  0.113126  0.532938  1
  F  F16  1  0.517950  0.359096  0.792152  1
  F  F17  1  0.982552  0.620902  0.212135  1
