# generated using pymatgen
data_TbPrErIrO7
_symmetry_space_group_name_H-M   'P 1'
_cell_length_a   6.47048955
_cell_length_b   6.48395371
_cell_length_c   7.52480900
_cell_angle_alpha   90.00000000
_cell_angle_beta   90.00000000
_cell_angle_gamma   109.73396670
_symmetry_Int_Tables_number   1
_chemical_formula_structural   TbPrErIrO7
_chemical_formula_sum   'Tb2 Pr2 Er2 Ir2 O14'
_cell_volume   297.15770275
_cell_formula_units_Z   2
loop_
 _symmetry_equiv_pos_site_id
 _symmetry_equiv_pos_as_xyz
  1  'x, y, z'
loop_
 _atom_site_type_symbol
 _atom_site_label
 _atom_site_symmetry_multiplicity
 _atom_site_fract_x
 _atom_site_fract_y
 _atom_site_fract_z
 _atom_site_occupancy
  Tb  Tb0  1  0.935332  0.484002  0.750000  1
  Tb  Tb1  1  0.064668  0.515998  0.250000  1
  Pr  Pr2  1  0.000000  0.000000  0.000000  1
  Pr  Pr3  1  0.000000  0.000000  0.500000  1
  Er  Er4  1  0.485694  0.939359  0.750000  1
  Er  Er5  1  0.514306  0.060641  0.250000  1
  Ir  Ir6  1  0.500000  0.500000  0.000000  1
  Ir  Ir7  1  0.500000  0.500000  0.500000  1
  O  O8  1  0.586882  0.593398  0.750000  1
  O  O9  1  0.413118  0.406602  0.250000  1
  O  O10  1  0.836831  0.117331  0.750000  1
  O  O11  1  0.163169  0.882669  0.250000  1
  O  O12  1  0.126749  0.841159  0.750000  1
  O  O13  1  0.873251  0.158841  0.250000  1
  O  O14  1  0.445927  0.181226  0.965789  1
  O  O15  1  0.554073  0.818774  0.465789  1
  O  O16  1  0.179496  0.433914  0.966297  1
  O  O17  1  0.820504  0.566086  0.466297  1
  O  O18  1  0.445927  0.181226  0.534211  1
  O  O19  1  0.554073  0.818774  0.034211  1
  O  O20  1  0.820504  0.566086  0.033703  1
  O  O21  1  0.179496  0.433914  0.533703  1
