# generated using pymatgen
data_Dy2ErTh(Al8Pt3)3
_symmetry_space_group_name_H-M   'P 1'
_cell_length_a   7.55867783
_cell_length_b   7.55020091
_cell_length_c   13.16377003
_cell_angle_alpha   84.54624898
_cell_angle_beta   100.98312174
_cell_angle_gamma   119.88696914
_symmetry_Int_Tables_number   1
_chemical_formula_structural   Dy2ErTh(Al8Pt3)3
_chemical_formula_sum   'Dy2 Er1 Th1 Al24 Pt9'
_cell_volume   639.41115312
_cell_formula_units_Z   1
loop_
 _symmetry_equiv_pos_site_id
 _symmetry_equiv_pos_as_xyz
  1  'x, y, z'
loop_
 _atom_site_type_symbol
 _atom_site_label
 _atom_site_symmetry_multiplicity
 _atom_site_fract_x
 _atom_site_fract_y
 _atom_site_fract_z
 _atom_site_occupancy
  Dy  Dy0  1  0.266886  0.000681  0.806687  1
  Dy  Dy1  1  0.062217  0.668254  0.192302  1
  Er  Er2  1  0.937737  0.332296  0.806484  1
  Th  Th3  1  0.732327  0.998691  0.192666  1
  Al  Al4  1  0.807948  0.868929  0.815230  1
  Al  Al5  1  0.196623  0.132080  0.184509  1
  Al  Al6  1  0.982424  0.666220  0.943207  1
  Al  Al7  1  0.020647  0.337179  0.052990  1
  Al  Al8  1  0.397385  0.663151  0.816268  1
  Al  Al9  1  0.601051  0.339636  0.183169  1
  Al  Al10  1  0.882713  0.665092  0.671076  1
  Al  Al11  1  0.121998  0.338112  0.332300  1
  Al  Al12  1  0.603231  0.457868  0.816016  1
  Al  Al13  1  0.393553  0.537163  0.183835  1
  Al  Al14  1  0.230123  0.339885  0.669965  1
  Al  Al15  1  0.770766  0.656078  0.333826  1
  Al  Al16  1  0.853104  0.334047  0.559277  1
  Al  Al17  1  0.186243  0.999101  0.559305  1
  Al  Al18  1  0.814871  0.000471  0.443443  1
  Al  Al19  1  0.348172  0.999781  0.053121  1
  Al  Al20  1  0.647155  0.001483  0.941117  1
  Al  Al21  1  0.556232  0.993546  0.671430  1
  Al  Al22  1  0.441201  0.006691  0.332123  1
  Al  Al23  1  0.520409  0.666842  0.562425  1
  Al  Al24  1  0.479563  0.332681  0.439550  1
  Al  Al25  1  0.681839  0.664720  0.043779  1
  Al  Al26  1  0.315464  0.331800  0.951001  1
  Al  Al27  1  0.147645  0.666853  0.441810  1
  Pt  Pt28  1  0.329745  0.672596  0.000219  1
  Pt  Pt29  1  0.545713  0.324459  0.637645  1
  Pt  Pt30  1  0.455282  0.676031  0.362595  1
  Pt  Pt31  1  0.887939  0.008947  0.639241  1
  Pt  Pt32  1  0.111434  0.991863  0.361178  1
  Pt  Pt33  1  0.671662  0.328043  0.000028  1
  Pt  Pt34  1  0.203887  0.666334  0.639059  1
  Pt  Pt35  1  0.795653  0.332048  0.361056  1
  Pt  Pt36  1  0.999155  0.000345  0.000069  1
