# generated using pymatgen
data_CoIrI18
_symmetry_space_group_name_H-M   'P 1'
_cell_length_a   9.91874858
_cell_length_b   9.93563006
_cell_length_c   9.90388118
_cell_angle_alpha   93.11234217
_cell_angle_beta   93.17013580
_cell_angle_gamma   92.97508996
_symmetry_Int_Tables_number   1
_chemical_formula_structural   CoIrI18
_chemical_formula_sum   'Co1 Ir1 I18'
_cell_volume   971.61010394
_cell_formula_units_Z   1
loop_
 _symmetry_equiv_pos_site_id
 _symmetry_equiv_pos_as_xyz
  1  'x, y, z'
loop_
 _atom_site_type_symbol
 _atom_site_label
 _atom_site_symmetry_multiplicity
 _atom_site_fract_x
 _atom_site_fract_y
 _atom_site_fract_z
 _atom_site_occupancy
  Co  Co0  1  0.500000  0.500000  0.500000  1
  Ir  Ir1  1  0.000000  0.000000  0.000000  1
  I  I2  1  0.763904  0.491168  0.516165  1
  I  I3  1  0.515444  0.762840  0.490561  1
  I  I4  1  0.491320  0.516258  0.764092  1
  I  I5  1  0.236096  0.508832  0.483835  1
  I  I6  1  0.484556  0.237160  0.509439  1
  I  I7  1  0.508680  0.483742  0.235908  1
  I  I8  1  0.880823  0.370713  0.758285  1
  I  I9  1  0.757226  0.879301  0.370397  1
  I  I10  1  0.370941  0.757494  0.880747  1
  I  I11  1  0.119177  0.629287  0.241715  1
  I  I12  1  0.242774  0.120699  0.629603  1
  I  I13  1  0.629059  0.242506  0.119253  1
  I  I14  1  0.008057  0.966528  0.729781  1
  I  I15  1  0.729954  0.008185  0.965117  1
  I  I16  1  0.965365  0.730833  0.006624  1
  I  I17  1  0.991943  0.033472  0.270219  1
  I  I18  1  0.270046  0.991815  0.034883  1
  I  I19  1  0.034635  0.269167  0.993376  1
