# generated using pymatgen
data_Dy2Y5Tm(InRh)2
_symmetry_space_group_name_H-M   'P 1'
_cell_length_a   9.65392994
_cell_length_b   9.67849443
_cell_length_c   9.65497987
_cell_angle_alpha   60.12284168
_cell_angle_beta   60.27710164
_cell_angle_gamma   60.14759948
_symmetry_Int_Tables_number   1
_chemical_formula_structural   Dy2Y5Tm(InRh)2
_chemical_formula_sum   'Dy4 Y10 Tm2 In4 Rh4'
_cell_volume   640.52763258
_cell_formula_units_Z   2
loop_
 _symmetry_equiv_pos_site_id
 _symmetry_equiv_pos_as_xyz
  1  'x, y, z'
loop_
 _atom_site_type_symbol
 _atom_site_label
 _atom_site_symmetry_multiplicity
 _atom_site_fract_x
 _atom_site_fract_y
 _atom_site_fract_z
 _atom_site_occupancy
  Dy  Dy0  1  0.146510  0.550706  0.149696  1
  Dy  Dy1  1  0.311263  0.689782  0.689523  1
  Dy  Dy2  1  0.688888  0.311869  0.688926  1
  Dy  Dy3  1  0.553629  0.146488  0.147490  1
  Y  Y4  1  0.310799  0.690163  0.310037  1
  Y  Y5  1  0.934800  0.937517  0.562471  1
  Y  Y6  1  0.146810  0.149165  0.551188  1
  Y  Y7  1  0.560156  0.938709  0.558137  1
  Y  Y8  1  0.151541  0.152497  0.153212  1
  Y  Y9  1  0.310060  0.309472  0.690732  1
  Y  Y10  1  0.935738  0.561438  0.560383  1
  Y  Y11  1  0.558626  0.557809  0.941125  1
  Y  Y12  1  0.562503  0.935953  0.937992  1
  Y  Y13  1  0.934941  0.561597  0.939747  1
  Tm  Tm14  1  0.690060  0.310571  0.310307  1
  Tm  Tm15  1  0.689387  0.689651  0.310799  1
  In  In16  1  0.919837  0.918043  0.247946  1
  In  In17  1  0.249268  0.918083  0.917951  1
  In  In18  1  0.919406  0.248826  0.917419  1
  In  In19  1  0.917167  0.916628  0.916139  1
  Rh  Rh20  1  0.362821  0.355889  0.352871  1
  Rh  Rh21  1  0.920488  0.363151  0.358601  1
  Rh  Rh22  1  0.360921  0.361691  0.927038  1
  Rh  Rh23  1  0.364380  0.924300  0.360268  1
