# generated using pymatgen
data_Ba5Nb2Br2O9
_symmetry_space_group_name_H-M   'P 1'
_cell_length_a   6.06149000
_cell_length_b   6.06148885
_cell_length_c   25.82423700
_cell_angle_alpha   90.00000000
_cell_angle_beta   90.00000000
_cell_angle_gamma   120.00000626
_symmetry_Int_Tables_number   1
_chemical_formula_structural   Ba5Nb2Br2O9
_chemical_formula_sum   'Ba10 Nb4 Br4 O18'
_cell_volume   821.70665984
_cell_formula_units_Z   2
loop_
 _symmetry_equiv_pos_site_id
 _symmetry_equiv_pos_as_xyz
  1  'x, y, z'
loop_
 _atom_site_type_symbol
 _atom_site_label
 _atom_site_symmetry_multiplicity
 _atom_site_fract_x
 _atom_site_fract_y
 _atom_site_fract_z
 _atom_site_occupancy
  Ba  Ba0  1  0.333333  0.666667  0.414502  1
  Ba  Ba1  1  0.333333  0.666667  0.085498  1
  Ba  Ba2  1  0.333333  0.666667  0.824730  1
  Ba  Ba3  1  0.666667  0.333333  0.585498  1
  Ba  Ba4  1  0.666667  0.333333  0.914502  1
  Ba  Ba5  1  0.666667  0.333333  0.324730  1
  Ba  Ba6  1  0.666667  0.333333  0.175270  1
  Ba  Ba7  1  0.333333  0.666667  0.250000  1
  Ba  Ba8  1  0.666667  0.333333  0.750000  1
  Ba  Ba9  1  0.333333  0.666667  0.675270  1
  Nb  Nb10  1  0.000000  0.000000  0.809543  1
  Nb  Nb11  1  0.000000  0.000000  0.309543  1
  Nb  Nb12  1  0.000000  0.000000  0.190457  1
  Nb  Nb13  1  0.000000  0.000000  0.690457  1
  Br  Br14  1  0.333333  0.666667  0.547035  1
  Br  Br15  1  0.333333  0.666667  0.952965  1
  Br  Br16  1  0.666667  0.333333  0.047035  1
  Br  Br17  1  0.666667  0.333333  0.452965  1
  O  O18  1  0.162588  0.325177  0.157222  1
  O  O19  1  0.700889  0.850445  0.750000  1
  O  O20  1  0.837412  0.674823  0.657222  1
  O  O21  1  0.850445  0.149555  0.250000  1
  O  O22  1  0.162588  0.837412  0.342778  1
  O  O23  1  0.162588  0.837412  0.157222  1
  O  O24  1  0.837412  0.162588  0.657222  1
  O  O25  1  0.325177  0.162588  0.657222  1
  O  O26  1  0.837412  0.162588  0.842778  1
  O  O27  1  0.850445  0.700889  0.250000  1
  O  O28  1  0.299111  0.149555  0.250000  1
  O  O29  1  0.325177  0.162588  0.842778  1
  O  O30  1  0.149555  0.299111  0.750000  1
  O  O31  1  0.837412  0.674823  0.842778  1
  O  O32  1  0.162588  0.325177  0.342778  1
  O  O33  1  0.674823  0.837412  0.157222  1
  O  O34  1  0.149555  0.850445  0.750000  1
  O  O35  1  0.674823  0.837412  0.342778  1
