# generated using pymatgen
data_La8Cu3Si12Ag
_symmetry_space_group_name_H-M   'P 1'
_cell_length_a   8.21060400
_cell_length_b   8.21060481
_cell_length_c   8.86842500
_cell_angle_alpha   90.00000000
_cell_angle_beta   90.00000000
_cell_angle_gamma   120.00000480
_symmetry_Int_Tables_number   1
_chemical_formula_structural   La8Cu3Si12Ag
_chemical_formula_sum   'La8 Cu3 Si12 Ag1'
_cell_volume   517.75865084
_cell_formula_units_Z   1
loop_
 _symmetry_equiv_pos_site_id
 _symmetry_equiv_pos_as_xyz
  1  'x, y, z'
loop_
 _atom_site_type_symbol
 _atom_site_label
 _atom_site_symmetry_multiplicity
 _atom_site_fract_x
 _atom_site_fract_y
 _atom_site_fract_z
 _atom_site_occupancy
  La  La0  1  0.498541  0.501459  0.752200  1
  La  La1  1  0.498513  0.501487  0.248044  1
  La  La2  1  0.002918  0.501459  0.752200  1
  La  La3  1  0.002973  0.501487  0.248044  1
  La  La4  1  0.498541  0.997082  0.752200  1
  La  La5  1  0.498513  0.997027  0.248044  1
  La  La6  1  0.000000  0.000000  0.751265  1
  La  La7  1  0.000000  0.000000  0.248643  1
  Cu  Cu8  1  0.666667  0.333333  0.000148  1
  Cu  Cu9  1  0.333333  0.666667  0.999850  1
  Cu  Cu10  1  0.333333  0.666667  0.499901  1
  Si  Si11  1  0.831184  0.168816  0.999925  1
  Si  Si12  1  0.168438  0.831562  0.999979  1
  Si  Si13  1  0.337630  0.168816  0.999925  1
  Si  Si14  1  0.169207  0.830793  0.499981  1
  Si  Si15  1  0.663123  0.831562  0.999979  1
  Si  Si16  1  0.838105  0.161895  0.499862  1
  Si  Si17  1  0.831184  0.662370  0.999925  1
  Si  Si18  1  0.661586  0.830793  0.499981  1
  Si  Si19  1  0.168438  0.336877  0.999979  1
  Si  Si20  1  0.323790  0.161895  0.499862  1
  Si  Si21  1  0.169207  0.338414  0.499981  1
  Si  Si22  1  0.838105  0.676210  0.499862  1
  Ag  Ag23  1  0.666667  0.333333  0.500225  1
