# generated using pymatgen
data_La6Al25Os7
_symmetry_space_group_name_H-M   'P 1'
_cell_length_a   9.00291050
_cell_length_b   9.00291119
_cell_length_c   9.72580169
_cell_angle_alpha   90.35068926
_cell_angle_beta   89.64931279
_cell_angle_gamma   119.76096100
_symmetry_Int_Tables_number   1
_chemical_formula_structural   La6Al25Os7
_chemical_formula_sum   'La6 Al25 Os7'
_cell_volume   684.30880552
_cell_formula_units_Z   1
loop_
 _symmetry_equiv_pos_site_id
 _symmetry_equiv_pos_as_xyz
  1  'x, y, z'
loop_
 _atom_site_type_symbol
 _atom_site_label
 _atom_site_symmetry_multiplicity
 _atom_site_fract_x
 _atom_site_fract_y
 _atom_site_fract_z
 _atom_site_occupancy
  La  La0  1  0.190984  0.381489  0.244758  1
  La  La1  1  0.809016  0.618511  0.755242  1
  La  La2  1  0.618511  0.809016  0.244758  1
  La  La3  1  0.381489  0.190984  0.755242  1
  La  La4  1  0.192330  0.807670  0.257483  1
  La  La5  1  0.807670  0.192330  0.742517  1
  Al  Al6  1  0.325850  0.674150  0.010459  1
  Al  Al7  1  0.674150  0.325850  0.989541  1
  Al  Al8  1  0.666550  0.333450  0.505791  1
  Al  Al9  1  0.333450  0.666550  0.494209  1
  Al  Al10  1  0.162164  0.325484  0.570278  1
  Al  Al11  1  0.837836  0.674516  0.429722  1
  Al  Al12  1  0.674516  0.837836  0.570278  1
  Al  Al13  1  0.854443  0.678593  0.081026  1
  Al  Al14  1  0.325484  0.162164  0.429722  1
  Al  Al15  1  0.145557  0.321407  0.918974  1
  Al  Al16  1  0.162765  0.837235  0.578513  1
  Al  Al17  1  0.321407  0.145557  0.081026  1
  Al  Al18  1  0.837235  0.162765  0.421487  1
  Al  Al19  1  0.678593  0.854443  0.918974  1
  Al  Al20  1  0.837300  0.162700  0.075498  1
  Al  Al21  1  0.162700  0.837300  0.924502  1
  Al  Al22  1  0.564409  0.124963  0.248932  1
  Al  Al23  1  0.435591  0.875037  0.751068  1
  Al  Al24  1  0.875037  0.435591  0.248932  1
  Al  Al25  1  0.124963  0.564409  0.751068  1
  Al  Al26  1  0.567632  0.432368  0.260257  1
  Al  Al27  1  0.432368  0.567632  0.739743  1
  Al  Al28  1  0.998579  0.001421  0.250667  1
  Al  Al29  1  0.001421  0.998579  0.749333  1
  Al  Al30  1  0.500000  0.500000  0.000000  1
  Os  Os31  1  0.500000  0.000000  0.000000  1
  Os  Os32  1  0.000000  0.500000  0.000000  1
  Os  Os33  1  0.500000  0.000000  0.500000  1
  Os  Os34  1  0.000000  0.500000  0.500000  1
  Os  Os35  1  0.500000  0.500000  0.500000  1
  Os  Os36  1  0.000000  0.000000  0.000000  1
  Os  Os37  1  0.000000  0.000000  0.500000  1
