# generated using pymatgen
data_Y4Tm2Ir11Rh7
_symmetry_space_group_name_H-M   'P 1'
_cell_length_a   5.29578048
_cell_length_b   5.29578197
_cell_length_c   17.44267058
_cell_angle_alpha   89.92823913
_cell_angle_beta   90.07176160
_cell_angle_gamma   119.95304574
_symmetry_Int_Tables_number   1
_chemical_formula_structural   Y4Tm2Ir11Rh7
_chemical_formula_sum   'Y4 Tm2 Ir11 Rh7'
_cell_volume   423.84641689
_cell_formula_units_Z   1
loop_
 _symmetry_equiv_pos_site_id
 _symmetry_equiv_pos_as_xyz
  1  'x, y, z'
loop_
 _atom_site_type_symbol
 _atom_site_label
 _atom_site_symmetry_multiplicity
 _atom_site_fract_x
 _atom_site_fract_y
 _atom_site_fract_z
 _atom_site_occupancy
  Y  Y0  1  0.666721  0.333279  0.458931  1
  Y  Y1  1  0.333188  0.666812  0.541198  1
  Y  Y2  1  0.333238  0.666762  0.750674  1
  Y  Y3  1  0.666708  0.333292  0.250089  1
  Tm  Tm4  1  0.333287  0.666713  0.959091  1
  Tm  Tm5  1  0.667536  0.332464  0.040618  1
  Ir  Ir6  1  0.167547  0.832453  0.373711  1
  Ir  Ir7  1  0.167012  0.334517  0.373377  1
  Ir  Ir8  1  0.665483  0.832988  0.373377  1
  Ir  Ir9  1  0.832532  0.167468  0.626257  1
  Ir  Ir10  1  0.832832  0.665096  0.626135  1
  Ir  Ir11  1  0.334904  0.167168  0.626135  1
  Ir  Ir12  1  0.832143  0.167857  0.875480  1
  Ir  Ir13  1  0.831490  0.664117  0.875922  1
  Ir  Ir14  1  0.335883  0.168510  0.875922  1
  Ir  Ir15  1  0.166730  0.833270  0.124497  1
  Ir  Ir16  1  0.002283  0.997717  0.000358  1
  Rh  Rh17  1  0.166661  0.336672  0.124157  1
  Rh  Rh18  1  0.663328  0.833339  0.124157  1
  Rh  Rh19  1  0.332906  0.667094  0.249591  1
  Rh  Rh20  1  0.666695  0.333305  0.750310  1
  Rh  Rh21  1  0.001264  0.998736  0.249249  1
  Rh  Rh22  1  0.999957  0.000043  0.750748  1
  Rh  Rh23  1  0.999670  0.000330  0.500015  1
