# generated using pymatgen
data_V(PS4)2
_symmetry_space_group_name_H-M   'P 1'
_cell_length_a   11.48726100
_cell_length_b   11.48726084
_cell_length_c   10.55143200
_cell_angle_alpha   90.00000000
_cell_angle_beta   90.00000000
_cell_angle_gamma   118.96429782
_symmetry_Int_Tables_number   1
_chemical_formula_structural   V(PS4)2
_chemical_formula_sum   'V4 P8 S32'
_cell_volume   1218.18579254
_cell_formula_units_Z   4
loop_
 _symmetry_equiv_pos_site_id
 _symmetry_equiv_pos_as_xyz
  1  'x, y, z'
loop_
 _atom_site_type_symbol
 _atom_site_label
 _atom_site_symmetry_multiplicity
 _atom_site_fract_x
 _atom_site_fract_y
 _atom_site_fract_z
 _atom_site_occupancy
  V  V0  1  0.430441  0.569559  0.500000  1
  V  V1  1  0.569559  0.430441  0.500000  1
  V  V2  1  0.930441  0.069559  0.000000  1
  V  V3  1  0.069559  0.930441  0.000000  1
  P  P4  1  0.496709  0.872582  0.513624  1
  P  P5  1  0.996709  0.372582  0.986376  1
  P  P6  1  0.127418  0.503291  0.486376  1
  P  P7  1  0.627418  0.003291  0.013624  1
  P  P8  1  0.872582  0.496709  0.513624  1
  P  P9  1  0.372582  0.996709  0.986376  1
  P  P10  1  0.003291  0.627418  0.013624  1
  P  P11  1  0.503291  0.127418  0.486376  1
  S  S12  1  0.066051  0.633634  0.574895  1
  S  S13  1  0.794656  0.573251  0.391058  1
  S  S14  1  0.205344  0.426749  0.608942  1
  S  S15  1  0.263935  0.591885  0.351369  1
  S  S16  1  0.408115  0.736065  0.648631  1
  S  S17  1  0.091885  0.763935  0.148631  1
  S  S18  1  0.236065  0.908115  0.851369  1
  S  S19  1  0.515831  0.515831  0.314448  1
  S  S20  1  0.633634  0.066051  0.574895  1
  S  S21  1  0.705344  0.926749  0.891058  1
  S  S22  1  0.362335  0.362335  0.398174  1
  S  S23  1  0.366366  0.933949  0.425105  1
  S  S24  1  0.566051  0.133634  0.925105  1
  S  S25  1  0.484169  0.484169  0.685552  1
  S  S26  1  0.926749  0.705344  0.891058  1
  S  S27  1  0.426749  0.205344  0.608942  1
  S  S28  1  0.137665  0.137665  0.898174  1
  S  S29  1  0.763935  0.091885  0.148631  1
  S  S30  1  0.015831  0.015831  0.185552  1
  S  S31  1  0.637665  0.637665  0.601826  1
  S  S32  1  0.933949  0.366366  0.425105  1
  S  S33  1  0.294656  0.073251  0.108942  1
  S  S34  1  0.573251  0.794656  0.391058  1
  S  S35  1  0.984169  0.984169  0.814448  1
  S  S36  1  0.073251  0.294656  0.108942  1
  S  S37  1  0.433949  0.866366  0.074895  1
  S  S38  1  0.862335  0.862335  0.101826  1
  S  S39  1  0.591885  0.263935  0.351369  1
  S  S40  1  0.908115  0.236065  0.851369  1
  S  S41  1  0.736065  0.408115  0.648631  1
  S  S42  1  0.133634  0.566051  0.925105  1
  S  S43  1  0.866366  0.433949  0.074895  1
