# generated using pymatgen
data_Nd7SmDy4(Si2Ni)4
_symmetry_space_group_name_H-M   'P 1'
_cell_length_a   4.19764400
_cell_length_b   11.76566728
_cell_length_c   11.41321703
_cell_angle_alpha   89.95294748
_cell_angle_beta   90.00000000
_cell_angle_gamma   90.00000000
_symmetry_Int_Tables_number   1
_chemical_formula_structural   Nd7SmDy4(Si2Ni)4
_chemical_formula_sum   'Nd7 Sm1 Dy4 Si8 Ni4'
_cell_volume   563.67671620
_cell_formula_units_Z   1
loop_
 _symmetry_equiv_pos_site_id
 _symmetry_equiv_pos_as_xyz
  1  'x, y, z'
loop_
 _atom_site_type_symbol
 _atom_site_label
 _atom_site_symmetry_multiplicity
 _atom_site_fract_x
 _atom_site_fract_y
 _atom_site_fract_z
 _atom_site_occupancy
  Nd  Nd0  1  0.250000  0.058635  0.885327  1
  Nd  Nd1  1  0.250000  0.440186  0.383954  1
  Nd  Nd2  1  0.750000  0.939144  0.114888  1
  Nd  Nd3  1  0.750000  0.560666  0.615060  1
  Nd  Nd4  1  0.250000  0.123108  0.563224  1
  Nd  Nd5  1  0.250000  0.378338  0.060476  1
  Nd  Nd6  1  0.750000  0.877317  0.438513  1
  Sm  Sm7  1  0.750000  0.622833  0.938556  1
  Dy  Dy8  1  0.250000  0.803770  0.711274  1
  Dy  Dy9  1  0.250000  0.692788  0.209686  1
  Dy  Dy10  1  0.750000  0.192833  0.289523  1
  Dy  Dy11  1  0.750000  0.310281  0.790428  1
  Si  Si12  1  0.250000  0.807796  0.969511  1
  Si  Si13  1  0.250000  0.689128  0.467969  1
  Si  Si14  1  0.750000  0.189761  0.030716  1
  Si  Si15  1  0.750000  0.311278  0.531616  1
  Si  Si16  1  0.250000  0.488444  0.802598  1
  Si  Si17  1  0.250000  0.016624  0.301962  1
  Si  Si18  1  0.750000  0.516933  0.196387  1
  Si  Si19  1  0.750000  0.980985  0.698508  1
  Ni  Ni20  1  0.250000  0.363829  0.634677  1
  Ni  Ni21  1  0.250000  0.138401  0.132972  1
  Ni  Ni22  1  0.750000  0.638524  0.365508  1
  Ni  Ni23  1  0.750000  0.858400  0.866666  1
