# generated using pymatgen
data_Ti3Co2Si
_symmetry_space_group_name_H-M   'P 1'
_cell_length_a   7.71235444
_cell_length_b   7.71235350
_cell_length_c   7.71235400
_cell_angle_alpha   59.99999786
_cell_angle_beta   60.00000191
_cell_angle_gamma   59.99999722
_symmetry_Int_Tables_number   1
_chemical_formula_structural   Ti3Co2Si
_chemical_formula_sum   'Ti12 Co8 Si4'
_cell_volume   324.37386538
_cell_formula_units_Z   4
loop_
 _symmetry_equiv_pos_site_id
 _symmetry_equiv_pos_as_xyz
  1  'x, y, z'
loop_
 _atom_site_type_symbol
 _atom_site_label
 _atom_site_symmetry_multiplicity
 _atom_site_fract_x
 _atom_site_fract_y
 _atom_site_fract_z
 _atom_site_occupancy
  Ti  Ti0  1  0.944638  0.555362  0.555362  1
  Ti  Ti1  1  0.694638  0.305362  0.305362  1
  Ti  Ti2  1  0.694638  0.694638  0.305362  1
  Ti  Ti3  1  0.694638  0.305362  0.694638  1
  Ti  Ti4  1  0.555362  0.944638  0.555362  1
  Ti  Ti5  1  0.555362  0.944638  0.944638  1
  Ti  Ti6  1  0.305362  0.694638  0.305362  1
  Ti  Ti7  1  0.305362  0.694638  0.694638  1
  Ti  Ti8  1  0.944638  0.944638  0.555362  1
  Ti  Ti9  1  0.944638  0.555362  0.944638  1
  Ti  Ti10  1  0.555362  0.555362  0.944638  1
  Ti  Ti11  1  0.305362  0.305362  0.694638  1
  Co  Co12  1  0.336959  0.989123  0.336959  1
  Co  Co13  1  0.336959  0.336959  0.989123  1
  Co  Co14  1  0.913041  0.260877  0.913041  1
  Co  Co15  1  0.913041  0.913041  0.260877  1
  Co  Co16  1  0.989123  0.336959  0.336959  1
  Co  Co17  1  0.913041  0.913041  0.913041  1
  Co  Co18  1  0.260877  0.913041  0.913041  1
  Co  Co19  1  0.336959  0.336959  0.336959  1
  Si  Si20  1  0.125000  0.125000  0.125000  1
  Si  Si21  1  0.125000  0.125000  0.625000  1
  Si  Si22  1  0.125000  0.625000  0.125000  1
  Si  Si23  1  0.625000  0.125000  0.125000  1
