# generated using pymatgen
data_Th2Al3GeAu2
_symmetry_space_group_name_H-M   'P 1'
_cell_length_a   9.49408168
_cell_length_b   9.49408168
_cell_length_c   4.31966700
_cell_angle_alpha   90.00000000
_cell_angle_beta   90.00000000
_cell_angle_gamma   154.01327857
_symmetry_Int_Tables_number   1
_chemical_formula_structural   Th2Al3GeAu2
_chemical_formula_sum   'Th2 Al3 Ge1 Au2'
_cell_volume   170.60499178
_cell_formula_units_Z   1
loop_
 _symmetry_equiv_pos_site_id
 _symmetry_equiv_pos_as_xyz
  1  'x, y, z'
loop_
 _atom_site_type_symbol
 _atom_site_label
 _atom_site_symmetry_multiplicity
 _atom_site_fract_x
 _atom_site_fract_y
 _atom_site_fract_z
 _atom_site_occupancy
  Th  Th0  1  0.901284  0.098716  0.750000  1
  Th  Th1  1  0.098218  0.901782  0.250000  1
  Al  Al2  1  0.250169  0.749831  0.750000  1
  Al  Al3  1  0.749473  0.250527  0.250000  1
  Al  Al4  1  0.535273  0.464727  0.750000  1
  Ge  Ge5  1  0.467245  0.532755  0.250000  1
  Au  Au6  1  0.670556  0.329444  0.750000  1
  Au  Au7  1  0.327781  0.672219  0.250000  1
