# generated using pymatgen
data_Sm8Tm12Si15Ru
_symmetry_space_group_name_H-M   'P 1'
_cell_length_a   7.35213107
_cell_length_b   7.75510523
_cell_length_c   14.53678300
_cell_angle_alpha   90.00000000
_cell_angle_beta   90.00000000
_cell_angle_gamma   90.08128352
_symmetry_Int_Tables_number   1
_chemical_formula_structural   Sm8Tm12Si15Ru
_chemical_formula_sum   'Sm8 Tm12 Si15 Ru1'
_cell_volume   828.83638209
_cell_formula_units_Z   1
loop_
 _symmetry_equiv_pos_site_id
 _symmetry_equiv_pos_as_xyz
  1  'x, y, z'
loop_
 _atom_site_type_symbol
 _atom_site_label
 _atom_site_symmetry_multiplicity
 _atom_site_fract_x
 _atom_site_fract_y
 _atom_site_fract_z
 _atom_site_occupancy
  Sm  Sm0  1  0.016602  0.182551  0.096923  1
  Sm  Sm1  1  0.986156  0.825983  0.903830  1
  Sm  Sm2  1  0.484530  0.678309  0.904001  1
  Sm  Sm3  1  0.986156  0.825983  0.596170  1
  Sm  Sm4  1  0.515507  0.320828  0.096460  1
  Sm  Sm5  1  0.016602  0.182551  0.403077  1
  Sm  Sm6  1  0.515507  0.320828  0.403540  1
  Sm  Sm7  1  0.484530  0.678309  0.595999  1
  Tm  Tm8  1  0.155375  0.508920  0.750000  1
  Tm  Tm9  1  0.839840  0.488745  0.250000  1
  Tm  Tm10  1  0.339508  0.013284  0.250000  1
  Tm  Tm11  1  0.668371  0.991688  0.750000  1
  Tm  Tm12  1  0.312818  0.172631  0.627418  1
  Tm  Tm13  1  0.675916  0.825331  0.375163  1
  Tm  Tm14  1  0.175606  0.678963  0.375468  1
  Tm  Tm15  1  0.675916  0.825331  0.124837  1
  Tm  Tm16  1  0.835699  0.315287  0.626619  1
  Tm  Tm17  1  0.312818  0.172631  0.872582  1
  Tm  Tm18  1  0.835699  0.315287  0.873381  1
  Tm  Tm19  1  0.175606  0.678963  0.124532  1
  Si  Si20  1  0.969927  0.888698  0.250000  1
  Si  Si21  1  0.471434  0.611288  0.250000  1
  Si  Si22  1  0.528637  0.392364  0.750000  1
  Si  Si23  1  0.279650  0.868331  0.750000  1
  Si  Si24  1  0.718212  0.128408  0.250000  1
  Si  Si25  1  0.220530  0.373328  0.250000  1
  Si  Si26  1  0.771755  0.622691  0.750000  1
  Si  Si27  1  0.155773  0.471848  0.537569  1
  Si  Si28  1  0.848305  0.533932  0.462429  1
  Si  Si29  1  0.347996  0.967834  0.461087  1
  Si  Si30  1  0.848305  0.533932  0.037571  1
  Si  Si31  1  0.649680  0.032427  0.538226  1
  Si  Si32  1  0.155773  0.471848  0.962431  1
  Si  Si33  1  0.649680  0.032427  0.961774  1
  Si  Si34  1  0.347996  0.967834  0.038913  1
  Ru  Ru35  1  0.027577  0.100402  0.750000  1
