# generated using pymatgen
data_La3NdGeI5
_symmetry_space_group_name_H-M   'P 1'
_cell_length_a   10.12676709
_cell_length_b   10.12676602
_cell_length_c   9.11956100
_cell_angle_alpha   77.80031703
_cell_angle_beta   77.80031834
_cell_angle_gamma   24.88893756
_symmetry_Int_Tables_number   1
_chemical_formula_structural   La3NdGeI5
_chemical_formula_sum   'La3 Nd1 Ge1 I5'
_cell_volume   384.27217003
_cell_formula_units_Z   1
loop_
 _symmetry_equiv_pos_site_id
 _symmetry_equiv_pos_as_xyz
  1  'x, y, z'
loop_
 _atom_site_type_symbol
 _atom_site_label
 _atom_site_symmetry_multiplicity
 _atom_site_fract_x
 _atom_site_fract_y
 _atom_site_fract_z
 _atom_site_occupancy
  La  La0  1  0.849195  0.849195  0.074520  1
  La  La1  1  0.150874  0.150874  0.923177  1
  La  La2  1  0.500681  0.500681  0.220025  1
  Nd  Nd3  1  0.499357  0.499357  0.783549  1
  Ge  Ge4  1  0.000065  0.000065  0.998189  1
  I  I5  1  0.671423  0.671423  0.179408  1
  I  I6  1  0.330302  0.330302  0.818134  1
  I  I7  1  0.664869  0.664869  0.657242  1
  I  I8  1  0.332844  0.332844  0.342324  1
  I  I9  1  0.000393  0.000393  0.503432  1
