# generated using pymatgen
data_TeSF
_symmetry_space_group_name_H-M   'P 1'
_cell_length_a   6.90701300
_cell_length_b   3.54313900
_cell_length_c   11.84734600
_cell_angle_alpha   90.00000000
_cell_angle_beta   90.00000000
_cell_angle_gamma   90.00000000
_symmetry_Int_Tables_number   1
_chemical_formula_structural   TeSF
_chemical_formula_sum   'Te4 S4 F4'
_cell_volume   289.93425950
_cell_formula_units_Z   4
loop_
 _symmetry_equiv_pos_site_id
 _symmetry_equiv_pos_as_xyz
  1  'x, y, z'
loop_
 _atom_site_type_symbol
 _atom_site_label
 _atom_site_symmetry_multiplicity
 _atom_site_fract_x
 _atom_site_fract_y
 _atom_site_fract_z
 _atom_site_occupancy
  Te  Te0  1  0.145582  0.000000  0.129514  1
  Te  Te1  1  0.645582  0.000000  0.370485  1
  Te  Te2  1  0.354419  0.500001  0.629514  1
  Te  Te3  1  0.854419  0.500001  0.870487  1
  S  S4  1  0.759534  0.000000  0.008152  1
  S  S5  1  0.259536  0.000000  0.491848  1
  S  S6  1  0.740464  0.500001  0.508151  1
  S  S7  1  0.240466  0.500001  0.991847  1
  F  F8  1  0.024476  0.500001  0.234296  1
  F  F9  1  0.524476  0.500001  0.265705  1
  F  F10  1  0.475527  0.000000  0.734295  1
  F  F11  1  0.975526  0.000000  0.765704  1
