# generated using pymatgen
data_Tb3Dy3(ErAu2)2
_symmetry_space_group_name_H-M   'P 1'
_cell_length_a   4.94147900
_cell_length_b   7.16050371
_cell_length_c   8.95997038
_cell_angle_alpha   89.92241775
_cell_angle_beta   90.00000000
_cell_angle_gamma   90.00000000
_symmetry_Int_Tables_number   1
_chemical_formula_structural   Tb3Dy3(ErAu2)2
_chemical_formula_sum   'Tb3 Dy3 Er2 Au4'
_cell_volume   317.03463069
_cell_formula_units_Z   1
loop_
 _symmetry_equiv_pos_site_id
 _symmetry_equiv_pos_as_xyz
  1  'x, y, z'
loop_
 _atom_site_type_symbol
 _atom_site_label
 _atom_site_symmetry_multiplicity
 _atom_site_fract_x
 _atom_site_fract_y
 _atom_site_fract_z
 _atom_site_occupancy
  Tb  Tb0  1  0.250000  0.985576  0.322962  1
  Tb  Tb1  1  0.750000  0.514075  0.823418  1
  Tb  Tb2  1  0.750000  0.014143  0.676741  1
  Dy  Dy3  1  0.250000  0.851713  0.920347  1
  Dy  Dy4  1  0.250000  0.352111  0.579855  1
  Dy  Dy5  1  0.250000  0.485177  0.176388  1
  Er  Er6  1  0.750000  0.148327  0.080421  1
  Er  Er7  1  0.750000  0.647863  0.419082  1
  Au  Au8  1  0.250000  0.255811  0.901541  1
  Au  Au9  1  0.250000  0.755502  0.599292  1
  Au  Au10  1  0.750000  0.744434  0.100580  1
  Au  Au11  1  0.750000  0.245269  0.399373  1
