# generated using pymatgen
data_NdZn3P6N13
_symmetry_space_group_name_H-M   'P 1'
_cell_length_a   7.11081639
_cell_length_b   7.25674083
_cell_length_c   7.11081665
_cell_angle_alpha   109.88746224
_cell_angle_beta   109.05178512
_cell_angle_gamma   109.88747680
_symmetry_Int_Tables_number   1
_chemical_formula_structural   NdZn3P6N13
_chemical_formula_sum   'Nd1 Zn3 P6 N13'
_cell_volume   280.99709241
_cell_formula_units_Z   1
loop_
 _symmetry_equiv_pos_site_id
 _symmetry_equiv_pos_as_xyz
  1  'x, y, z'
loop_
 _atom_site_type_symbol
 _atom_site_label
 _atom_site_symmetry_multiplicity
 _atom_site_fract_x
 _atom_site_fract_y
 _atom_site_fract_z
 _atom_site_occupancy
  Nd  Nd0  1  0.000000  0.725302  0.000000  1
  Zn  Zn1  1  0.713051  0.023017  0.000000  1
  Zn  Zn2  1  0.000000  0.023017  0.713051  1
  Zn  Zn3  1  0.286949  0.309966  0.286949  1
  P  P4  1  0.492782  0.237241  0.746170  1
  P  P5  1  0.507218  0.744459  0.253388  1
  P  P6  1  0.746612  0.491071  0.253830  1
  P  P7  1  0.253388  0.744459  0.507218  1
  P  P8  1  0.746170  0.237241  0.492782  1
  P  P9  1  0.253830  0.491071  0.746612  1
  N  N10  1  0.000000  0.725278  0.448189  1
  N  N11  1  0.287226  0.547874  0.551890  1
  N  N12  1  0.716965  0.436444  0.000000  1
  N  N13  1  0.283035  0.719480  0.283035  1
  N  N14  1  0.448110  0.995984  0.735337  1
  N  N15  1  0.712774  0.260647  0.264663  1
  N  N16  1  0.551811  0.277088  0.551811  1
  N  N17  1  0.735337  0.995984  0.448110  1
  N  N18  1  0.264663  0.260647  0.712774  1
  N  N19  1  0.448189  0.725278  0.000000  1
  N  N20  1  0.551890  0.547874  0.287226  1
  N  N21  1  0.000000  0.436444  0.716965  1
  N  N22  1  0.000000  0.044132  0.000000  1
