# generated using pymatgen
data_Er4Lu3CoI12
_symmetry_space_group_name_H-M   'P 1'
_cell_length_a   9.65137885
_cell_length_b   9.65137787
_cell_length_c   9.65137803
_cell_angle_alpha   106.83777927
_cell_angle_beta   106.83777509
_cell_angle_gamma   106.83777622
_symmetry_Int_Tables_number   1
_chemical_formula_structural   Er4Lu3CoI12
_chemical_formula_sum   'Er4 Lu3 Co1 I12'
_cell_volume   751.99878378
_cell_formula_units_Z   1
loop_
 _symmetry_equiv_pos_site_id
 _symmetry_equiv_pos_as_xyz
  1  'x, y, z'
loop_
 _atom_site_type_symbol
 _atom_site_label
 _atom_site_symmetry_multiplicity
 _atom_site_fract_x
 _atom_site_fract_y
 _atom_site_fract_z
 _atom_site_occupancy
  Er  Er0  1  0.499882  0.499882  0.499882  1
  Er  Er1  1  0.714738  0.909745  0.979062  1
  Er  Er2  1  0.979062  0.714738  0.909745  1
  Er  Er3  1  0.909745  0.979062  0.714738  1
  Lu  Lu4  1  0.283036  0.090137  0.021794  1
  Lu  Lu5  1  0.021794  0.283036  0.090137  1
  Lu  Lu6  1  0.090137  0.021794  0.283036  1
  Co  Co7  1  0.000827  0.000827  0.000827  1
  I  I8  1  0.463049  0.160989  0.386628  1
  I  I9  1  0.386628  0.463049  0.160989  1
  I  I10  1  0.160989  0.386628  0.463049  1
  I  I11  1  0.536557  0.839146  0.613177  1
  I  I12  1  0.613177  0.536557  0.839146  1
  I  I13  1  0.839146  0.613177  0.536557  1
  I  I14  1  0.323657  0.776369  0.929472  1
  I  I15  1  0.929472  0.323657  0.776369  1
  I  I16  1  0.776369  0.929472  0.323657  1
  I  I17  1  0.676447  0.224545  0.070742  1
  I  I18  1  0.070742  0.676447  0.224545  1
  I  I19  1  0.224545  0.070742  0.676447  1
