# generated using pymatgen
data_Tb2HoSn2Rh3Pb
_symmetry_space_group_name_H-M   'P 1'
_cell_length_a   7.74460200
_cell_length_b   7.73320231
_cell_length_c   3.74695600
_cell_angle_alpha   90.00000000
_cell_angle_beta   90.00000000
_cell_angle_gamma   119.84238789
_symmetry_Int_Tables_number   1
_chemical_formula_structural   Tb2HoSn2Rh3Pb
_chemical_formula_sum   'Tb2 Ho1 Sn2 Rh3 Pb1'
_cell_volume   194.65038211
_cell_formula_units_Z   1
loop_
 _symmetry_equiv_pos_site_id
 _symmetry_equiv_pos_as_xyz
  1  'x, y, z'
loop_
 _atom_site_type_symbol
 _atom_site_label
 _atom_site_symmetry_multiplicity
 _atom_site_fract_x
 _atom_site_fract_y
 _atom_site_fract_z
 _atom_site_occupancy
  Tb  Tb0  1  0.996730  0.403074  0.000000  1
  Tb  Tb1  1  0.599834  0.599749  0.000000  1
  Ho  Ho2  1  0.402715  0.996350  0.000000  1
  Sn  Sn3  1  0.001179  0.734755  0.500000  1
  Sn  Sn4  1  0.733163  0.000157  0.500000  1
  Rh  Rh5  1  0.674295  0.334567  0.500000  1
  Rh  Rh6  1  0.335860  0.676291  0.500000  1
  Rh  Rh7  1  0.989301  0.989078  0.000000  1
  Pb  Pb8  1  0.266922  0.265978  0.500000  1
