# generated using pymatgen
data_Tb2Nd5TmAu4
_symmetry_space_group_name_H-M   'P 1'
_cell_length_a   5.03539400
_cell_length_b   7.30709525
_cell_length_c   9.16041564
_cell_angle_alpha   90.15735498
_cell_angle_beta   90.00000000
_cell_angle_gamma   90.00000000
_symmetry_Int_Tables_number   1
_chemical_formula_structural   Tb2Nd5TmAu4
_chemical_formula_sum   'Tb2 Nd5 Tm1 Au4'
_cell_volume   337.04801055
_cell_formula_units_Z   1
loop_
 _symmetry_equiv_pos_site_id
 _symmetry_equiv_pos_as_xyz
  1  'x, y, z'
loop_
 _atom_site_type_symbol
 _atom_site_label
 _atom_site_symmetry_multiplicity
 _atom_site_fract_x
 _atom_site_fract_y
 _atom_site_fract_z
 _atom_site_occupancy
  Tb  Tb0  1  0.250000  0.348593  0.585205  1
  Tb  Tb1  1  0.750000  0.151142  0.080973  1
  Nd  Nd2  1  0.750000  0.652323  0.413718  1
  Nd  Nd3  1  0.250000  0.491459  0.176496  1
  Nd  Nd4  1  0.250000  0.993551  0.323561  1
  Nd  Nd5  1  0.750000  0.509773  0.823028  1
  Nd  Nd6  1  0.750000  0.009207  0.678462  1
  Tm  Tm7  1  0.250000  0.850696  0.919145  1
  Au  Au8  1  0.250000  0.245228  0.902937  1
  Au  Au9  1  0.250000  0.749346  0.605800  1
  Au  Au10  1  0.750000  0.754220  0.088078  1
  Au  Au11  1  0.750000  0.244463  0.402597  1
