# generated using pymatgen
data_Ho3ErAl8
_symmetry_space_group_name_H-M   'P 1'
_cell_length_a   9.61570432
_cell_length_b   9.61570492
_cell_length_c   9.61570443
_cell_angle_alpha   33.56189476
_cell_angle_beta   33.56190161
_cell_angle_gamma   33.56189164
_symmetry_Int_Tables_number   1
_chemical_formula_structural   Ho3ErAl8
_chemical_formula_sum   'Ho3 Er1 Al8'
_cell_volume   242.03854328
_cell_formula_units_Z   1
loop_
 _symmetry_equiv_pos_site_id
 _symmetry_equiv_pos_as_xyz
  1  'x, y, z'
loop_
 _atom_site_type_symbol
 _atom_site_label
 _atom_site_symmetry_multiplicity
 _atom_site_fract_x
 _atom_site_fract_y
 _atom_site_fract_z
 _atom_site_occupancy
  Ho  Ho0  1  0.374905  0.374905  0.374905  1
  Ho  Ho1  1  0.999842  0.999842  0.999842  1
  Ho  Ho2  1  0.500216  0.500216  0.500216  1
  Er  Er3  1  0.874938  0.874938  0.874938  1
  Al  Al4  1  0.437366  0.936923  0.437366  1
  Al  Al5  1  0.937711  0.438005  0.937711  1
  Al  Al6  1  0.437366  0.437366  0.936923  1
  Al  Al7  1  0.937711  0.937711  0.438005  1
  Al  Al8  1  0.187492  0.187492  0.187492  1
  Al  Al9  1  0.687525  0.687525  0.687525  1
  Al  Al10  1  0.936923  0.437366  0.437366  1
  Al  Al11  1  0.438005  0.937711  0.937711  1
