# generated using pymatgen
data_Tm3Cd2In3Ru
_symmetry_space_group_name_H-M   'P 1'
_cell_length_a   8.20527000
_cell_length_b   8.20526977
_cell_length_c   3.61659800
_cell_angle_alpha   90.00000000
_cell_angle_beta   90.00000000
_cell_angle_gamma   120.00000791
_symmetry_Int_Tables_number   1
_chemical_formula_structural   Tm3Cd2In3Ru
_chemical_formula_sum   'Tm3 Cd2 In3 Ru1'
_cell_volume   210.87086304
_cell_formula_units_Z   1
loop_
 _symmetry_equiv_pos_site_id
 _symmetry_equiv_pos_as_xyz
  1  'x, y, z'
loop_
 _atom_site_type_symbol
 _atom_site_label
 _atom_site_symmetry_multiplicity
 _atom_site_fract_x
 _atom_site_fract_y
 _atom_site_fract_z
 _atom_site_occupancy
  Tm  Tm0  1  0.954413  0.368295  0.500000  1
  Tm  Tm1  1  0.631705  0.586118  0.500000  1
  Tm  Tm2  1  0.413882  0.045587  0.500000  1
  Cd  Cd3  1  0.333333  0.666667  0.000000  1
  Cd  Cd4  1  0.000000  0.000000  0.500000  1
  In  In5  1  0.286093  0.292225  0.000000  1
  In  In6  1  0.006132  0.713907  0.000000  1
  In  In7  1  0.707775  0.993868  0.000000  1
  Ru  Ru8  1  0.666667  0.333333  0.000000  1
