# generated using pymatgen
data_TmLu7Sc11Si16Ag
_symmetry_space_group_name_H-M   'P 1'
_cell_length_a   6.95895023
_cell_length_b   7.32923521
_cell_length_c   13.88540424
_cell_angle_alpha   90.01089766
_cell_angle_beta   89.98186232
_cell_angle_gamma   89.87197546
_symmetry_Int_Tables_number   1
_chemical_formula_structural   TmLu7Sc11Si16Ag
_chemical_formula_sum   'Tm1 Lu7 Sc11 Si16 Ag1'
_cell_volume   708.20632823
_cell_formula_units_Z   1
loop_
 _symmetry_equiv_pos_site_id
 _symmetry_equiv_pos_as_xyz
  1  'x, y, z'
loop_
 _atom_site_type_symbol
 _atom_site_label
 _atom_site_symmetry_multiplicity
 _atom_site_fract_x
 _atom_site_fract_y
 _atom_site_fract_z
 _atom_site_occupancy
  Tm  Tm0  1  0.486172  0.673782  0.596529  1
  Lu  Lu1  1  0.011306  0.177732  0.095868  1
  Lu  Lu2  1  0.989337  0.813561  0.903122  1
  Lu  Lu3  1  0.486354  0.674121  0.903339  1
  Lu  Lu4  1  0.989260  0.813514  0.597279  1
  Lu  Lu5  1  0.510095  0.322499  0.095693  1
  Lu  Lu6  1  0.010969  0.177703  0.403780  1
  Lu  Lu7  1  0.510025  0.322275  0.403806  1
  Sc  Sc8  1  0.837725  0.495955  0.250033  1
  Sc  Sc9  1  0.341509  0.005159  0.249902  1
  Sc  Sc10  1  0.655314  0.995829  0.750110  1
  Sc  Sc11  1  0.323520  0.181235  0.627640  1
  Sc  Sc12  1  0.671703  0.824994  0.374737  1
  Sc  Sc13  1  0.169938  0.679687  0.373915  1
  Sc  Sc14  1  0.671876  0.824656  0.125024  1
  Sc  Sc15  1  0.838361  0.326226  0.627366  1
  Sc  Sc16  1  0.323571  0.181279  0.872697  1
  Sc  Sc17  1  0.837600  0.326216  0.873071  1
  Sc  Sc18  1  0.170013  0.679774  0.125936  1
  Si  Si19  1  0.024311  0.090028  0.750269  1
  Si  Si20  1  0.970654  0.893324  0.249866  1
  Si  Si21  1  0.468063  0.613928  0.249762  1
  Si  Si22  1  0.535699  0.386727  0.750196  1
  Si  Si23  1  0.286921  0.875186  0.750353  1
  Si  Si24  1  0.714650  0.132550  0.249769  1
  Si  Si25  1  0.213342  0.369255  0.249816  1
  Si  Si26  1  0.776884  0.632268  0.750421  1
  Si  Si27  1  0.164111  0.459808  0.530960  1
  Si  Si28  1  0.840338  0.534636  0.462076  1
  Si  Si29  1  0.342678  0.967215  0.462504  1
  Si  Si30  1  0.840700  0.534533  0.037872  1
  Si  Si31  1  0.658947  0.034293  0.540293  1
  Si  Si32  1  0.165055  0.460519  0.968615  1
  Si  Si33  1  0.658530  0.033576  0.959513  1
  Si  Si34  1  0.342845  0.966664  0.037306  1
  Ag  Ag35  1  0.161621  0.519292  0.750564  1
