# generated using pymatgen
data_TmFe12MoP7
_symmetry_space_group_name_H-M   'P 1'
_cell_length_a   8.85066900
_cell_length_b   8.85066822
_cell_length_c   3.58357600
_cell_angle_alpha   90.00000000
_cell_angle_beta   90.00000000
_cell_angle_gamma   120.00000667
_symmetry_Int_Tables_number   1
_chemical_formula_structural   TmFe12MoP7
_chemical_formula_sum   'Tm1 Fe12 Mo1 P7'
_cell_volume   243.10807347
_cell_formula_units_Z   1
loop_
 _symmetry_equiv_pos_site_id
 _symmetry_equiv_pos_as_xyz
  1  'x, y, z'
loop_
 _atom_site_type_symbol
 _atom_site_label
 _atom_site_symmetry_multiplicity
 _atom_site_fract_x
 _atom_site_fract_y
 _atom_site_fract_z
 _atom_site_occupancy
  Tm  Tm0  1  0.000000  0.000000  0.500000  1
  Fe  Fe1  1  0.721289  0.957545  0.000000  1
  Fe  Fe2  1  0.236257  0.278711  0.000000  1
  Fe  Fe3  1  0.042455  0.763743  0.000000  1
  Fe  Fe4  1  0.944073  0.454049  0.000000  1
  Fe  Fe5  1  0.509977  0.055927  0.000000  1
  Fe  Fe6  1  0.545951  0.490023  0.000000  1
  Fe  Fe7  1  0.109991  0.397697  0.500000  1
  Fe  Fe8  1  0.287708  0.890009  0.500000  1
  Fe  Fe9  1  0.602303  0.712292  0.500000  1
  Fe  Fe10  1  0.767931  0.210488  0.500000  1
  Fe  Fe11  1  0.442557  0.232069  0.500000  1
  Fe  Fe12  1  0.789512  0.557443  0.500000  1
  Mo  Mo13  1  0.333333  0.666667  0.000000  1
  P  P14  1  0.961856  0.217888  0.000000  1
  P  P15  1  0.256032  0.038144  0.000000  1
  P  P16  1  0.782112  0.743968  0.000000  1
  P  P17  1  0.072556  0.624767  0.500000  1
  P  P18  1  0.552211  0.927444  0.500000  1
  P  P19  1  0.375233  0.447789  0.500000  1
  P  P20  1  0.666667  0.333333  0.000000  1
