# generated using pymatgen
data_HoLu4InSb2
_symmetry_space_group_name_H-M   'P 1'
_cell_length_a   6.34933501
_cell_length_b   8.78472670
_cell_length_c   8.81906350
_cell_angle_alpha   119.87129942
_cell_angle_beta   89.99971578
_cell_angle_gamma   90.00057363
_symmetry_Int_Tables_number   1
_chemical_formula_structural   HoLu4InSb2
_chemical_formula_sum   'Ho2 Lu8 In2 Sb4'
_cell_volume   426.55139185
_cell_formula_units_Z   2
loop_
 _symmetry_equiv_pos_site_id
 _symmetry_equiv_pos_as_xyz
  1  'x, y, z'
loop_
 _atom_site_type_symbol
 _atom_site_label
 _atom_site_symmetry_multiplicity
 _atom_site_fract_x
 _atom_site_fract_y
 _atom_site_fract_z
 _atom_site_occupancy
  Ho  Ho0  1  0.750001  0.240005  0.000000  1
  Ho  Ho1  1  0.250006  0.762491  0.000000  1
  Lu  Lu2  1  0.499794  0.332841  0.664186  1
  Lu  Lu3  1  0.499794  0.668655  0.335814  1
  Lu  Lu4  1  0.000190  0.668658  0.335810  1
  Lu  Lu5  1  0.000190  0.332848  0.664190  1
  Lu  Lu6  1  0.750007  0.761015  0.758577  1
  Lu  Lu7  1  0.750007  0.002439  0.241423  1
  Lu  Lu8  1  0.250001  0.237186  0.242574  1
  Lu  Lu9  1  0.250001  0.994611  0.757426  1
  In  In10  1  0.250027  0.604700  0.603854  1
  In  In11  1  0.250027  0.000846  0.396146  1
  Sb  Sb12  1  0.749990  0.609140  0.000000  1
  Sb  Sb13  1  0.749998  0.394035  0.393275  1
  Sb  Sb14  1  0.749998  0.000759  0.606725  1
  Sb  Sb15  1  0.249975  0.389773  0.000000  1
