# generated using pymatgen
data_Tb18Dy2Ir11Ru
_symmetry_space_group_name_H-M   'P 1'
_cell_length_a   10.91146500
_cell_length_b   10.91131300
_cell_length_c   6.41693100
_cell_angle_alpha   90.00000000
_cell_angle_beta   90.00000000
_cell_angle_gamma   90.00135476
_symmetry_Int_Tables_number   1
_chemical_formula_structural   Tb18Dy2Ir11Ru
_chemical_formula_sum   'Tb18 Dy2 Ir11 Ru1'
_cell_volume   763.98960121
_cell_formula_units_Z   1
loop_
 _symmetry_equiv_pos_site_id
 _symmetry_equiv_pos_as_xyz
  1  'x, y, z'
loop_
 _atom_site_type_symbol
 _atom_site_label
 _atom_site_symmetry_multiplicity
 _atom_site_fract_x
 _atom_site_fract_y
 _atom_site_fract_z
 _atom_site_occupancy
  Tb  Tb0  1  0.292438  0.087443  0.377441  1
  Tb  Tb1  1  0.292712  0.912513  0.880243  1
  Tb  Tb2  1  0.707288  0.087487  0.880243  1
  Tb  Tb3  1  0.707562  0.912557  0.377441  1
  Tb  Tb4  1  0.587443  0.792556  0.880248  1
  Tb  Tb5  1  0.587396  0.207715  0.377447  1
  Tb  Tb6  1  0.412604  0.792285  0.377447  1
  Tb  Tb7  1  0.412557  0.207444  0.880248  1
  Tb  Tb8  1  0.209164  0.411542  0.621252  1
  Tb  Tb9  1  0.209145  0.588326  0.120973  1
  Tb  Tb10  1  0.790855  0.411674  0.120973  1
  Tb  Tb11  1  0.790836  0.588458  0.621252  1
  Tb  Tb12  1  0.911626  0.708995  0.120975  1
  Tb  Tb13  1  0.911491  0.290989  0.621259  1
  Tb  Tb14  1  0.088509  0.709011  0.621259  1
  Tb  Tb15  1  0.088374  0.291005  0.120975  1
  Tb  Tb16  1  0.000000  0.000000  0.499393  1
  Tb  Tb17  1  0.000000  0.000000  0.999350  1
  Dy  Dy18  1  0.500000  0.500000  0.999349  1
  Dy  Dy19  1  0.500000  0.500000  0.499390  1
  Ir  Ir20  1  0.846987  0.153788  0.250072  1
  Ir  Ir21  1  0.847105  0.846532  0.749809  1
  Ir  Ir22  1  0.152895  0.153468  0.749809  1
  Ir  Ir23  1  0.153013  0.846212  0.250072  1
  Ir  Ir24  1  0.653154  0.347417  0.749802  1
  Ir  Ir25  1  0.653472  0.652693  0.250059  1
  Ir  Ir26  1  0.346528  0.347307  0.250059  1
  Ir  Ir27  1  0.346846  0.652583  0.749802  1
  Ir  Ir28  1  0.500000  0.000000  0.624051  1
  Ir  Ir29  1  0.000000  0.500000  0.877193  1
  Ir  Ir30  1  0.000000  0.500000  0.377356  1
  Ru  Ru31  1  0.500000  0.000000  0.124761  1
