# generated using pymatgen
data_Sc2FeCoSi2
_symmetry_space_group_name_H-M   'P 1'
_cell_length_a   4.04175900
_cell_length_b   6.50381500
_cell_length_c   6.69478700
_cell_angle_alpha   90.00000000
_cell_angle_beta   90.00000000
_cell_angle_gamma   90.00000000
_symmetry_Int_Tables_number   1
_chemical_formula_structural   Sc2FeCoSi2
_chemical_formula_sum   'Sc4 Fe2 Co2 Si4'
_cell_volume   175.98488047
_cell_formula_units_Z   2
loop_
 _symmetry_equiv_pos_site_id
 _symmetry_equiv_pos_as_xyz
  1  'x, y, z'
loop_
 _atom_site_type_symbol
 _atom_site_label
 _atom_site_symmetry_multiplicity
 _atom_site_fract_x
 _atom_site_fract_y
 _atom_site_fract_z
 _atom_site_occupancy
  Sc  Sc0  1  0.750000  0.514294  0.808589  1
  Sc  Sc1  1  0.250000  0.988669  0.308234  1
  Sc  Sc2  1  0.750000  0.014294  0.691411  1
  Sc  Sc3  1  0.250000  0.488669  0.191766  1
  Fe  Fe4  1  0.750000  0.846262  0.060929  1
  Fe  Fe5  1  0.750000  0.346262  0.439071  1
  Co  Co6  1  0.250000  0.652361  0.561587  1
  Co  Co7  1  0.250000  0.152361  0.938413  1
  Si  Si8  1  0.250000  0.796906  0.892639  1
  Si  Si9  1  0.250000  0.296906  0.607361  1
  Si  Si10  1  0.750000  0.201507  0.111663  1
  Si  Si11  1  0.750000  0.701507  0.388337  1
