# generated using pymatgen
data_DyLu6Co6Sn23
_symmetry_space_group_name_H-M   'P 1'
_cell_length_a   9.64125700
_cell_length_b   9.64125769
_cell_length_c   9.94078100
_cell_angle_alpha   90.00000000
_cell_angle_beta   90.00000000
_cell_angle_gamma   120.00000105
_symmetry_Int_Tables_number   1
_chemical_formula_structural   DyLu6Co6Sn23
_chemical_formula_sum   'Dy1 Lu6 Co6 Sn23'
_cell_volume   800.23673522
_cell_formula_units_Z   1
loop_
 _symmetry_equiv_pos_site_id
 _symmetry_equiv_pos_as_xyz
  1  'x, y, z'
loop_
 _atom_site_type_symbol
 _atom_site_label
 _atom_site_symmetry_multiplicity
 _atom_site_fract_x
 _atom_site_fract_y
 _atom_site_fract_z
 _atom_site_occupancy
  Dy  Dy0  1  0.000000  0.000000  0.000000  1
  Lu  Lu1  1  0.479439  0.520561  0.305912  1
  Lu  Lu2  1  0.520561  0.479439  0.694088  1
  Lu  Lu3  1  0.479439  0.958879  0.305912  1
  Lu  Lu4  1  0.520561  0.041121  0.694088  1
  Lu  Lu5  1  0.041121  0.520561  0.305912  1
  Lu  Lu6  1  0.958879  0.479439  0.694088  1
  Co  Co7  1  0.831771  0.168229  0.197856  1
  Co  Co8  1  0.168229  0.831771  0.802144  1
  Co  Co9  1  0.831771  0.663540  0.197856  1
  Co  Co10  1  0.168229  0.336460  0.802144  1
  Co  Co11  1  0.336460  0.168229  0.197856  1
  Co  Co12  1  0.663540  0.831771  0.802144  1
  Sn  Sn13  1  0.346425  0.000000  0.000000  1
  Sn  Sn14  1  0.653575  0.000000  0.000000  1
  Sn  Sn15  1  0.000000  0.346425  0.000000  1
  Sn  Sn16  1  0.000000  0.653575  0.000000  1
  Sn  Sn17  1  0.653575  0.653575  0.000000  1
  Sn  Sn18  1  0.346425  0.346425  0.000000  1
  Sn  Sn19  1  0.333333  0.666667  0.817040  1
  Sn  Sn20  1  0.666667  0.333333  0.182960  1
  Sn  Sn21  1  0.000000  0.000000  0.500000  1
  Sn  Sn22  1  0.780788  0.219212  0.452541  1
  Sn  Sn23  1  0.219212  0.780788  0.547459  1
  Sn  Sn24  1  0.780788  0.561575  0.452541  1
  Sn  Sn25  1  0.219212  0.438425  0.547459  1
  Sn  Sn26  1  0.438425  0.219212  0.452541  1
  Sn  Sn27  1  0.561575  0.780788  0.547459  1
  Sn  Sn28  1  0.333333  0.666667  0.121012  1
  Sn  Sn29  1  0.666667  0.333333  0.878988  1
  Sn  Sn30  1  0.118925  0.881075  0.275139  1
  Sn  Sn31  1  0.881075  0.118925  0.724861  1
  Sn  Sn32  1  0.118925  0.237851  0.275139  1
  Sn  Sn33  1  0.881075  0.762149  0.724861  1
  Sn  Sn34  1  0.762149  0.881075  0.275139  1
  Sn  Sn35  1  0.237851  0.118925  0.724861  1
