# generated using pymatgen
data_Sm3HoGa4CoRu3
_symmetry_space_group_name_H-M   'P 1'
_cell_length_a   4.53742800
_cell_length_b   7.08720970
_cell_length_c   7.25859878
_cell_angle_alpha   89.87525456
_cell_angle_beta   90.00000000
_cell_angle_gamma   90.00000000
_symmetry_Int_Tables_number   1
_chemical_formula_structural   Sm3HoGa4CoRu3
_chemical_formula_sum   'Sm3 Ho1 Ga4 Co1 Ru3'
_cell_volume   233.41931597
_cell_formula_units_Z   1
loop_
 _symmetry_equiv_pos_site_id
 _symmetry_equiv_pos_as_xyz
  1  'x, y, z'
loop_
 _atom_site_type_symbol
 _atom_site_label
 _atom_site_symmetry_multiplicity
 _atom_site_fract_x
 _atom_site_fract_y
 _atom_site_fract_z
 _atom_site_occupancy
  Sm  Sm0  1  0.250000  0.305685  0.524521  1
  Sm  Sm1  1  0.750000  0.695049  0.477459  1
  Sm  Sm2  1  0.750000  0.805308  0.982888  1
  Ho  Ho3  1  0.250000  0.198734  0.025085  1
  Ga  Ga4  1  0.250000  0.896546  0.697767  1
  Ga  Ga5  1  0.250000  0.598700  0.191908  1
  Ga  Ga6  1  0.750000  0.113343  0.298195  1
  Ga  Ga7  1  0.750000  0.390135  0.813850  1
  Co  Co8  1  0.750000  0.434185  0.151504  1
  Ru  Ru9  1  0.250000  0.937063  0.339964  1
  Ru  Ru10  1  0.250000  0.560662  0.842833  1
  Ru  Ru11  1  0.750000  0.064592  0.654027  1
