# generated using pymatgen
data_Sr2Yb(LuSi2)2
_symmetry_space_group_name_H-M   'P 1'
_cell_length_a   7.49357700
_cell_length_b   7.92364200
_cell_length_c   15.26566900
_cell_angle_alpha   90.00000000
_cell_angle_beta   90.00000000
_cell_angle_gamma   90.00000000
_symmetry_Int_Tables_number   1
_chemical_formula_structural   Sr2Yb(LuSi2)2
_chemical_formula_sum   'Sr8 Yb4 Lu8 Si16'
_cell_volume   906.42079622
_cell_formula_units_Z   4
loop_
 _symmetry_equiv_pos_site_id
 _symmetry_equiv_pos_as_xyz
  1  'x, y, z'
loop_
 _atom_site_type_symbol
 _atom_site_label
 _atom_site_symmetry_multiplicity
 _atom_site_fract_x
 _atom_site_fract_y
 _atom_site_fract_z
 _atom_site_occupancy
  Sr  Sr0  1  0.977467  0.822687  0.403720  1
  Sr  Sr1  1  0.477467  0.677313  0.096280  1
  Sr  Sr2  1  0.522533  0.322687  0.596280  1
  Sr  Sr3  1  0.022533  0.177313  0.903720  1
  Sr  Sr4  1  0.022533  0.177313  0.596280  1
  Sr  Sr5  1  0.522533  0.322687  0.903720  1
  Sr  Sr6  1  0.477467  0.677313  0.403720  1
  Sr  Sr7  1  0.977467  0.822687  0.096280  1
  Yb  Yb8  1  0.352151  0.014588  0.750000  1
  Yb  Yb9  1  0.852151  0.485412  0.750000  1
  Yb  Yb10  1  0.147849  0.514588  0.250000  1
  Yb  Yb11  1  0.647849  0.985412  0.250000  1
  Lu  Lu12  1  0.316971  0.177544  0.121905  1
  Lu  Lu13  1  0.816971  0.322456  0.378095  1
  Lu  Lu14  1  0.183029  0.677544  0.878095  1
  Lu  Lu15  1  0.683029  0.822456  0.621905  1
  Lu  Lu16  1  0.316971  0.177544  0.378095  1
  Lu  Lu17  1  0.816971  0.322456  0.121905  1
  Lu  Lu18  1  0.183029  0.677544  0.621905  1
  Lu  Lu19  1  0.683029  0.822456  0.878095  1
  Si  Si20  1  0.860287  0.537700  0.538472  1
  Si  Si21  1  0.360287  0.962300  0.961528  1
  Si  Si22  1  0.639713  0.037700  0.461528  1
  Si  Si23  1  0.139713  0.462300  0.038472  1
  Si  Si24  1  0.139713  0.462300  0.461528  1
  Si  Si25  1  0.639713  0.037700  0.038472  1
  Si  Si26  1  0.360287  0.962300  0.538472  1
  Si  Si27  1  0.860287  0.537700  0.961528  1
  Si  Si28  1  0.974375  0.871914  0.750000  1
  Si  Si29  1  0.474375  0.628086  0.750000  1
  Si  Si30  1  0.525625  0.371914  0.250000  1
  Si  Si31  1  0.025625  0.128086  0.250000  1
  Si  Si32  1  0.245042  0.407700  0.750000  1
  Si  Si33  1  0.745042  0.092300  0.750000  1
  Si  Si34  1  0.254958  0.907700  0.250000  1
  Si  Si35  1  0.754958  0.592300  0.250000  1
