# generated using pymatgen
data_Ho16CdHg3PtRh3
_symmetry_space_group_name_H-M   'P 1'
_cell_length_a   9.58171609
_cell_length_b   9.57124179
_cell_length_c   9.58412025
_cell_angle_alpha   59.97987275
_cell_angle_beta   60.00829764
_cell_angle_gamma   59.96379028
_symmetry_Int_Tables_number   1
_chemical_formula_structural   Ho16CdHg3PtRh3
_chemical_formula_sum   'Ho16 Cd1 Hg3 Pt1 Rh3'
_cell_volume   621.28517326
_cell_formula_units_Z   1
loop_
 _symmetry_equiv_pos_site_id
 _symmetry_equiv_pos_as_xyz
  1  'x, y, z'
loop_
 _atom_site_type_symbol
 _atom_site_label
 _atom_site_symmetry_multiplicity
 _atom_site_fract_x
 _atom_site_fract_y
 _atom_site_fract_z
 _atom_site_occupancy
  Ho  Ho0  1  0.935959  0.936779  0.563235  1
  Ho  Ho1  1  0.563764  0.564408  0.936947  1
  Ho  Ho2  1  0.688843  0.689730  0.311073  1
  Ho  Ho3  1  0.146874  0.557720  0.148531  1
  Ho  Ho4  1  0.691937  0.311386  0.686885  1
  Ho  Ho5  1  0.148978  0.146937  0.150772  1
  Ho  Ho6  1  0.553313  0.146937  0.150772  1
  Ho  Ho7  1  0.688814  0.311828  0.310543  1
  Ho  Ho8  1  0.149689  0.148130  0.552491  1
  Ho  Ho9  1  0.310355  0.689730  0.311073  1
  Ho  Ho10  1  0.309841  0.693152  0.687167  1
  Ho  Ho11  1  0.936305  0.564510  0.562880  1
  Ho  Ho12  1  0.934881  0.564408  0.936947  1
  Ho  Ho13  1  0.564027  0.936779  0.563235  1
  Ho  Ho14  1  0.563788  0.935699  0.936724  1
  Ho  Ho15  1  0.309791  0.311386  0.686885  1
  Cd  Cd16  1  0.919223  0.242087  0.919468  1
  Hg  Hg17  1  0.913781  0.915764  0.256673  1
  Hg  Hg18  1  0.254868  0.916199  0.914514  1
  Hg  Hg19  1  0.914419  0.916199  0.914514  1
  Pt  Pt20  1  0.356838  0.357029  0.929295  1
  Rh  Rh21  1  0.357374  0.928515  0.356736  1
  Rh  Rh22  1  0.929112  0.357343  0.356320  1
  Rh  Rh23  1  0.357224  0.357343  0.356320  1
