# generated using pymatgen
data_Nb2Fe4Si3PW2
_symmetry_space_group_name_H-M   'P 1'
_cell_length_a   3.65064700
_cell_length_b   6.13296352
_cell_length_c   6.93811497
_cell_angle_alpha   89.89543458
_cell_angle_beta   90.00000000
_cell_angle_gamma   90.00000000
_symmetry_Int_Tables_number   1
_chemical_formula_structural   Nb2Fe4Si3PW2
_chemical_formula_sum   'Nb2 Fe4 Si3 P1 W2'
_cell_volume   155.33917384
_cell_formula_units_Z   1
loop_
 _symmetry_equiv_pos_site_id
 _symmetry_equiv_pos_as_xyz
  1  'x, y, z'
loop_
 _atom_site_type_symbol
 _atom_site_label
 _atom_site_symmetry_multiplicity
 _atom_site_fract_x
 _atom_site_fract_y
 _atom_site_fract_z
 _atom_site_occupancy
  Nb  Nb0  1  0.750000  0.482226  0.819934  1
  Nb  Nb1  1  0.750000  0.980038  0.681015  1
  Fe  Fe2  1  0.250000  0.648540  0.565454  1
  Fe  Fe3  1  0.750000  0.357292  0.432457  1
  Fe  Fe4  1  0.750000  0.851743  0.060501  1
  Fe  Fe5  1  0.250000  0.139916  0.939437  1
  Si  Si6  1  0.750000  0.221346  0.120982  1
  Si  Si7  1  0.750000  0.723554  0.377917  1
  Si  Si8  1  0.250000  0.277634  0.614152  1
  P  P9  1  0.250000  0.777368  0.887029  1
  W  W10  1  0.250000  0.520066  0.180227  1
  W  W11  1  0.250000  0.020276  0.320894  1
