# generated using pymatgen
data_Tb5Dy3Re2(TcB12)2
_symmetry_space_group_name_H-M   'P 1'
_cell_length_a   3.69918100
_cell_length_b   9.19218982
_cell_length_c   11.58539301
_cell_angle_alpha   90.06130185
_cell_angle_beta   90.00000000
_cell_angle_gamma   90.00000000
_symmetry_Int_Tables_number   1
_chemical_formula_structural   Tb5Dy3Re2(TcB12)2
_chemical_formula_sum   'Tb5 Dy3 Re2 Tc2 B24'
_cell_volume   393.94454226
_cell_formula_units_Z   1
loop_
 _symmetry_equiv_pos_site_id
 _symmetry_equiv_pos_as_xyz
  1  'x, y, z'
loop_
 _atom_site_type_symbol
 _atom_site_label
 _atom_site_symmetry_multiplicity
 _atom_site_fract_x
 _atom_site_fract_y
 _atom_site_fract_z
 _atom_site_occupancy
  Tb  Tb0  1  0.000000  0.324017  0.413976  1
  Tb  Tb1  1  0.000000  0.675920  0.586124  1
  Tb  Tb2  1  0.000000  0.823643  0.085914  1
  Tb  Tb3  1  0.000000  0.176405  0.914013  1
  Tb  Tb4  1  0.000000  0.942045  0.369783  1
  Dy  Dy5  1  0.000000  0.058156  0.630491  1
  Dy  Dy6  1  0.000000  0.443485  0.130691  1
  Dy  Dy7  1  0.000000  0.556424  0.869246  1
  Re  Re8  1  0.000000  0.139124  0.179214  1
  Re  Re9  1  0.000000  0.861162  0.820505  1
  Tc  Tc10  1  0.000000  0.638307  0.320514  1
  Tc  Tc11  1  0.000000  0.361326  0.679507  1
  B  B12  1  0.500000  0.553494  0.432566  1
  B  B13  1  0.500000  0.446376  0.567497  1
  B  B14  1  0.500000  0.053536  0.067297  1
  B  B15  1  0.500000  0.946504  0.932644  1
  B  B16  1  0.500000  0.748039  0.418174  1
  B  B17  1  0.500000  0.251614  0.581865  1
  B  B18  1  0.500000  0.248929  0.081816  1
  B  B19  1  0.500000  0.751071  0.918181  1
  B  B20  1  0.500000  0.791120  0.265592  1
  B  B21  1  0.500000  0.208618  0.734318  1
  B  B22  1  0.500000  0.291824  0.234400  1
  B  B23  1  0.500000  0.708261  0.765566  1
  B  B24  1  0.500000  0.630872  0.186033  1
  B  B25  1  0.500000  0.369037  0.813885  1
  B  B26  1  0.500000  0.130898  0.313978  1
  B  B27  1  0.500000  0.869359  0.685857  1
  B  B28  1  0.500000  0.982829  0.211677  1
  B  B29  1  0.500000  0.017396  0.788105  1
  B  B30  1  0.500000  0.482909  0.288172  1
  B  B31  1  0.500000  0.517008  0.711809  1
  B  B32  1  0.500000  0.600199  0.027904  1
  B  B33  1  0.500000  0.399791  0.972084  1
  B  B34  1  0.500000  0.100406  0.472095  1
  B  B35  1  0.500000  0.899896  0.528507  1
