# generated using pymatgen
data_Dy8Y2Cd3Os
_symmetry_space_group_name_H-M   'P 1'
_cell_length_a   9.60376801
_cell_length_b   9.60316402
_cell_length_c   9.88386900
_cell_angle_alpha   90.00000000
_cell_angle_beta   90.00000000
_cell_angle_gamma   119.99792379
_symmetry_Int_Tables_number   1
_chemical_formula_structural   Dy8Y2Cd3Os
_chemical_formula_sum   'Dy16 Y4 Cd6 Os2'
_cell_volume   789.44650228
_cell_formula_units_Z   2
loop_
 _symmetry_equiv_pos_site_id
 _symmetry_equiv_pos_as_xyz
  1  'x, y, z'
loop_
 _atom_site_type_symbol
 _atom_site_label
 _atom_site_symmetry_multiplicity
 _atom_site_fract_x
 _atom_site_fract_y
 _atom_site_fract_z
 _atom_site_occupancy
  Dy  Dy0  1  0.000054  0.000027  0.500066  1
  Dy  Dy1  1  0.000054  0.000027  0.999934  1
  Dy  Dy2  1  0.209819  0.790390  0.440234  1
  Dy  Dy3  1  0.209819  0.419429  0.440234  1
  Dy  Dy4  1  0.580584  0.790292  0.440175  1
  Dy  Dy5  1  0.790210  0.209647  0.559709  1
  Dy  Dy6  1  0.790210  0.580563  0.559709  1
  Dy  Dy7  1  0.419511  0.209756  0.559600  1
  Dy  Dy8  1  0.790210  0.209647  0.940291  1
  Dy  Dy9  1  0.790210  0.580563  0.940291  1
  Dy  Dy10  1  0.419511  0.209756  0.940400  1
  Dy  Dy11  1  0.209819  0.790390  0.059766  1
  Dy  Dy12  1  0.209819  0.419429  0.059766  1
  Dy  Dy13  1  0.580584  0.790292  0.059825  1
  Dy  Dy14  1  0.540070  0.459888  0.250000  1
  Dy  Dy15  1  0.540070  0.080181  0.250000  1
  Y  Y16  1  0.919492  0.459746  0.250000  1
  Y  Y17  1  0.459860  0.540126  0.750000  1
  Y  Y18  1  0.459860  0.919733  0.750000  1
  Y  Y19  1  0.080287  0.540143  0.750000  1
  Cd  Cd20  1  0.885431  0.114424  0.250000  1
  Cd  Cd21  1  0.885431  0.771009  0.250000  1
  Cd  Cd22  1  0.229061  0.114531  0.250000  1
  Cd  Cd23  1  0.114462  0.885492  0.750000  1
  Cd  Cd24  1  0.114462  0.228968  0.750000  1
  Cd  Cd25  1  0.771033  0.885515  0.750000  1
  Os  Os26  1  0.333435  0.666718  0.250000  1
  Os  Os27  1  0.666635  0.333317  0.750000  1
