# generated using pymatgen
data_Tb3Yb3Mn2(RuC6)2
_symmetry_space_group_name_H-M   'P 1'
_cell_length_a   8.25125025
_cell_length_b   8.25759650
_cell_length_c   5.00461300
_cell_angle_alpha   90.00000000
_cell_angle_beta   90.00000000
_cell_angle_gamma   120.11295291
_symmetry_Int_Tables_number   1
_chemical_formula_structural   Tb3Yb3Mn2(RuC6)2
_chemical_formula_sum   'Tb3 Yb3 Mn2 Ru2 C12'
_cell_volume   294.97085888
_cell_formula_units_Z   1
loop_
 _symmetry_equiv_pos_site_id
 _symmetry_equiv_pos_as_xyz
  1  'x, y, z'
loop_
 _atom_site_type_symbol
 _atom_site_label
 _atom_site_symmetry_multiplicity
 _atom_site_fract_x
 _atom_site_fract_y
 _atom_site_fract_z
 _atom_site_occupancy
  Tb  Tb0  1  0.308942  0.932485  0.750000  1
  Tb  Tb1  1  0.066504  0.379869  0.750000  1
  Tb  Tb2  1  0.379856  0.313409  0.250000  1
  Yb  Yb3  1  0.619308  0.690691  0.750000  1
  Yb  Yb4  1  0.926927  0.619137  0.250000  1
  Yb  Yb5  1  0.687026  0.069622  0.250000  1
  Mn  Mn6  1  0.997327  0.998184  0.500274  1
  Mn  Mn7  1  0.997327  0.998184  0.999726  1
  Ru  Ru8  1  0.667265  0.331608  0.750000  1
  Ru  Ru9  1  0.332004  0.664278  0.250000  1
  C  C10  1  0.960032  0.776048  0.750000  1
  C  C11  1  0.189123  0.964054  0.250000  1
  C  C12  1  0.777622  0.820803  0.250000  1
  C  C13  1  0.223341  0.186786  0.750000  1
  C  C14  1  0.822978  0.042838  0.750000  1
  C  C15  1  0.040179  0.218807  0.250000  1
  C  C16  1  0.869524  0.589270  0.750000  1
  C  C17  1  0.278696  0.866081  0.250000  1
  C  C18  1  0.591805  0.721515  0.250000  1
  C  C19  1  0.412462  0.280683  0.750000  1
  C  C20  1  0.129291  0.406453  0.250000  1
  C  C21  1  0.722460  0.129193  0.750000  1
