# generated using pymatgen
data_Dy16MgIn3Ir4
_symmetry_space_group_name_H-M   'P 1'
_cell_length_a   9.66691611
_cell_length_b   9.67442587
_cell_length_c   9.66970549
_cell_angle_alpha   60.00408441
_cell_angle_beta   60.01860195
_cell_angle_gamma   60.01475295
_symmetry_Int_Tables_number   1
_chemical_formula_structural   Dy16MgIn3Ir4
_chemical_formula_sum   'Dy16 Mg1 In3 Ir4'
_cell_volume   639.63797613
_cell_formula_units_Z   1
loop_
 _symmetry_equiv_pos_site_id
 _symmetry_equiv_pos_as_xyz
  1  'x, y, z'
loop_
 _atom_site_type_symbol
 _atom_site_label
 _atom_site_symmetry_multiplicity
 _atom_site_fract_x
 _atom_site_fract_y
 _atom_site_fract_z
 _atom_site_occupancy
  Dy  Dy0  1  0.348418  0.348122  0.348324  1
  Dy  Dy1  1  0.348531  0.347842  0.955270  1
  Dy  Dy2  1  0.348820  0.955474  0.347732  1
  Dy  Dy3  1  0.951804  0.349848  0.349311  1
  Dy  Dy4  1  0.807988  0.191792  0.192069  1
  Dy  Dy5  1  0.188119  0.810864  0.810960  1
  Dy  Dy6  1  0.188181  0.810845  0.189986  1
  Dy  Dy7  1  0.807861  0.191726  0.808280  1
  Dy  Dy8  1  0.188324  0.189974  0.810893  1
  Dy  Dy9  1  0.807647  0.808546  0.191819  1
  Dy  Dy10  1  0.937920  0.561877  0.562448  1
  Dy  Dy11  1  0.561632  0.939473  0.939374  1
  Dy  Dy12  1  0.561636  0.939590  0.559450  1
  Dy  Dy13  1  0.938044  0.561712  0.937610  1
  Dy  Dy14  1  0.561485  0.559400  0.939512  1
  Dy  Dy15  1  0.937897  0.937503  0.562139  1
  Mg  Mg16  1  0.268172  0.577107  0.577270  1
  In  In17  1  0.582976  0.583570  0.583744  1
  In  In18  1  0.582889  0.583342  0.249925  1
  In  In19  1  0.582890  0.250070  0.583486  1
  Ir  Ir20  1  0.140416  0.141576  0.141236  1
  Ir  Ir21  1  0.140567  0.141740  0.576701  1
  Ir  Ir22  1  0.141102  0.576432  0.141371  1
  Ir  Ir23  1  0.576680  0.141577  0.141090  1
