# generated using pymatgen
data_Zr2AlVTc2
_symmetry_space_group_name_H-M   'P 1'
_cell_length_a   5.14145667
_cell_length_b   5.33425566
_cell_length_c   5.14145813
_cell_angle_alpha   61.20790621
_cell_angle_beta   60.88526784
_cell_angle_gamma   61.20789133
_symmetry_Int_Tables_number   1
_chemical_formula_structural   Zr2AlVTc2
_chemical_formula_sum   'Zr2 Al1 V1 Tc2'
_cell_volume   102.17583684
_cell_formula_units_Z   1
loop_
 _symmetry_equiv_pos_site_id
 _symmetry_equiv_pos_as_xyz
  1  'x, y, z'
loop_
 _atom_site_type_symbol
 _atom_site_label
 _atom_site_symmetry_multiplicity
 _atom_site_fract_x
 _atom_site_fract_y
 _atom_site_fract_z
 _atom_site_occupancy
  Zr  Zr0  1  0.621982  0.634117  0.621982  1
  Zr  Zr1  1  0.378018  0.365883  0.378018  1
  Al  Al2  1  0.000000  0.500000  0.000000  1
  V  V3  1  0.000000  0.000000  0.000000  1
  Tc  Tc4  1  0.500000  0.000000  0.000000  1
  Tc  Tc5  1  0.000000  0.000000  0.500000  1
