# generated using pymatgen
data_Tb7Dy4Y5(InRh)4
_symmetry_space_group_name_H-M   'P 1'
_cell_length_a   9.69299951
_cell_length_b   9.69326600
_cell_length_c   9.70210464
_cell_angle_alpha   60.02302717
_cell_angle_beta   60.02206571
_cell_angle_gamma   60.05055627
_symmetry_Int_Tables_number   1
_chemical_formula_structural   Tb7Dy4Y5(InRh)4
_chemical_formula_sum   'Tb7 Dy4 Y5 In4 Rh4'
_cell_volume   645.04939190
_cell_formula_units_Z   1
loop_
 _symmetry_equiv_pos_site_id
 _symmetry_equiv_pos_as_xyz
  1  'x, y, z'
loop_
 _atom_site_type_symbol
 _atom_site_label
 _atom_site_symmetry_multiplicity
 _atom_site_fract_x
 _atom_site_fract_y
 _atom_site_fract_z
 _atom_site_occupancy
  Tb  Tb0  1  0.689928  0.310414  0.310502  1
  Tb  Tb1  1  0.689593  0.689622  0.311064  1
  Tb  Tb2  1  0.310199  0.690044  0.310580  1
  Tb  Tb3  1  0.937211  0.937118  0.562075  1
  Tb  Tb4  1  0.147780  0.147829  0.551747  1
  Tb  Tb5  1  0.560135  0.938112  0.560514  1
  Tb  Tb6  1  0.152311  0.152500  0.152437  1
  Dy  Dy7  1  0.147886  0.551527  0.147959  1
  Dy  Dy8  1  0.311047  0.689045  0.689892  1
  Dy  Dy9  1  0.689058  0.310901  0.689942  1
  Dy  Dy10  1  0.551648  0.147867  0.147831  1
  Y  Y11  1  0.309872  0.310227  0.690832  1
  Y  Y12  1  0.937959  0.559857  0.560533  1
  Y  Y13  1  0.560098  0.559841  0.938118  1
  Y  Y14  1  0.561673  0.937327  0.937403  1
  Y  Y15  1  0.937619  0.561367  0.937361  1
  In  In16  1  0.918182  0.917783  0.248316  1
  In  In17  1  0.249225  0.917879  0.918012  1
  In  In18  1  0.917857  0.249448  0.917767  1
  In  In19  1  0.916543  0.916722  0.916549  1
  Rh  Rh20  1  0.358032  0.358066  0.354327  1
  Rh  Rh21  1  0.926344  0.359845  0.359076  1
  Rh  Rh22  1  0.360099  0.360402  0.928131  1
  Rh  Rh23  1  0.359700  0.926256  0.359028  1
