# generated using pymatgen
data_Lu5(FeTe)2
_symmetry_space_group_name_H-M   'P 1'
_cell_length_a   7.63275681
_cell_length_b   7.63275655
_cell_length_c   14.95685800
_cell_angle_alpha   90.00000000
_cell_angle_beta   90.00000000
_cell_angle_gamma   150.62666516
_symmetry_Int_Tables_number   1
_chemical_formula_structural   Lu5(FeTe)2
_chemical_formula_sum   'Lu10 Fe4 Te4'
_cell_volume   427.40604625
_cell_formula_units_Z   2
loop_
 _symmetry_equiv_pos_site_id
 _symmetry_equiv_pos_as_xyz
  1  'x, y, z'
loop_
 _atom_site_type_symbol
 _atom_site_label
 _atom_site_symmetry_multiplicity
 _atom_site_fract_x
 _atom_site_fract_y
 _atom_site_fract_z
 _atom_site_occupancy
  Lu  Lu0  1  0.961435  0.038565  0.377442  1
  Lu  Lu1  1  0.038565  0.961435  0.622558  1
  Lu  Lu2  1  0.038565  0.961435  0.877442  1
  Lu  Lu3  1  0.961435  0.038565  0.122558  1
  Lu  Lu4  1  0.742162  0.257838  0.631947  1
  Lu  Lu5  1  0.257838  0.742162  0.368053  1
  Lu  Lu6  1  0.257838  0.742162  0.131947  1
  Lu  Lu7  1  0.742162  0.257838  0.868053  1
  Lu  Lu8  1  0.395946  0.604054  0.750000  1
  Lu  Lu9  1  0.604054  0.395946  0.250000  1
  Fe  Fe10  1  0.828881  0.171119  0.250000  1
  Fe  Fe11  1  0.171119  0.828881  0.750000  1
  Fe  Fe12  1  0.406968  0.593032  0.250000  1
  Fe  Fe13  1  0.593032  0.406968  0.750000  1
  Te  Te14  1  0.618930  0.381070  0.038961  1
  Te  Te15  1  0.381070  0.618930  0.961039  1
  Te  Te16  1  0.381070  0.618930  0.538961  1
  Te  Te17  1  0.618930  0.381070  0.461039  1
