# generated using pymatgen
data_Y6Zn4Pd4Pt9
_symmetry_space_group_name_H-M   'P 1'
_cell_length_a   8.27045155
_cell_length_b   8.25880647
_cell_length_c   8.25880664
_cell_angle_alpha   109.35834461
_cell_angle_beta   109.43662799
_cell_angle_gamma   109.43663005
_symmetry_Int_Tables_number   1
_chemical_formula_structural   Y6Zn4Pd4Pt9
_chemical_formula_sum   'Y6 Zn4 Pd4 Pt9'
_cell_volume   435.22485548
_cell_formula_units_Z   1
loop_
 _symmetry_equiv_pos_site_id
 _symmetry_equiv_pos_as_xyz
  1  'x, y, z'
loop_
 _atom_site_type_symbol
 _atom_site_label
 _atom_site_symmetry_multiplicity
 _atom_site_fract_x
 _atom_site_fract_y
 _atom_site_fract_z
 _atom_site_occupancy
  Y  Y0  1  0.699763  0.699723  0.001086  1
  Y  Y1  1  0.299870  0.999143  0.300511  1
  Y  Y2  1  0.999957  0.299973  0.299973  1
  Y  Y3  1  0.299870  0.300511  0.999143  1
  Y  Y4  1  0.699763  0.001086  0.699723  1
  Y  Y5  1  0.001550  0.700503  0.700503  1
  Zn  Zn6  1  0.999363  0.999300  0.499536  1
  Zn  Zn7  1  0.999363  0.499536  0.999300  1
  Zn  Zn8  1  0.500008  0.999963  0.999963  1
  Zn  Zn9  1  0.500066  0.499962  0.499962  1
  Pd  Pd10  1  0.666535  0.333959  0.333959  1
  Pd  Pd11  1  0.666591  0.666055  0.333957  1
  Pd  Pd12  1  0.666591  0.333957  0.666055  1
  Pd  Pd13  1  0.333597  0.666590  0.666590  1
  Pt  Pt14  1  0.333606  0.333618  0.665762  1
  Pt  Pt15  1  0.667185  0.000543  0.333145  1
  Pt  Pt16  1  0.999618  0.666604  0.333209  1
  Pt  Pt17  1  0.667185  0.333145  0.000543  1
  Pt  Pt18  1  0.333606  0.665762  0.333618  1
  Pt  Pt19  1  0.999618  0.333209  0.666604  1
  Pt  Pt20  1  0.333324  0.667338  0.000076  1
  Pt  Pt21  1  0.333324  0.000076  0.667338  1
  Pt  Pt22  1  0.999647  0.999447  0.999447  1
