# generated using pymatgen
data_Ce3(Al2Os)2
_symmetry_space_group_name_H-M   'P 1'
_cell_length_a   9.59874190
_cell_length_b   9.44459985
_cell_length_c   8.74797600
_cell_angle_alpha   90.00000000
_cell_angle_beta   90.00000000
_cell_angle_gamma   119.84200779
_symmetry_Int_Tables_number   1
_chemical_formula_structural   Ce3(Al2Os)2
_chemical_formula_sum   'Ce12 Al16 Os8'
_cell_volume   687.89999124
_cell_formula_units_Z   4
loop_
 _symmetry_equiv_pos_site_id
 _symmetry_equiv_pos_as_xyz
  1  'x, y, z'
loop_
 _atom_site_type_symbol
 _atom_site_label
 _atom_site_symmetry_multiplicity
 _atom_site_fract_x
 _atom_site_fract_y
 _atom_site_fract_z
 _atom_site_occupancy
  Ce  Ce0  1  0.338316  0.015135  0.060878  1
  Ce  Ce1  1  0.661684  0.984865  0.939122  1
  Ce  Ce2  1  0.001661  0.341055  0.053720  1
  Ce  Ce3  1  0.661684  0.984865  0.560878  1
  Ce  Ce4  1  0.001661  0.341055  0.446280  1
  Ce  Ce5  1  0.998339  0.658945  0.946280  1
  Ce  Ce6  1  0.338316  0.015135  0.439122  1
  Ce  Ce7  1  0.998339  0.658945  0.553720  1
  Ce  Ce8  1  0.669665  0.676684  0.063767  1
  Ce  Ce9  1  0.330335  0.323316  0.936233  1
  Ce  Ce10  1  0.330335  0.323316  0.563767  1
  Ce  Ce11  1  0.669665  0.676684  0.436233  1
  Al  Al12  1  0.335603  0.833379  0.750000  1
  Al  Al13  1  0.654700  0.499666  0.750000  1
  Al  Al14  1  0.664397  0.166621  0.250000  1
  Al  Al15  1  0.345300  0.500334  0.250000  1
  Al  Al16  1  0.823780  0.324708  0.750000  1
  Al  Al17  1  0.176220  0.675292  0.250000  1
  Al  Al18  1  0.335991  0.662692  0.504017  1
  Al  Al19  1  0.664009  0.337308  0.495983  1
  Al  Al20  1  0.664009  0.337308  0.004017  1
  Al  Al21  1  0.335991  0.662692  0.995983  1
  Al  Al22  1  0.164206  0.997711  0.750000  1
  Al  Al23  1  0.835794  0.002289  0.250000  1
  Al  Al24  1  0.003504  0.169071  0.750000  1
  Al  Al25  1  0.996496  0.830929  0.250000  1
  Al  Al26  1  0.834926  0.834014  0.750000  1
  Al  Al27  1  0.165074  0.165986  0.250000  1
  Os  Os28  1  0.000000  0.000000  0.500000  1
  Os  Os29  1  0.000000  0.000000  0.000000  1
  Os  Os30  1  0.157994  0.496559  0.750000  1
  Os  Os31  1  0.842006  0.503441  0.250000  1
  Os  Os32  1  0.507080  0.672358  0.750000  1
  Os  Os33  1  0.492564  0.163335  0.750000  1
  Os  Os34  1  0.492920  0.327642  0.250000  1
  Os  Os35  1  0.507436  0.836665  0.250000  1
