# generated using pymatgen
data_Tb7Yb(DyRu2)2
_symmetry_space_group_name_H-M   'P 1'
_cell_length_a   8.52246419
_cell_length_b   8.53296198
_cell_length_c   7.26706029
_cell_angle_alpha   83.61851617
_cell_angle_beta   83.35505102
_cell_angle_gamma   44.02822060
_symmetry_Int_Tables_number   1
_chemical_formula_structural   Tb7Yb(DyRu2)2
_chemical_formula_sum   'Tb7 Yb1 Dy2 Ru4'
_cell_volume   364.52971547
_cell_formula_units_Z   1
loop_
 _symmetry_equiv_pos_site_id
 _symmetry_equiv_pos_as_xyz
  1  'x, y, z'
loop_
 _atom_site_type_symbol
 _atom_site_label
 _atom_site_symmetry_multiplicity
 _atom_site_fract_x
 _atom_site_fract_y
 _atom_site_fract_z
 _atom_site_occupancy
  Tb  Tb0  1  0.205927  0.979933  0.584891  1
  Tb  Tb1  1  0.020624  0.792192  0.915581  1
  Tb  Tb2  1  0.205535  0.360002  0.314370  1
  Tb  Tb3  1  0.638710  0.795197  0.185852  1
  Tb  Tb4  1  0.794888  0.638378  0.687032  1
  Tb  Tb5  1  0.358445  0.207406  0.815246  1
  Tb  Tb6  1  0.978951  0.205494  0.083708  1
  Yb  Yb7  1  0.794069  0.020140  0.417604  1
  Dy  Dy8  1  0.576249  0.423028  0.749885  1
  Dy  Dy9  1  0.425432  0.573902  0.250228  1
  Ru  Ru10  1  0.179905  0.600129  0.576397  1
  Ru  Ru11  1  0.395357  0.823361  0.925754  1
  Ru  Ru12  1  0.825472  0.401918  0.424226  1
  Ru  Ru13  1  0.600435  0.178921  0.069227  1
