# generated using pymatgen
data_Ti10Sn3Ge2Sb3
_symmetry_space_group_name_H-M   'P 1'
_cell_length_a   8.25826900
_cell_length_b   8.25827034
_cell_length_c   5.55883100
_cell_angle_alpha   90.00000000
_cell_angle_beta   90.00000000
_cell_angle_gamma   119.99999865
_symmetry_Int_Tables_number   1
_chemical_formula_structural   Ti10Sn3Ge2Sb3
_chemical_formula_sum   'Ti10 Sn3 Ge2 Sb3'
_cell_volume   328.31613696
_cell_formula_units_Z   1
loop_
 _symmetry_equiv_pos_site_id
 _symmetry_equiv_pos_as_xyz
  1  'x, y, z'
loop_
 _atom_site_type_symbol
 _atom_site_label
 _atom_site_symmetry_multiplicity
 _atom_site_fract_x
 _atom_site_fract_y
 _atom_site_fract_z
 _atom_site_occupancy
  Ti  Ti0  1  0.666667  0.333333  0.498642  1
  Ti  Ti1  1  0.333333  0.666667  0.498642  1
  Ti  Ti2  1  0.333333  0.666667  0.001358  1
  Ti  Ti3  1  0.666667  0.333333  0.001358  1
  Ti  Ti4  1  0.733037  0.733037  0.250000  1
  Ti  Ti5  1  0.266963  0.000000  0.250000  1
  Ti  Ti6  1  0.000000  0.266963  0.250000  1
  Ti  Ti7  1  0.262907  0.262907  0.750000  1
  Ti  Ti8  1  0.737093  0.000000  0.750000  1
  Ti  Ti9  1  0.000000  0.737093  0.750000  1
  Sn  Sn10  1  0.390447  0.390447  0.250000  1
  Sn  Sn11  1  0.609553  0.000000  0.250000  1
  Sn  Sn12  1  0.000000  0.609553  0.250000  1
  Ge  Ge13  1  0.000000  0.000000  0.002680  1
  Ge  Ge14  1  0.000000  0.000000  0.497320  1
  Sb  Sb15  1  0.604578  0.604578  0.750000  1
  Sb  Sb16  1  0.395422  0.000000  0.750000  1
  Sb  Sb17  1  0.000000  0.395422  0.750000  1
