# generated using pymatgen
data_PrSm7Sc12Si15Os
_symmetry_space_group_name_H-M   'P 1'
_cell_length_a   7.18107935
_cell_length_b   7.52908114
_cell_length_c   14.12258871
_cell_angle_alpha   90.05238299
_cell_angle_beta   90.02046581
_cell_angle_gamma   90.19035645
_symmetry_Int_Tables_number   1
_chemical_formula_structural   PrSm7Sc12Si15Os
_chemical_formula_sum   'Pr1 Sm7 Sc12 Si15 Os1'
_cell_volume   763.56041955
_cell_formula_units_Z   1
loop_
 _symmetry_equiv_pos_site_id
 _symmetry_equiv_pos_as_xyz
  1  'x, y, z'
loop_
 _atom_site_type_symbol
 _atom_site_label
 _atom_site_symmetry_multiplicity
 _atom_site_fract_x
 _atom_site_fract_y
 _atom_site_fract_z
 _atom_site_occupancy
  Pr  Pr0  1  0.011198  0.176192  0.095960  1
  Sm  Sm1  1  0.990374  0.828044  0.901934  1
  Sm  Sm2  1  0.487985  0.674781  0.903016  1
  Sm  Sm3  1  0.990323  0.828122  0.597768  1
  Sm  Sm4  1  0.511024  0.325178  0.096543  1
  Sm  Sm5  1  0.011701  0.177660  0.403124  1
  Sm  Sm6  1  0.511307  0.325005  0.403686  1
  Sm  Sm7  1  0.487591  0.674742  0.596718  1
  Sc  Sc8  1  0.153540  0.490373  0.750035  1
  Sc  Sc9  1  0.839165  0.497533  0.250239  1
  Sc  Sc10  1  0.339280  0.003164  0.250305  1
  Sc  Sc11  1  0.669390  0.001644  0.750056  1
  Sc  Sc12  1  0.318284  0.171949  0.627488  1
  Sc  Sc13  1  0.671844  0.825748  0.373934  1
  Sc  Sc14  1  0.171981  0.677551  0.374413  1
  Sc  Sc15  1  0.671814  0.825495  0.126375  1
  Sc  Sc16  1  0.836870  0.318139  0.627648  1
  Sc  Sc17  1  0.318818  0.171936  0.872256  1
  Sc  Sc18  1  0.836425  0.318678  0.872151  1
  Sc  Sc19  1  0.172060  0.677351  0.125933  1
  Si  Si20  1  0.968094  0.878004  0.250651  1
  Si  Si21  1  0.468590  0.618929  0.250176  1
  Si  Si22  1  0.529504  0.385860  0.749878  1
  Si  Si23  1  0.287287  0.874653  0.749854  1
  Si  Si24  1  0.710727  0.124162  0.250965  1
  Si  Si25  1  0.214043  0.377075  0.250874  1
  Si  Si26  1  0.779167  0.622217  0.749911  1
  Si  Si27  1  0.156156  0.468377  0.537112  1
  Si  Si28  1  0.847838  0.537207  0.461267  1
  Si  Si29  1  0.348067  0.964731  0.459907  1
  Si  Si30  1  0.847149  0.539045  0.038238  1
  Si  Si31  1  0.652623  0.034460  0.538462  1
  Si  Si32  1  0.156500  0.470252  0.962191  1
  Si  Si33  1  0.652009  0.034170  0.961204  1
  Si  Si34  1  0.350192  0.963462  0.039692  1
  Os  Os35  1  0.031086  0.118115  0.750038  1
