# generated using pymatgen
data_HfTa2(MoP)3
_symmetry_space_group_name_H-M   'P 1'
_cell_length_a   6.83675500
_cell_length_b   6.86754283
_cell_length_c   3.35971300
_cell_angle_alpha   90.00000000
_cell_angle_beta   90.00000000
_cell_angle_gamma   119.85180615
_symmetry_Int_Tables_number   1
_chemical_formula_structural   HfTa2(MoP)3
_chemical_formula_sum   'Hf1 Ta2 Mo3 P3'
_cell_volume   136.81408239
_cell_formula_units_Z   1
loop_
 _symmetry_equiv_pos_site_id
 _symmetry_equiv_pos_as_xyz
  1  'x, y, z'
loop_
 _atom_site_type_symbol
 _atom_site_label
 _atom_site_symmetry_multiplicity
 _atom_site_fract_x
 _atom_site_fract_y
 _atom_site_fract_z
 _atom_site_occupancy
  Hf  Hf0  1  0.596488  0.000000  0.500000  1
  Ta  Ta1  1  0.999140  0.597580  0.500000  1
  Ta  Ta2  1  0.401560  0.402420  0.500000  1
  Mo  Mo3  1  0.253104  0.000000  0.000000  1
  Mo  Mo4  1  0.746995  0.742954  0.000000  1
  Mo  Mo5  1  0.004041  0.257046  0.000000  1
  P  P6  1  0.667212  0.336321  0.000000  1
  P  P7  1  0.330890  0.663679  0.000000  1
  P  P8  1  0.000571  0.000000  0.500000  1
