# generated using pymatgen
data_TbSmTmTaO7
_symmetry_space_group_name_H-M   'P 1'
_cell_length_a   6.47439897
_cell_length_b   6.47439872
_cell_length_c   7.55749200
_cell_angle_alpha   90.00000000
_cell_angle_beta   90.00000000
_cell_angle_gamma   109.25881964
_symmetry_Int_Tables_number   1
_chemical_formula_structural   TbSmTmTaO7
_chemical_formula_sum   'Tb2 Sm2 Tm2 Ta2 O14'
_cell_volume   299.06541389
_cell_formula_units_Z   2
loop_
 _symmetry_equiv_pos_site_id
 _symmetry_equiv_pos_as_xyz
  1  'x, y, z'
loop_
 _atom_site_type_symbol
 _atom_site_label
 _atom_site_symmetry_multiplicity
 _atom_site_fract_x
 _atom_site_fract_y
 _atom_site_fract_z
 _atom_site_occupancy
  Tb  Tb0  1  0.465620  0.000215  0.250000  1
  Tb  Tb1  1  0.000215  0.465620  0.750000  1
  Sm  Sm2  1  0.509895  0.509895  0.500000  1
  Sm  Sm3  1  0.509895  0.509895  0.000000  1
  Tm  Tm4  1  0.532924  0.001896  0.750000  1
  Tm  Tm5  1  0.001896  0.532924  0.250000  1
  Ta  Ta6  1  0.001051  0.001051  0.500000  1
  Ta  Ta7  1  0.001051  0.001051  0.000000  1
  O  O8  1  0.676022  0.926556  0.471703  1
  O  O9  1  0.926556  0.676022  0.528297  1
  O  O10  1  0.676022  0.926556  0.028297  1
  O  O11  1  0.926556  0.676022  0.971703  1
  O  O12  1  0.317875  0.065736  0.537577  1
  O  O13  1  0.065736  0.317875  0.462423  1
  O  O14  1  0.317875  0.065736  0.962423  1
  O  O15  1  0.065736  0.317875  0.037577  1
  O  O16  1  0.934113  0.066330  0.750000  1
  O  O17  1  0.066330  0.934113  0.250000  1
  O  O18  1  0.370050  0.638834  0.750000  1
  O  O19  1  0.638834  0.370050  0.250000  1
  O  O20  1  0.639348  0.356400  0.750000  1
  O  O21  1  0.356400  0.639348  0.250000  1
