# generated using pymatgen
data_Nd5GdPaO12
_symmetry_space_group_name_H-M   'P 1'
_cell_length_a   6.79187646
_cell_length_b   6.82632681
_cell_length_c   6.82466485
_cell_angle_alpha   99.30231294
_cell_angle_beta   99.03080324
_cell_angle_gamma   99.17767438
_symmetry_Int_Tables_number   1
_chemical_formula_structural   Nd5GdPaO12
_chemical_formula_sum   'Nd5 Gd1 Pa1 O12'
_cell_volume   302.78536714
_cell_formula_units_Z   1
loop_
 _symmetry_equiv_pos_site_id
 _symmetry_equiv_pos_as_xyz
  1  'x, y, z'
loop_
 _atom_site_type_symbol
 _atom_site_label
 _atom_site_symmetry_multiplicity
 _atom_site_fract_x
 _atom_site_fract_y
 _atom_site_fract_z
 _atom_site_occupancy
  Nd  Nd0  1  0.858210  0.391030  0.694273  1
  Nd  Nd1  1  0.610383  0.304875  0.141729  1
  Nd  Nd2  1  0.305378  0.139821  0.606597  1
  Nd  Nd3  1  0.693833  0.861094  0.392067  1
  Nd  Nd4  1  0.389263  0.695084  0.857641  1
  Gd  Gd5  1  0.141654  0.606283  0.307981  1
  Pa  Pa6  1  0.001979  0.000320  0.002128  1
  O  O7  1  0.929842  0.055077  0.693096  1
  O  O8  1  0.952010  0.312646  0.075723  1
  O  O9  1  0.587465  0.179598  0.436982  1
  O  O10  1  0.831377  0.567194  0.411746  1
  O  O11  1  0.310637  0.068182  0.945008  1
  O  O12  1  0.562493  0.417627  0.824874  1
  O  O13  1  0.428028  0.584662  0.182637  1
  O  O14  1  0.690281  0.931918  0.054892  1
  O  O15  1  0.175811  0.435255  0.575906  1
  O  O16  1  0.408422  0.818747  0.559980  1
  O  O17  1  0.052799  0.690779  0.928381  1
  O  O18  1  0.070136  0.939808  0.308358  1
