# generated using pymatgen
data_YErFe10Ni2P7
_symmetry_space_group_name_H-M   'P 1'
_cell_length_a   9.01859204
_cell_length_b   9.01448081
_cell_length_c   3.62879300
_cell_angle_alpha   90.00000000
_cell_angle_beta   90.00000000
_cell_angle_gamma   120.24626050
_symmetry_Int_Tables_number   1
_chemical_formula_structural   YErFe10Ni2P7
_chemical_formula_sum   'Y1 Er1 Fe10 Ni2 P7'
_cell_volume   254.85269769
_cell_formula_units_Z   1
loop_
 _symmetry_equiv_pos_site_id
 _symmetry_equiv_pos_as_xyz
  1  'x, y, z'
loop_
 _atom_site_type_symbol
 _atom_site_label
 _atom_site_symmetry_multiplicity
 _atom_site_fract_x
 _atom_site_fract_y
 _atom_site_fract_z
 _atom_site_occupancy
  Y  Y0  1  0.999801  0.999718  0.000000  1
  Er  Er1  1  0.335279  0.669293  0.500000  1
  Fe  Fe2  1  0.605814  0.904054  0.000000  1
  Fe  Fe3  1  0.819474  0.213513  0.000000  1
  Fe  Fe4  1  0.783784  0.605244  0.000000  1
  Fe  Fe5  1  0.393271  0.178372  0.000000  1
  Fe  Fe6  1  0.053862  0.286466  0.500000  1
  Fe  Fe7  1  0.714276  0.768035  0.500000  1
  Fe  Fe8  1  0.231901  0.944046  0.500000  1
  Fe  Fe9  1  0.887466  0.456040  0.500000  1
  Fe  Fe10  1  0.541990  0.432056  0.500000  1
  Fe  Fe11  1  0.569098  0.114276  0.500000  1
  Ni  Ni12  1  0.098385  0.701054  0.000000  1
  Ni  Ni13  1  0.299050  0.395912  0.000000  1
  P  P14  1  0.073899  0.440937  0.000000  1
  P  P15  1  0.560209  0.636518  0.000000  1
  P  P16  1  0.373061  0.928371  0.000000  1
  P  P17  1  0.778704  0.045535  0.500000  1
  P  P18  1  0.949992  0.734614  0.500000  1
  P  P19  1  0.264402  0.213405  0.500000  1
  P  P20  1  0.666283  0.332541  0.000000  1
