# generated using pymatgen
data_Lu8Ti11Si16Ru
_symmetry_space_group_name_H-M   'P 1'
_cell_length_a   6.96052543
_cell_length_b   6.96052570
_cell_length_c   12.75086851
_cell_angle_alpha   90.00797414
_cell_angle_beta   89.99202719
_cell_angle_gamma   89.87084556
_symmetry_Int_Tables_number   1
_chemical_formula_structural   Lu8Ti11Si16Ru
_chemical_formula_sum   'Lu8 Ti11 Si16 Ru1'
_cell_volume   617.76417771
_cell_formula_units_Z   1
loop_
 _symmetry_equiv_pos_site_id
 _symmetry_equiv_pos_as_xyz
  1  'x, y, z'
loop_
 _atom_site_type_symbol
 _atom_site_label
 _atom_site_symmetry_multiplicity
 _atom_site_fract_x
 _atom_site_fract_y
 _atom_site_fract_z
 _atom_site_occupancy
  Lu  Lu0  1  0.341065  0.003449  0.467642  1
  Lu  Lu1  1  0.497292  0.841069  0.718300  1
  Lu  Lu2  1  0.499928  0.159040  0.215207  1
  Lu  Lu3  1  0.841069  0.497292  0.281700  1
  Lu  Lu4  1  0.159040  0.499928  0.784793  1
  Lu  Lu5  1  0.657828  0.998979  0.968491  1
  Lu  Lu6  1  0.003449  0.341065  0.532358  1
  Lu  Lu7  1  0.998979  0.657828  0.031509  1
  Ti  Ti8  1  0.174222  0.827731  0.248251  1
  Ti  Ti9  1  0.827731  0.174222  0.751749  1
  Ti  Ti10  1  0.673992  0.673992  0.500000  1
  Ti  Ti11  1  0.149333  0.001778  0.874100  1
  Ti  Ti12  1  0.493004  0.654436  0.124797  1
  Ti  Ti13  1  0.506290  0.350462  0.627584  1
  Ti  Ti14  1  0.654436  0.493004  0.875203  1
  Ti  Ti15  1  0.350462  0.506290  0.372416  1
  Ti  Ti16  1  0.849892  0.995272  0.374439  1
  Ti  Ti17  1  0.001778  0.149333  0.125900  1
  Ti  Ti18  1  0.995272  0.849892  0.625561  1
  Si  Si19  1  0.204132  0.134090  0.683338  1
  Si  Si20  1  0.370724  0.702072  0.932177  1
  Si  Si21  1  0.633018  0.295660  0.432892  1
  Si  Si22  1  0.702072  0.370724  0.067823  1
  Si  Si23  1  0.295660  0.633018  0.567108  1
  Si  Si24  1  0.795267  0.866021  0.182339  1
  Si  Si25  1  0.134090  0.204132  0.316662  1
  Si  Si26  1  0.866021  0.795267  0.817661  1
  Si  Si27  1  0.288506  0.954874  0.064122  1
  Si  Si28  1  0.546478  0.794319  0.315568  1
  Si  Si29  1  0.450172  0.207421  0.817902  1
  Si  Si30  1  0.794319  0.546478  0.684432  1
  Si  Si31  1  0.207421  0.450172  0.182098  1
  Si  Si32  1  0.706622  0.047529  0.565722  1
  Si  Si33  1  0.954874  0.288506  0.935878  1
  Si  Si34  1  0.047529  0.706622  0.434278  1
  Ru  Ru35  1  0.328030  0.328030  0.000000  1
