# generated using pymatgen
data_TbDy(SiTc2)4
_symmetry_space_group_name_H-M   'P 1'
_cell_length_a   7.36391105
_cell_length_b   7.36391105
_cell_length_c   4.13733200
_cell_angle_alpha   90.00000000
_cell_angle_beta   90.00000000
_cell_angle_gamma   89.91449100
_symmetry_Int_Tables_number   1
_chemical_formula_structural   TbDy(SiTc2)4
_chemical_formula_sum   'Tb1 Dy1 Si4 Tc8'
_cell_volume   224.35562187
_cell_formula_units_Z   1
loop_
 _symmetry_equiv_pos_site_id
 _symmetry_equiv_pos_as_xyz
  1  'x, y, z'
loop_
 _atom_site_type_symbol
 _atom_site_label
 _atom_site_symmetry_multiplicity
 _atom_site_fract_x
 _atom_site_fract_y
 _atom_site_fract_z
 _atom_site_occupancy
  Tb  Tb0  1  0.500000  0.500000  0.500000  1
  Dy  Dy1  1  0.000000  0.000000  0.000000  1
  Si  Si2  1  0.290649  0.290649  0.000000  1
  Si  Si3  1  0.709351  0.709351  0.000000  1
  Si  Si4  1  0.791142  0.208858  0.500000  1
  Si  Si5  1  0.208858  0.791142  0.500000  1
  Tc  Tc6  1  0.593548  0.155804  0.000000  1
  Tc  Tc7  1  0.406452  0.844196  0.000000  1
  Tc  Tc8  1  0.656584  0.907071  0.500000  1
  Tc  Tc9  1  0.092929  0.343416  0.500000  1
  Tc  Tc10  1  0.343416  0.092929  0.500000  1
  Tc  Tc11  1  0.907071  0.656584  0.500000  1
  Tc  Tc12  1  0.155804  0.593548  0.000000  1
  Tc  Tc13  1  0.844196  0.406452  0.000000  1
