# generated using pymatgen
data_Ca4Ho2SbRuO12
_symmetry_space_group_name_H-M   'P 1'
_cell_length_a   5.81838068
_cell_length_b   5.61762471
_cell_length_c   9.80185849
_cell_angle_alpha   55.48664908
_cell_angle_beta   89.62515629
_cell_angle_gamma   89.97713743
_symmetry_Int_Tables_number   1
_chemical_formula_structural   Ca4Ho2SbRuO12
_chemical_formula_sum   'Ca4 Ho2 Sb1 Ru1 O12'
_cell_volume   263.98219513
_cell_formula_units_Z   1
loop_
 _symmetry_equiv_pos_site_id
 _symmetry_equiv_pos_as_xyz
  1  'x, y, z'
loop_
 _atom_site_type_symbol
 _atom_site_label
 _atom_site_symmetry_multiplicity
 _atom_site_fract_x
 _atom_site_fract_y
 _atom_site_fract_z
 _atom_site_occupancy
  Ca  Ca0  1  0.551118  0.739606  0.744538  1
  Ca  Ca1  1  0.056791  0.269439  0.744997  1
  Ca  Ca2  1  0.943209  0.730561  0.255003  1
  Ca  Ca3  1  0.448882  0.260394  0.255462  1
  Ho  Ho4  1  0.000000  0.000000  0.500000  1
  Ho  Ho5  1  0.500000  0.000000  0.000000  1
  Sb  Sb6  1  0.000000  0.500000  0.000000  1
  Ru  Ru7  1  0.500000  0.500000  0.500000  1
  O  O8  1  0.542782  0.840314  0.266840  1
  O  O9  1  0.044261  0.153809  0.234992  1
  O  O10  1  0.457218  0.159686  0.733160  1
  O  O11  1  0.955739  0.846191  0.765008  1
  O  O12  1  0.783951  0.623516  0.557427  1
  O  O13  1  0.287696  0.383600  0.935990  1
  O  O14  1  0.216049  0.376484  0.442573  1
  O  O15  1  0.712304  0.616400  0.064010  1
  O  O16  1  0.186443  0.731014  0.057724  1
  O  O17  1  0.688025  0.266821  0.447537  1
  O  O18  1  0.813557  0.268986  0.942276  1
  O  O19  1  0.311975  0.733179  0.552463  1
