# generated using pymatgen
data_HfZr3Pt2C
_symmetry_space_group_name_H-M   'P 1'
_cell_length_a   8.90275166
_cell_length_b   8.90275121
_cell_length_c   8.90275200
_cell_angle_alpha   59.99999706
_cell_angle_beta   59.99999873
_cell_angle_gamma   60.00000392
_symmetry_Int_Tables_number   1
_chemical_formula_structural   HfZr3Pt2C
_chemical_formula_sum   'Hf4 Zr12 Pt8 C4'
_cell_volume   498.95085675
_cell_formula_units_Z   4
loop_
 _symmetry_equiv_pos_site_id
 _symmetry_equiv_pos_as_xyz
  1  'x, y, z'
loop_
 _atom_site_type_symbol
 _atom_site_label
 _atom_site_symmetry_multiplicity
 _atom_site_fract_x
 _atom_site_fract_y
 _atom_site_fract_z
 _atom_site_occupancy
  Hf  Hf0  1  0.125000  0.625000  0.625000  1
  Hf  Hf1  1  0.625000  0.125000  0.625000  1
  Hf  Hf2  1  0.625000  0.625000  0.125000  1
  Hf  Hf3  1  0.625000  0.625000  0.625000  1
  Zr  Zr4  1  0.816623  0.816623  0.183377  1
  Zr  Zr5  1  0.183377  0.183377  0.816623  1
  Zr  Zr6  1  0.816623  0.183377  0.816623  1
  Zr  Zr7  1  0.183377  0.816623  0.183377  1
  Zr  Zr8  1  0.183377  0.816623  0.816623  1
  Zr  Zr9  1  0.816623  0.183377  0.183377  1
  Zr  Zr10  1  0.433377  0.433377  0.066623  1
  Zr  Zr11  1  0.066623  0.066623  0.433377  1
  Zr  Zr12  1  0.433377  0.066623  0.433377  1
  Zr  Zr13  1  0.066623  0.433377  0.066623  1
  Zr  Zr14  1  0.066623  0.433377  0.433377  1
  Zr  Zr15  1  0.433377  0.066623  0.066623  1
  Pt  Pt16  1  0.769423  0.410193  0.410193  1
  Pt  Pt17  1  0.410193  0.769423  0.410193  1
  Pt  Pt18  1  0.410193  0.410193  0.769423  1
  Pt  Pt19  1  0.410193  0.410193  0.410193  1
  Pt  Pt20  1  0.480577  0.839807  0.839807  1
  Pt  Pt21  1  0.839807  0.480577  0.839807  1
  Pt  Pt22  1  0.839807  0.839807  0.480577  1
  Pt  Pt23  1  0.839807  0.839807  0.839807  1
  C  C24  1  0.625000  0.125000  0.125000  1
  C  C25  1  0.125000  0.625000  0.125000  1
  C  C26  1  0.125000  0.125000  0.625000  1
  C  C27  1  0.125000  0.125000  0.125000  1
