# generated using pymatgen
data_Nd4Al18ZnRh5
_symmetry_space_group_name_H-M   'P 1'
_cell_length_a   7.65662956
_cell_length_b   7.65662982
_cell_length_c   9.61534811
_cell_angle_alpha   89.99156933
_cell_angle_beta   89.99157172
_cell_angle_gamma   119.47197548
_symmetry_Int_Tables_number   1
_chemical_formula_structural   Nd4Al18ZnRh5
_chemical_formula_sum   'Nd4 Al18 Zn1 Rh5'
_cell_volume   490.74645268
_cell_formula_units_Z   1
loop_
 _symmetry_equiv_pos_site_id
 _symmetry_equiv_pos_as_xyz
  1  'x, y, z'
loop_
 _atom_site_type_symbol
 _atom_site_label
 _atom_site_symmetry_multiplicity
 _atom_site_fract_x
 _atom_site_fract_y
 _atom_site_fract_z
 _atom_site_occupancy
  Nd  Nd0  1  0.995244  0.675639  0.747901  1
  Nd  Nd1  1  0.004756  0.324361  0.252099  1
  Nd  Nd2  1  0.675639  0.995244  0.747901  1
  Nd  Nd3  1  0.324361  0.004756  0.252099  1
  Al  Al4  1  0.137575  0.137575  0.759106  1
  Al  Al5  1  0.862425  0.862425  0.240894  1
  Al  Al6  1  0.004562  0.345335  0.577735  1
  Al  Al7  1  0.995438  0.654665  0.422265  1
  Al  Al8  1  0.000057  0.664335  0.069719  1
  Al  Al9  1  0.335665  0.999943  0.930281  1
  Al  Al10  1  0.999943  0.335665  0.930281  1
  Al  Al11  1  0.664335  0.000057  0.069719  1
  Al  Al12  1  0.654665  0.995438  0.422265  1
  Al  Al13  1  0.345335  0.004562  0.577735  1
  Al  Al14  1  0.333957  0.333957  0.047330  1
  Al  Al15  1  0.666043  0.666043  0.952670  1
  Al  Al16  1  0.656079  0.656079  0.554939  1
  Al  Al17  1  0.343921  0.343921  0.445061  1
  Al  Al18  1  0.338652  0.548917  0.751816  1
  Al  Al19  1  0.661348  0.451083  0.248184  1
  Al  Al20  1  0.548917  0.338652  0.751816  1
  Al  Al21  1  0.451083  0.661348  0.248184  1
  Zn  Zn22  1  0.000000  0.000000  0.500000  1
  Rh  Rh23  1  0.670981  0.329019  0.500000  1
  Rh  Rh24  1  0.329019  0.670981  0.500000  1
  Rh  Rh25  1  0.329301  0.670699  0.000000  1
  Rh  Rh26  1  0.670699  0.329301  0.000000  1
  Rh  Rh27  1  0.000000  0.000000  0.000000  1
