# generated using pymatgen
data_TmLu9(Tl3S)2
_symmetry_space_group_name_H-M   'P 1'
_cell_length_a   8.92771900
_cell_length_b   8.92771857
_cell_length_c   6.57118000
_cell_angle_alpha   90.00000000
_cell_angle_beta   90.00000000
_cell_angle_gamma   119.95547038
_symmetry_Int_Tables_number   1
_chemical_formula_structural   TmLu9(Tl3S)2
_chemical_formula_sum   'Tm1 Lu9 Tl6 S2'
_cell_volume   453.78454068
_cell_formula_units_Z   1
loop_
 _symmetry_equiv_pos_site_id
 _symmetry_equiv_pos_as_xyz
  1  'x, y, z'
loop_
 _atom_site_type_symbol
 _atom_site_label
 _atom_site_symmetry_multiplicity
 _atom_site_fract_x
 _atom_site_fract_y
 _atom_site_fract_z
 _atom_site_occupancy
  Tm  Tm0  1  0.757435  0.757435  0.750000  1
  Lu  Lu1  1  0.666449  0.332930  0.000139  1
  Lu  Lu2  1  0.332930  0.666449  0.000139  1
  Lu  Lu3  1  0.332930  0.666449  0.499861  1
  Lu  Lu4  1  0.666449  0.332930  0.499861  1
  Lu  Lu5  1  0.242212  0.999493  0.750000  1
  Lu  Lu6  1  0.999493  0.242212  0.750000  1
  Lu  Lu7  1  0.243263  0.243263  0.250000  1
  Lu  Lu8  1  0.757493  0.000137  0.250000  1
  Lu  Lu9  1  0.000137  0.757493  0.250000  1
  Tl  Tl10  1  0.398805  0.398805  0.750000  1
  Tl  Tl11  1  0.600323  0.000520  0.750000  1
  Tl  Tl12  1  0.000520  0.600323  0.750000  1
  Tl  Tl13  1  0.600944  0.600944  0.250000  1
  Tl  Tl14  1  0.399175  0.999917  0.250000  1
  Tl  Tl15  1  0.999917  0.399175  0.250000  1
  S  S16  1  0.000762  0.000762  0.000663  1
  S  S17  1  0.000762  0.000762  0.499337  1
