# generated using pymatgen
data_Y9Th3Tc3Ir
_symmetry_space_group_name_H-M   'P 1'
_cell_length_a   6.43877933
_cell_length_b   7.33963894
_cell_length_c   9.49274700
_cell_angle_alpha   90.00000000
_cell_angle_beta   90.00000000
_cell_angle_gamma   89.52734095
_symmetry_Int_Tables_number   1
_chemical_formula_structural   Y9Th3Tc3Ir
_chemical_formula_sum   'Y9 Th3 Tc3 Ir1'
_cell_volume   448.59596833
_cell_formula_units_Z   1
loop_
 _symmetry_equiv_pos_site_id
 _symmetry_equiv_pos_as_xyz
  1  'x, y, z'
loop_
 _atom_site_type_symbol
 _atom_site_label
 _atom_site_symmetry_multiplicity
 _atom_site_fract_x
 _atom_site_fract_y
 _atom_site_fract_z
 _atom_site_occupancy
  Y  Y0  1  0.868338  0.538516  0.250000  1
  Y  Y1  1  0.167464  0.175578  0.066154  1
  Y  Y2  1  0.827270  0.823950  0.934429  1
  Y  Y3  1  0.668045  0.325866  0.935065  1
  Y  Y4  1  0.827270  0.823950  0.565571  1
  Y  Y5  1  0.330389  0.676423  0.068008  1
  Y  Y6  1  0.167464  0.175578  0.433846  1
  Y  Y7  1  0.330389  0.676423  0.431992  1
  Y  Y8  1  0.668045  0.325866  0.564935  1
  Th  Th9  1  0.644350  0.053294  0.250000  1
  Th  Th10  1  0.353614  0.947922  0.750000  1
  Th  Th11  1  0.138417  0.451158  0.750000  1
  Tc  Tc12  1  0.474807  0.367344  0.250000  1
  Tc  Tc13  1  0.510552  0.626783  0.750000  1
  Tc  Tc14  1  0.985158  0.128471  0.750000  1
  Ir  Ir15  1  0.038428  0.882875  0.250000  1
