# generated using pymatgen
data_HfZr2Pa2FeSb3
_symmetry_space_group_name_H-M   'P 1'
_cell_length_a   8.92592153
_cell_length_b   8.92592065
_cell_length_c   5.89540900
_cell_angle_alpha   90.00000000
_cell_angle_beta   90.00000000
_cell_angle_gamma   121.58887224
_symmetry_Int_Tables_number   1
_chemical_formula_structural   HfZr2Pa2FeSb3
_chemical_formula_sum   'Hf2 Zr4 Pa4 Fe2 Sb6'
_cell_volume   400.10344150
_cell_formula_units_Z   2
loop_
 _symmetry_equiv_pos_site_id
 _symmetry_equiv_pos_as_xyz
  1  'x, y, z'
loop_
 _atom_site_type_symbol
 _atom_site_label
 _atom_site_symmetry_multiplicity
 _atom_site_fract_x
 _atom_site_fract_y
 _atom_site_fract_z
 _atom_site_occupancy
  Hf  Hf0  1  0.743762  0.010294  0.250000  1
  Hf  Hf1  1  0.010294  0.743762  0.250000  1
  Zr  Zr2  1  0.666152  0.336283  0.000104  1
  Zr  Zr3  1  0.336283  0.666152  0.000104  1
  Zr  Zr4  1  0.336283  0.666152  0.499896  1
  Zr  Zr5  1  0.666152  0.336283  0.499896  1
  Pa  Pa6  1  0.769617  0.769617  0.750000  1
  Pa  Pa7  1  0.246014  0.001857  0.750000  1
  Pa  Pa8  1  0.001857  0.246014  0.750000  1
  Pa  Pa9  1  0.224754  0.224754  0.250000  1
  Fe  Fe10  1  0.993260  0.993260  0.014867  1
  Fe  Fe11  1  0.993260  0.993260  0.485133  1
  Sb  Sb12  1  0.403889  0.403889  0.750000  1
  Sb  Sb13  1  0.601014  0.001848  0.750000  1
  Sb  Sb14  1  0.001848  0.601014  0.750000  1
  Sb  Sb15  1  0.614907  0.614907  0.250000  1
  Sb  Sb16  1  0.395972  0.994681  0.250000  1
  Sb  Sb17  1  0.994681  0.395972  0.250000  1
