# generated using pymatgen
data_Hf12BeTc5Os6
_symmetry_space_group_name_H-M   'P 1'
_cell_length_a   4.59186200
_cell_length_b   6.51567900
_cell_length_c   13.78482300
_cell_angle_alpha   90.00000000
_cell_angle_beta   90.00009979
_cell_angle_gamma   90.00000000
_symmetry_Int_Tables_number   1
_chemical_formula_structural   Hf12BeTc5Os6
_chemical_formula_sum   'Hf12 Be1 Tc5 Os6'
_cell_volume   412.42948134
_cell_formula_units_Z   1
loop_
 _symmetry_equiv_pos_site_id
 _symmetry_equiv_pos_as_xyz
  1  'x, y, z'
loop_
 _atom_site_type_symbol
 _atom_site_label
 _atom_site_symmetry_multiplicity
 _atom_site_fract_x
 _atom_site_fract_y
 _atom_site_fract_z
 _atom_site_occupancy
  Hf  Hf0  1  0.500000  0.252577  0.000000  1
  Hf  Hf1  1  0.500000  0.747424  0.000000  1
  Hf  Hf2  1  0.000002  0.251316  0.167181  1
  Hf  Hf3  1  0.000002  0.748685  0.167181  1
  Hf  Hf4  1  0.500002  0.250147  0.333534  1
  Hf  Hf5  1  0.500002  0.749853  0.333534  1
  Hf  Hf6  1  0.000000  0.250335  0.500000  1
  Hf  Hf7  1  0.000000  0.749665  0.500000  1
  Hf  Hf8  1  0.499998  0.250147  0.666466  1
  Hf  Hf9  1  0.499998  0.749853  0.666466  1
  Hf  Hf10  1  0.999998  0.251316  0.832819  1
  Hf  Hf11  1  0.999998  0.748685  0.832819  1
  Be  Be12  1  0.000000  0.000000  0.000000  1
  Tc  Tc13  1  0.500004  0.500000  0.165899  1
  Tc  Tc14  1  0.000002  0.000000  0.331340  1
  Tc  Tc15  1  0.500000  0.500000  0.500000  1
  Tc  Tc16  1  0.999998  0.000000  0.668660  1
  Tc  Tc17  1  0.499996  0.500000  0.834101  1
  Os  Os18  1  0.000000  0.500000  0.000000  1
  Os  Os19  1  0.500000  0.000000  0.162188  1
  Os  Os20  1  0.000002  0.500000  0.332495  1
  Os  Os21  1  0.500000  0.000000  0.500000  1
  Os  Os22  1  0.999998  0.500000  0.667505  1
  Os  Os23  1  0.500000  0.000000  0.837812  1
