# generated using pymatgen
data_Tb2DyHoNi13C4
_symmetry_space_group_name_H-M   'P 1'
_cell_length_a   8.38380624
_cell_length_b   8.38380554
_cell_length_c   3.84919800
_cell_angle_alpha   90.00000000
_cell_angle_beta   90.00000000
_cell_angle_gamma   91.10422127
_symmetry_Int_Tables_number   1
_chemical_formula_structural   Tb2DyHoNi13C4
_chemical_formula_sum   'Tb2 Dy1 Ho1 Ni13 C4'
_cell_volume   270.50296066
_cell_formula_units_Z   1
loop_
 _symmetry_equiv_pos_site_id
 _symmetry_equiv_pos_as_xyz
  1  'x, y, z'
loop_
 _atom_site_type_symbol
 _atom_site_label
 _atom_site_symmetry_multiplicity
 _atom_site_fract_x
 _atom_site_fract_y
 _atom_site_fract_z
 _atom_site_occupancy
  Tb  Tb0  1  0.651819  0.651324  0.500000  1
  Tb  Tb1  1  0.348676  0.348181  0.500000  1
  Dy  Dy2  1  0.186959  0.813041  0.500000  1
  Ho  Ho3  1  0.812699  0.187301  0.500000  1
  Ni  Ni4  1  0.501163  0.000015  0.500000  1
  Ni  Ni5  1  0.999985  0.498837  0.500000  1
  Ni  Ni6  1  0.999439  0.000561  0.000000  1
  Ni  Ni7  1  0.430757  0.784162  0.000000  1
  Ni  Ni8  1  0.569904  0.215260  0.000000  1
  Ni  Ni9  1  0.215838  0.569243  0.000000  1
  Ni  Ni10  1  0.784740  0.430096  0.000000  1
  Ni  Ni11  1  0.709026  0.927048  0.000000  1
  Ni  Ni12  1  0.290636  0.073787  0.000000  1
  Ni  Ni13  1  0.072952  0.290974  0.000000  1
  Ni  Ni14  1  0.926213  0.709364  0.000000  1
  Ni  Ni15  1  0.876432  0.877525  0.500000  1
  Ni  Ni16  1  0.122475  0.123568  0.500000  1
  C  C17  1  0.443288  0.556712  0.000000  1
  C  C18  1  0.557372  0.442628  0.000000  1
  C  C19  1  0.499526  0.999898  0.000000  1
  C  C20  1  0.000102  0.500474  0.000000  1
