# generated using pymatgen
data_RbEu3Ti4O12
_symmetry_space_group_name_H-M   'P 1'
_cell_length_a   5.58975734
_cell_length_b   5.58975691
_cell_length_c   9.66037600
_cell_angle_alpha   73.19848478
_cell_angle_beta   73.19848611
_cell_angle_gamma   60.22041653
_symmetry_Int_Tables_number   1
_chemical_formula_structural   RbEu3Ti4O12
_chemical_formula_sum   'Rb1 Eu3 Ti4 O12'
_cell_volume   246.92327405
_cell_formula_units_Z   1
loop_
 _symmetry_equiv_pos_site_id
 _symmetry_equiv_pos_as_xyz
  1  'x, y, z'
loop_
 _atom_site_type_symbol
 _atom_site_label
 _atom_site_symmetry_multiplicity
 _atom_site_fract_x
 _atom_site_fract_y
 _atom_site_fract_z
 _atom_site_occupancy
  Rb  Rb0  1  0.628779  0.371221  0.000000  1
  Eu  Eu1  1  0.119029  0.880971  0.500000  1
  Eu  Eu2  1  0.386132  0.114283  0.751852  1
  Eu  Eu3  1  0.885717  0.613868  0.248148  1
  Ti  Ti4  1  0.261648  0.988680  0.122798  1
  Ti  Ti5  1  0.752019  0.494646  0.625640  1
  Ti  Ti6  1  0.011320  0.738352  0.877202  1
  Ti  Ti7  1  0.505354  0.247981  0.374360  1
  O  O8  1  0.943953  0.573774  0.737316  1
  O  O9  1  0.426226  0.056047  0.262684  1
  O  O10  1  0.111781  0.888219  0.000000  1
  O  O11  1  0.557804  0.442196  0.500000  1
  O  O12  1  0.644835  0.901418  0.517011  1
  O  O13  1  0.120601  0.386537  0.010080  1
  O  O14  1  0.613463  0.879399  0.989920  1
  O  O15  1  0.098582  0.355165  0.482989  1
  O  O16  1  0.371405  0.669302  0.746875  1
  O  O17  1  0.883804  0.153151  0.269397  1
  O  O18  1  0.330698  0.628595  0.253125  1
  O  O19  1  0.846849  0.116196  0.730603  1
