# generated using pymatgen
data_Y4Co3SiI2
_symmetry_space_group_name_H-M   'P 1'
_cell_length_a   4.00711700
_cell_length_b   4.00711628
_cell_length_c   16.93487100
_cell_angle_alpha   90.00000000
_cell_angle_beta   90.00000000
_cell_angle_gamma   120.00001418
_symmetry_Int_Tables_number   1
_chemical_formula_structural   Y4Co3SiI2
_chemical_formula_sum   'Y4 Co3 Si1 I2'
_cell_volume   235.49214793
_cell_formula_units_Z   1
loop_
 _symmetry_equiv_pos_site_id
 _symmetry_equiv_pos_as_xyz
  1  'x, y, z'
loop_
 _atom_site_type_symbol
 _atom_site_label
 _atom_site_symmetry_multiplicity
 _atom_site_fract_x
 _atom_site_fract_y
 _atom_site_fract_z
 _atom_site_occupancy
  Y  Y0  1  0.000000  0.000000  0.103265  1
  Y  Y1  1  0.000000  0.000000  0.896854  1
  Y  Y2  1  0.000000  0.000000  0.605267  1
  Y  Y3  1  0.000000  0.000000  0.396951  1
  Co  Co4  1  0.666667  0.333333  0.494617  1
  Co  Co5  1  0.666667  0.333333  0.001537  1
  Co  Co6  1  0.333333  0.666667  0.998501  1
  Si  Si7  1  0.333333  0.666667  0.503708  1
  I  I8  1  0.333333  0.666667  0.250491  1
  I  I9  1  0.666667  0.333333  0.748807  1
