# generated using pymatgen
data_Tb4HoCo2Rh
_symmetry_space_group_name_H-M   'P 1'
_cell_length_a   7.14304507
_cell_length_b   7.14304575
_cell_length_c   8.76090533
_cell_angle_alpha   114.05829004
_cell_angle_beta   114.05829144
_cell_angle_gamma   90.00000067
_symmetry_Int_Tables_number   1
_chemical_formula_structural   Tb4HoCo2Rh
_chemical_formula_sum   'Tb8 Ho2 Co4 Rh2'
_cell_volume   365.24101514
_cell_formula_units_Z   2
loop_
 _symmetry_equiv_pos_site_id
 _symmetry_equiv_pos_as_xyz
  1  'x, y, z'
loop_
 _atom_site_type_symbol
 _atom_site_label
 _atom_site_symmetry_multiplicity
 _atom_site_fract_x
 _atom_site_fract_y
 _atom_site_fract_z
 _atom_site_occupancy
  Tb  Tb0  1  0.463411  0.318453  0.281864  1
  Tb  Tb1  1  0.963412  0.463411  0.281864  1
  Tb  Tb2  1  0.318453  0.818452  0.281864  1
  Tb  Tb3  1  0.818452  0.963412  0.281864  1
  Tb  Tb4  1  0.181547  0.036589  0.718135  1
  Tb  Tb5  1  0.681546  0.181547  0.718135  1
  Tb  Tb6  1  0.036589  0.536588  0.718135  1
  Tb  Tb7  1  0.536588  0.681546  0.718135  1
  Ho  Ho8  1  0.000000  0.000000  0.000000  1
  Ho  Ho9  1  0.500000  0.500000  0.000000  1
  Co  Co10  1  0.612513  0.112513  0.000000  1
  Co  Co11  1  0.112513  0.387488  0.000000  1
  Co  Co12  1  0.887487  0.612513  0.000000  1
  Co  Co13  1  0.387488  0.887487  0.000000  1
  Rh  Rh14  1  0.250000  0.250000  0.500000  1
  Rh  Rh15  1  0.750000  0.750000  0.500000  1
