# generated using pymatgen
data_Nd6Ag11O24
_symmetry_space_group_name_H-M   'P 1'
_cell_length_a   6.80589912
_cell_length_b   8.75980658
_cell_length_c   10.79533600
_cell_angle_alpha   113.77278250
_cell_angle_beta   98.42748472
_cell_angle_gamma   89.23081452
_symmetry_Int_Tables_number   1
_chemical_formula_structural   Nd6Ag11O24
_chemical_formula_sum   'Nd6 Ag11 O24'
_cell_volume   581.89031557
_cell_formula_units_Z   1
loop_
 _symmetry_equiv_pos_site_id
 _symmetry_equiv_pos_as_xyz
  1  'x, y, z'
loop_
 _atom_site_type_symbol
 _atom_site_label
 _atom_site_symmetry_multiplicity
 _atom_site_fract_x
 _atom_site_fract_y
 _atom_site_fract_z
 _atom_site_occupancy
  Nd  Nd0  1  0.575477  0.208729  0.671481  1
  Nd  Nd1  1  0.424523  0.791271  0.328519  1
  Nd  Nd2  1  0.925339  0.534318  0.323393  1
  Nd  Nd3  1  0.753237  0.132052  0.000583  1
  Nd  Nd4  1  0.246763  0.867948  0.999417  1
  Nd  Nd5  1  0.074661  0.465682  0.676607  1
  Ag  Ag6  1  0.157934  0.176727  0.839652  1
  Ag  Ag7  1  0.336269  0.829526  0.665949  1
  Ag  Ag8  1  0.000000  0.000000  0.500000  1
  Ag  Ag9  1  0.500000  0.500000  0.000000  1
  Ag  Ag10  1  0.326769  0.331400  0.165518  1
  Ag  Ag11  1  0.837493  0.831904  0.662188  1
  Ag  Ag12  1  0.162507  0.168096  0.337812  1
  Ag  Ag13  1  0.673231  0.668600  0.834482  1
  Ag  Ag14  1  0.500000  0.500000  0.500000  1
  Ag  Ag15  1  0.663731  0.170474  0.334051  1
  Ag  Ag16  1  0.842066  0.823273  0.160348  1
  O  O17  1  0.314897  0.362292  0.818175  1
  O  O18  1  0.305668  0.670136  0.092986  1
  O  O19  1  0.958635  0.196548  0.683086  1
  O  O20  1  0.041365  0.803452  0.316914  1
  O  O21  1  0.694332  0.329864  0.907014  1
  O  O22  1  0.304492  0.976987  0.550893  1
  O  O23  1  0.695508  0.023013  0.449107  1
  O  O24  1  0.685103  0.637708  0.181825  1
  O  O25  1  0.026258  0.327607  0.124950  1
  O  O26  1  0.005353  0.983814  0.849921  1
  O  O27  1  0.295741  0.532220  0.342685  1
  O  O28  1  0.609337  0.973260  0.747779  1
  O  O29  1  0.062966  0.684026  0.578100  1
  O  O30  1  0.363260  0.136531  0.985968  1
  O  O31  1  0.667887  0.685247  0.475664  1
  O  O32  1  0.632525  0.316891  0.216351  1
  O  O33  1  0.994647  0.016186  0.150079  1
  O  O34  1  0.973742  0.672393  0.875050  1
  O  O35  1  0.367475  0.683109  0.783649  1
  O  O36  1  0.937034  0.315974  0.421900  1
  O  O37  1  0.636740  0.863469  0.014032  1
  O  O38  1  0.704259  0.467780  0.657315  1
  O  O39  1  0.390663  0.026740  0.252221  1
  O  O40  1  0.332113  0.314753  0.524336  1
