# generated using pymatgen
data_Lu4GeAs5Rh7
_symmetry_space_group_name_H-M   'P 1'
_cell_length_a   7.22111418
_cell_length_b   7.22210665
_cell_length_c   7.22111543
_cell_angle_alpha   109.44541382
_cell_angle_beta   109.48860292
_cell_angle_gamma   109.47407403
_symmetry_Int_Tables_number   1
_chemical_formula_structural   Lu4GeAs5Rh7
_chemical_formula_sum   'Lu4 Ge1 As5 Rh7'
_cell_volume   289.92142763
_cell_formula_units_Z   1
loop_
 _symmetry_equiv_pos_site_id
 _symmetry_equiv_pos_as_xyz
  1  'x, y, z'
loop_
 _atom_site_type_symbol
 _atom_site_label
 _atom_site_symmetry_multiplicity
 _atom_site_fract_x
 _atom_site_fract_y
 _atom_site_fract_z
 _atom_site_occupancy
  Lu  Lu0  1  0.499752  0.499744  0.499711  1
  Lu  Lu1  1  0.000023  0.000003  0.500283  1
  Lu  Lu2  1  0.499720  0.000003  0.999979  1
  Lu  Lu3  1  0.000032  0.499744  0.999992  1
  Ge  Ge4  1  0.683068  0.683053  0.999985  1
  As  As5  1  0.320783  0.320918  0.000135  1
  As  As6  1  0.998960  0.315634  0.316674  1
  As  As7  1  0.998919  0.682313  0.683395  1
  As  As8  1  0.682309  0.998922  0.683373  1
  As  As9  1  0.315549  0.998922  0.316613  1
  Rh  Rh10  1  0.749389  0.249293  0.499904  1
  Rh  Rh11  1  0.500916  0.250365  0.749449  1
  Rh  Rh12  1  0.500930  0.751467  0.250537  1
  Rh  Rh13  1  0.250316  0.500832  0.749400  1
  Rh  Rh14  1  0.751433  0.500832  0.250516  1
  Rh  Rh15  1  0.249366  0.749411  0.500045  1
  Rh  Rh16  1  0.998530  0.998540  0.000010  1
