# generated using pymatgen
data_HfNbFe12P7
_symmetry_space_group_name_H-M   'P 1'
_cell_length_a   8.84638400
_cell_length_b   8.84638499
_cell_length_c   3.56610600
_cell_angle_alpha   90.00000000
_cell_angle_beta   90.00000000
_cell_angle_gamma   119.99998881
_symmetry_Int_Tables_number   1
_chemical_formula_structural   HfNbFe12P7
_chemical_formula_sum   'Hf1 Nb1 Fe12 P7'
_cell_volume   241.68881468
_cell_formula_units_Z   1
loop_
 _symmetry_equiv_pos_site_id
 _symmetry_equiv_pos_as_xyz
  1  'x, y, z'
loop_
 _atom_site_type_symbol
 _atom_site_label
 _atom_site_symmetry_multiplicity
 _atom_site_fract_x
 _atom_site_fract_y
 _atom_site_fract_z
 _atom_site_occupancy
  Hf  Hf0  1  0.333333  0.666667  0.500000  1
  Nb  Nb1  1  0.000000  0.000000  0.000000  1
  Fe  Fe2  1  0.099817  0.395235  0.000000  1
  Fe  Fe3  1  0.295418  0.900183  0.000000  1
  Fe  Fe4  1  0.604765  0.704582  0.000000  1
  Fe  Fe5  1  0.823152  0.610633  0.000000  1
  Fe  Fe6  1  0.787480  0.176848  0.000000  1
  Fe  Fe7  1  0.389367  0.212520  0.000000  1
  Fe  Fe8  1  0.050528  0.774406  0.500000  1
  Fe  Fe9  1  0.723878  0.949472  0.500000  1
  Fe  Fe10  1  0.225594  0.276122  0.500000  1
  Fe  Fe11  1  0.891681  0.434474  0.500000  1
  Fe  Fe12  1  0.542791  0.108319  0.500000  1
  Fe  Fe13  1  0.565526  0.457209  0.500000  1
  P  P14  1  0.079753  0.630211  0.000000  1
  P  P15  1  0.550458  0.920247  0.000000  1
  P  P16  1  0.369789  0.449542  0.000000  1
  P  P17  1  0.783389  0.739306  0.500000  1
  P  P18  1  0.955917  0.216611  0.500000  1
  P  P19  1  0.260694  0.044083  0.500000  1
  P  P20  1  0.666667  0.333333  0.000000  1
