# generated using pymatgen
data_Sm3HoOsI4
_symmetry_space_group_name_H-M   'P 1'
_cell_length_a   11.10439569
_cell_length_b   11.10439762
_cell_length_c   6.30256615
_cell_angle_alpha   90.07739907
_cell_angle_beta   90.07740517
_cell_angle_gamma   90.38976798
_symmetry_Int_Tables_number   1
_chemical_formula_structural   Sm3HoOsI4
_chemical_formula_sum   'Sm6 Ho2 Os2 I8'
_cell_volume   777.13505392
_cell_formula_units_Z   2
loop_
 _symmetry_equiv_pos_site_id
 _symmetry_equiv_pos_as_xyz
  1  'x, y, z'
loop_
 _atom_site_type_symbol
 _atom_site_label
 _atom_site_symmetry_multiplicity
 _atom_site_fract_x
 _atom_site_fract_y
 _atom_site_fract_z
 _atom_site_occupancy
  Sm  Sm0  1  0.084771  0.208312  0.000665  1
  Sm  Sm1  1  0.208312  0.084771  0.500665  1
  Sm  Sm2  1  0.916615  0.791661  0.998949  1
  Sm  Sm3  1  0.915523  0.208011  0.500115  1
  Sm  Sm4  1  0.208011  0.915523  0.000115  1
  Sm  Sm5  1  0.791661  0.916615  0.498949  1
  Ho  Ho6  1  0.801453  0.079173  0.999377  1
  Ho  Ho7  1  0.079173  0.801453  0.499377  1
  Os  Os8  1  0.000542  0.000555  0.249816  1
  Os  Os9  1  0.000555  0.000542  0.749816  1
  I  I10  1  0.633475  0.154764  0.500894  1
  I  I11  1  0.848795  0.634291  0.499396  1
  I  I12  1  0.367469  0.156708  0.000330  1
  I  I13  1  0.156708  0.367469  0.500330  1
  I  I14  1  0.634291  0.848795  0.999396  1
  I  I15  1  0.359229  0.838654  0.500456  1
  I  I16  1  0.154764  0.633475  0.000894  1
  I  I17  1  0.838654  0.359229  0.000456  1
