# generated using pymatgen
data_Tc6GeAs13
_symmetry_space_group_name_H-M   'P 1'
_cell_length_a   7.62705841
_cell_length_b   7.62700155
_cell_length_c   7.62705877
_cell_angle_alpha   109.76030203
_cell_angle_beta   108.89398426
_cell_angle_gamma   109.76030397
_symmetry_Int_Tables_number   1
_chemical_formula_structural   Tc6GeAs13
_chemical_formula_sum   'Tc6 Ge1 As13'
_cell_volume   341.52017902
_cell_formula_units_Z   1
loop_
 _symmetry_equiv_pos_site_id
 _symmetry_equiv_pos_as_xyz
  1  'x, y, z'
loop_
 _atom_site_type_symbol
 _atom_site_label
 _atom_site_symmetry_multiplicity
 _atom_site_fract_x
 _atom_site_fract_y
 _atom_site_fract_z
 _atom_site_occupancy
  Tc  Tc0  1  0.342505  0.000000  0.342502  1
  Tc  Tc1  1  0.002423  0.339861  0.342281  1
  Tc  Tc2  1  0.002423  0.660139  0.662559  1
  Tc  Tc3  1  0.337441  0.339861  0.997577  1
  Tc  Tc4  1  0.657719  0.660139  0.997577  1
  Tc  Tc5  1  0.657498  0.000000  0.657495  1
  Ge  Ge6  1  0.750000  0.500000  0.250000  1
  As  As7  1  0.500471  0.748853  0.249327  1
  As  As8  1  0.500471  0.251141  0.751616  1
  As  As9  1  0.750673  0.251147  0.499529  1
  As  As10  1  0.248384  0.748859  0.499529  1
  As  As11  1  0.249999  0.500000  0.750001  1
  As  As12  1  0.998938  0.997397  0.329876  1
  As  As13  1  0.670124  0.002603  0.001062  1
  As  As14  1  0.998938  0.669064  0.001544  1
  As  As15  1  0.332477  0.330937  0.329877  1
  As  As16  1  0.998456  0.330936  0.001062  1
  As  As17  1  0.670123  0.669063  0.667523  1
  As  As18  1  0.332478  0.002603  0.001543  1
  As  As19  1  0.998457  0.997397  0.667522  1
