# generated using pymatgen
data_La7Nd9(CdIr)4
_symmetry_space_group_name_H-M   'P 1'
_cell_length_a   10.01749313
_cell_length_b   10.03412845
_cell_length_c   10.07769754
_cell_angle_alpha   59.74691803
_cell_angle_beta   60.32443485
_cell_angle_gamma   60.34262290
_symmetry_Int_Tables_number   1
_chemical_formula_structural   La7Nd9(CdIr)4
_chemical_formula_sum   'La7 Nd9 Cd4 Ir4'
_cell_volume   718.47281808
_cell_formula_units_Z   1
loop_
 _symmetry_equiv_pos_site_id
 _symmetry_equiv_pos_as_xyz
  1  'x, y, z'
loop_
 _atom_site_type_symbol
 _atom_site_label
 _atom_site_symmetry_multiplicity
 _atom_site_fract_x
 _atom_site_fract_y
 _atom_site_fract_z
 _atom_site_occupancy
  La  La0  1  0.346255  0.347539  0.349819  1
  La  La1  1  0.349196  0.345437  0.956305  1
  La  La2  1  0.349819  0.956387  0.346255  1
  La  La3  1  0.956305  0.349062  0.349196  1
  La  La4  1  0.810124  0.190505  0.187178  1
  La  La5  1  0.187178  0.812193  0.810124  1
  La  La6  1  0.189331  0.810669  0.189331  1
  Nd  Nd7  1  0.807962  0.192038  0.807962  1
  Nd  Nd8  1  0.190218  0.194788  0.805935  1
  Nd  Nd9  1  0.805935  0.809059  0.190218  1
  Nd  Nd10  1  0.935834  0.564535  0.564048  1
  Nd  Nd11  1  0.564048  0.935583  0.935834  1
  Nd  Nd12  1  0.563426  0.936574  0.563426  1
  Nd  Nd13  1  0.937653  0.562347  0.937653  1
  Nd  Nd14  1  0.562943  0.561008  0.938153  1
  Nd  Nd15  1  0.938153  0.937896  0.562943  1
  Cd  Cd16  1  0.582161  0.580098  0.579639  1
  Cd  Cd17  1  0.582070  0.581245  0.257683  1
  Cd  Cd18  1  0.579639  0.258100  0.582161  1
  Cd  Cd19  1  0.257683  0.579001  0.582070  1
  Ir  Ir20  1  0.138986  0.138868  0.144906  1
  Ir  Ir21  1  0.144203  0.136602  0.575969  1
  Ir  Ir22  1  0.144906  0.577239  0.138986  1
  Ir  Ir23  1  0.575969  0.143225  0.144203  1
