# generated using pymatgen
data_Sm3(ZnNi3)2
_symmetry_space_group_name_H-M   'P 1'
_cell_length_a   7.77970955
_cell_length_b   7.78003577
_cell_length_c   7.77970870
_cell_angle_alpha   109.47206925
_cell_angle_beta   109.47037273
_cell_angle_gamma   109.47207705
_symmetry_Int_Tables_number   1
_chemical_formula_structural   Sm3(ZnNi3)2
_chemical_formula_sum   'Sm6 Zn4 Ni12'
_cell_volume   362.47814604
_cell_formula_units_Z   2
loop_
 _symmetry_equiv_pos_site_id
 _symmetry_equiv_pos_as_xyz
  1  'x, y, z'
loop_
 _atom_site_type_symbol
 _atom_site_label
 _atom_site_symmetry_multiplicity
 _atom_site_fract_x
 _atom_site_fract_y
 _atom_site_fract_z
 _atom_site_occupancy
  Sm  Sm0  1  0.294723  0.294762  0.000000  1
  Sm  Sm1  1  0.000000  0.294762  0.294723  1
  Sm  Sm2  1  0.000000  0.705238  0.705277  1
  Sm  Sm3  1  0.705277  0.000040  0.705277  1
  Sm  Sm4  1  0.294723  0.999960  0.294723  1
  Sm  Sm5  1  0.705277  0.705238  0.000000  1
  Zn  Zn6  1  0.500000  0.500000  0.500000  1
  Zn  Zn7  1  0.000000  0.000000  0.500000  1
  Zn  Zn8  1  0.500000  0.000000  0.000000  1
  Zn  Zn9  1  0.000000  0.500000  0.000000  1
  Ni  Ni10  1  0.661548  0.661548  0.323095  1
  Ni  Ni11  1  0.000000  0.338395  0.661531  1
  Ni  Ni12  1  0.323095  0.661548  0.661548  1
  Ni  Ni13  1  0.661531  0.323136  0.661531  1
  Ni  Ni14  1  0.338452  0.000000  0.661548  1
  Ni  Ni15  1  0.661531  0.338395  0.000000  1
  Ni  Ni16  1  0.338469  0.661605  0.000000  1
  Ni  Ni17  1  0.338469  0.676864  0.338469  1
  Ni  Ni18  1  0.000000  0.661605  0.338469  1
  Ni  Ni19  1  0.661548  0.000000  0.338452  1
  Ni  Ni20  1  0.676905  0.338452  0.338452  1
  Ni  Ni21  1  0.338452  0.338452  0.676905  1
