# generated using pymatgen
data_BaAs12Os3Rh
_symmetry_space_group_name_H-M   'P 1'
_cell_length_a   7.51062503
_cell_length_b   7.51062576
_cell_length_c   7.51062486
_cell_angle_alpha   109.48479251
_cell_angle_beta   109.48479523
_cell_angle_gamma   109.48480374
_symmetry_Int_Tables_number   1
_chemical_formula_structural   BaAs12Os3Rh
_chemical_formula_sum   'Ba1 As12 Os3 Rh1'
_cell_volume   325.97769783
_cell_formula_units_Z   1
loop_
 _symmetry_equiv_pos_site_id
 _symmetry_equiv_pos_as_xyz
  1  'x, y, z'
loop_
 _atom_site_type_symbol
 _atom_site_label
 _atom_site_symmetry_multiplicity
 _atom_site_fract_x
 _atom_site_fract_y
 _atom_site_fract_z
 _atom_site_occupancy
  Ba  Ba0  1  0.000000  0.000000  0.000000  1
  As  As1  1  0.350992  0.199848  0.849009  1
  As  As2  1  0.649008  0.800152  0.150991  1
  As  As3  1  0.648984  0.497253  0.852149  1
  As  As4  1  0.351016  0.502747  0.147851  1
  As  As5  1  0.199848  0.849009  0.350992  1
  As  As6  1  0.800152  0.150991  0.649008  1
  As  As7  1  0.497253  0.852149  0.648984  1
  As  As8  1  0.502747  0.147851  0.351016  1
  As  As9  1  0.849009  0.350992  0.199848  1
  As  As10  1  0.150991  0.649008  0.800152  1
  As  As11  1  0.852149  0.648984  0.497253  1
  As  As12  1  0.147851  0.351016  0.502747  1
  Os  Os13  1  0.000000  0.000000  0.500000  1
  Os  Os14  1  0.500000  0.000000  0.000000  1
  Os  Os15  1  0.000000  0.500000  0.000000  1
  Rh  Rh16  1  0.500000  0.500000  0.500000  1
