# generated using pymatgen
data_Rb8Y6AlI20
_symmetry_space_group_name_H-M   'P 1'
_cell_length_a   13.24138766
_cell_length_b   13.24138784
_cell_length_c   13.24138700
_cell_angle_alpha   59.99999961
_cell_angle_beta   59.99999916
_cell_angle_gamma   60.00000133
_symmetry_Int_Tables_number   1
_chemical_formula_structural   Rb8Y6AlI20
_chemical_formula_sum   'Rb8 Y6 Al1 I20'
_cell_volume   1641.66858611
_cell_formula_units_Z   1
loop_
 _symmetry_equiv_pos_site_id
 _symmetry_equiv_pos_as_xyz
  1  'x, y, z'
loop_
 _atom_site_type_symbol
 _atom_site_label
 _atom_site_symmetry_multiplicity
 _atom_site_fract_x
 _atom_site_fract_y
 _atom_site_fract_z
 _atom_site_occupancy
  Rb  Rb0  1  0.359183  0.359183  0.359183  1
  Rb  Rb1  1  0.640817  0.640817  0.640817  1
  Rb  Rb2  1  0.359183  0.359183  0.922451  1
  Rb  Rb3  1  0.359183  0.922451  0.359183  1
  Rb  Rb4  1  0.640817  0.640817  0.077549  1
  Rb  Rb5  1  0.640817  0.077549  0.640817  1
  Rb  Rb6  1  0.922451  0.359183  0.359183  1
  Rb  Rb7  1  0.077549  0.640817  0.640817  1
  Y  Y8  1  0.844532  0.155468  0.155468  1
  Y  Y9  1  0.155468  0.844532  0.844532  1
  Y  Y10  1  0.155468  0.844532  0.155468  1
  Y  Y11  1  0.844532  0.155468  0.844532  1
  Y  Y12  1  0.155468  0.155468  0.844532  1
  Y  Y13  1  0.844532  0.844532  0.155468  1
  Al  Al14  1  0.000000  0.000000  0.000000  1
  I  I15  1  0.331383  0.000000  0.000000  1
  I  I16  1  0.668617  0.000000  0.000000  1
  I  I17  1  0.000000  0.331383  0.668617  1
  I  I18  1  0.000000  0.668617  0.331383  1
  I  I19  1  0.000000  0.331383  0.000000  1
  I  I20  1  0.668617  0.000000  0.331383  1
  I  I21  1  0.000000  0.668617  0.000000  1
  I  I22  1  0.331383  0.000000  0.668617  1
  I  I23  1  0.000000  0.000000  0.331383  1
  I  I24  1  0.000000  0.000000  0.668617  1
  I  I25  1  0.668617  0.331383  0.000000  1
  I  I26  1  0.331383  0.668617  0.000000  1
  I  I27  1  0.677665  0.322335  0.322335  1
  I  I28  1  0.322335  0.677665  0.677665  1
  I  I29  1  0.322335  0.677665  0.322335  1
  I  I30  1  0.677665  0.322335  0.677665  1
  I  I31  1  0.322335  0.322335  0.677665  1
  I  I32  1  0.677665  0.677665  0.322335  1
  I  I33  1  0.250000  0.250000  0.250000  1
  I  I34  1  0.750000  0.750000  0.750000  1
