# generated using pymatgen
data_Ca9Nd(Sn3H)2
_symmetry_space_group_name_H-M   'P 1'
_cell_length_a   9.45990658
_cell_length_b   9.45990645
_cell_length_c   9.46737248
_cell_angle_alpha   128.68277748
_cell_angle_beta   128.68277767
_cell_angle_gamma   75.43217847
_symmetry_Int_Tables_number   1
_chemical_formula_structural   Ca9Nd(Sn3H)2
_chemical_formula_sum   'Ca9 Nd1 Sn6 H2'
_cell_volume   502.64180972
_cell_formula_units_Z   1
loop_
 _symmetry_equiv_pos_site_id
 _symmetry_equiv_pos_as_xyz
  1  'x, y, z'
loop_
 _atom_site_type_symbol
 _atom_site_label
 _atom_site_symmetry_multiplicity
 _atom_site_fract_x
 _atom_site_fract_y
 _atom_site_fract_z
 _atom_site_occupancy
  Ca  Ca0  1  0.499830  0.501548  0.000285  1
  Ca  Ca1  1  0.001548  0.999830  0.000285  1
  Ca  Ca2  1  0.186169  0.686169  0.175476  1
  Ca  Ca3  1  0.009712  0.186210  0.499980  1
  Ca  Ca4  1  0.686210  0.509712  0.499980  1
  Ca  Ca5  1  0.490732  0.990732  0.180438  1
  Ca  Ca6  1  0.812050  0.312050  0.821990  1
  Ca  Ca7  1  0.988150  0.812579  0.498367  1
  Ca  Ca8  1  0.312579  0.488150  0.498367  1
  Nd  Nd9  1  0.514062  0.014062  0.826753  1
  Sn  Sn10  1  0.251375  0.247483  0.996699  1
  Sn  Sn11  1  0.747483  0.751375  0.996699  1
  Sn  Sn12  1  0.871896  0.371896  0.245101  1
  Sn  Sn13  1  0.127228  0.627228  0.753678  1
  Sn  Sn14  1  0.371865  0.128120  0.502223  1
  Sn  Sn15  1  0.628120  0.871865  0.502223  1
  H  H16  1  0.250991  0.750991  0.500890  1
  H  H17  1  0.750000  0.250000  0.500565  1
