# generated using pymatgen
data_NaPa(ReO4)6
_symmetry_space_group_name_H-M   'P 1'
_cell_length_a   9.98517100
_cell_length_b   9.98517047
_cell_length_c   6.14575600
_cell_angle_alpha   90.00000000
_cell_angle_beta   90.00000000
_cell_angle_gamma   119.99999182
_symmetry_Int_Tables_number   1
_chemical_formula_structural   NaPa(ReO4)6
_chemical_formula_sum   'Na1 Pa1 Re6 O24'
_cell_volume   530.66075635
_cell_formula_units_Z   1
loop_
 _symmetry_equiv_pos_site_id
 _symmetry_equiv_pos_as_xyz
  1  'x, y, z'
loop_
 _atom_site_type_symbol
 _atom_site_label
 _atom_site_symmetry_multiplicity
 _atom_site_fract_x
 _atom_site_fract_y
 _atom_site_fract_z
 _atom_site_occupancy
  Na  Na0  1  0.333333  0.666667  0.250000  1
  Pa  Pa1  1  0.666667  0.333333  0.750000  1
  Re  Re2  1  0.082674  0.388739  0.750000  1
  Re  Re3  1  0.388706  0.294138  0.250000  1
  Re  Re4  1  0.611261  0.693934  0.750000  1
  Re  Re5  1  0.905431  0.611294  0.250000  1
  Re  Re6  1  0.306066  0.917326  0.750000  1
  Re  Re7  1  0.705862  0.094569  0.250000  1
  O  O8  1  0.493482  0.643336  0.522053  1
  O  O9  1  0.356664  0.850145  0.522053  1
  O  O10  1  0.822041  0.726454  0.250000  1
  O  O11  1  0.108586  0.848882  0.750000  1
  O  O12  1  0.273546  0.095586  0.250000  1
  O  O13  1  0.151118  0.259704  0.750000  1
  O  O14  1  0.512571  0.355839  0.017784  1
  O  O15  1  0.904414  0.177959  0.250000  1
  O  O16  1  0.102790  0.728438  0.250000  1
  O  O17  1  0.149855  0.506518  0.977947  1
  O  O18  1  0.149855  0.506518  0.522053  1
  O  O19  1  0.873433  0.293638  0.750000  1
  O  O20  1  0.271562  0.374353  0.250000  1
  O  O21  1  0.706362  0.579796  0.750000  1
  O  O22  1  0.843269  0.487429  0.482216  1
  O  O23  1  0.420204  0.126567  0.750000  1
  O  O24  1  0.644161  0.156731  0.017784  1
  O  O25  1  0.493482  0.643336  0.977947  1
  O  O26  1  0.356664  0.850145  0.977947  1
  O  O27  1  0.644161  0.156731  0.482216  1
  O  O28  1  0.512571  0.355839  0.482216  1
  O  O29  1  0.843269  0.487429  0.017784  1
  O  O30  1  0.740296  0.891414  0.750000  1
  O  O31  1  0.625647  0.897210  0.250000  1
