# generated using pymatgen
data_Y2Er10Co4BiRh
_symmetry_space_group_name_H-M   'P 1'
_cell_length_a   8.28831917
_cell_length_b   8.28813504
_cell_length_c   8.25258526
_cell_angle_alpha   110.79258597
_cell_angle_beta   110.82739544
_cell_angle_gamma   107.00919394
_symmetry_Int_Tables_number   1
_chemical_formula_structural   Y2Er10Co4BiRh
_chemical_formula_sum   'Y2 Er10 Co4 Bi1 Rh1'
_cell_volume   434.76863800
_cell_formula_units_Z   1
loop_
 _symmetry_equiv_pos_site_id
 _symmetry_equiv_pos_as_xyz
  1  'x, y, z'
loop_
 _atom_site_type_symbol
 _atom_site_label
 _atom_site_symmetry_multiplicity
 _atom_site_fract_x
 _atom_site_fract_y
 _atom_site_fract_z
 _atom_site_occupancy
  Y  Y0  1  0.287879  0.186439  0.474338  1
  Y  Y1  1  0.712121  0.813561  0.525662  1
  Er  Er2  1  0.288678  0.815665  0.104325  1
  Er  Er3  1  0.711322  0.184335  0.895675  1
  Er  Er4  1  0.621004  0.310148  0.308594  1
  Er  Er5  1  0.378996  0.689852  0.691406  1
  Er  Er6  1  0.001533  0.312398  0.691393  1
  Er  Er7  1  0.998467  0.687602  0.308607  1
  Er  Er8  1  0.208688  0.407515  0.195966  1
  Er  Er9  1  0.791312  0.592485  0.804034  1
  Er  Er10  1  0.211535  0.012708  0.804011  1
  Er  Er11  1  0.788465  0.987292  0.195989  1
  Co  Co12  1  0.999428  0.376608  0.376019  1
  Co  Co13  1  0.000572  0.623392  0.623981  1
  Co  Co14  1  0.388760  0.888754  0.499991  1
  Co  Co15  1  0.611240  0.111246  0.500009  1
  Bi  Bi16  1  0.500000  0.500000  0.000000  1
  Rh  Rh17  1  0.000000  0.000000  0.000000  1
