# generated using pymatgen
data_K3Dy(IO3)6
_symmetry_space_group_name_H-M   'P 1'
_cell_length_a   7.16206195
_cell_length_b   7.23605955
_cell_length_c   10.94321344
_cell_angle_alpha   98.83115929
_cell_angle_beta   108.02744714
_cell_angle_gamma   103.07137994
_symmetry_Int_Tables_number   1
_chemical_formula_structural   K3Dy(IO3)6
_chemical_formula_sum   'K3 Dy1 I6 O18'
_cell_volume   509.79443158
_cell_formula_units_Z   1
loop_
 _symmetry_equiv_pos_site_id
 _symmetry_equiv_pos_as_xyz
  1  'x, y, z'
loop_
 _atom_site_type_symbol
 _atom_site_label
 _atom_site_symmetry_multiplicity
 _atom_site_fract_x
 _atom_site_fract_y
 _atom_site_fract_z
 _atom_site_occupancy
  K  K0  1  0.378617  0.539985  0.293771  1
  K  K1  1  0.621383  0.460015  0.706229  1
  K  K2  1  0.000000  0.500000  0.500000  1
  Dy  Dy3  1  0.000000  0.000000  0.000000  1
  I  I4  1  0.559761  0.034431  0.194979  1
  I  I5  1  0.440239  0.965569  0.805021  1
  I  I6  1  0.778977  0.533261  0.104351  1
  I  I7  1  0.221023  0.466739  0.895649  1
  I  I8  1  0.134141  0.061729  0.382811  1
  I  I9  1  0.865859  0.938271  0.617189  1
  O  O10  1  0.590196  0.655587  0.126754  1
  O  O11  1  0.409804  0.344413  0.873246  1
  O  O12  1  0.008649  0.358688  0.737612  1
  O  O13  1  0.991351  0.641312  0.262388  1
  O  O14  1  0.611873  0.301225  0.235802  1
  O  O15  1  0.388127  0.698775  0.764198  1
  O  O16  1  0.056923  0.106938  0.214447  1
  O  O17  1  0.943077  0.893062  0.785553  1
  O  O18  1  0.319337  0.964998  0.045042  1
  O  O19  1  0.680663  0.035002  0.954958  1
  O  O20  1  0.293426  0.308458  0.471777  1
  O  O21  1  0.706574  0.691542  0.528223  1
  O  O22  1  0.890887  0.080452  0.403900  1
  O  O23  1  0.109113  0.919548  0.596100  1
  O  O24  1  0.559840  0.036437  0.687767  1
  O  O25  1  0.440160  0.963563  0.312233  1
  O  O26  1  0.120620  0.323334  0.001182  1
  O  O27  1  0.879380  0.676666  0.998818  1
