# generated using pymatgen
data_La3Y2Mg(P2Ru3)6
_symmetry_space_group_name_H-M   'P 1'
_cell_length_a   12.74338795
_cell_length_b   12.56706981
_cell_length_c   4.01969100
_cell_angle_alpha   90.00000000
_cell_angle_beta   90.00000000
_cell_angle_gamma   119.54335182
_symmetry_Int_Tables_number   1
_chemical_formula_structural   La3Y2Mg(P2Ru3)6
_chemical_formula_sum   'La3 Y2 Mg1 P12 Ru18'
_cell_volume   560.04419478
_cell_formula_units_Z   1
loop_
 _symmetry_equiv_pos_site_id
 _symmetry_equiv_pos_as_xyz
  1  'x, y, z'
loop_
 _atom_site_type_symbol
 _atom_site_label
 _atom_site_symmetry_multiplicity
 _atom_site_fract_x
 _atom_site_fract_y
 _atom_site_fract_z
 _atom_site_occupancy
  La  La0  1  0.000000  0.179528  0.500000  1
  La  La1  1  0.816914  0.815742  0.500000  1
  La  La2  1  0.183086  0.998827  0.500000  1
  Y  Y3  1  0.659286  0.328508  0.000000  1
  Y  Y4  1  0.340714  0.669224  0.000000  1
  Mg  Mg5  1  0.000000  0.560980  0.000000  1
  P  P6  1  0.000000  0.804869  0.000000  1
  P  P7  1  0.188986  0.189478  0.000000  1
  P  P8  1  0.811014  0.000492  0.000000  1
  P  P9  1  0.693156  0.174750  0.500000  1
  P  P10  1  0.815112  0.517038  0.500000  1
  P  P11  1  0.475351  0.305293  0.500000  1
  P  P12  1  0.184888  0.701926  0.500000  1
  P  P13  1  0.524649  0.829941  0.500000  1
  P  P14  1  0.306844  0.481594  0.500000  1
  P  P15  1  0.000000  0.363758  0.000000  1
  P  P16  1  0.622454  0.623564  0.000000  1
  P  P17  1  0.377546  0.001110  0.000000  1
  Ru  Ru18  1  0.444423  0.445895  0.000000  1
  Ru  Ru19  1  0.555577  0.001472  0.000000  1
  Ru  Ru20  1  0.000000  0.708359  0.500000  1
  Ru  Ru21  1  0.286410  0.288817  0.500000  1
  Ru  Ru22  1  0.713590  0.002407  0.500000  1
  Ru  Ru23  1  0.802109  0.186213  0.000000  1
  Ru  Ru24  1  0.811889  0.614993  0.000000  1
  Ru  Ru25  1  0.378345  0.194065  0.000000  1
  Ru  Ru26  1  0.188111  0.803103  0.000000  1
  Ru  Ru27  1  0.621655  0.815719  0.000000  1
  Ru  Ru28  1  0.197891  0.384102  0.000000  1
  Ru  Ru29  1  0.874698  0.368166  0.500000  1
  Ru  Ru30  1  0.628417  0.507497  0.500000  1
  Ru  Ru31  1  0.494357  0.128770  0.500000  1
  Ru  Ru32  1  0.371583  0.879080  0.500000  1
  Ru  Ru33  1  0.505643  0.634413  0.500000  1
  Ru  Ru34  1  0.125302  0.493469  0.500000  1
  Ru  Ru35  1  0.000000  0.996837  0.000000  1
