# generated using pymatgen
data_Sr10RePN10
_symmetry_space_group_name_H-M   'P 1'
_cell_length_a   7.63873633
_cell_length_b   7.63873685
_cell_length_c   8.92137949
_cell_angle_alpha   76.32673280
_cell_angle_beta   76.32673394
_cell_angle_gamma   96.20633658
_symmetry_Int_Tables_number   1
_chemical_formula_structural   Sr10RePN10
_chemical_formula_sum   'Sr10 Re1 P1 N10'
_cell_volume   484.00662125
_cell_formula_units_Z   1
loop_
 _symmetry_equiv_pos_site_id
 _symmetry_equiv_pos_as_xyz
  1  'x, y, z'
loop_
 _atom_site_type_symbol
 _atom_site_label
 _atom_site_symmetry_multiplicity
 _atom_site_fract_x
 _atom_site_fract_y
 _atom_site_fract_z
 _atom_site_occupancy
  Sr  Sr0  1  0.386780  0.402744  0.381857  1
  Sr  Sr1  1  0.597256  0.613220  0.618143  1
  Sr  Sr2  1  0.672146  0.670751  0.008628  1
  Sr  Sr3  1  0.329249  0.327854  0.991372  1
  Sr  Sr4  1  0.935023  0.913897  0.204508  1
  Sr  Sr5  1  0.086103  0.064977  0.795492  1
  Sr  Sr6  1  0.544640  0.081853  0.753975  1
  Sr  Sr7  1  0.918147  0.455360  0.246025  1
  Sr  Sr8  1  0.430463  0.892843  0.243232  1
  Sr  Sr9  1  0.107157  0.569537  0.756768  1
  Re  Re10  1  0.756651  0.243349  0.000000  1
  P  P11  1  0.242395  0.757605  0.000000  1
  N  N12  1  0.658515  0.660083  0.314505  1
  N  N13  1  0.339917  0.341485  0.685495  1
  N  N14  1  0.718841  0.011931  0.975992  1
  N  N15  1  0.988069  0.281159  0.024008  1
  N  N16  1  0.279309  0.976068  0.010652  1
  N  N17  1  0.023932  0.720691  0.989348  1
  N  N18  1  0.389990  0.729822  0.836871  1
  N  N19  1  0.270178  0.610010  0.163128  1
  N  N20  1  0.587295  0.262060  0.177510  1
  N  N21  1  0.737940  0.412705  0.822489  1
