# generated using pymatgen
data_YbErCoIr3
_symmetry_space_group_name_H-M   'P 1'
_cell_length_a   5.15282643
_cell_length_b   5.15282624
_cell_length_c   5.15282812
_cell_angle_alpha   62.79240193
_cell_angle_beta   62.79240469
_cell_angle_gamma   62.79241237
_symmetry_Int_Tables_number   1
_chemical_formula_structural   YbErCoIr3
_chemical_formula_sum   'Yb1 Er1 Co1 Ir3'
_cell_volume   102.75046369
_cell_formula_units_Z   1
loop_
 _symmetry_equiv_pos_site_id
 _symmetry_equiv_pos_as_xyz
  1  'x, y, z'
loop_
 _atom_site_type_symbol
 _atom_site_label
 _atom_site_symmetry_multiplicity
 _atom_site_fract_x
 _atom_site_fract_y
 _atom_site_fract_z
 _atom_site_occupancy
  Yb  Yb0  1  0.250525  0.250525  0.250525  1
  Er  Er1  1  0.000102  0.000102  0.000102  1
  Co  Co2  1  0.624820  0.624820  0.624820  1
  Ir  Ir3  1  0.624615  0.624615  0.125321  1
  Ir  Ir4  1  0.624615  0.125321  0.624615  1
  Ir  Ir5  1  0.125321  0.624615  0.624615  1
