# generated using pymatgen
data_Gd2Co2Tc
_symmetry_space_group_name_H-M   'P 1'
_cell_length_a   5.63768100
_cell_length_b   5.63768007
_cell_length_c   7.14624800
_cell_angle_alpha   90.00000000
_cell_angle_beta   90.00000000
_cell_angle_gamma   121.99827103
_symmetry_Int_Tables_number   1
_chemical_formula_structural   Gd2Co2Tc
_chemical_formula_sum   'Gd4 Co4 Tc2'
_cell_volume   192.62279534
_cell_formula_units_Z   2
loop_
 _symmetry_equiv_pos_site_id
 _symmetry_equiv_pos_as_xyz
  1  'x, y, z'
loop_
 _atom_site_type_symbol
 _atom_site_label
 _atom_site_symmetry_multiplicity
 _atom_site_fract_x
 _atom_site_fract_y
 _atom_site_fract_z
 _atom_site_occupancy
  Gd  Gd0  1  0.665721  0.334279  0.903939  1
  Gd  Gd1  1  0.334279  0.665721  0.096061  1
  Gd  Gd2  1  0.834279  0.165721  0.403939  1
  Gd  Gd3  1  0.165721  0.834279  0.596061  1
  Co  Co4  1  0.670929  0.829071  0.750000  1
  Co  Co5  1  0.829071  0.670929  0.250000  1
  Co  Co6  1  0.329071  0.170929  0.250000  1
  Co  Co7  1  0.170929  0.329071  0.750000  1
  Tc  Tc8  1  0.500000  0.500000  0.500000  1
  Tc  Tc9  1  0.000000  0.000000  0.000000  1
