# generated using pymatgen
data_Hf4Co3CuSi3P
_symmetry_space_group_name_H-M   'P 1'
_cell_length_a   3.76345900
_cell_length_b   6.40157187
_cell_length_c   7.19462711
_cell_angle_alpha   89.58332371
_cell_angle_beta   90.00000000
_cell_angle_gamma   90.00000000
_symmetry_Int_Tables_number   1
_chemical_formula_structural   Hf4Co3CuSi3P
_chemical_formula_sum   'Hf4 Co3 Cu1 Si3 P1'
_cell_volume   173.32875617
_cell_formula_units_Z   1
loop_
 _symmetry_equiv_pos_site_id
 _symmetry_equiv_pos_as_xyz
  1  'x, y, z'
loop_
 _atom_site_type_symbol
 _atom_site_label
 _atom_site_symmetry_multiplicity
 _atom_site_fract_x
 _atom_site_fract_y
 _atom_site_fract_z
 _atom_site_occupancy
  Hf  Hf0  1  0.250000  0.024382  0.321362  1
  Hf  Hf1  1  0.250000  0.515761  0.188297  1
  Hf  Hf2  1  0.750000  0.992112  0.683606  1
  Hf  Hf3  1  0.750000  0.480814  0.808322  1
  Co  Co4  1  0.250000  0.140735  0.935722  1
  Co  Co5  1  0.250000  0.635070  0.562258  1
  Co  Co6  1  0.750000  0.357249  0.437588  1
  Cu  Cu7  1  0.750000  0.850410  0.065298  1
  Si  Si8  1  0.250000  0.772859  0.874752  1
  Si  Si9  1  0.750000  0.724355  0.398056  1
  Si  Si10  1  0.750000  0.229402  0.111609  1
  P  P11  1  0.250000  0.276850  0.613128  1
