# generated using pymatgen
data_Hf4InN3
_symmetry_space_group_name_H-M   'P 1'
_cell_length_a   3.22482200
_cell_length_b   3.22482170
_cell_length_c   25.38496600
_cell_angle_alpha   90.00000000
_cell_angle_beta   90.00000000
_cell_angle_gamma   119.99998261
_symmetry_Int_Tables_number   1
_chemical_formula_structural   Hf4InN3
_chemical_formula_sum   'Hf8 In2 N6'
_cell_volume   228.62238377
_cell_formula_units_Z   2
loop_
 _symmetry_equiv_pos_site_id
 _symmetry_equiv_pos_as_xyz
  1  'x, y, z'
loop_
 _atom_site_type_symbol
 _atom_site_label
 _atom_site_symmetry_multiplicity
 _atom_site_fract_x
 _atom_site_fract_y
 _atom_site_fract_z
 _atom_site_occupancy
  Hf  Hf0  1  0.333333  0.666667  0.446578  1
  Hf  Hf1  1  0.666667  0.333333  0.553422  1
  Hf  Hf2  1  0.666667  0.333333  0.946578  1
  Hf  Hf3  1  0.333333  0.666667  0.053422  1
  Hf  Hf4  1  0.000000  0.000000  0.347324  1
  Hf  Hf5  1  0.000000  0.000000  0.652676  1
  Hf  Hf6  1  0.000000  0.000000  0.847324  1
  Hf  Hf7  1  0.000000  0.000000  0.152676  1
  In  In8  1  0.333333  0.666667  0.250000  1
  In  In9  1  0.666667  0.333333  0.750000  1
  N  N10  1  0.000000  0.000000  0.500000  1
  N  N11  1  0.000000  0.000000  0.000000  1
  N  N12  1  0.666667  0.333333  0.397737  1
  N  N13  1  0.333333  0.666667  0.602263  1
  N  N14  1  0.333333  0.666667  0.897737  1
  N  N15  1  0.666667  0.333333  0.102263  1
