# generated using pymatgen
data_Ta6Nb7Co8W3N4
_symmetry_space_group_name_H-M   'P 1'
_cell_length_a   8.16315892
_cell_length_b   8.18533573
_cell_length_c   8.18533593
_cell_angle_alpha   59.96786576
_cell_angle_beta   59.85765179
_cell_angle_gamma   59.85765476
_symmetry_Int_Tables_number   1
_chemical_formula_structural   Ta6Nb7Co8W3N4
_chemical_formula_sum   'Ta6 Nb7 Co8 W3 N4'
_cell_volume   385.80989307
_cell_formula_units_Z   1
loop_
 _symmetry_equiv_pos_site_id
 _symmetry_equiv_pos_as_xyz
  1  'x, y, z'
loop_
 _atom_site_type_symbol
 _atom_site_label
 _atom_site_symmetry_multiplicity
 _atom_site_fract_x
 _atom_site_fract_y
 _atom_site_fract_z
 _atom_site_occupancy
  Ta  Ta0  1  0.124916  0.625328  0.625328  1
  Ta  Ta1  1  0.808435  0.809172  0.191188  1
  Ta  Ta2  1  0.189407  0.187152  0.811804  1
  Ta  Ta3  1  0.808435  0.191188  0.809172  1
  Ta  Ta4  1  0.189407  0.811804  0.187152  1
  Ta  Ta5  1  0.189246  0.811963  0.811963  1
  Nb  Nb6  1  0.808665  0.191077  0.191077  1
  Nb  Nb7  1  0.441433  0.440465  0.059033  1
  Nb  Nb8  1  0.061080  0.063465  0.437306  1
  Nb  Nb9  1  0.441433  0.059033  0.440465  1
  Nb  Nb10  1  0.061080  0.437306  0.063465  1
  Nb  Nb11  1  0.060689  0.438156  0.438156  1
  Nb  Nb12  1  0.441583  0.058451  0.058451  1
  Co  Co13  1  0.730713  0.423542  0.423542  1
  Co  Co14  1  0.425335  0.732856  0.420939  1
  Co  Co15  1  0.425335  0.420939  0.732856  1
  Co  Co16  1  0.424621  0.421439  0.421439  1
  Co  Co17  1  0.517809  0.827450  0.827450  1
  Co  Co18  1  0.824895  0.515829  0.828958  1
  Co  Co19  1  0.824895  0.828958  0.515829  1
  Co  Co20  1  0.825085  0.830279  0.830279  1
  W  W21  1  0.625028  0.125662  0.624896  1
  W  W22  1  0.625028  0.624896  0.125662  1
  W  W23  1  0.624670  0.624943  0.624943  1
  N  N24  1  0.627692  0.123026  0.123026  1
  N  N25  1  0.123567  0.629401  0.123387  1
  N  N26  1  0.123567  0.123387  0.629401  1
  N  N27  1  0.125952  0.122835  0.122835  1
