# generated using pymatgen
data_Li2Bi(P3Pd10)2
_symmetry_space_group_name_H-M   'P 1'
_cell_length_a   8.58574501
_cell_length_b   8.58574487
_cell_length_c   8.58574600
_cell_angle_alpha   59.99999563
_cell_angle_beta   59.99999617
_cell_angle_gamma   59.99999691
_symmetry_Int_Tables_number   1
_chemical_formula_structural   Li2Bi(P3Pd10)2
_chemical_formula_sum   'Li2 Bi1 P6 Pd20'
_cell_volume   447.52671563
_cell_formula_units_Z   1
loop_
 _symmetry_equiv_pos_site_id
 _symmetry_equiv_pos_as_xyz
  1  'x, y, z'
loop_
 _atom_site_type_symbol
 _atom_site_label
 _atom_site_symmetry_multiplicity
 _atom_site_fract_x
 _atom_site_fract_y
 _atom_site_fract_z
 _atom_site_occupancy
  Li  Li0  1  0.000000  0.000000  0.000000  1
  Li  Li1  1  0.750000  0.750000  0.750000  1
  Bi  Bi2  1  0.250000  0.250000  0.250000  1
  P  P3  1  0.737185  0.262815  0.262815  1
  P  P4  1  0.737185  0.737185  0.262815  1
  P  P5  1  0.737185  0.262815  0.737185  1
  P  P6  1  0.262815  0.737185  0.262815  1
  P  P7  1  0.262815  0.737185  0.737185  1
  P  P8  1  0.262815  0.262815  0.737185  1
  Pd  Pd9  1  0.344085  0.998688  0.998688  1
  Pd  Pd10  1  0.998688  0.658538  0.344085  1
  Pd  Pd11  1  0.344085  0.998688  0.658538  1
  Pd  Pd12  1  0.998688  0.658538  0.998688  1
  Pd  Pd13  1  0.658538  0.344085  0.998688  1
  Pd  Pd14  1  0.617413  0.617413  0.147761  1
  Pd  Pd15  1  0.384380  0.846862  0.384380  1
  Pd  Pd16  1  0.147761  0.617413  0.617413  1
  Pd  Pd17  1  0.658538  0.998688  0.344085  1
  Pd  Pd18  1  0.998688  0.344085  0.658538  1
  Pd  Pd19  1  0.658538  0.998688  0.998688  1
  Pd  Pd20  1  0.998688  0.998688  0.344085  1
  Pd  Pd21  1  0.617413  0.147761  0.617413  1
  Pd  Pd22  1  0.344085  0.658538  0.998688  1
  Pd  Pd23  1  0.384380  0.384380  0.384380  1
  Pd  Pd24  1  0.617413  0.617413  0.617413  1
  Pd  Pd25  1  0.384380  0.384380  0.846862  1
  Pd  Pd26  1  0.998688  0.998688  0.658538  1
  Pd  Pd27  1  0.846862  0.384380  0.384380  1
  Pd  Pd28  1  0.998688  0.344085  0.998688  1
