# generated using pymatgen
data_Dy5(Th3Ir2)3
_symmetry_space_group_name_H-M   'P 1'
_cell_length_a   9.94097212
_cell_length_b   10.03441955
_cell_length_c   6.33942725
_cell_angle_alpha   90.31408554
_cell_angle_beta   89.80046365
_cell_angle_gamma   120.40905143
_symmetry_Int_Tables_number   1
_chemical_formula_structural   Dy5(Th3Ir2)3
_chemical_formula_sum   'Dy5 Th9 Ir6'
_cell_volume   545.36867411
_cell_formula_units_Z   1
loop_
 _symmetry_equiv_pos_site_id
 _symmetry_equiv_pos_as_xyz
  1  'x, y, z'
loop_
 _atom_site_type_symbol
 _atom_site_label
 _atom_site_symmetry_multiplicity
 _atom_site_fract_x
 _atom_site_fract_y
 _atom_site_fract_z
 _atom_site_occupancy
  Dy  Dy0  1  0.458941  0.536346  0.300161  1
  Dy  Dy1  1  0.074629  0.536398  0.301494  1
  Dy  Dy2  1  0.923782  0.461990  0.799839  1
  Dy  Dy3  1  0.254629  0.128111  0.500460  1
  Dy  Dy4  1  0.539653  0.078108  0.796068  1
  Th  Th5  1  0.745132  0.874862  0.002918  1
  Th  Th6  1  0.665946  0.331943  0.281372  1
  Th  Th7  1  0.130408  0.873053  0.999169  1
  Th  Th8  1  0.457222  0.918727  0.299459  1
  Th  Th9  1  0.538458  0.459264  0.799101  1
  Th  Th10  1  0.877127  0.132019  0.503804  1
  Th  Th11  1  0.126966  0.254274  0.000094  1
  Th  Th12  1  0.873028  0.743328  0.500761  1
  Th  Th13  1  0.333916  0.666599  0.783541  1
  Ir  Ir14  1  0.811331  0.625124  0.052627  1
  Ir  Ir15  1  0.813967  0.188538  0.055162  1
  Ir  Ir16  1  0.626762  0.816089  0.549844  1
  Ir  Ir17  1  0.375779  0.189814  0.046112  1
  Ir  Ir18  1  0.185037  0.376081  0.556713  1
  Ir  Ir19  1  0.187286  0.809333  0.555300  1
