# generated using pymatgen
data_La4Au3O4
_symmetry_space_group_name_H-M   'P 1'
_cell_length_a   7.16892483
_cell_length_b   7.16892563
_cell_length_c   8.35744200
_cell_angle_alpha   90.00000000
_cell_angle_beta   90.00000000
_cell_angle_gamma   146.45586658
_symmetry_Int_Tables_number   1
_chemical_formula_structural   La4Au3O4
_chemical_formula_sum   'La4 Au3 O4'
_cell_volume   237.34274482
_cell_formula_units_Z   1
loop_
 _symmetry_equiv_pos_site_id
 _symmetry_equiv_pos_as_xyz
  1  'x, y, z'
loop_
 _atom_site_type_symbol
 _atom_site_label
 _atom_site_symmetry_multiplicity
 _atom_site_fract_x
 _atom_site_fract_y
 _atom_site_fract_z
 _atom_site_occupancy
  La  La0  1  0.317928  0.682072  0.757849  1
  La  La1  1  0.317928  0.682072  0.242151  1
  La  La2  1  0.985868  0.014132  0.500000  1
  La  La3  1  0.997193  0.002807  0.000000  1
  Au  Au4  1  0.640385  0.359615  0.329963  1
  Au  Au5  1  0.640385  0.359615  0.670037  1
  Au  Au6  1  0.682386  0.317614  0.000000  1
  O  O7  1  0.392911  0.607089  0.500000  1
  O  O8  1  0.412215  0.587785  0.000000  1
  O  O9  1  0.907005  0.092995  0.753581  1
  O  O10  1  0.907005  0.092995  0.246419  1
