# generated using pymatgen
data_Tb11CeTc3Os
_symmetry_space_group_name_H-M   'P 1'
_cell_length_a   6.34238520
_cell_length_b   7.40448602
_cell_length_c   9.31421400
_cell_angle_alpha   90.00000000
_cell_angle_beta   90.00000000
_cell_angle_gamma   91.12825067
_symmetry_Int_Tables_number   1
_chemical_formula_structural   Tb11CeTc3Os
_chemical_formula_sum   'Tb11 Ce1 Tc3 Os1'
_cell_volume   437.33026942
_cell_formula_units_Z   1
loop_
 _symmetry_equiv_pos_site_id
 _symmetry_equiv_pos_as_xyz
  1  'x, y, z'
loop_
 _atom_site_type_symbol
 _atom_site_label
 _atom_site_symmetry_multiplicity
 _atom_site_fract_x
 _atom_site_fract_y
 _atom_site_fract_z
 _atom_site_occupancy
  Tb  Tb0  1  0.334701  0.673045  0.061420  1
  Tb  Tb1  1  0.162186  0.177708  0.436652  1
  Tb  Tb2  1  0.668251  0.324056  0.565755  1
  Tb  Tb3  1  0.831060  0.824339  0.932680  1
  Tb  Tb4  1  0.668251  0.324056  0.934245  1
  Tb  Tb5  1  0.831060  0.824339  0.567320  1
  Tb  Tb6  1  0.334701  0.673045  0.438580  1
  Tb  Tb7  1  0.162186  0.177708  0.063348  1
  Tb  Tb8  1  0.625008  0.041495  0.250000  1
  Tb  Tb9  1  0.132418  0.459021  0.750000  1
  Tb  Tb10  1  0.368324  0.958251  0.750000  1
  Ce  Ce11  1  0.857937  0.562698  0.250000  1
  Tc  Tc12  1  0.014390  0.858676  0.250000  1
  Tc  Tc13  1  0.504871  0.391533  0.250000  1
  Tc  Tc14  1  0.966629  0.114804  0.750000  1
  Os  Os15  1  0.538030  0.615224  0.750000  1
