# generated using pymatgen
data_Dy12GaSi4Sn
_symmetry_space_group_name_H-M   'P 1'
_cell_length_a   8.47284853
_cell_length_b   8.47284886
_cell_length_c   8.47284975
_cell_angle_alpha   105.20632417
_cell_angle_beta   111.21218381
_cell_angle_gamma   112.07879452
_symmetry_Int_Tables_number   1
_chemical_formula_structural   Dy12GaSi4Sn
_chemical_formula_sum   'Dy12 Ga1 Si4 Sn1'
_cell_volume   466.28214887
_cell_formula_units_Z   1
loop_
 _symmetry_equiv_pos_site_id
 _symmetry_equiv_pos_as_xyz
  1  'x, y, z'
loop_
 _atom_site_type_symbol
 _atom_site_label
 _atom_site_symmetry_multiplicity
 _atom_site_fract_x
 _atom_site_fract_y
 _atom_site_fract_z
 _atom_site_occupancy
  Dy  Dy0  1  0.300642  0.263998  0.564639  1
  Dy  Dy1  1  0.699358  0.736002  0.435361  1
  Dy  Dy2  1  0.300642  0.736002  0.036643  1
  Dy  Dy3  1  0.699358  0.263998  0.963357  1
  Dy  Dy4  1  0.202008  0.522444  0.320437  1
  Dy  Dy5  1  0.202008  0.881571  0.679563  1
  Dy  Dy6  1  0.797992  0.477556  0.679563  1
  Dy  Dy7  1  0.797992  0.118429  0.320437  1
  Dy  Dy8  1  0.409738  0.228363  0.181375  1
  Dy  Dy9  1  0.046986  0.228363  0.818625  1
  Dy  Dy10  1  0.953014  0.771637  0.181375  1
  Dy  Dy11  1  0.590262  0.771637  0.818625  1
  Ga  Ga12  1  0.500000  0.500000  0.000000  1
  Si  Si13  1  0.131147  0.500000  0.631147  1
  Si  Si14  1  0.868853  0.500000  0.368853  1
  Si  Si15  1  0.000000  0.115401  0.115401  1
  Si  Si16  1  0.000000  0.884599  0.884599  1
  Sn  Sn17  1  0.500000  0.000000  0.500000  1
