# generated using pymatgen
data_EuMo2P2O9
_symmetry_space_group_name_H-M   'P 1'
_cell_length_a   6.74183600
_cell_length_b   7.47425200
_cell_length_c   15.04679100
_cell_angle_alpha   90.00000000
_cell_angle_beta   90.00000000
_cell_angle_gamma   90.00000000
_symmetry_Int_Tables_number   1
_chemical_formula_structural   EuMo2P2O9
_chemical_formula_sum   'Eu4 Mo8 P8 O36'
_cell_volume   758.21052507
_cell_formula_units_Z   4
loop_
 _symmetry_equiv_pos_site_id
 _symmetry_equiv_pos_as_xyz
  1  'x, y, z'
loop_
 _atom_site_type_symbol
 _atom_site_label
 _atom_site_symmetry_multiplicity
 _atom_site_fract_x
 _atom_site_fract_y
 _atom_site_fract_z
 _atom_site_occupancy
  Eu  Eu0  1  0.750000  0.897040  0.783370  1
  Eu  Eu1  1  0.750000  0.602960  0.283370  1
  Eu  Eu2  1  0.250000  0.397040  0.716630  1
  Eu  Eu3  1  0.250000  0.102960  0.216630  1
  Mo  Mo4  1  0.750000  0.364008  0.876491  1
  Mo  Mo5  1  0.250000  0.635992  0.123509  1
  Mo  Mo6  1  0.250000  0.864008  0.623509  1
  Mo  Mo7  1  0.750000  0.135992  0.376491  1
  Mo  Mo8  1  0.500000  0.000000  0.000000  1
  Mo  Mo9  1  0.500000  0.500000  0.500000  1
  Mo  Mo10  1  0.000000  0.500000  0.500000  1
  Mo  Mo11  1  0.000000  0.000000  0.000000  1
  P  P12  1  0.250000  0.369913  0.929765  1
  P  P13  1  0.750000  0.630087  0.070235  1
  P  P14  1  0.750000  0.869913  0.570235  1
  P  P15  1  0.250000  0.130087  0.429765  1
  P  P16  1  0.750000  0.396293  0.689111  1
  P  P17  1  0.750000  0.103707  0.189111  1
  P  P18  1  0.250000  0.896293  0.810889  1
  P  P19  1  0.250000  0.603707  0.310889  1
  O  O20  1  0.061657  0.603760  0.369127  1
  O  O21  1  0.561657  0.396240  0.630873  1
  O  O22  1  0.938343  0.103760  0.130873  1
  O  O23  1  0.438343  0.896240  0.869127  1
  O  O24  1  0.938343  0.396240  0.630873  1
  O  O25  1  0.438343  0.603760  0.369127  1
  O  O26  1  0.061657  0.896240  0.869127  1
  O  O27  1  0.561657  0.103760  0.130873  1
  O  O28  1  0.250000  0.315064  0.481017  1
  O  O29  1  0.750000  0.684936  0.518983  1
  O  O30  1  0.750000  0.815064  0.018983  1
  O  O31  1  0.250000  0.184936  0.981017  1
  O  O32  1  0.750000  0.115931  0.936447  1
  O  O33  1  0.250000  0.884069  0.063553  1
  O  O34  1  0.250000  0.615931  0.563553  1
  O  O35  1  0.750000  0.384069  0.436447  1
  O  O36  1  0.750000  0.226130  0.748929  1
  O  O37  1  0.250000  0.773870  0.251071  1
  O  O38  1  0.250000  0.726130  0.751071  1
  O  O39  1  0.750000  0.273870  0.248929  1
  O  O40  1  0.431205  0.126056  0.366626  1
  O  O41  1  0.931205  0.873944  0.633374  1
  O  O42  1  0.568795  0.626056  0.133374  1
  O  O43  1  0.068795  0.373944  0.866626  1
  O  O44  1  0.568795  0.873944  0.633374  1
  O  O45  1  0.068795  0.126056  0.366626  1
  O  O46  1  0.431205  0.373944  0.866626  1
  O  O47  1  0.931205  0.626056  0.133374  1
  O  O48  1  0.750000  0.479388  0.003711  1
  O  O49  1  0.250000  0.054180  0.742544  1
  O  O50  1  0.250000  0.445820  0.242544  1
  O  O51  1  0.750000  0.554180  0.757456  1
  O  O52  1  0.750000  0.020612  0.503711  1
  O  O53  1  0.250000  0.979388  0.496289  1
  O  O54  1  0.250000  0.520612  0.996289  1
  O  O55  1  0.750000  0.945820  0.257456  1
