# generated using pymatgen
data_Tb5P7Rh9
_symmetry_space_group_name_H-M   'P 1'
_cell_length_a   3.98752900
_cell_length_b   9.98976909
_cell_length_c   9.98987463
_cell_angle_alpha   119.97550779
_cell_angle_beta   90.00219606
_cell_angle_gamma   89.99754395
_symmetry_Int_Tables_number   1
_chemical_formula_structural   Tb5P7Rh9
_chemical_formula_sum   'Tb5 P7 Rh9'
_cell_volume   344.71255756
_cell_formula_units_Z   1
loop_
 _symmetry_equiv_pos_site_id
 _symmetry_equiv_pos_as_xyz
  1  'x, y, z'
loop_
 _atom_site_type_symbol
 _atom_site_label
 _atom_site_symmetry_multiplicity
 _atom_site_fract_x
 _atom_site_fract_y
 _atom_site_fract_z
 _atom_site_occupancy
  Tb  Tb0  1  0.261865  0.666166  0.332903  1
  Tb  Tb1  1  0.761929  0.333456  0.666739  1
  Tb  Tb2  1  0.761956  0.110715  0.875789  1
  Tb  Tb3  1  0.761918  0.123994  0.234856  1
  Tb  Tb4  1  0.761902  0.765215  0.889081  1
  P  P5  1  0.261888  0.999989  0.999924  1
  P  P6  1  0.761629  0.850819  0.576744  1
  P  P7  1  0.761741  0.422960  0.274322  1
  P  P8  1  0.761786  0.725684  0.148505  1
  P  P9  1  0.261856  0.112994  0.433152  1
  P  P10  1  0.261850  0.566915  0.679887  1
  P  P11  1  0.261875  0.320311  0.887196  1
  Rh  Rh12  1  0.261865  0.872714  0.174333  1
  Rh  Rh13  1  0.261764  0.825928  0.698110  1
  Rh  Rh14  1  0.261866  0.301809  0.127602  1
  Rh  Rh15  1  0.761914  0.593978  0.542091  1
  Rh  Rh16  1  0.761962  0.457790  0.051922  1
  Rh  Rh17  1  0.762061  0.947683  0.406037  1
  Rh  Rh18  1  0.262055  0.356292  0.435642  1
  Rh  Rh19  1  0.262062  0.564797  0.921162  1
  Rh  Rh20  1  0.262254  0.079791  0.644003  1
