# generated using pymatgen
data_Mg5Al2InPd4
_symmetry_space_group_name_H-M   'P 1'
_cell_length_a   8.46730924
_cell_length_b   8.44925116
_cell_length_c   8.44924936
_cell_angle_alpha   59.94378601
_cell_angle_beta   59.89542426
_cell_angle_gamma   59.89542861
_symmetry_Int_Tables_number   1
_chemical_formula_structural   Mg5Al2InPd4
_chemical_formula_sum   'Mg10 Al4 In2 Pd8'
_cell_volume   426.57386310
_cell_formula_units_Z   2
loop_
 _symmetry_equiv_pos_site_id
 _symmetry_equiv_pos_as_xyz
  1  'x, y, z'
loop_
 _atom_site_type_symbol
 _atom_site_label
 _atom_site_symmetry_multiplicity
 _atom_site_fract_x
 _atom_site_fract_y
 _atom_site_fract_z
 _atom_site_occupancy
  Mg  Mg0  1  0.192250  0.806361  0.806361  1
  Mg  Mg1  1  0.057320  0.443882  0.055526  1
  Mg  Mg2  1  0.805887  0.194610  0.194610  1
  Mg  Mg3  1  0.057185  0.443140  0.443140  1
  Mg  Mg4  1  0.443867  0.056471  0.443660  1
  Mg  Mg5  1  0.443867  0.443660  0.056471  1
  Mg  Mg6  1  0.804229  0.803828  0.195122  1
  Mg  Mg7  1  0.444012  0.056099  0.056099  1
  Mg  Mg8  1  0.804229  0.195122  0.803828  1
  Mg  Mg9  1  0.057320  0.055526  0.443882  1
  Al  Al10  1  0.622312  0.625390  0.625390  1
  Al  Al11  1  0.125077  0.627950  0.627950  1
  Al  Al12  1  0.628151  0.622076  0.125656  1
  Al  Al13  1  0.628151  0.125656  0.622076  1
  In  In14  1  0.190910  0.803989  0.195310  1
  In  In15  1  0.190910  0.195310  0.803989  1
  Pd  Pd16  1  0.834250  0.485971  0.838916  1
  Pd  Pd17  1  0.838065  0.840168  0.840168  1
  Pd  Pd18  1  0.487208  0.836972  0.836972  1
  Pd  Pd19  1  0.412731  0.766609  0.412165  1
  Pd  Pd20  1  0.834250  0.838916  0.485971  1
  Pd  Pd21  1  0.769502  0.410013  0.410013  1
  Pd  Pd22  1  0.415588  0.410117  0.410117  1
  Pd  Pd23  1  0.412731  0.412165  0.766609  1
