# generated using pymatgen
data_Ho2Pa2Ge6Rh7
_symmetry_space_group_name_H-M   'P 1'
_cell_length_a   7.26626109
_cell_length_b   7.31238469
_cell_length_c   7.26626055
_cell_angle_alpha   109.47607332
_cell_angle_beta   109.20448976
_cell_angle_gamma   109.47607791
_symmetry_Int_Tables_number   1
_chemical_formula_structural   Ho2Pa2Ge6Rh7
_chemical_formula_sum   'Ho2 Pa2 Ge6 Rh7'
_cell_volume   298.14438288
_cell_formula_units_Z   1
loop_
 _symmetry_equiv_pos_site_id
 _symmetry_equiv_pos_as_xyz
  1  'x, y, z'
loop_
 _atom_site_type_symbol
 _atom_site_label
 _atom_site_symmetry_multiplicity
 _atom_site_fract_x
 _atom_site_fract_y
 _atom_site_fract_z
 _atom_site_occupancy
  Ho  Ho0  1  0.000000  0.000000  0.500000  1
  Ho  Ho1  1  0.500000  0.000000  0.000000  1
  Pa  Pa2  1  0.500000  0.500000  0.500000  1
  Pa  Pa3  1  0.000000  0.500000  0.000000  1
  Ge  Ge4  1  0.317224  0.312796  0.995573  1
  Ge  Ge5  1  0.995573  0.312796  0.317224  1
  Ge  Ge6  1  0.004427  0.687204  0.682776  1
  Ge  Ge7  1  0.683354  0.000000  0.683354  1
  Ge  Ge8  1  0.316646  0.000000  0.316646  1
  Ge  Ge9  1  0.682776  0.687204  0.004427  1
  Rh  Rh10  1  0.749500  0.253762  0.504261  1
  Rh  Rh11  1  0.504261  0.253762  0.749500  1
  Rh  Rh12  1  0.495739  0.746238  0.250500  1
  Rh  Rh13  1  0.250000  0.500000  0.750000  1
  Rh  Rh14  1  0.750000  0.500000  0.250000  1
  Rh  Rh15  1  0.250500  0.746238  0.495739  1
  Rh  Rh16  1  0.000000  0.000000  0.000000  1
