# generated using pymatgen
data_Dy4Ho2Al24GaRu7
_symmetry_space_group_name_H-M   'P 1'
_cell_length_a   8.84545177
_cell_length_b   8.84545340
_cell_length_c   9.54559332
_cell_angle_alpha   90.17273716
_cell_angle_beta   89.82726248
_cell_angle_gamma   119.89462296
_symmetry_Int_Tables_number   1
_chemical_formula_structural   Dy4Ho2Al24GaRu7
_chemical_formula_sum   'Dy4 Ho2 Al24 Ga1 Ru7'
_cell_volume   647.48724774
_cell_formula_units_Z   1
loop_
 _symmetry_equiv_pos_site_id
 _symmetry_equiv_pos_as_xyz
  1  'x, y, z'
loop_
 _atom_site_type_symbol
 _atom_site_label
 _atom_site_symmetry_multiplicity
 _atom_site_fract_x
 _atom_site_fract_y
 _atom_site_fract_z
 _atom_site_occupancy
  Dy  Dy0  1  0.193137  0.385155  0.245942  1
  Dy  Dy1  1  0.806863  0.614845  0.754058  1
  Dy  Dy2  1  0.614845  0.806863  0.245942  1
  Dy  Dy3  1  0.385155  0.193137  0.754058  1
  Ho  Ho4  1  0.194238  0.805762  0.254987  1
  Ho  Ho5  1  0.805762  0.194238  0.745013  1
  Al  Al6  1  0.326775  0.673225  0.020891  1
  Al  Al7  1  0.673225  0.326775  0.979109  1
  Al  Al8  1  0.666360  0.333640  0.516897  1
  Al  Al9  1  0.333640  0.666360  0.483103  1
  Al  Al10  1  0.161707  0.324096  0.574809  1
  Al  Al11  1  0.838293  0.675904  0.425191  1
  Al  Al12  1  0.675904  0.838293  0.574809  1
  Al  Al13  1  0.853567  0.679560  0.082531  1
  Al  Al14  1  0.324096  0.161707  0.425191  1
  Al  Al15  1  0.146433  0.320440  0.917469  1
  Al  Al16  1  0.162444  0.837556  0.578574  1
  Al  Al17  1  0.320440  0.146433  0.082531  1
  Al  Al18  1  0.837556  0.162444  0.421426  1
  Al  Al19  1  0.679560  0.853567  0.917469  1
  Al  Al20  1  0.837575  0.162425  0.079075  1
  Al  Al21  1  0.162425  0.837575  0.920925  1
  Al  Al22  1  0.561342  0.120720  0.248938  1
  Al  Al23  1  0.438658  0.879280  0.751062  1
  Al  Al24  1  0.879280  0.438658  0.248938  1
  Al  Al25  1  0.120720  0.561342  0.751062  1
  Al  Al26  1  0.565598  0.434402  0.258541  1
  Al  Al27  1  0.434402  0.565598  0.741459  1
  Al  Al28  1  0.999041  0.000959  0.250670  1
  Al  Al29  1  0.000959  0.999041  0.749330  1
  Ga  Ga30  1  0.500000  0.500000  0.000000  1
  Ru  Ru31  1  0.500000  0.000000  0.000000  1
  Ru  Ru32  1  0.000000  0.500000  0.000000  1
  Ru  Ru33  1  0.500000  0.000000  0.500000  1
  Ru  Ru34  1  0.000000  0.500000  0.500000  1
  Ru  Ru35  1  0.500000  0.500000  0.500000  1
  Ru  Ru36  1  0.000000  0.000000  0.000000  1
  Ru  Ru37  1  0.000000  0.000000  0.500000  1
