# generated using pymatgen
data_Sc2Pa(Ni3P2)3
_symmetry_space_group_name_H-M   'P 1'
_cell_length_a   3.71953500
_cell_length_b   10.38578800
_cell_length_c   12.16502700
_cell_angle_alpha   90.00000000
_cell_angle_beta   90.00000000
_cell_angle_gamma   90.00000000
_symmetry_Int_Tables_number   1
_chemical_formula_structural   Sc2Pa(Ni3P2)3
_chemical_formula_sum   'Sc4 Pa2 Ni18 P12'
_cell_volume   469.93866647
_cell_formula_units_Z   2
loop_
 _symmetry_equiv_pos_site_id
 _symmetry_equiv_pos_as_xyz
  1  'x, y, z'
loop_
 _atom_site_type_symbol
 _atom_site_label
 _atom_site_symmetry_multiplicity
 _atom_site_fract_x
 _atom_site_fract_y
 _atom_site_fract_z
 _atom_site_occupancy
  Sc  Sc0  1  0.500000  0.816638  0.204213  1
  Sc  Sc1  1  0.500000  0.183362  0.204213  1
  Sc  Sc2  1  0.000000  0.683362  0.795787  1
  Sc  Sc3  1  0.000000  0.316638  0.795787  1
  Pa  Pa4  1  0.000000  0.500000  0.526284  1
  Pa  Pa5  1  0.500000  0.000000  0.473716  1
  Ni  Ni6  1  0.500000  0.500000  0.156191  1
  Ni  Ni7  1  0.000000  0.000000  0.843809  1
  Ni  Ni8  1  0.500000  0.500000  0.700396  1
  Ni  Ni9  1  0.000000  0.000000  0.299604  1
  Ni  Ni10  1  0.000000  0.500000  0.984584  1
  Ni  Ni11  1  0.500000  0.000000  0.015416  1
  Ni  Ni12  1  0.500000  0.332291  0.993940  1
  Ni  Ni13  1  0.500000  0.667709  0.993940  1
  Ni  Ni14  1  0.000000  0.167709  0.006060  1
  Ni  Ni15  1  0.000000  0.832291  0.006060  1
  Ni  Ni16  1  0.500000  0.301509  0.430326  1
  Ni  Ni17  1  0.500000  0.698491  0.430326  1
  Ni  Ni18  1  0.000000  0.198491  0.569674  1
  Ni  Ni19  1  0.000000  0.801509  0.569674  1
  Ni  Ni20  1  0.500000  0.877291  0.712466  1
  Ni  Ni21  1  0.500000  0.122709  0.712466  1
  Ni  Ni22  1  0.000000  0.622709  0.287534  1
  Ni  Ni23  1  0.000000  0.377291  0.287534  1
  P  P24  1  0.500000  0.500000  0.876085  1
  P  P25  1  0.000000  0.000000  0.123915  1
  P  P26  1  0.500000  0.500000  0.342235  1
  P  P27  1  0.000000  0.000000  0.657765  1
  P  P28  1  0.500000  0.310084  0.619691  1
  P  P29  1  0.500000  0.689916  0.619691  1
  P  P30  1  0.000000  0.189916  0.380309  1
  P  P31  1  0.000000  0.810084  0.380309  1
  P  P32  1  0.500000  0.844378  0.891074  1
  P  P33  1  0.500000  0.155622  0.891074  1
  P  P34  1  0.000000  0.655622  0.108926  1
  P  P35  1  0.000000  0.344378  0.108926  1
