# generated using pymatgen
data_Ta5Ti(ZnIr2)6
_symmetry_space_group_name_H-M   'P 1'
_cell_length_a   4.60126943
_cell_length_b   5.81636200
_cell_length_c   13.80997943
_cell_angle_alpha   89.99996804
_cell_angle_beta   101.44221477
_cell_angle_gamma   89.99984496
_symmetry_Int_Tables_number   1
_chemical_formula_structural   Ta5Ti(ZnIr2)6
_chemical_formula_sum   'Ta5 Ti1 Zn6 Ir12'
_cell_volume   362.24609644
_cell_formula_units_Z   1
loop_
 _symmetry_equiv_pos_site_id
 _symmetry_equiv_pos_as_xyz
  1  'x, y, z'
loop_
 _atom_site_type_symbol
 _atom_site_label
 _atom_site_symmetry_multiplicity
 _atom_site_fract_x
 _atom_site_fract_y
 _atom_site_fract_z
 _atom_site_occupancy
  Ta  Ta0  1  0.003848  0.000003  0.997426  1
  Ta  Ta1  1  0.502066  0.500006  0.165386  1
  Ta  Ta2  1  0.999716  0.999979  0.333325  1
  Ta  Ta3  1  0.497695  0.499993  0.501270  1
  Ta  Ta4  1  0.996404  0.000012  0.669244  1
  Ti  Ti5  1  0.500279  0.500091  0.833338  1
  Zn  Zn6  1  0.999839  0.499988  0.998695  1
  Zn  Zn7  1  0.501465  0.000009  0.165388  1
  Zn  Zn8  1  0.999705  0.499984  0.333339  1
  Zn  Zn9  1  0.498276  0.000005  0.501275  1
  Zn  Zn10  1  0.000419  0.499990  0.667966  1
  Zn  Zn11  1  0.500275  0.000001  0.833335  1
  Ir  Ir12  1  0.502355  0.249730  0.999154  1
  Ir  Ir13  1  0.502362  0.750263  0.999144  1
  Ir  Ir14  1  0.001908  0.251073  0.166456  1
  Ir  Ir15  1  0.001907  0.748915  0.166452  1
  Ir  Ir16  1  0.499740  0.248612  0.333335  1
  Ir  Ir17  1  0.499738  0.751381  0.333341  1
  Ir  Ir18  1  0.997870  0.251059  0.500214  1
  Ir  Ir19  1  0.997869  0.748922  0.500223  1
  Ir  Ir20  1  0.497875  0.249741  0.667517  1
  Ir  Ir21  1  0.497878  0.750262  0.667519  1
  Ir  Ir22  1  0.000261  0.254190  0.833332  1
  Ir  Ir23  1  0.000260  0.745794  0.833328  1
