# generated using pymatgen
data_Zr2Sc2Mn5Os3
_symmetry_space_group_name_H-M   'P 1'
_cell_length_a   5.00439100
_cell_length_b   5.05342044
_cell_length_c   8.43114767
_cell_angle_alpha   90.11540122
_cell_angle_beta   90.00000000
_cell_angle_gamma   119.67958809
_symmetry_Int_Tables_number   1
_chemical_formula_structural   Zr2Sc2Mn5Os3
_chemical_formula_sum   'Zr2 Sc2 Mn5 Os3'
_cell_volume   185.24478537
_cell_formula_units_Z   1
loop_
 _symmetry_equiv_pos_site_id
 _symmetry_equiv_pos_as_xyz
  1  'x, y, z'
loop_
 _atom_site_type_symbol
 _atom_site_label
 _atom_site_symmetry_multiplicity
 _atom_site_fract_x
 _atom_site_fract_y
 _atom_site_fract_z
 _atom_site_occupancy
  Zr  Zr0  1  0.333065  0.666131  0.061614  1
  Zr  Zr1  1  0.665805  0.331608  0.564545  1
  Sc  Sc2  1  0.665613  0.331224  0.934814  1
  Sc  Sc3  1  0.333325  0.666651  0.437230  1
  Mn  Mn4  1  0.178556  0.830558  0.750340  1
  Mn  Mn5  1  0.652002  0.830558  0.750340  1
  Mn  Mn6  1  0.337371  0.170508  0.250508  1
  Mn  Mn7  1  0.833136  0.170508  0.250508  1
  Mn  Mn8  1  0.175523  0.351048  0.750460  1
  Os  Os9  1  0.000395  0.000790  0.992707  1
  Os  Os10  1  0.999797  0.999594  0.506635  1
  Os  Os11  1  0.825409  0.650819  0.250300  1
