# generated using pymatgen
data_YHo7Cd2(SnAu4)2
_symmetry_space_group_name_H-M   'P 1'
_cell_length_a   8.00708022
_cell_length_b   8.00708022
_cell_length_c   7.33196104
_cell_angle_alpha   89.99201087
_cell_angle_beta   89.99201087
_cell_angle_gamma   90.11733792
_symmetry_Int_Tables_number   1
_chemical_formula_structural   YHo7Cd2(SnAu4)2
_chemical_formula_sum   'Y1 Ho7 Cd2 Sn2 Au8'
_cell_volume   470.07546895
_cell_formula_units_Z   1
loop_
 _symmetry_equiv_pos_site_id
 _symmetry_equiv_pos_as_xyz
  1  'x, y, z'
loop_
 _atom_site_type_symbol
 _atom_site_label
 _atom_site_symmetry_multiplicity
 _atom_site_fract_x
 _atom_site_fract_y
 _atom_site_fract_z
 _atom_site_occupancy
  Y  Y0  1  0.841460  0.158540  0.500000  1
  Ho  Ho1  1  0.158575  0.841425  0.500000  1
  Ho  Ho2  1  0.341587  0.341773  0.999985  1
  Ho  Ho3  1  0.658227  0.658413  0.000015  1
  Ho  Ho4  1  0.682801  0.682752  0.499972  1
  Ho  Ho5  1  0.317248  0.317199  0.500028  1
  Ho  Ho6  1  0.182914  0.817086  0.000000  1
  Ho  Ho7  1  0.817236  0.182764  0.000000  1
  Cd  Cd8  1  0.499894  0.999982  0.249913  1
  Cd  Cd9  1  0.000018  0.500106  0.750087  1
  Sn  Sn10  1  0.499972  0.999978  0.750146  1
  Sn  Sn11  1  0.000022  0.500028  0.249854  1
  Au  Au12  1  0.624415  0.369025  0.273305  1
  Au  Au13  1  0.374864  0.631708  0.274204  1
  Au  Au14  1  0.125678  0.131381  0.774787  1
  Au  Au15  1  0.875111  0.867907  0.774775  1
  Au  Au16  1  0.368292  0.625136  0.725796  1
  Au  Au17  1  0.630975  0.375585  0.726695  1
  Au  Au18  1  0.868619  0.874322  0.225213  1
  Au  Au19  1  0.132093  0.124889  0.225225  1
