# generated using pymatgen
data_Tb2SnGe3(PRh4)3
_symmetry_space_group_name_H-M   'P 1'
_cell_length_a   3.85486601
_cell_length_b   9.96820047
_cell_length_c   9.95866101
_cell_angle_alpha   119.95183332
_cell_angle_beta   89.99992895
_cell_angle_gamma   89.97675394
_symmetry_Int_Tables_number   1
_chemical_formula_structural   Tb2SnGe3(PRh4)3
_chemical_formula_sum   'Tb2 Sn1 Ge3 P3 Rh12'
_cell_volume   331.56460885
_cell_formula_units_Z   1
loop_
 _symmetry_equiv_pos_site_id
 _symmetry_equiv_pos_as_xyz
  1  'x, y, z'
loop_
 _atom_site_type_symbol
 _atom_site_label
 _atom_site_symmetry_multiplicity
 _atom_site_fract_x
 _atom_site_fract_y
 _atom_site_fract_z
 _atom_site_occupancy
  Tb  Tb0  1  0.238755  0.666690  0.333457  1
  Tb  Tb1  1  0.738150  0.333333  0.666678  1
  Sn  Sn2  1  0.735437  0.999884  0.999923  1
  Ge  Ge3  1  0.738267  0.883082  0.595338  1
  Ge  Ge4  1  0.738356  0.404819  0.287775  1
  Ge  Ge5  1  0.738575  0.712224  0.117195  1
  P  P6  1  0.238446  0.112001  0.404238  1
  P  P7  1  0.237920  0.595628  0.707919  1
  P  P8  1  0.237997  0.292219  0.887797  1
  Rh  Rh9  1  0.738230  0.137403  0.840149  1
  Rh  Rh10  1  0.738529  0.160108  0.297107  1
  Rh  Rh11  1  0.737806  0.703000  0.862965  1
  Rh  Rh12  1  0.238195  0.891931  0.148636  1
  Rh  Rh13  1  0.237818  0.850861  0.743032  1
  Rh  Rh14  1  0.238450  0.256854  0.108151  1
  Rh  Rh15  1  0.738004  0.616245  0.557591  1
  Rh  Rh16  1  0.738243  0.442300  0.058420  1
  Rh  Rh17  1  0.738306  0.941232  0.383520  1
  Rh  Rh18  1  0.238229  0.384731  0.454715  1
  Rh  Rh19  1  0.238083  0.545470  0.929965  1
  Rh  Rh20  1  0.238205  0.069985  0.615429  1
