# generated using pymatgen
data_Ho2Si6AsIr12
_symmetry_space_group_name_H-M   'P 1'
_cell_length_a   9.81713500
_cell_length_b   9.81713535
_cell_length_c   3.87543700
_cell_angle_alpha   90.00000000
_cell_angle_beta   90.00000000
_cell_angle_gamma   119.99999544
_symmetry_Int_Tables_number   1
_chemical_formula_structural   Ho2Si6AsIr12
_chemical_formula_sum   'Ho2 Si6 As1 Ir12'
_cell_volume   323.46021812
_cell_formula_units_Z   1
loop_
 _symmetry_equiv_pos_site_id
 _symmetry_equiv_pos_as_xyz
  1  'x, y, z'
loop_
 _atom_site_type_symbol
 _atom_site_label
 _atom_site_symmetry_multiplicity
 _atom_site_fract_x
 _atom_site_fract_y
 _atom_site_fract_z
 _atom_site_occupancy
  Ho  Ho0  1  0.333333  0.666667  0.250039  1
  Ho  Ho1  1  0.666667  0.333333  0.749961  1
  Si  Si2  1  0.406563  0.115255  0.249179  1
  Si  Si3  1  0.708692  0.593437  0.249179  1
  Si  Si4  1  0.884745  0.291308  0.249179  1
  Si  Si5  1  0.593437  0.884745  0.750821  1
  Si  Si6  1  0.291308  0.406563  0.750821  1
  Si  Si7  1  0.115255  0.708692  0.750821  1
  As  As8  1  0.000000  0.000000  0.500000  1
  Ir  Ir9  1  0.445376  0.381059  0.249574  1
  Ir  Ir10  1  0.935682  0.554624  0.249574  1
  Ir  Ir11  1  0.618941  0.064318  0.249574  1
  Ir  Ir12  1  0.554624  0.618941  0.750426  1
  Ir  Ir13  1  0.064318  0.445376  0.750426  1
  Ir  Ir14  1  0.381059  0.935682  0.750426  1
  Ir  Ir15  1  0.147217  0.880742  0.248251  1
  Ir  Ir16  1  0.733526  0.852783  0.248251  1
  Ir  Ir17  1  0.119258  0.266474  0.248251  1
  Ir  Ir18  1  0.852783  0.119258  0.751749  1
  Ir  Ir19  1  0.266474  0.147217  0.751749  1
  Ir  Ir20  1  0.880742  0.733526  0.751749  1
