# generated using pymatgen
data_Tm15Pa(InIr)4
_symmetry_space_group_name_H-M   'P 1'
_cell_length_a   9.54795244
_cell_length_b   9.54732694
_cell_length_c   9.54795907
_cell_angle_alpha   60.17623231
_cell_angle_beta   60.28640031
_cell_angle_gamma   60.17610318
_symmetry_Int_Tables_number   1
_chemical_formula_structural   Tm15Pa(InIr)4
_chemical_formula_sum   'Tm15 Pa1 In4 Ir4'
_cell_volume   618.40801675
_cell_formula_units_Z   1
loop_
 _symmetry_equiv_pos_site_id
 _symmetry_equiv_pos_as_xyz
  1  'x, y, z'
loop_
 _atom_site_type_symbol
 _atom_site_label
 _atom_site_symmetry_multiplicity
 _atom_site_fract_x
 _atom_site_fract_y
 _atom_site_fract_z
 _atom_site_occupancy
  Tm  Tm0  1  0.942118  0.937886  0.560030  1
  Tm  Tm1  1  0.939769  0.558151  0.939768  1
  Tm  Tm2  1  0.311179  0.687377  0.311179  1
  Tm  Tm3  1  0.940034  0.557490  0.561964  1
  Tm  Tm4  1  0.310286  0.311205  0.689947  1
  Tm  Tm5  1  0.099236  0.099796  0.099236  1
  Tm  Tm6  1  0.561962  0.557490  0.940035  1
  Tm  Tm7  1  0.100995  0.102827  0.697059  1
  Tm  Tm8  1  0.690629  0.308809  0.690627  1
  Tm  Tm9  1  0.692942  0.689026  0.308720  1
  Tm  Tm10  1  0.689948  0.311205  0.310285  1
  Tm  Tm11  1  0.308721  0.689025  0.692941  1
  Tm  Tm12  1  0.559193  0.940451  0.559193  1
  Tm  Tm13  1  0.697060  0.102826  0.100995  1
  Tm  Tm14  1  0.560030  0.937885  0.942120  1
  Pa  Pa15  1  0.094403  0.717847  0.094402  1
  In  In16  1  0.332284  0.336216  0.332284  1
  In  In17  1  0.999963  0.335527  0.332218  1
  In  In18  1  0.333567  0.999437  0.333568  1
  In  In19  1  0.332218  0.335525  0.999964  1
  Ir  Ir20  1  0.895731  0.888758  0.895730  1
  Ir  Ir21  1  0.895725  0.885295  0.321379  1
  Ir  Ir22  1  0.321380  0.885295  0.895725  1
  Ir  Ir23  1  0.890628  0.324652  0.890630  1
