# generated using pymatgen
data_YHfNb3Co9As7
_symmetry_space_group_name_H-M   'P 1'
_cell_length_a   3.79361800
_cell_length_b   9.52556365
_cell_length_c   9.52556400
_cell_angle_alpha   120.00000123
_cell_angle_beta   90.00000000
_cell_angle_gamma   90.00000000
_symmetry_Int_Tables_number   1
_chemical_formula_structural   YHfNb3Co9As7
_chemical_formula_sum   'Y1 Hf1 Nb3 Co9 As7'
_cell_volume   298.10249163
_cell_formula_units_Z   1
loop_
 _symmetry_equiv_pos_site_id
 _symmetry_equiv_pos_as_xyz
  1  'x, y, z'
loop_
 _atom_site_type_symbol
 _atom_site_label
 _atom_site_symmetry_multiplicity
 _atom_site_fract_x
 _atom_site_fract_y
 _atom_site_fract_z
 _atom_site_occupancy
  Y  Y0  1  0.500000  0.333333  0.666667  1
  Hf  Hf1  1  0.000000  0.666667  0.333333  1
  Nb  Nb2  1  0.500000  0.775201  0.898647  1
  Nb  Nb3  1  0.500000  0.123445  0.224799  1
  Nb  Nb4  1  0.500000  0.101353  0.876555  1
  Co  Co5  1  0.000000  0.569850  0.939124  1
  Co  Co6  1  0.000000  0.369274  0.430150  1
  Co  Co7  1  0.000000  0.060876  0.630726  1
  Co  Co8  1  0.000000  0.874819  0.163658  1
  Co  Co9  1  0.000000  0.288839  0.125181  1
  Co  Co10  1  0.000000  0.836342  0.711161  1
  Co  Co11  1  0.500000  0.941026  0.383167  1
  Co  Co12  1  0.500000  0.442140  0.058974  1
  Co  Co13  1  0.500000  0.616833  0.557860  1
  As  As14  1  0.000000  0.000000  0.000000  1
  As  As15  1  0.500000  0.707763  0.127662  1
  As  As16  1  0.500000  0.419898  0.292237  1
  As  As17  1  0.500000  0.872338  0.580102  1
  As  As18  1  0.000000  0.580592  0.692837  1
  As  As19  1  0.000000  0.112246  0.419408  1
  As  As20  1  0.000000  0.307163  0.887754  1
