# generated using pymatgen
data_Tb2Al4Pt3
_symmetry_space_group_name_H-M   'P 1'
_cell_length_a   13.61326900
_cell_length_b   13.61326844
_cell_length_c   4.26824100
_cell_angle_alpha   90.00000000
_cell_angle_beta   90.00000000
_cell_angle_gamma   119.99999407
_symmetry_Int_Tables_number   1
_chemical_formula_structural   Tb2Al4Pt3
_chemical_formula_sum   'Tb8 Al16 Pt12'
_cell_volume   685.02185202
_cell_formula_units_Z   4
loop_
 _symmetry_equiv_pos_site_id
 _symmetry_equiv_pos_as_xyz
  1  'x, y, z'
loop_
 _atom_site_type_symbol
 _atom_site_label
 _atom_site_symmetry_multiplicity
 _atom_site_fract_x
 _atom_site_fract_y
 _atom_site_fract_z
 _atom_site_occupancy
  Tb  Tb0  1  0.179337  0.000000  0.500000  1
  Tb  Tb1  1  0.820663  0.820663  0.500000  1
  Tb  Tb2  1  0.000000  0.179337  0.500000  1
  Tb  Tb3  1  0.666667  0.333333  0.000000  1
  Tb  Tb4  1  0.333333  0.666667  0.000000  1
  Tb  Tb5  1  0.548993  0.000000  0.000000  1
  Tb  Tb6  1  0.451007  0.451007  0.000000  1
  Tb  Tb7  1  0.000000  0.548993  0.000000  1
  Al  Al8  1  0.468760  0.124638  0.500000  1
  Al  Al9  1  0.875362  0.344123  0.500000  1
  Al  Al10  1  0.655877  0.531240  0.500000  1
  Al  Al11  1  0.531240  0.655877  0.500000  1
  Al  Al12  1  0.344123  0.875362  0.500000  1
  Al  Al13  1  0.124638  0.468760  0.500000  1
  Al  Al14  1  0.379044  0.198612  0.000000  1
  Al  Al15  1  0.801388  0.180434  0.000000  1
  Al  Al16  1  0.819566  0.620956  0.000000  1
  Al  Al17  1  0.620956  0.819566  0.000000  1
  Al  Al18  1  0.000000  0.000000  0.000000  1
  Al  Al19  1  0.180434  0.801388  0.000000  1
  Al  Al20  1  0.723200  0.000000  0.500000  1
  Al  Al21  1  0.276800  0.276800  0.500000  1
  Al  Al22  1  0.000000  0.723200  0.500000  1
  Al  Al23  1  0.198612  0.379044  0.000000  1
  Pt  Pt24  1  0.000000  0.348485  0.000000  1
  Pt  Pt25  1  0.348485  0.000000  0.000000  1
  Pt  Pt26  1  0.486599  0.318844  0.500000  1
  Pt  Pt27  1  0.681156  0.167754  0.500000  1
  Pt  Pt28  1  0.832246  0.513401  0.500000  1
  Pt  Pt29  1  0.513401  0.832246  0.500000  1
  Pt  Pt30  1  0.167754  0.681156  0.500000  1
  Pt  Pt31  1  0.318844  0.486599  0.500000  1
  Pt  Pt32  1  0.000000  0.819770  0.000000  1
  Pt  Pt33  1  0.180230  0.180230  0.000000  1
  Pt  Pt34  1  0.819770  0.000000  0.000000  1
  Pt  Pt35  1  0.651515  0.651515  0.000000  1
