# generated using pymatgen
data_Nb6Co12Ge4C
_symmetry_space_group_name_H-M   'P 1'
_cell_length_a   7.23090481
_cell_length_b   7.23090825
_cell_length_c   7.23090700
_cell_angle_alpha   109.47126121
_cell_angle_beta   109.47119131
_cell_angle_gamma   109.47119279
_symmetry_Int_Tables_number   1
_chemical_formula_structural   Nb6Co12Ge4C
_chemical_formula_sum   'Nb6 Co12 Ge4 C1'
_cell_volume   291.04253813
_cell_formula_units_Z   1
loop_
 _symmetry_equiv_pos_site_id
 _symmetry_equiv_pos_as_xyz
  1  'x, y, z'
loop_
 _atom_site_type_symbol
 _atom_site_label
 _atom_site_symmetry_multiplicity
 _atom_site_fract_x
 _atom_site_fract_y
 _atom_site_fract_z
 _atom_site_occupancy
  Nb  Nb0  1  0.270289  0.270289  0.000000  1
  Nb  Nb1  1  0.729713  0.729712  0.000000  1
  Nb  Nb2  1  0.270289  0.000000  0.270289  1
  Nb  Nb3  1  0.000000  0.270289  0.270289  1
  Nb  Nb4  1  0.729712  0.000001  0.729713  1
  Nb  Nb5  1  0.000000  0.729712  0.729712  1
  Co  Co6  1  0.650946  0.349055  0.000000  1
  Co  Co7  1  0.349055  0.650945  0.000000  1
  Co  Co8  1  0.650945  0.650945  0.301890  1
  Co  Co9  1  0.698107  0.349053  0.349053  1
  Co  Co10  1  0.349054  0.698108  0.349054  1
  Co  Co11  1  0.650946  0.000001  0.349056  1
  Co  Co12  1  0.000000  0.650945  0.349055  1
  Co  Co13  1  0.349056  0.000001  0.650946  1
  Co  Co14  1  0.650946  0.301891  0.650946  1
  Co  Co15  1  0.000000  0.349055  0.650946  1
  Co  Co16  1  0.301889  0.650945  0.650945  1
  Co  Co17  1  0.349053  0.349053  0.698107  1
  Ge  Ge18  1  0.500000  0.000001  0.000000  1
  Ge  Ge19  1  0.999999  0.499999  0.999998  1
  Ge  Ge20  1  0.000000  0.000001  0.500001  1
  Ge  Ge21  1  0.500001  0.499999  0.500000  1
  C  C22  1  0.000000  0.000000  0.000000  1
