# generated using pymatgen
data_CeMgTcH6
_symmetry_space_group_name_H-M   'P 1'
_cell_length_a   4.96327407
_cell_length_b   4.97555899
_cell_length_c   4.97731500
_cell_angle_alpha   120.15825973
_cell_angle_beta   119.94325743
_cell_angle_gamma   90.00053413
_symmetry_Int_Tables_number   1
_chemical_formula_structural   CeMgTcH6
_chemical_formula_sum   'Ce1 Mg1 Tc1 H6'
_cell_volume   86.77985887
_cell_formula_units_Z   1
loop_
 _symmetry_equiv_pos_site_id
 _symmetry_equiv_pos_as_xyz
  1  'x, y, z'
loop_
 _atom_site_type_symbol
 _atom_site_label
 _atom_site_symmetry_multiplicity
 _atom_site_fract_x
 _atom_site_fract_y
 _atom_site_fract_z
 _atom_site_occupancy
  Ce  Ce0  1  0.750206  0.249909  0.500338  1
  Mg  Mg1  1  0.250519  0.750359  0.500797  1
  Tc  Tc2  1  0.000074  0.999850  0.999897  1
  H  H3  1  0.251204  0.251175  0.999942  1
  H  H4  1  0.748636  0.251104  0.999905  1
  H  H5  1  0.251935  0.748858  0.000220  1
  H  H6  1  0.748185  0.748854  0.000109  1
  H  H7  1  0.748242  0.748688  0.496683  1
  H  H8  1  0.250995  0.251197  0.502104  1
