# generated using pymatgen
data_Nd2Fe3Co9P7
_symmetry_space_group_name_H-M   'P 1'
_cell_length_a   9.08257800
_cell_length_b   9.08257862
_cell_length_c   3.66207800
_cell_angle_alpha   90.00000000
_cell_angle_beta   90.00000000
_cell_angle_gamma   119.99999773
_symmetry_Int_Tables_number   1
_chemical_formula_structural   Nd2Fe3Co9P7
_chemical_formula_sum   'Nd2 Fe3 Co9 P7'
_cell_volume   261.62336916
_cell_formula_units_Z   1
loop_
 _symmetry_equiv_pos_site_id
 _symmetry_equiv_pos_as_xyz
  1  'x, y, z'
loop_
 _atom_site_type_symbol
 _atom_site_label
 _atom_site_symmetry_multiplicity
 _atom_site_fract_x
 _atom_site_fract_y
 _atom_site_fract_z
 _atom_site_occupancy
  Nd  Nd0  1  0.666667  0.333333  0.000000  1
  Nd  Nd1  1  0.333333  0.666667  0.500000  1
  Fe  Fe2  1  0.094326  0.879203  0.500000  1
  Fe  Fe3  1  0.784877  0.905674  0.500000  1
  Fe  Fe4  1  0.120797  0.215123  0.500000  1
  Co  Co5  1  0.058179  0.629287  0.000000  1
  Co  Co6  1  0.571108  0.941821  0.000000  1
  Co  Co7  1  0.370713  0.428892  0.000000  1
  Co  Co8  1  0.271571  0.117397  0.000000  1
  Co  Co9  1  0.845826  0.728429  0.000000  1
  Co  Co10  1  0.882603  0.154174  0.000000  1
  Co  Co11  1  0.431045  0.048166  0.500000  1
  Co  Co12  1  0.617121  0.568955  0.500000  1
  Co  Co13  1  0.951834  0.382879  0.500000  1
  P  P14  1  0.297393  0.892166  0.000000  1
  P  P15  1  0.594773  0.702607  0.000000  1
  P  P16  1  0.107834  0.405227  0.000000  1
  P  P17  1  0.396857  0.290359  0.500000  1
  P  P18  1  0.893502  0.603143  0.500000  1
  P  P19  1  0.709641  0.106498  0.500000  1
  P  P20  1  0.000000  0.000000  0.000000  1
