# generated using pymatgen
data_Ac8Zn3Si12Ag
_symmetry_space_group_name_H-M   'P 1'
_cell_length_a   11.84758411
_cell_length_b   10.20946228
_cell_length_c   8.47554289
_cell_angle_alpha   78.09434795
_cell_angle_beta   57.53025030
_cell_angle_gamma   44.42642031
_symmetry_Int_Tables_number   1
_chemical_formula_structural   Ac8Zn3Si12Ag
_chemical_formula_sum   'Ac8 Zn3 Si12 Ag1'
_cell_volume   577.57456870
_cell_formula_units_Z   1
loop_
 _symmetry_equiv_pos_site_id
 _symmetry_equiv_pos_as_xyz
  1  'x, y, z'
loop_
 _atom_site_type_symbol
 _atom_site_label
 _atom_site_symmetry_multiplicity
 _atom_site_fract_x
 _atom_site_fract_y
 _atom_site_fract_z
 _atom_site_occupancy
  Ac  Ac0  1  0.377875  0.376886  0.621063  1
  Ac  Ac1  1  0.621063  0.624176  0.377875  1
  Ac  Ac2  1  0.873919  0.873095  0.626608  1
  Ac  Ac3  1  0.626608  0.626379  0.873919  1
  Ac  Ac4  1  0.874209  0.878257  0.124526  1
  Ac  Ac5  1  0.124526  0.123007  0.874209  1
  Ac  Ac6  1  0.375858  0.373894  0.126258  1
  Ac  Ac7  1  0.126258  0.123990  0.375858  1
  Zn  Zn8  1  0.832850  0.167150  0.832850  1
  Zn  Zn9  1  0.166946  0.833054  0.166946  1
  Zn  Zn10  1  0.417182  0.082818  0.417182  1
  Si  Si11  1  0.665963  0.334037  0.665963  1
  Si  Si12  1  0.333982  0.666018  0.333982  1
  Si  Si13  1  0.584375  0.915625  0.584375  1
  Si  Si14  1  0.912944  0.587056  0.912944  1
  Si  Si15  1  0.331799  0.664384  0.834119  1
  Si  Si16  1  0.169950  0.832775  0.664546  1
  Si  Si17  1  0.834119  0.169697  0.331799  1
  Si  Si18  1  0.664546  0.332728  0.169950  1
  Si  Si19  1  0.914218  0.588559  0.422420  1
  Si  Si20  1  0.079525  0.417463  0.586010  1
  Si  Si21  1  0.422420  0.074803  0.914218  1
  Si  Si22  1  0.586010  0.917003  0.079525  1
  Ag  Ag23  1  0.082854  0.417146  0.082854  1
