# generated using pymatgen
data_PrTm3(B4Mo)4
_symmetry_space_group_name_H-M   'P 1'
_cell_length_a   3.63172300
_cell_length_b   6.03932592
_cell_length_c   11.67118523
_cell_angle_alpha   89.83236984
_cell_angle_beta   90.00000000
_cell_angle_gamma   90.00000000
_symmetry_Int_Tables_number   1
_chemical_formula_structural   PrTm3(B4Mo)4
_chemical_formula_sum   'Pr1 Tm3 B16 Mo4'
_cell_volume   255.98486410
_cell_formula_units_Z   1
loop_
 _symmetry_equiv_pos_site_id
 _symmetry_equiv_pos_as_xyz
  1  'x, y, z'
loop_
 _atom_site_type_symbol
 _atom_site_label
 _atom_site_symmetry_multiplicity
 _atom_site_fract_x
 _atom_site_fract_y
 _atom_site_fract_z
 _atom_site_occupancy
  Pr  Pr0  1  0.000000  0.373021  0.650680  1
  Tm  Tm1  1  0.000000  0.126738  0.149604  1
  Tm  Tm2  1  0.000000  0.872825  0.851668  1
  Tm  Tm3  1  0.000000  0.627169  0.349481  1
  B  B4  1  0.500000  0.020405  0.694054  1
  B  B5  1  0.500000  0.976542  0.304404  1
  B  B6  1  0.500000  0.527766  0.809780  1
  B  B7  1  0.500000  0.477023  0.194227  1
  B  B8  1  0.500000  0.109796  0.544644  1
  B  B9  1  0.500000  0.884186  0.449856  1
  B  B10  1  0.500000  0.615738  0.953897  1
  B  B11  1  0.500000  0.385770  0.049051  1
  B  B12  1  0.500000  0.287658  0.312027  1
  B  B13  1  0.500000  0.717652  0.687505  1
  B  B14  1  0.500000  0.787805  0.186283  1
  B  B15  1  0.500000  0.210416  0.816989  1
  B  B16  1  0.500000  0.366181  0.464571  1
  B  B17  1  0.500000  0.634583  0.528716  1
  B  B18  1  0.500000  0.867121  0.032887  1
  B  B19  1  0.500000  0.132264  0.969939  1
  Mo  Mo20  1  0.000000  0.128695  0.413727  1
  Mo  Mo21  1  0.000000  0.869819  0.582292  1
  Mo  Mo22  1  0.000000  0.630465  0.084964  1
  Mo  Mo23  1  0.000000  0.370363  0.918752  1
