# generated using pymatgen
data_Zr2Re3Os
_symmetry_space_group_name_H-M   'P 1'
_cell_length_a   5.24613000
_cell_length_b   5.24613063
_cell_length_c   8.79987900
_cell_angle_alpha   90.00000000
_cell_angle_beta   90.00000000
_cell_angle_gamma   120.00000865
_symmetry_Int_Tables_number   1
_chemical_formula_structural   Zr2Re3Os
_chemical_formula_sum   'Zr4 Re6 Os2'
_cell_volume   209.74201840
_cell_formula_units_Z   2
loop_
 _symmetry_equiv_pos_site_id
 _symmetry_equiv_pos_as_xyz
  1  'x, y, z'
loop_
 _atom_site_type_symbol
 _atom_site_label
 _atom_site_symmetry_multiplicity
 _atom_site_fract_x
 _atom_site_fract_y
 _atom_site_fract_z
 _atom_site_occupancy
  Zr  Zr0  1  0.333333  0.666667  0.435604  1
  Zr  Zr1  1  0.666667  0.333333  0.564396  1
  Zr  Zr2  1  0.666667  0.333333  0.935604  1
  Zr  Zr3  1  0.333333  0.666667  0.064396  1
  Re  Re4  1  0.828230  0.171770  0.250000  1
  Re  Re5  1  0.828230  0.656461  0.250000  1
  Re  Re6  1  0.343539  0.171770  0.250000  1
  Re  Re7  1  0.171770  0.828230  0.750000  1
  Re  Re8  1  0.171770  0.343539  0.750000  1
  Re  Re9  1  0.656461  0.828230  0.750000  1
  Os  Os10  1  0.000000  0.000000  0.500000  1
  Os  Os11  1  0.000000  0.000000  0.000000  1
