# generated using pymatgen
data_Hf3Cd13Hg2
_symmetry_space_group_name_H-M   'P 1'
_cell_length_a   16.23836920
_cell_length_b   16.23836961
_cell_length_c   6.84133221
_cell_angle_alpha   93.49809203
_cell_angle_beta   93.49809318
_cell_angle_gamma   12.56712194
_symmetry_Int_Tables_number   1
_chemical_formula_structural   Hf3Cd13Hg2
_chemical_formula_sum   'Hf3 Cd13 Hg2'
_cell_volume   391.76993566
_cell_formula_units_Z   1
loop_
 _symmetry_equiv_pos_site_id
 _symmetry_equiv_pos_as_xyz
  1  'x, y, z'
loop_
 _atom_site_type_symbol
 _atom_site_label
 _atom_site_symmetry_multiplicity
 _atom_site_fract_x
 _atom_site_fract_y
 _atom_site_fract_z
 _atom_site_occupancy
  Hf  Hf0  1  0.999619  0.999619  0.989073  1
  Hf  Hf1  1  0.665766  0.665766  0.334154  1
  Hf  Hf2  1  0.885838  0.885838  0.450068  1
  Cd  Cd3  1  0.105997  0.105997  0.042593  1
  Cd  Cd4  1  0.228187  0.228187  0.129966  1
  Cd  Cd5  1  0.332643  0.332643  0.161156  1
  Cd  Cd6  1  0.442974  0.442974  0.222563  1
  Cd  Cd7  1  0.555587  0.555587  0.272908  1
  Cd  Cd8  1  0.781319  0.781319  0.397352  1
  Cd  Cd9  1  0.997703  0.997703  0.479606  1
  Cd  Cd10  1  0.220369  0.220369  0.607826  1
  Cd  Cd11  1  0.445229  0.445229  0.712179  1
  Cd  Cd12  1  0.554654  0.554654  0.751071  1
  Cd  Cd13  1  0.669813  0.669813  0.871571  1
  Cd  Cd14  1  0.775837  0.775837  0.878784  1
  Cd  Cd15  1  0.891715  0.891715  0.952242  1
  Hg  Hg16  1  0.112638  0.112638  0.559392  1
  Hg  Hg17  1  0.334112  0.334112  0.687495  1
