# generated using pymatgen
data_PmGe2OsPt
_symmetry_space_group_name_H-M   'P 1'
_cell_length_a   6.05353672
_cell_length_b   6.05353705
_cell_length_c   6.05353663
_cell_angle_alpha   139.34792930
_cell_angle_beta   139.34793887
_cell_angle_gamma   58.84471430
_symmetry_Int_Tables_number   1
_chemical_formula_structural   PmGe2OsPt
_chemical_formula_sum   'Pm1 Ge2 Os1 Pt1'
_cell_volume   93.25685685
_cell_formula_units_Z   1
loop_
 _symmetry_equiv_pos_site_id
 _symmetry_equiv_pos_as_xyz
  1  'x, y, z'
loop_
 _atom_site_type_symbol
 _atom_site_label
 _atom_site_symmetry_multiplicity
 _atom_site_fract_x
 _atom_site_fract_y
 _atom_site_fract_z
 _atom_site_occupancy
  Pm  Pm0  1  0.000000  0.000000  0.000000  1
  Ge  Ge1  1  0.378314  0.378314  0.000000  1
  Ge  Ge2  1  0.621685  0.621685  0.000000  1
  Os  Os3  1  0.750000  0.250000  0.500000  1
  Pt  Pt4  1  0.250000  0.750000  0.500000  1
