# generated using pymatgen
data_Tl2(SO4)3
_symmetry_space_group_name_H-M   'P 1'
_cell_length_a   8.32340985
_cell_length_b   8.32341042
_cell_length_c   9.17671036
_cell_angle_alpha   67.24996990
_cell_angle_beta   67.24997164
_cell_angle_gamma   64.14252054
_symmetry_Int_Tables_number   1
_chemical_formula_structural   Tl2(SO4)3
_chemical_formula_sum   'Tl4 S6 O24'
_cell_volume   509.05640684
_cell_formula_units_Z   2
loop_
 _symmetry_equiv_pos_site_id
 _symmetry_equiv_pos_as_xyz
  1  'x, y, z'
loop_
 _atom_site_type_symbol
 _atom_site_label
 _atom_site_symmetry_multiplicity
 _atom_site_fract_x
 _atom_site_fract_y
 _atom_site_fract_z
 _atom_site_occupancy
  Tl  Tl0  1  0.370993  0.866886  0.479498  1
  Tl  Tl1  1  0.866886  0.370993  0.979498  1
  Tl  Tl2  1  0.133114  0.629007  0.020502  1
  Tl  Tl3  1  0.629007  0.133114  0.520502  1
  S  S4  1  0.751351  0.544085  0.324024  1
  S  S5  1  0.544085  0.751351  0.824024  1
  S  S6  1  0.037133  0.962867  0.250000  1
  S  S7  1  0.962867  0.037133  0.750000  1
  S  S8  1  0.455915  0.248649  0.175976  1
  S  S9  1  0.248649  0.455915  0.675976  1
  O  O10  1  0.843036  0.965817  0.349323  1
  O  O11  1  0.965817  0.843036  0.849323  1
  O  O12  1  0.864632  0.498271  0.428096  1
  O  O13  1  0.614604  0.741238  0.301572  1
  O  O14  1  0.867545  0.545184  0.144472  1
  O  O15  1  0.498271  0.864632  0.928096  1
  O  O16  1  0.156573  0.897785  0.358490  1
  O  O17  1  0.645180  0.418971  0.368335  1
  O  O18  1  0.741238  0.614604  0.801572  1
  O  O19  1  0.545184  0.867545  0.644472  1
  O  O20  1  0.897785  0.156573  0.858490  1
  O  O21  1  0.581029  0.354820  0.131665  1
  O  O22  1  0.418971  0.645180  0.868335  1
  O  O23  1  0.102215  0.843427  0.141510  1
  O  O24  1  0.454816  0.132455  0.355528  1
  O  O25  1  0.258762  0.385396  0.198428  1
  O  O26  1  0.354820  0.581029  0.631665  1
  O  O27  1  0.843427  0.102215  0.641510  1
  O  O28  1  0.501729  0.135368  0.071904  1
  O  O29  1  0.132455  0.454816  0.855528  1
  O  O30  1  0.385396  0.258762  0.698428  1
  O  O31  1  0.135368  0.501729  0.571904  1
  O  O32  1  0.034183  0.156964  0.150677  1
  O  O33  1  0.156964  0.034183  0.650677  1
