# generated using pymatgen
data_K3Tm(MoO4)3
_symmetry_space_group_name_H-M   'P 1'
_cell_length_a   9.55946000
_cell_length_b   11.12868000
_cell_length_c   13.94420300
_cell_angle_alpha   90.00000000
_cell_angle_beta   90.00000000
_cell_angle_gamma   90.00000000
_symmetry_Int_Tables_number   1
_chemical_formula_structural   K3Tm(MoO4)3
_chemical_formula_sum   'K12 Tm4 Mo12 O48'
_cell_volume   1483.44248077
_cell_formula_units_Z   4
loop_
 _symmetry_equiv_pos_site_id
 _symmetry_equiv_pos_as_xyz
  1  'x, y, z'
loop_
 _atom_site_type_symbol
 _atom_site_label
 _atom_site_symmetry_multiplicity
 _atom_site_fract_x
 _atom_site_fract_y
 _atom_site_fract_z
 _atom_site_occupancy
  K  K0  1  0.820163  0.229385  0.747295  1
  K  K1  1  0.545063  0.764054  0.536326  1
  K  K2  1  0.179837  0.770615  0.247295  1
  K  K3  1  0.526160  0.981811  0.251122  1
  K  K4  1  0.526160  0.518189  0.751122  1
  K  K5  1  0.473840  0.018189  0.751122  1
  K  K6  1  0.454937  0.235946  0.036326  1
  K  K7  1  0.820163  0.270615  0.247295  1
  K  K8  1  0.545063  0.735946  0.036326  1
  K  K9  1  0.473840  0.481811  0.251122  1
  K  K10  1  0.179837  0.729385  0.747295  1
  K  K11  1  0.454937  0.264054  0.536326  1
  Tm  Tm12  1  0.064340  0.249123  0.494341  1
  Tm  Tm13  1  0.064340  0.250877  0.994341  1
  Tm  Tm14  1  0.935660  0.749123  0.494341  1
  Tm  Tm15  1  0.935660  0.750877  0.994341  1
  Mo  Mo16  1  0.740628  0.048962  0.001564  1
  Mo  Mo17  1  0.258656  0.952003  0.989107  1
  Mo  Mo18  1  0.813715  0.836851  0.743331  1
  Mo  Mo19  1  0.741344  0.452003  0.989107  1
  Mo  Mo20  1  0.258656  0.547997  0.489107  1
  Mo  Mo21  1  0.259372  0.951038  0.501564  1
  Mo  Mo22  1  0.186284  0.163149  0.243331  1
  Mo  Mo23  1  0.186284  0.336851  0.743331  1
  Mo  Mo24  1  0.741344  0.047997  0.489107  1
  Mo  Mo25  1  0.259372  0.548962  0.001564  1
  Mo  Mo26  1  0.813715  0.663149  0.243331  1
  Mo  Mo27  1  0.740628  0.451038  0.501564  1
  O  O28  1  0.603466  0.429841  0.072767  1
  O  O29  1  0.928545  0.804082  0.643366  1
  O  O30  1  0.309165  0.612040  0.113993  1
  O  O31  1  0.077313  0.207193  0.343825  1
  O  O32  1  0.101810  0.878896  0.033249  1
  O  O33  1  0.898190  0.121104  0.533249  1
  O  O34  1  0.396534  0.570159  0.572767  1
  O  O35  1  0.223613  0.491973  0.748135  1
  O  O36  1  0.765727  0.886804  0.013718  1
  O  O37  1  0.898161  0.378857  0.458239  1
  O  O38  1  0.898190  0.378896  0.033249  1
  O  O39  1  0.071455  0.304083  0.643366  1
  O  O40  1  0.691860  0.112708  0.377944  1
  O  O41  1  0.652513  0.757375  0.734074  1
  O  O42  1  0.397311  0.918084  0.421107  1
  O  O43  1  0.308140  0.887292  0.877944  1
  O  O44  1  0.231092  0.112847  0.973697  1
  O  O45  1  0.308140  0.612708  0.377944  1
  O  O46  1  0.652513  0.742625  0.234074  1
  O  O47  1  0.928545  0.695918  0.143366  1
  O  O48  1  0.768908  0.887153  0.473697  1
  O  O49  1  0.776387  0.508027  0.248135  1
  O  O50  1  0.922687  0.707193  0.343825  1
  O  O51  1  0.602689  0.418084  0.421107  1
  O  O52  1  0.397311  0.581916  0.921107  1
  O  O53  1  0.077313  0.292807  0.843825  1
  O  O54  1  0.234273  0.386804  0.013718  1
  O  O55  1  0.690835  0.387960  0.613993  1
  O  O56  1  0.071455  0.195917  0.143366  1
  O  O57  1  0.101839  0.621143  0.958239  1
  O  O58  1  0.602689  0.081916  0.921107  1
  O  O59  1  0.396534  0.929841  0.072767  1
  O  O60  1  0.765727  0.613196  0.513718  1
  O  O61  1  0.347487  0.242625  0.234074  1
  O  O62  1  0.922687  0.792807  0.843825  1
  O  O63  1  0.690835  0.112040  0.113993  1
  O  O64  1  0.691860  0.387292  0.877944  1
  O  O65  1  0.776387  0.991973  0.748135  1
  O  O66  1  0.231092  0.387153  0.473697  1
  O  O67  1  0.101810  0.621104  0.533249  1
  O  O68  1  0.223613  0.008027  0.248135  1
  O  O69  1  0.347487  0.257375  0.734074  1
  O  O70  1  0.603466  0.070159  0.572767  1
  O  O71  1  0.898161  0.121143  0.958239  1
  O  O72  1  0.768908  0.612847  0.973697  1
  O  O73  1  0.101839  0.878857  0.458239  1
  O  O74  1  0.309165  0.887960  0.613993  1
  O  O75  1  0.234273  0.113196  0.513718  1
