# generated using pymatgen
data_Zr2TiGeMoP
_symmetry_space_group_name_H-M   'P 1'
_cell_length_a   3.56644900
_cell_length_b   6.92141300
_cell_length_c   8.32249600
_cell_angle_alpha   90.00000000
_cell_angle_beta   90.00000000
_cell_angle_gamma   90.00000000
_symmetry_Int_Tables_number   1
_chemical_formula_structural   Zr2TiGeMoP
_chemical_formula_sum   'Zr4 Ti2 Ge2 Mo2 P2'
_cell_volume   205.43970248
_cell_formula_units_Z   2
loop_
 _symmetry_equiv_pos_site_id
 _symmetry_equiv_pos_as_xyz
  1  'x, y, z'
loop_
 _atom_site_type_symbol
 _atom_site_label
 _atom_site_symmetry_multiplicity
 _atom_site_fract_x
 _atom_site_fract_y
 _atom_site_fract_z
 _atom_site_occupancy
  Zr  Zr0  1  0.250000  0.550896  0.838706  1
  Zr  Zr1  1  0.250000  0.050896  0.661294  1
  Zr  Zr2  1  0.750000  0.462184  0.171895  1
  Zr  Zr3  1  0.750000  0.962184  0.328105  1
  Ti  Ti4  1  0.250000  0.622945  0.435048  1
  Ti  Ti5  1  0.250000  0.122945  0.064952  1
  Ge  Ge6  1  0.750000  0.245062  0.862662  1
  Ge  Ge7  1  0.750000  0.745062  0.637338  1
  Mo  Mo8  1  0.750000  0.363861  0.551088  1
  Mo  Mo9  1  0.750000  0.863861  0.948912  1
  P  P10  1  0.250000  0.755052  0.142217  1
  P  P11  1  0.250000  0.255052  0.357783  1
