# generated using pymatgen
data_Hf9Ta3CoMo
_symmetry_space_group_name_H-M   'P 1'
_cell_length_a   8.85588800
_cell_length_b   8.85588802
_cell_length_c   8.45598200
_cell_angle_alpha   90.00000000
_cell_angle_beta   90.00000000
_cell_angle_gamma   119.99999994
_symmetry_Int_Tables_number   1
_chemical_formula_structural   Hf9Ta3CoMo
_chemical_formula_sum   'Hf18 Ta6 Co2 Mo2'
_cell_volume   574.32657654
_cell_formula_units_Z   2
loop_
 _symmetry_equiv_pos_site_id
 _symmetry_equiv_pos_as_xyz
  1  'x, y, z'
loop_
 _atom_site_type_symbol
 _atom_site_label
 _atom_site_symmetry_multiplicity
 _atom_site_fract_x
 _atom_site_fract_y
 _atom_site_fract_z
 _atom_site_occupancy
  Hf  Hf0  1  0.203091  0.796909  0.438835  1
  Hf  Hf1  1  0.203091  0.406182  0.438835  1
  Hf  Hf2  1  0.593818  0.796909  0.438835  1
  Hf  Hf3  1  0.796909  0.203091  0.561165  1
  Hf  Hf4  1  0.796909  0.593818  0.561165  1
  Hf  Hf5  1  0.406182  0.203091  0.561165  1
  Hf  Hf6  1  0.796909  0.203091  0.938835  1
  Hf  Hf7  1  0.796909  0.593818  0.938835  1
  Hf  Hf8  1  0.406182  0.203091  0.938835  1
  Hf  Hf9  1  0.203091  0.796909  0.061165  1
  Hf  Hf10  1  0.203091  0.406182  0.061165  1
  Hf  Hf11  1  0.593818  0.796909  0.061165  1
  Hf  Hf12  1  0.541430  0.458570  0.250000  1
  Hf  Hf13  1  0.541430  0.082858  0.250000  1
  Hf  Hf14  1  0.917142  0.458570  0.250000  1
  Hf  Hf15  1  0.458570  0.541430  0.750000  1
  Hf  Hf16  1  0.458570  0.917142  0.750000  1
  Hf  Hf17  1  0.082858  0.541430  0.750000  1
  Ta  Ta18  1  0.887027  0.112973  0.250000  1
  Ta  Ta19  1  0.887027  0.774054  0.250000  1
  Ta  Ta20  1  0.225946  0.112973  0.250000  1
  Ta  Ta21  1  0.112973  0.887027  0.750000  1
  Ta  Ta22  1  0.112973  0.225946  0.750000  1
  Ta  Ta23  1  0.774054  0.887027  0.750000  1
  Co  Co24  1  0.333333  0.666667  0.250000  1
  Co  Co25  1  0.666667  0.333333  0.750000  1
  Mo  Mo26  1  0.000000  0.000000  0.500000  1
  Mo  Mo27  1  0.000000  0.000000  0.000000  1
