# generated using pymatgen
data_La8Tm12Si15Ir
_symmetry_space_group_name_H-M   'P 1'
_cell_length_a   7.53593400
_cell_length_b   7.94898300
_cell_length_c   14.90020300
_cell_angle_alpha   90.00000000
_cell_angle_beta   90.00000000
_cell_angle_gamma   90.08128395
_symmetry_Int_Tables_number   1
_chemical_formula_structural   La8Tm12Si15Ir
_chemical_formula_sum   'La8 Tm12 Si15 Ir1'
_cell_volume   892.56612972
_cell_formula_units_Z   1
loop_
 _symmetry_equiv_pos_site_id
 _symmetry_equiv_pos_as_xyz
  1  'x, y, z'
loop_
 _atom_site_type_symbol
 _atom_site_label
 _atom_site_symmetry_multiplicity
 _atom_site_fract_x
 _atom_site_fract_y
 _atom_site_fract_z
 _atom_site_occupancy
  La  La0  1  0.016749  0.182277  0.097804  1
  La  La1  1  0.986508  0.825523  0.902996  1
  La  La2  1  0.484577  0.676498  0.903857  1
  La  La3  1  0.986508  0.825523  0.597004  1
  La  La4  1  0.516033  0.322847  0.096894  1
  La  La5  1  0.016749  0.182277  0.402196  1
  La  La6  1  0.516033  0.322847  0.403106  1
  La  La7  1  0.484577  0.676498  0.596143  1
  Tm  Tm8  1  0.154046  0.505408  0.750000  1
  Tm  Tm9  1  0.841216  0.491054  0.250000  1
  Tm  Tm10  1  0.341385  0.010454  0.250000  1
  Tm  Tm11  1  0.667108  0.994398  0.750000  1
  Tm  Tm12  1  0.312961  0.171903  0.627744  1
  Tm  Tm13  1  0.676707  0.826816  0.373959  1
  Tm  Tm14  1  0.177291  0.677467  0.374776  1
  Tm  Tm15  1  0.676707  0.826816  0.126041  1
  Tm  Tm16  1  0.833321  0.315244  0.627381  1
  Tm  Tm17  1  0.312961  0.171903  0.872256  1
  Tm  Tm18  1  0.833321  0.315244  0.872619  1
  Tm  Tm19  1  0.177291  0.677467  0.125224  1
  Si  Si20  1  0.973977  0.881474  0.250000  1
  Si  Si21  1  0.472602  0.617119  0.250000  1
  Si  Si22  1  0.527137  0.388388  0.750000  1
  Si  Si23  1  0.278073  0.874738  0.750000  1
  Si  Si24  1  0.716504  0.124088  0.250000  1
  Si  Si25  1  0.218118  0.377608  0.250000  1
  Si  Si26  1  0.772623  0.615678  0.750000  1
  Si  Si27  1  0.150169  0.472508  0.538410  1
  Si  Si28  1  0.852992  0.534914  0.461904  1
  Si  Si29  1  0.353141  0.967344  0.461026  1
  Si  Si30  1  0.852992  0.534914  0.038096  1
  Si  Si31  1  0.645304  0.032127  0.538199  1
  Si  Si32  1  0.150169  0.472508  0.961590  1
  Si  Si33  1  0.645304  0.032127  0.961801  1
  Si  Si34  1  0.353141  0.967344  0.038974  1
  Ir  Ir35  1  0.025696  0.108651  0.750000  1
