# generated using pymatgen
data_Li2Zr6Al14SiRh7
_symmetry_space_group_name_H-M   'P 1'
_cell_length_a   8.79583247
_cell_length_b   8.79583097
_cell_length_c   8.79583245
_cell_angle_alpha   120.19313422
_cell_angle_beta   120.00989590
_cell_angle_gamma   89.82433510
_symmetry_Int_Tables_number   1
_chemical_formula_structural   Li2Zr6Al14SiRh7
_chemical_formula_sum   'Li2 Zr6 Al14 Si1 Rh7'
_cell_volume   480.44676322
_cell_formula_units_Z   1
loop_
 _symmetry_equiv_pos_site_id
 _symmetry_equiv_pos_as_xyz
  1  'x, y, z'
loop_
 _atom_site_type_symbol
 _atom_site_label
 _atom_site_symmetry_multiplicity
 _atom_site_fract_x
 _atom_site_fract_y
 _atom_site_fract_z
 _atom_site_occupancy
  Li  Li0  1  0.378200  0.119124  0.740924  1
  Li  Li1  1  0.378200  0.637277  0.259076  1
  Zr  Zr2  1  0.788281  0.291827  0.082984  1
  Zr  Zr3  1  0.208844  0.291827  0.503546  1
  Zr  Zr4  1  0.209397  0.709397  0.500000  1
  Zr  Zr5  1  0.208844  0.705298  0.917016  1
  Zr  Zr6  1  0.788281  0.705298  0.496454  1
  Zr  Zr7  1  0.794163  0.294163  0.500000  1
  Al  Al8  1  0.163899  0.342983  0.179083  1
  Al  Al9  1  0.163899  0.984817  0.820917  1
  Al  Al10  1  0.169246  0.337155  0.832090  1
  Al  Al11  1  0.505063  0.337155  0.167910  1
  Al  Al12  1  0.839505  0.663698  0.824195  1
  Al  Al13  1  0.839505  0.015308  0.175805  1
  Al  Al14  1  0.840931  0.662693  0.178239  1
  Al  Al15  1  0.484454  0.662693  0.821761  1
  Al  Al16  1  0.378990  0.120677  0.258314  1
  Al  Al17  1  0.862364  0.120677  0.741686  1
  Al  Al18  1  0.618635  0.878443  0.259809  1
  Al  Al19  1  0.618635  0.358826  0.740191  1
  Al  Al20  1  0.615374  0.879172  0.736201  1
  Al  Al21  1  0.142971  0.879172  0.263799  1
  Si  Si22  1  0.001972  0.501972  0.500000  1
  Rh  Rh23  1  0.991208  0.999745  0.496623  1
  Rh  Rh24  1  0.503122  0.999745  0.008537  1
  Rh  Rh25  1  0.504846  0.504846  0.000000  1
  Rh  Rh26  1  0.503122  0.494585  0.503377  1
  Rh  Rh27  1  0.991208  0.494585  0.991463  1
  Rh  Rh28  1  0.001348  0.001348  0.000000  1
  Rh  Rh29  1  0.505489  0.005489  0.500000  1
