# generated using pymatgen
data_Zr2MnAgF11
_symmetry_space_group_name_H-M   'P 1'
_cell_length_a   5.92882544
_cell_length_b   5.92882508
_cell_length_c   7.94852211
_cell_angle_alpha   69.41038845
_cell_angle_beta   69.41038791
_cell_angle_gamma   73.17253313
_symmetry_Int_Tables_number   1
_chemical_formula_structural   Zr2MnAgF11
_chemical_formula_sum   'Zr2 Mn1 Ag1 F11'
_cell_volume   240.42106894
_cell_formula_units_Z   1
loop_
 _symmetry_equiv_pos_site_id
 _symmetry_equiv_pos_as_xyz
  1  'x, y, z'
loop_
 _atom_site_type_symbol
 _atom_site_label
 _atom_site_symmetry_multiplicity
 _atom_site_fract_x
 _atom_site_fract_y
 _atom_site_fract_z
 _atom_site_occupancy
  Zr  Zr0  1  0.491865  0.491865  0.238118  1
  Zr  Zr1  1  0.508135  0.508135  0.761882  1
  Mn  Mn2  1  0.000000  0.000000  0.500000  1
  Ag  Ag3  1  0.000000  0.000000  0.000000  1
  F  F4  1  0.201579  0.771551  0.311627  1
  F  F5  1  0.228449  0.798421  0.688373  1
  F  F6  1  0.798421  0.228449  0.688373  1
  F  F7  1  0.771551  0.201579  0.311627  1
  F  F8  1  0.500000  0.500000  0.500000  1
  F  F9  1  0.663819  0.336181  0.000000  1
  F  F10  1  0.336181  0.663819  0.000000  1
  F  F11  1  0.747997  0.747997  0.647371  1
  F  F12  1  0.252003  0.252003  0.352629  1
  F  F13  1  0.723402  0.723402  0.112037  1
  F  F14  1  0.276598  0.276598  0.887963  1
