# generated using pymatgen
data_Yb2PrLu5(B6Ru)4
_symmetry_space_group_name_H-M   'P 1'
_cell_length_a   3.62438700
_cell_length_b   9.09312816
_cell_length_c   11.49812640
_cell_angle_alpha   90.02615487
_cell_angle_beta   90.00000000
_cell_angle_gamma   90.00000000
_symmetry_Int_Tables_number   1
_chemical_formula_structural   Yb2PrLu5(B6Ru)4
_chemical_formula_sum   'Yb2 Pr1 Lu5 B24 Ru4'
_cell_volume   378.94389059
_cell_formula_units_Z   1
loop_
 _symmetry_equiv_pos_site_id
 _symmetry_equiv_pos_as_xyz
  1  'x, y, z'
loop_
 _atom_site_type_symbol
 _atom_site_label
 _atom_site_symmetry_multiplicity
 _atom_site_fract_x
 _atom_site_fract_y
 _atom_site_fract_z
 _atom_site_occupancy
  Yb  Yb0  1  0.000000  0.677430  0.586225  1
  Yb  Yb1  1  0.000000  0.822757  0.084837  1
  Pr  Pr2  1  0.000000  0.323796  0.414875  1
  Lu  Lu3  1  0.000000  0.175798  0.915125  1
  Lu  Lu4  1  0.000000  0.940735  0.368395  1
  Lu  Lu5  1  0.000000  0.055447  0.631398  1
  Lu  Lu6  1  0.000000  0.443952  0.128750  1
  Lu  Lu7  1  0.000000  0.559030  0.870226  1
  B  B8  1  0.500000  0.557583  0.432329  1
  B  B9  1  0.500000  0.446257  0.571332  1
  B  B10  1  0.500000  0.054034  0.066024  1
  B  B11  1  0.500000  0.946236  0.932976  1
  B  B12  1  0.500000  0.750307  0.417565  1
  B  B13  1  0.500000  0.249563  0.585996  1
  B  B14  1  0.500000  0.249572  0.079647  1
  B  B15  1  0.500000  0.751320  0.917873  1
  B  B16  1  0.500000  0.791405  0.263769  1
  B  B17  1  0.500000  0.207210  0.737985  1
  B  B18  1  0.500000  0.290587  0.231747  1
  B  B19  1  0.500000  0.709604  0.765370  1
  B  B20  1  0.500000  0.631196  0.183583  1
  B  B21  1  0.500000  0.369094  0.817017  1
  B  B22  1  0.500000  0.128300  0.312355  1
  B  B23  1  0.500000  0.869765  0.685360  1
  B  B24  1  0.500000  0.982076  0.210611  1
  B  B25  1  0.500000  0.017548  0.788873  1
  B  B26  1  0.500000  0.485919  0.285862  1
  B  B27  1  0.500000  0.517306  0.714099  1
  B  B28  1  0.500000  0.599902  0.026725  1
  B  B29  1  0.500000  0.398841  0.972020  1
  B  B30  1  0.500000  0.095444  0.473683  1
  B  B31  1  0.500000  0.900945  0.526864  1
  Ru  Ru32  1  0.000000  0.640339  0.318362  1
  Ru  Ru33  1  0.000000  0.359010  0.683809  1
  Ru  Ru34  1  0.000000  0.138858  0.178099  1
  Ru  Ru35  1  0.000000  0.862834  0.820233  1
