# generated using pymatgen
data_ScFeNi4P3
_symmetry_space_group_name_H-M   'P 1'
_cell_length_a   3.61925900
_cell_length_b   10.19501400
_cell_length_c   11.78233500
_cell_angle_alpha   90.00000000
_cell_angle_beta   90.00000000
_cell_angle_gamma   90.00000000
_symmetry_Int_Tables_number   1
_chemical_formula_structural   ScFeNi4P3
_chemical_formula_sum   'Sc4 Fe4 Ni16 P12'
_cell_volume   434.74926469
_cell_formula_units_Z   4
loop_
 _symmetry_equiv_pos_site_id
 _symmetry_equiv_pos_as_xyz
  1  'x, y, z'
loop_
 _atom_site_type_symbol
 _atom_site_label
 _atom_site_symmetry_multiplicity
 _atom_site_fract_x
 _atom_site_fract_y
 _atom_site_fract_z
 _atom_site_occupancy
  Sc  Sc0  1  0.250000  0.578390  0.706057  1
  Sc  Sc1  1  0.250000  0.921610  0.206057  1
  Sc  Sc2  1  0.750000  0.421610  0.293943  1
  Sc  Sc3  1  0.750000  0.078390  0.793943  1
  Fe  Fe4  1  0.250000  0.462745  0.930512  1
  Fe  Fe5  1  0.250000  0.037255  0.430512  1
  Fe  Fe6  1  0.750000  0.537255  0.069488  1
  Fe  Fe7  1  0.750000  0.962745  0.569488  1
  Ni  Ni8  1  0.250000  0.715524  0.993409  1
  Ni  Ni9  1  0.250000  0.784476  0.493409  1
  Ni  Ni10  1  0.750000  0.284476  0.006591  1
  Ni  Ni11  1  0.750000  0.215524  0.506591  1
  Ni  Ni12  1  0.250000  0.408351  0.485688  1
  Ni  Ni13  1  0.250000  0.091649  0.985688  1
  Ni  Ni14  1  0.750000  0.591649  0.514312  1
  Ni  Ni15  1  0.750000  0.908351  0.014312  1
  Ni  Ni16  1  0.250000  0.225200  0.177393  1
  Ni  Ni17  1  0.250000  0.274800  0.677393  1
  Ni  Ni18  1  0.750000  0.774800  0.822607  1
  Ni  Ni19  1  0.750000  0.725200  0.322607  1
  Ni  Ni20  1  0.250000  0.877603  0.702866  1
  Ni  Ni21  1  0.250000  0.622397  0.202866  1
  Ni  Ni22  1  0.750000  0.122397  0.297134  1
  Ni  Ni23  1  0.750000  0.377603  0.797134  1
  P  P24  1  0.250000  0.425522  0.114238  1
  P  P25  1  0.250000  0.074478  0.614238  1
  P  P26  1  0.750000  0.574478  0.885762  1
  P  P27  1  0.750000  0.925522  0.385762  1
  P  P28  1  0.250000  0.263927  0.868013  1
  P  P29  1  0.250000  0.236073  0.368013  1
  P  P30  1  0.750000  0.736073  0.131987  1
  P  P31  1  0.750000  0.763927  0.631987  1
  P  P32  1  0.250000  0.599801  0.390768  1
  P  P33  1  0.250000  0.900199  0.890768  1
  P  P34  1  0.750000  0.400199  0.609232  1
  P  P35  1  0.750000  0.099801  0.109232  1
