# generated using pymatgen
data_TbTmHf2(Co5P3)4
_symmetry_space_group_name_H-M   'P 1'
_cell_length_a   3.61459700
_cell_length_b   10.19160506
_cell_length_c   11.64698607
_cell_angle_alpha   89.98735262
_cell_angle_beta   90.00000000
_cell_angle_gamma   90.00000000
_symmetry_Int_Tables_number   1
_chemical_formula_structural   TbTmHf2(Co5P3)4
_chemical_formula_sum   'Tb1 Tm1 Hf2 Co20 P12'
_cell_volume   429.05801100
_cell_formula_units_Z   1
loop_
 _symmetry_equiv_pos_site_id
 _symmetry_equiv_pos_as_xyz
  1  'x, y, z'
loop_
 _atom_site_type_symbol
 _atom_site_label
 _atom_site_symmetry_multiplicity
 _atom_site_fract_x
 _atom_site_fract_y
 _atom_site_fract_z
 _atom_site_occupancy
  Tb  Tb0  1  0.750000  0.082650  0.796651  1
  Tm  Tm1  1  0.750000  0.417562  0.296822  1
  Hf  Hf2  1  0.250000  0.581719  0.701195  1
  Hf  Hf3  1  0.250000  0.918198  0.201242  1
  Co  Co4  1  0.250000  0.718838  0.993920  1
  Co  Co5  1  0.250000  0.780590  0.493300  1
  Co  Co6  1  0.750000  0.282215  0.008837  1
  Co  Co7  1  0.750000  0.218030  0.508558  1
  Co  Co8  1  0.250000  0.410002  0.489712  1
  Co  Co9  1  0.250000  0.089829  0.991503  1
  Co  Co10  1  0.750000  0.593214  0.516865  1
  Co  Co11  1  0.750000  0.906373  0.017205  1
  Co  Co12  1  0.250000  0.222141  0.178359  1
  Co  Co13  1  0.250000  0.279170  0.677594  1
  Co  Co14  1  0.750000  0.776149  0.822727  1
  Co  Co15  1  0.750000  0.723357  0.322587  1
  Co  Co16  1  0.250000  0.879572  0.698432  1
  Co  Co17  1  0.250000  0.619039  0.199181  1
  Co  Co18  1  0.750000  0.113271  0.298697  1
  Co  Co19  1  0.750000  0.387530  0.798929  1
  Co  Co20  1  0.250000  0.471124  0.928352  1
  Co  Co21  1  0.250000  0.029584  0.427441  1
  Co  Co22  1  0.750000  0.535107  0.067114  1
  Co  Co23  1  0.750000  0.964380  0.566015  1
  P  P24  1  0.250000  0.419279  0.111311  1
  P  P25  1  0.250000  0.080940  0.609650  1
  P  P26  1  0.750000  0.581955  0.883993  1
  P  P27  1  0.750000  0.918027  0.383479  1
  P  P28  1  0.250000  0.270656  0.872456  1
  P  P29  1  0.250000  0.231159  0.371681  1
  P  P30  1  0.750000  0.733137  0.131892  1
  P  P31  1  0.750000  0.766622  0.631766  1
  P  P32  1  0.250000  0.600693  0.390416  1
  P  P33  1  0.250000  0.897893  0.891013  1
  P  P34  1  0.750000  0.400840  0.610511  1
  P  P35  1  0.750000  0.099157  0.110595  1
