# generated using pymatgen
data_TbEr3ReB12Ru
_symmetry_space_group_name_H-M   'P 1'
_cell_length_a   3.65544700
_cell_length_b   9.12839805
_cell_length_c   11.51704301
_cell_angle_alpha   90.20426227
_cell_angle_beta   90.00000000
_cell_angle_gamma   90.00000000
_symmetry_Int_Tables_number   1
_chemical_formula_structural   TbEr3ReB12Ru
_chemical_formula_sum   'Tb2 Er6 Re2 B24 Ru2'
_cell_volume   384.30257083
_cell_formula_units_Z   2
loop_
 _symmetry_equiv_pos_site_id
 _symmetry_equiv_pos_as_xyz
  1  'x, y, z'
loop_
 _atom_site_type_symbol
 _atom_site_label
 _atom_site_symmetry_multiplicity
 _atom_site_fract_x
 _atom_site_fract_y
 _atom_site_fract_z
 _atom_site_occupancy
  Tb  Tb0  1  0.000000  0.321022  0.412461  1
  Tb  Tb1  1  0.000000  0.678978  0.587539  1
  Er  Er2  1  0.000000  0.824621  0.084307  1
  Er  Er3  1  0.000000  0.175379  0.915693  1
  Er  Er4  1  0.000000  0.942795  0.370251  1
  Er  Er5  1  0.000000  0.057205  0.629749  1
  Er  Er6  1  0.000000  0.442973  0.128850  1
  Er  Er7  1  0.000000  0.557027  0.871150  1
  Re  Re8  1  0.000000  0.138140  0.179372  1
  Re  Re9  1  0.000000  0.861860  0.820628  1
  B  B10  1  0.500000  0.554281  0.432541  1
  B  B11  1  0.500000  0.445719  0.567459  1
  B  B12  1  0.500000  0.052942  0.066569  1
  B  B13  1  0.500000  0.947058  0.933431  1
  B  B14  1  0.500000  0.749214  0.418324  1
  B  B15  1  0.500000  0.250786  0.581676  1
  B  B16  1  0.500000  0.249122  0.080543  1
  B  B17  1  0.500000  0.750878  0.919457  1
  B  B18  1  0.500000  0.791112  0.265245  1
  B  B19  1  0.500000  0.208888  0.734755  1
  B  B20  1  0.500000  0.291828  0.234251  1
  B  B21  1  0.500000  0.708172  0.765749  1
  B  B22  1  0.500000  0.631059  0.185273  1
  B  B23  1  0.500000  0.368941  0.814727  1
  B  B24  1  0.500000  0.130629  0.314730  1
  B  B25  1  0.500000  0.869371  0.685270  1
  B  B26  1  0.500000  0.981903  0.212144  1
  B  B27  1  0.500000  0.018097  0.787856  1
  B  B28  1  0.500000  0.483471  0.287435  1
  B  B29  1  0.500000  0.516529  0.712565  1
  B  B30  1  0.500000  0.603230  0.028707  1
  B  B31  1  0.500000  0.396770  0.971293  1
  B  B32  1  0.500000  0.102011  0.471919  1
  B  B33  1  0.500000  0.897989  0.528081  1
  Ru  Ru34  1  0.000000  0.638361  0.320819  1
  Ru  Ru35  1  0.000000  0.361639  0.679181  1
