# generated using pymatgen
data_LaBi3O7
_symmetry_space_group_name_H-M   'P 1'
_cell_length_a   6.81681815
_cell_length_b   7.03879139
_cell_length_c   7.97598760
_cell_angle_alpha   106.17529265
_cell_angle_beta   89.27566783
_cell_angle_gamma   101.10357356
_symmetry_Int_Tables_number   1
_chemical_formula_structural   LaBi3O7
_chemical_formula_sum   'La2 Bi6 O14'
_cell_volume   360.33332462
_cell_formula_units_Z   2
loop_
 _symmetry_equiv_pos_site_id
 _symmetry_equiv_pos_as_xyz
  1  'x, y, z'
loop_
 _atom_site_type_symbol
 _atom_site_label
 _atom_site_symmetry_multiplicity
 _atom_site_fract_x
 _atom_site_fract_y
 _atom_site_fract_z
 _atom_site_occupancy
  La  La0  1  0.463969  0.990508  0.249498  1
  La  La1  1  0.536031  0.009492  0.750502  1
  Bi  Bi2  1  0.000000  0.000000  0.500000  1
  Bi  Bi3  1  0.000000  0.000000  0.000000  1
  Bi  Bi4  1  0.263279  0.505308  0.873872  1
  Bi  Bi5  1  0.736721  0.494692  0.126128  1
  Bi  Bi6  1  0.723750  0.499554  0.613084  1
  Bi  Bi7  1  0.276250  0.500446  0.386916  1
  O  O8  1  0.464658  0.634457  0.183796  1
  O  O9  1  0.535342  0.365543  0.816204  1
  O  O10  1  0.292327  0.939751  0.954945  1
  O  O11  1  0.707673  0.060249  0.045055  1
  O  O12  1  0.283416  0.917865  0.508909  1
  O  O13  1  0.716584  0.082135  0.491091  1
  O  O14  1  0.532769  0.351082  0.362786  1
  O  O15  1  0.467231  0.648918  0.637214  1
  O  O16  1  0.901003  0.684739  0.971859  1
  O  O17  1  0.098997  0.315261  0.028141  1
  O  O18  1  0.111810  0.320235  0.621997  1
  O  O19  1  0.888190  0.679765  0.378003  1
  O  O20  1  0.887204  0.913877  0.728595  1
  O  O21  1  0.112796  0.086123  0.271405  1
