# generated using pymatgen
data_CeNd(Si7Ir3)2
_symmetry_space_group_name_H-M   'P 1'
_cell_length_a   8.10680677
_cell_length_b   8.10680644
_cell_length_c   8.10680664
_cell_angle_alpha   56.54408356
_cell_angle_beta   56.54408874
_cell_angle_gamma   56.54409035
_symmetry_Int_Tables_number   1
_chemical_formula_structural   CeNd(Si7Ir3)2
_chemical_formula_sum   'Ce1 Nd1 Si14 Ir6'
_cell_volume   346.64705685
_cell_formula_units_Z   1
loop_
 _symmetry_equiv_pos_site_id
 _symmetry_equiv_pos_as_xyz
  1  'x, y, z'
loop_
 _atom_site_type_symbol
 _atom_site_label
 _atom_site_symmetry_multiplicity
 _atom_site_fract_x
 _atom_site_fract_y
 _atom_site_fract_z
 _atom_site_occupancy
  Ce  Ce0  1  0.000000  0.000000  0.000000  1
  Nd  Nd1  1  0.500000  0.500000  0.500000  1
  Si  Si2  1  0.851050  0.062845  0.672987  1
  Si  Si3  1  0.672987  0.851050  0.062845  1
  Si  Si4  1  0.062845  0.672987  0.851050  1
  Si  Si5  1  0.649697  0.827678  0.435353  1
  Si  Si6  1  0.250104  0.250104  0.250104  1
  Si  Si7  1  0.749896  0.749896  0.749896  1
  Si  Si8  1  0.172322  0.564647  0.350303  1
  Si  Si9  1  0.564647  0.350303  0.172322  1
  Si  Si10  1  0.350303  0.172322  0.564647  1
  Si  Si11  1  0.937155  0.327013  0.148950  1
  Si  Si12  1  0.327013  0.148950  0.937155  1
  Si  Si13  1  0.148950  0.937155  0.327013  1
  Si  Si14  1  0.827678  0.435353  0.649697  1
  Si  Si15  1  0.435353  0.649697  0.827678  1
  Ir  Ir16  1  0.750640  0.067489  0.431518  1
  Ir  Ir17  1  0.431518  0.750640  0.067489  1
  Ir  Ir18  1  0.067489  0.431518  0.750640  1
  Ir  Ir19  1  0.249360  0.932511  0.568482  1
  Ir  Ir20  1  0.568482  0.249360  0.932511  1
  Ir  Ir21  1  0.932511  0.568482  0.249360  1
