# generated using pymatgen
data_Dy17(LuRu4)3
_symmetry_space_group_name_H-M   'P 1'
_cell_length_a   10.78741100
_cell_length_b   10.78741100
_cell_length_c   6.34721100
_cell_angle_alpha   90.00000000
_cell_angle_beta   90.00000000
_cell_angle_gamma   90.00000000
_symmetry_Int_Tables_number   1
_chemical_formula_structural   Dy17(LuRu4)3
_chemical_formula_sum   'Dy17 Lu3 Ru12'
_cell_volume   738.61374812
_cell_formula_units_Z   1
loop_
 _symmetry_equiv_pos_site_id
 _symmetry_equiv_pos_as_xyz
  1  'x, y, z'
loop_
 _atom_site_type_symbol
 _atom_site_label
 _atom_site_symmetry_multiplicity
 _atom_site_fract_x
 _atom_site_fract_y
 _atom_site_fract_z
 _atom_site_occupancy
  Dy  Dy0  1  0.290896  0.086797  0.377655  1
  Dy  Dy1  1  0.290936  0.913153  0.877634  1
  Dy  Dy2  1  0.709064  0.086847  0.877634  1
  Dy  Dy3  1  0.709104  0.913203  0.377655  1
  Dy  Dy4  1  0.586864  0.791477  0.877653  1
  Dy  Dy5  1  0.587082  0.207870  0.377527  1
  Dy  Dy6  1  0.412918  0.792130  0.377527  1
  Dy  Dy7  1  0.413136  0.208523  0.877653  1
  Dy  Dy8  1  0.207870  0.412918  0.622473  1
  Dy  Dy9  1  0.208523  0.586864  0.122347  1
  Dy  Dy10  1  0.791477  0.413136  0.122347  1
  Dy  Dy11  1  0.792130  0.587082  0.622473  1
  Dy  Dy12  1  0.913153  0.709064  0.122366  1
  Dy  Dy13  1  0.913203  0.290896  0.622345  1
  Dy  Dy14  1  0.086797  0.709104  0.622345  1
  Dy  Dy15  1  0.086847  0.290936  0.122366  1
  Dy  Dy16  1  0.500000  0.500000  0.500000  1
  Lu  Lu17  1  0.000000  0.000000  0.500000  1
  Lu  Lu18  1  0.000000  0.000000  0.000000  1
  Lu  Lu19  1  0.500000  0.500000  0.000000  1
  Ru  Ru20  1  0.848731  0.151258  0.250117  1
  Ru  Ru21  1  0.848742  0.848731  0.749883  1
  Ru  Ru22  1  0.151258  0.151269  0.749883  1
  Ru  Ru23  1  0.151269  0.848742  0.250117  1
  Ru  Ru24  1  0.652267  0.347520  0.751997  1
  Ru  Ru25  1  0.652480  0.652267  0.248003  1
  Ru  Ru26  1  0.347520  0.347733  0.248003  1
  Ru  Ru27  1  0.347733  0.652480  0.751997  1
  Ru  Ru28  1  0.500000  0.000000  0.125258  1
  Ru  Ru29  1  0.500000  0.000000  0.625018  1
  Ru  Ru30  1  0.000000  0.500000  0.874742  1
  Ru  Ru31  1  0.000000  0.500000  0.374982  1
