# generated using pymatgen
data_GaPBr8
_symmetry_space_group_name_H-M   'P 1'
_cell_length_a   8.10715976
_cell_length_b   7.25271537
_cell_length_c   7.90809912
_cell_angle_alpha   93.11219021
_cell_angle_beta   86.46379116
_cell_angle_gamma   88.09126929
_symmetry_Int_Tables_number   1
_chemical_formula_structural   GaPBr8
_chemical_formula_sum   'Ga1 P1 Br8'
_cell_volume   463.10433185
_cell_formula_units_Z   1
loop_
 _symmetry_equiv_pos_site_id
 _symmetry_equiv_pos_as_xyz
  1  'x, y, z'
loop_
 _atom_site_type_symbol
 _atom_site_label
 _atom_site_symmetry_multiplicity
 _atom_site_fract_x
 _atom_site_fract_y
 _atom_site_fract_z
 _atom_site_occupancy
  Ga  Ga0  1  0.376545  0.419973  0.681456  1
  P  P1  1  0.834598  0.799464  0.211760  1
  Br  Br2  1  0.942670  0.652986  0.413376  1
  Br  Br3  1  0.739983  0.598267  0.027927  1
  Br  Br4  1  0.367029  0.317749  0.390088  1
  Br  Br5  1  0.025762  0.955729  0.084493  1
  Br  Br6  1  0.358964  0.742399  0.707892  1
  Br  Br7  1  0.153404  0.296950  0.838394  1
  Br  Br8  1  0.636545  0.305018  0.766824  1
  Br  Br9  1  0.638782  0.995760  0.316026  1
