# generated using pymatgen
data_Cs4Sb3PPt2
_symmetry_space_group_name_H-M   'P 1'
_cell_length_a   8.21575991
_cell_length_b   8.49735919
_cell_length_c   6.99658000
_cell_angle_alpha   90.00000000
_cell_angle_beta   90.00000000
_cell_angle_gamma   124.71571480
_symmetry_Int_Tables_number   1
_chemical_formula_structural   Cs4Sb3PPt2
_chemical_formula_sum   'Cs4 Sb3 P1 Pt2'
_cell_volume   401.49757783
_cell_formula_units_Z   1
loop_
 _symmetry_equiv_pos_site_id
 _symmetry_equiv_pos_as_xyz
  1  'x, y, z'
loop_
 _atom_site_type_symbol
 _atom_site_label
 _atom_site_symmetry_multiplicity
 _atom_site_fract_x
 _atom_site_fract_y
 _atom_site_fract_z
 _atom_site_occupancy
  Cs  Cs0  1  0.625507  0.442580  0.750000  1
  Cs  Cs1  1  0.412929  0.621239  0.250000  1
  Cs  Cs2  1  0.240338  0.826239  0.750000  1
  Cs  Cs3  1  0.800229  0.198024  0.250000  1
  Sb  Sb4  1  0.929687  0.715937  0.250000  1
  Sb  Sb5  1  0.269840  0.100222  0.250000  1
  Sb  Sb6  1  0.060209  0.257525  0.750000  1
  P  P7  1  0.741268  0.916032  0.750000  1
  Pt  Pt8  1  0.959996  0.961101  0.991992  1
  Pt  Pt9  1  0.959996  0.961101  0.508008  1
