# generated using pymatgen
data_Dy3Y(HfRh)4
_symmetry_space_group_name_H-M   'P 1'
_cell_length_a   4.58401800
_cell_length_b   7.05135720
_cell_length_c   8.27353319
_cell_angle_alpha   89.93882513
_cell_angle_beta   90.00000000
_cell_angle_gamma   90.00000000
_symmetry_Int_Tables_number   1
_chemical_formula_structural   Dy3Y(HfRh)4
_chemical_formula_sum   'Dy3 Y1 Hf4 Rh4'
_cell_volume   267.42979738
_cell_formula_units_Z   1
loop_
 _symmetry_equiv_pos_site_id
 _symmetry_equiv_pos_as_xyz
  1  'x, y, z'
loop_
 _atom_site_type_symbol
 _atom_site_label
 _atom_site_symmetry_multiplicity
 _atom_site_fract_x
 _atom_site_fract_y
 _atom_site_fract_z
 _atom_site_occupancy
  Dy  Dy0  1  0.250000  0.983613  0.322423  1
  Dy  Dy1  1  0.250000  0.483337  0.177287  1
  Dy  Dy2  1  0.750000  0.016254  0.677385  1
  Y  Y3  1  0.750000  0.516396  0.821626  1
  Hf  Hf4  1  0.250000  0.360697  0.573849  1
  Hf  Hf5  1  0.250000  0.860626  0.926267  1
  Hf  Hf6  1  0.750000  0.639744  0.425451  1
  Hf  Hf7  1  0.750000  0.138917  0.074286  1
  Rh  Rh8  1  0.250000  0.229609  0.913354  1
  Rh  Rh9  1  0.250000  0.730769  0.586566  1
  Rh  Rh10  1  0.750000  0.770079  0.088405  1
  Rh  Rh11  1  0.750000  0.269960  0.413100  1
