# generated using pymatgen
data_Ce2Fe3Mo3P7Ir6
_symmetry_space_group_name_H-M   'P 1'
_cell_length_a   9.42529800
_cell_length_b   9.42529893
_cell_length_c   3.90972200
_cell_angle_alpha   90.00000000
_cell_angle_beta   90.00000000
_cell_angle_gamma   120.00000376
_symmetry_Int_Tables_number   1
_chemical_formula_structural   Ce2Fe3Mo3P7Ir6
_chemical_formula_sum   'Ce2 Fe3 Mo3 P7 Ir6'
_cell_volume   300.79230132
_cell_formula_units_Z   1
loop_
 _symmetry_equiv_pos_site_id
 _symmetry_equiv_pos_as_xyz
  1  'x, y, z'
loop_
 _atom_site_type_symbol
 _atom_site_label
 _atom_site_symmetry_multiplicity
 _atom_site_fract_x
 _atom_site_fract_y
 _atom_site_fract_z
 _atom_site_occupancy
  Ce  Ce0  1  0.000000  0.000000  0.000000  1
  Ce  Ce1  1  0.333333  0.666667  0.500000  1
  Fe  Fe2  1  0.824690  0.602204  0.000000  1
  Fe  Fe3  1  0.777515  0.175310  0.000000  1
  Fe  Fe4  1  0.397796  0.222485  0.000000  1
  Mo  Mo5  1  0.877903  0.425442  0.500000  1
  Mo  Mo6  1  0.547538  0.122097  0.500000  1
  Mo  Mo7  1  0.574558  0.452462  0.500000  1
  P  P8  1  0.069696  0.629960  0.000000  1
  P  P9  1  0.560265  0.930304  0.000000  1
  P  P10  1  0.370040  0.439735  0.000000  1
  P  P11  1  0.784232  0.729084  0.500000  1
  P  P12  1  0.944852  0.215768  0.500000  1
  P  P13  1  0.270916  0.055148  0.500000  1
  P  P14  1  0.666667  0.333333  0.000000  1
  Ir  Ir15  1  0.097387  0.399920  0.000000  1
  Ir  Ir16  1  0.302533  0.902613  0.000000  1
  Ir  Ir17  1  0.600080  0.697467  0.000000  1
  Ir  Ir18  1  0.052612  0.773842  0.500000  1
  Ir  Ir19  1  0.721229  0.947388  0.500000  1
  Ir  Ir20  1  0.226158  0.278771  0.500000  1
