# generated using pymatgen
data_Li4Dy(ThSi2)2
_symmetry_space_group_name_H-M   'P 1'
_cell_length_a   4.35861709
_cell_length_b   6.78351995
_cell_length_c   8.21358645
_cell_angle_alpha   114.38997425
_cell_angle_beta   105.38653250
_cell_angle_gamma   89.99999971
_symmetry_Int_Tables_number   1
_chemical_formula_structural   Li4Dy(ThSi2)2
_chemical_formula_sum   'Li4 Dy1 Th2 Si4'
_cell_volume   211.58236493
_cell_formula_units_Z   1
loop_
 _symmetry_equiv_pos_site_id
 _symmetry_equiv_pos_as_xyz
  1  'x, y, z'
loop_
 _atom_site_type_symbol
 _atom_site_label
 _atom_site_symmetry_multiplicity
 _atom_site_fract_x
 _atom_site_fract_y
 _atom_site_fract_z
 _atom_site_occupancy
  Li  Li0  1  0.672305  0.987296  0.344609  1
  Li  Li1  1  0.329697  0.020753  0.659394  1
  Li  Li2  1  0.329697  0.638642  0.659394  1
  Li  Li3  1  0.672305  0.357313  0.344609  1
  Dy  Dy4  1  0.871357  0.371357  0.742714  1
  Th  Th5  1  0.998727  0.998727  0.997453  1
  Th  Th6  1  0.127387  0.627387  0.254773  1
  Si  Si7  1  0.499968  0.679169  0.999937  1
  Si  Si8  1  0.499968  0.320768  0.999937  1
  Si  Si9  1  0.784458  0.784458  0.568918  1
  Si  Si10  1  0.214130  0.214130  0.428261  1
