# generated using pymatgen
data_LiY3(Ni4As3)2
_symmetry_space_group_name_H-M   'P 1'
_cell_length_a   3.91487800
_cell_length_b   10.98450300
_cell_length_c   12.77240800
_cell_angle_alpha   90.00000000
_cell_angle_beta   90.00000000
_cell_angle_gamma   90.00000000
_symmetry_Int_Tables_number   1
_chemical_formula_structural   LiY3(Ni4As3)2
_chemical_formula_sum   'Li2 Y6 Ni16 As12'
_cell_volume   549.25172246
_cell_formula_units_Z   2
loop_
 _symmetry_equiv_pos_site_id
 _symmetry_equiv_pos_as_xyz
  1  'x, y, z'
loop_
 _atom_site_type_symbol
 _atom_site_label
 _atom_site_symmetry_multiplicity
 _atom_site_fract_x
 _atom_site_fract_y
 _atom_site_fract_z
 _atom_site_occupancy
  Li  Li0  1  0.500000  0.500000  0.150634  1
  Li  Li1  1  0.000000  0.000000  0.849366  1
  Y  Y2  1  0.000000  0.500000  0.524831  1
  Y  Y3  1  0.500000  0.000000  0.475169  1
  Y  Y4  1  0.500000  0.818579  0.205399  1
  Y  Y5  1  0.500000  0.181421  0.205399  1
  Y  Y6  1  0.000000  0.681421  0.794601  1
  Y  Y7  1  0.000000  0.318579  0.794601  1
  Ni  Ni8  1  0.500000  0.500000  0.702031  1
  Ni  Ni9  1  0.000000  0.000000  0.297969  1
  Ni  Ni10  1  0.000000  0.500000  0.986179  1
  Ni  Ni11  1  0.500000  0.000000  0.013821  1
  Ni  Ni12  1  0.500000  0.331358  0.998116  1
  Ni  Ni13  1  0.500000  0.668642  0.998116  1
  Ni  Ni14  1  0.000000  0.168642  0.001884  1
  Ni  Ni15  1  0.000000  0.831358  0.001884  1
  Ni  Ni16  1  0.500000  0.302528  0.428306  1
  Ni  Ni17  1  0.500000  0.697472  0.428306  1
  Ni  Ni18  1  0.000000  0.197472  0.571694  1
  Ni  Ni19  1  0.000000  0.802528  0.571694  1
  Ni  Ni20  1  0.500000  0.879977  0.705557  1
  Ni  Ni21  1  0.500000  0.120023  0.705557  1
  Ni  Ni22  1  0.000000  0.620023  0.294443  1
  Ni  Ni23  1  0.000000  0.379977  0.294443  1
  As  As24  1  0.500000  0.500000  0.880301  1
  As  As25  1  0.000000  0.000000  0.119699  1
  As  As26  1  0.500000  0.500000  0.349994  1
  As  As27  1  0.000000  0.000000  0.650006  1
  As  As28  1  0.500000  0.314389  0.614538  1
  As  As29  1  0.500000  0.685611  0.614538  1
  As  As30  1  0.000000  0.185611  0.385462  1
  As  As31  1  0.000000  0.814389  0.385462  1
  As  As32  1  0.500000  0.843803  0.890845  1
  As  As33  1  0.500000  0.156197  0.890845  1
  As  As34  1  0.000000  0.656197  0.109155  1
  As  As35  1  0.000000  0.343803  0.109155  1
