# generated using pymatgen
data_Ho2Lu5Sn23Os6
_symmetry_space_group_name_H-M   'P 1'
_cell_length_a   9.80727195
_cell_length_b   9.80727093
_cell_length_c   10.07565715
_cell_angle_alpha   89.89993268
_cell_angle_beta   90.10006713
_cell_angle_gamma   119.77911798
_symmetry_Int_Tables_number   1
_chemical_formula_structural   Ho2Lu5Sn23Os6
_chemical_formula_sum   'Ho2 Lu5 Sn23 Os6'
_cell_volume   841.12754446
_cell_formula_units_Z   1
loop_
 _symmetry_equiv_pos_site_id
 _symmetry_equiv_pos_as_xyz
  1  'x, y, z'
loop_
 _atom_site_type_symbol
 _atom_site_label
 _atom_site_symmetry_multiplicity
 _atom_site_fract_x
 _atom_site_fract_y
 _atom_site_fract_z
 _atom_site_occupancy
  Ho  Ho0  1  0.000817  0.999183  0.000133  1
  Ho  Ho1  1  0.486402  0.513598  0.301808  1
  Lu  Lu2  1  0.511383  0.488617  0.699824  1
  Lu  Lu3  1  0.511319  0.022397  0.700396  1
  Lu  Lu4  1  0.977603  0.488681  0.700396  1
  Lu  Lu5  1  0.022526  0.510925  0.299734  1
  Lu  Lu6  1  0.489075  0.977474  0.299734  1
  Sn  Sn7  1  0.666243  0.333757  0.169773  1
  Sn  Sn8  1  0.666655  0.333345  0.861648  1
  Sn  Sn9  1  0.331660  0.668340  0.136426  1
  Sn  Sn10  1  0.349819  0.349875  0.000170  1
  Sn  Sn11  1  0.000587  0.649718  0.999661  1
  Sn  Sn12  1  0.650893  0.000556  0.000033  1
  Sn  Sn13  1  0.650125  0.650181  0.000170  1
  Sn  Sn14  1  0.333507  0.666493  0.830171  1
  Sn  Sn15  1  0.442832  0.221579  0.465702  1
  Sn  Sn16  1  0.221923  0.778077  0.534609  1
  Sn  Sn17  1  0.221297  0.443003  0.534588  1
  Sn  Sn18  1  0.556997  0.778703  0.534588  1
  Sn  Sn19  1  0.119297  0.880703  0.278131  1
  Sn  Sn20  1  0.778421  0.557168  0.465702  1
  Sn  Sn21  1  0.778063  0.221937  0.465812  1
  Sn  Sn22  1  0.350282  0.999413  0.999661  1
  Sn  Sn23  1  0.118165  0.235888  0.278147  1
  Sn  Sn24  1  0.764112  0.881835  0.278147  1
  Sn  Sn25  1  0.237277  0.118884  0.721652  1
  Sn  Sn26  1  0.881116  0.762723  0.721652  1
  Sn  Sn27  1  0.881281  0.118719  0.722298  1
  Sn  Sn28  1  0.000174  0.999826  0.500110  1
  Sn  Sn29  1  0.999444  0.349107  0.000033  1
  Os  Os30  1  0.171041  0.828959  0.796573  1
  Os  Os31  1  0.171106  0.342754  0.796714  1
  Os  Os32  1  0.657246  0.828894  0.796714  1
  Os  Os33  1  0.342064  0.169465  0.202724  1
  Os  Os34  1  0.830535  0.657936  0.202724  1
  Os  Os35  1  0.828712  0.171288  0.203643  1
