# generated using pymatgen
data_AgBi3RuPt3O14
_symmetry_space_group_name_H-M   'P 1'
_cell_length_a   7.46163132
_cell_length_b   7.43684662
_cell_length_c   7.27947485
_cell_angle_alpha   59.44684141
_cell_angle_beta   59.16871715
_cell_angle_gamma   59.88969807
_symmetry_Int_Tables_number   1
_chemical_formula_structural   AgBi3RuPt3O14
_chemical_formula_sum   'Ag1 Bi3 Ru1 Pt3 O14'
_cell_volume   282.37278679
_cell_formula_units_Z   1
loop_
 _symmetry_equiv_pos_site_id
 _symmetry_equiv_pos_as_xyz
  1  'x, y, z'
loop_
 _atom_site_type_symbol
 _atom_site_label
 _atom_site_symmetry_multiplicity
 _atom_site_fract_x
 _atom_site_fract_y
 _atom_site_fract_z
 _atom_site_occupancy
  Ag  Ag0  1  0.125000  0.125000  0.625000  1
  Bi  Bi1  1  0.125000  0.625000  0.125000  1
  Bi  Bi2  1  0.625000  0.125000  0.125000  1
  Bi  Bi3  1  0.125000  0.125000  0.125000  1
  Ru  Ru4  1  0.625000  0.125000  0.625000  1
  Pt  Pt5  1  0.625000  0.625000  0.125000  1
  Pt  Pt6  1  0.125000  0.625000  0.625000  1
  Pt  Pt7  1  0.625000  0.625000  0.625000  1
  O  O8  1  0.247336  0.242153  0.263175  1
  O  O9  1  0.002664  0.007847  0.986825  1
  O  O10  1  0.560561  0.953788  0.541812  1
  O  O11  1  0.292603  0.712009  0.286877  1
  O  O12  1  0.541489  0.537991  0.963123  1
  O  O13  1  0.956481  0.545891  0.541146  1
  O  O14  1  0.542924  0.956324  0.957829  1
  O  O15  1  0.943839  0.953788  0.541812  1
  O  O16  1  0.957397  0.537991  0.963123  1
  O  O17  1  0.707076  0.293676  0.292171  1
  O  O18  1  0.293519  0.704109  0.708854  1
  O  O19  1  0.689439  0.296212  0.708188  1
  O  O20  1  0.306161  0.296212  0.708188  1
  O  O21  1  0.708511  0.712009  0.286877  1
