# generated using pymatgen
data_Zr4Cr6ReOs
_symmetry_space_group_name_H-M   'P 1'
_cell_length_a   5.07427600
_cell_length_b   5.07427557
_cell_length_c   8.49137400
_cell_angle_alpha   90.00000000
_cell_angle_beta   90.00000000
_cell_angle_gamma   119.99998978
_symmetry_Int_Tables_number   1
_chemical_formula_structural   Zr4Cr6ReOs
_chemical_formula_sum   'Zr4 Cr6 Re1 Os1'
_cell_volume   189.34628143
_cell_formula_units_Z   1
loop_
 _symmetry_equiv_pos_site_id
 _symmetry_equiv_pos_as_xyz
  1  'x, y, z'
loop_
 _atom_site_type_symbol
 _atom_site_label
 _atom_site_symmetry_multiplicity
 _atom_site_fract_x
 _atom_site_fract_y
 _atom_site_fract_z
 _atom_site_occupancy
  Zr  Zr0  1  0.333333  0.666667  0.439321  1
  Zr  Zr1  1  0.666667  0.333333  0.560679  1
  Zr  Zr2  1  0.666667  0.333333  0.936928  1
  Zr  Zr3  1  0.333333  0.666667  0.063072  1
  Cr  Cr4  1  0.828317  0.171683  0.250042  1
  Cr  Cr5  1  0.828317  0.656633  0.250042  1
  Cr  Cr6  1  0.343367  0.171683  0.250042  1
  Cr  Cr7  1  0.171683  0.828317  0.749958  1
  Cr  Cr8  1  0.171683  0.343367  0.749958  1
  Cr  Cr9  1  0.656633  0.828317  0.749958  1
  Re  Re10  1  0.000000  0.000000  0.000000  1
  Os  Os11  1  0.000000  0.000000  0.500000  1
