# generated using pymatgen
data_Rb6ScTe4Cl
_symmetry_space_group_name_H-M   'P 1'
_cell_length_a   11.82582300
_cell_length_b   11.82582263
_cell_length_c   8.56617000
_cell_angle_alpha   90.00000000
_cell_angle_beta   90.00000000
_cell_angle_gamma   119.99999824
_symmetry_Int_Tables_number   1
_chemical_formula_structural   Rb6ScTe4Cl
_chemical_formula_sum   'Rb12 Sc2 Te8 Cl2'
_cell_volume   1037.48078937
_cell_formula_units_Z   2
loop_
 _symmetry_equiv_pos_site_id
 _symmetry_equiv_pos_as_xyz
  1  'x, y, z'
loop_
 _atom_site_type_symbol
 _atom_site_label
 _atom_site_symmetry_multiplicity
 _atom_site_fract_x
 _atom_site_fract_y
 _atom_site_fract_z
 _atom_site_occupancy
  Rb  Rb0  1  0.124202  0.875798  0.516633  1
  Rb  Rb1  1  0.751595  0.875798  0.516633  1
  Rb  Rb2  1  0.953796  0.476898  0.318397  1
  Rb  Rb3  1  0.523102  0.476898  0.318397  1
  Rb  Rb4  1  0.875798  0.751595  0.016633  1
  Rb  Rb5  1  0.248405  0.124202  0.016633  1
  Rb  Rb6  1  0.523102  0.046204  0.318397  1
  Rb  Rb7  1  0.124202  0.248405  0.516633  1
  Rb  Rb8  1  0.875798  0.124202  0.016633  1
  Rb  Rb9  1  0.046204  0.523102  0.818397  1
  Rb  Rb10  1  0.476898  0.953796  0.818397  1
  Rb  Rb11  1  0.476898  0.523102  0.818397  1
  Sc  Sc12  1  0.666667  0.333333  0.709633  1
  Sc  Sc13  1  0.333333  0.666667  0.209633  1
  Te  Te14  1  0.408030  0.204016  0.604327  1
  Te  Te15  1  0.591970  0.795984  0.104327  1
  Te  Te16  1  0.666667  0.333333  0.036786  1
  Te  Te17  1  0.795984  0.591970  0.604327  1
  Te  Te18  1  0.204016  0.408030  0.104327  1
  Te  Te19  1  0.333333  0.666667  0.536786  1
  Te  Te20  1  0.204016  0.795984  0.104327  1
  Te  Te21  1  0.795984  0.204016  0.604327  1
  Cl  Cl22  1  0.000000  0.000000  0.276110  1
  Cl  Cl23  1  0.000000  0.000000  0.776110  1
