# generated using pymatgen
data_Lu3Th2Sn3Bi
_symmetry_space_group_name_H-M   'P 1'
_cell_length_a   8.12997700
_cell_length_b   8.13392600
_cell_length_c   15.37168400
_cell_angle_alpha   90.00000000
_cell_angle_beta   90.00000000
_cell_angle_gamma   90.00000000
_symmetry_Int_Tables_number   1
_chemical_formula_structural   Lu3Th2Sn3Bi
_chemical_formula_sum   'Lu12 Th8 Sn12 Bi4'
_cell_volume   1016.50842369
_cell_formula_units_Z   4
loop_
 _symmetry_equiv_pos_site_id
 _symmetry_equiv_pos_as_xyz
  1  'x, y, z'
loop_
 _atom_site_type_symbol
 _atom_site_label
 _atom_site_symmetry_multiplicity
 _atom_site_fract_x
 _atom_site_fract_y
 _atom_site_fract_z
 _atom_site_occupancy
  Lu  Lu0  1  0.364883  0.841234  0.873018  1
  Lu  Lu1  1  0.864883  0.658766  0.626982  1
  Lu  Lu2  1  0.635117  0.158766  0.373018  1
  Lu  Lu3  1  0.135117  0.341234  0.126982  1
  Lu  Lu4  1  0.643337  0.161900  0.124969  1
  Lu  Lu5  1  0.143337  0.338100  0.375031  1
  Lu  Lu6  1  0.356663  0.838100  0.624969  1
  Lu  Lu7  1  0.856663  0.661900  0.875031  1
  Lu  Lu8  1  0.189893  0.496829  0.747134  1
  Lu  Lu9  1  0.689893  0.003171  0.752866  1
  Lu  Lu10  1  0.810107  0.503171  0.247134  1
  Lu  Lu11  1  0.310107  0.996829  0.252866  1
  Th  Th12  1  0.526182  0.321312  0.903420  1
  Th  Th13  1  0.026182  0.178688  0.596580  1
  Th  Th14  1  0.473818  0.678688  0.403420  1
  Th  Th15  1  0.973818  0.821312  0.096580  1
  Th  Th16  1  0.485893  0.676647  0.095929  1
  Th  Th17  1  0.985893  0.823353  0.404071  1
  Th  Th18  1  0.514107  0.323353  0.595929  1
  Th  Th19  1  0.014107  0.176647  0.904071  1
  Sn  Sn20  1  0.700040  0.958215  0.957174  1
  Sn  Sn21  1  0.200040  0.541785  0.542826  1
  Sn  Sn22  1  0.299960  0.041785  0.457174  1
  Sn  Sn23  1  0.799960  0.458215  0.042826  1
  Sn  Sn24  1  0.555102  0.624015  0.749094  1
  Sn  Sn25  1  0.055102  0.875985  0.750906  1
  Sn  Sn26  1  0.444898  0.375985  0.249094  1
  Sn  Sn27  1  0.944898  0.124015  0.250906  1
  Sn  Sn28  1  0.326800  0.144035  0.750865  1
  Sn  Sn29  1  0.826800  0.355965  0.749135  1
  Sn  Sn30  1  0.673200  0.855965  0.250865  1
  Sn  Sn31  1  0.173200  0.644035  0.249135  1
  Bi  Bi32  1  0.299913  0.042968  0.042717  1
  Bi  Bi33  1  0.799913  0.457032  0.457283  1
  Bi  Bi34  1  0.700087  0.957032  0.542717  1
  Bi  Bi35  1  0.200087  0.542968  0.957283  1
