# generated using pymatgen
data_Yb5HgSb3
_symmetry_space_group_name_H-M   'P 1'
_cell_length_a   9.19320100
_cell_length_b   9.19320072
_cell_length_c   7.00386500
_cell_angle_alpha   90.00000000
_cell_angle_beta   90.00000000
_cell_angle_gamma   120.00000459
_symmetry_Int_Tables_number   1
_chemical_formula_structural   Yb5HgSb3
_chemical_formula_sum   'Yb10 Hg2 Sb6'
_cell_volume   512.62747159
_cell_formula_units_Z   2
loop_
 _symmetry_equiv_pos_site_id
 _symmetry_equiv_pos_as_xyz
  1  'x, y, z'
loop_
 _atom_site_type_symbol
 _atom_site_label
 _atom_site_symmetry_multiplicity
 _atom_site_fract_x
 _atom_site_fract_y
 _atom_site_fract_z
 _atom_site_occupancy
  Yb  Yb0  1  0.666667  0.333333  0.000000  1
  Yb  Yb1  1  0.333333  0.666667  0.000000  1
  Yb  Yb2  1  0.333333  0.666667  0.500000  1
  Yb  Yb3  1  0.666667  0.333333  0.500000  1
  Yb  Yb4  1  0.726738  0.726738  0.750000  1
  Yb  Yb5  1  0.273262  0.000000  0.750000  1
  Yb  Yb6  1  0.000000  0.273262  0.750000  1
  Yb  Yb7  1  0.273262  0.273262  0.250000  1
  Yb  Yb8  1  0.726738  0.000000  0.250000  1
  Yb  Yb9  1  0.000000  0.726738  0.250000  1
  Hg  Hg10  1  0.000000  0.000000  0.000000  1
  Hg  Hg11  1  0.000000  0.000000  0.500000  1
  Sb  Sb12  1  0.383804  0.383804  0.750000  1
  Sb  Sb13  1  0.616196  0.000000  0.750000  1
  Sb  Sb14  1  0.000000  0.616196  0.750000  1
  Sb  Sb15  1  0.616196  0.616196  0.250000  1
  Sb  Sb16  1  0.383804  0.000000  0.250000  1
  Sb  Sb17  1  0.000000  0.383804  0.250000  1
