# generated using pymatgen
data_La8In2TcRh
_symmetry_space_group_name_H-M   'P 1'
_cell_length_a   10.12629859
_cell_length_b   10.25634125
_cell_length_c   10.12629799
_cell_angle_alpha   59.57427146
_cell_angle_beta   59.27859280
_cell_angle_gamma   59.57426938
_symmetry_Int_Tables_number   1
_chemical_formula_structural   La8In2TcRh
_chemical_formula_sum   'La16 In4 Tc2 Rh2'
_cell_volume   734.78583300
_cell_formula_units_Z   2
loop_
 _symmetry_equiv_pos_site_id
 _symmetry_equiv_pos_as_xyz
  1  'x, y, z'
loop_
 _atom_site_type_symbol
 _atom_site_label
 _atom_site_symmetry_multiplicity
 _atom_site_fract_x
 _atom_site_fract_y
 _atom_site_fract_z
 _atom_site_occupancy
  La  La0  1  0.808830  0.808756  0.186957  1
  La  La1  1  0.808146  0.191854  0.808146  1
  La  La2  1  0.186957  0.195455  0.808830  1
  La  La3  1  0.652837  0.042902  0.652837  1
  La  La4  1  0.059094  0.057885  0.445027  1
  La  La5  1  0.445027  0.437992  0.059094  1
  La  La6  1  0.652837  0.651425  0.652837  1
  La  La7  1  0.808830  0.195455  0.186957  1
  La  La8  1  0.186957  0.808756  0.808830  1
  La  La9  1  0.041192  0.653203  0.652401  1
  La  La10  1  0.445027  0.057885  0.059094  1
  La  La11  1  0.438331  0.061669  0.438331  1
  La  La12  1  0.055067  0.444933  0.055067  1
  La  La13  1  0.652401  0.653203  0.041192  1
  La  La14  1  0.193750  0.806250  0.193750  1
  La  La15  1  0.059094  0.437992  0.445027  1
  In  In16  1  0.420270  0.418864  0.420270  1
  In  In17  1  0.419872  0.419147  0.741833  1
  In  In18  1  0.420270  0.740594  0.420270  1
  In  In19  1  0.741833  0.419147  0.419872  1
  Tc  Tc20  1  0.863952  0.405837  0.863952  1
  Tc  Tc21  1  0.863952  0.866262  0.863952  1
  Rh  Rh22  1  0.859580  0.862264  0.415892  1
  Rh  Rh23  1  0.415892  0.862264  0.859580  1
