# generated using pymatgen
data_Nb12Al7CuNi3AuC4
_symmetry_space_group_name_H-M   'P 1'
_cell_length_a   8.33509640
_cell_length_b   8.32664794
_cell_length_c   8.32664800
_cell_angle_alpha   60.00000769
_cell_angle_beta   60.03353169
_cell_angle_gamma   60.03352586
_symmetry_Int_Tables_number   1
_chemical_formula_structural   Nb12Al7CuNi3AuC4
_chemical_formula_sum   'Nb12 Al7 Cu1 Ni3 Au1 C4'
_cell_volume   408.84244019
_cell_formula_units_Z   1
loop_
 _symmetry_equiv_pos_site_id
 _symmetry_equiv_pos_as_xyz
  1  'x, y, z'
loop_
 _atom_site_type_symbol
 _atom_site_label
 _atom_site_symmetry_multiplicity
 _atom_site_fract_x
 _atom_site_fract_y
 _atom_site_fract_z
 _atom_site_occupancy
  Nb  Nb0  1  0.814536  0.813621  0.185921  1
  Nb  Nb1  1  0.184904  0.181667  0.816714  1
  Nb  Nb2  1  0.814536  0.185921  0.813621  1
  Nb  Nb3  1  0.184904  0.816714  0.181667  1
  Nb  Nb4  1  0.184904  0.816714  0.816714  1
  Nb  Nb5  1  0.814536  0.185921  0.185921  1
  Nb  Nb6  1  0.433180  0.435160  0.065830  1
  Nb  Nb7  1  0.061706  0.070222  0.434037  1
  Nb  Nb8  1  0.433180  0.065830  0.435160  1
  Nb  Nb9  1  0.061706  0.434037  0.070222  1
  Nb  Nb10  1  0.061706  0.434037  0.434037  1
  Nb  Nb11  1  0.433180  0.065830  0.065830  1
  Al  Al12  1  0.437877  0.743115  0.409504  1
  Al  Al13  1  0.437877  0.409504  0.743115  1
  Al  Al14  1  0.437877  0.409504  0.409504  1
  Al  Al15  1  0.501130  0.832957  0.832957  1
  Al  Al16  1  0.821682  0.500639  0.838839  1
  Al  Al17  1  0.821682  0.838839  0.500639  1
  Al  Al18  1  0.821682  0.838839  0.838839  1
  Cu  Cu19  1  0.742394  0.419202  0.419202  1
  Ni  Ni20  1  0.623779  0.118475  0.628873  1
  Ni  Ni21  1  0.623779  0.628873  0.118475  1
  Ni  Ni22  1  0.623779  0.628873  0.628873  1
  Au  Au23  1  0.128357  0.623881  0.623881  1
  C  C24  1  0.625224  0.124925  0.124925  1
  C  C25  1  0.123301  0.624797  0.125951  1
  C  C26  1  0.123301  0.125951  0.624797  1
  C  C27  1  0.123301  0.125951  0.125951  1
