# generated using pymatgen
data_Tb4Al18CuPd3Ru2
_symmetry_space_group_name_H-M   'P 1'
_cell_length_a   7.61036778
_cell_length_b   7.61036750
_cell_length_c   9.47689225
_cell_angle_alpha   89.96026587
_cell_angle_beta   89.96026880
_cell_angle_gamma   119.40455233
_symmetry_Int_Tables_number   1
_chemical_formula_structural   Tb4Al18CuPd3Ru2
_chemical_formula_sum   'Tb4 Al18 Cu1 Pd3 Ru2'
_cell_volume   478.16976655
_cell_formula_units_Z   1
loop_
 _symmetry_equiv_pos_site_id
 _symmetry_equiv_pos_as_xyz
  1  'x, y, z'
loop_
 _atom_site_type_symbol
 _atom_site_label
 _atom_site_symmetry_multiplicity
 _atom_site_fract_x
 _atom_site_fract_y
 _atom_site_fract_z
 _atom_site_occupancy
  Tb  Tb0  1  0.994668  0.668608  0.249294  1
  Tb  Tb1  1  0.003930  0.330727  0.750764  1
  Tb  Tb2  1  0.669273  0.996071  0.249236  1
  Tb  Tb3  1  0.331392  0.005331  0.750706  1
  Al  Al4  1  0.124316  0.124127  0.249950  1
  Al  Al5  1  0.875873  0.875684  0.750050  1
  Al  Al6  1  0.999702  0.329922  0.075380  1
  Al  Al7  1  0.999172  0.669949  0.924537  1
  Al  Al8  1  0.999389  0.669917  0.575074  1
  Al  Al9  1  0.330083  0.000611  0.424926  1
  Al  Al10  1  0.000359  0.329610  0.424695  1
  Al  Al11  1  0.670390  0.999641  0.575305  1
  Al  Al12  1  0.670078  0.000298  0.924620  1
  Al  Al13  1  0.330051  0.000828  0.075463  1
  Al  Al14  1  0.328353  0.328093  0.552934  1
  Al  Al15  1  0.671907  0.671647  0.447066  1
  Al  Al16  1  0.671125  0.670346  0.053545  1
  Al  Al17  1  0.329654  0.328875  0.946455  1
  Al  Al18  1  0.341816  0.546703  0.250091  1
  Al  Al19  1  0.658302  0.452429  0.750753  1
  Al  Al20  1  0.547571  0.341698  0.249247  1
  Al  Al21  1  0.453297  0.658184  0.749909  1
  Cu  Cu22  1  0.671961  0.328039  0.000000  1
  Pd  Pd23  1  0.327829  0.672171  0.000000  1
  Pd  Pd24  1  0.327811  0.672189  0.500000  1
  Pd  Pd25  1  0.672206  0.327794  0.500000  1
  Ru  Ru26  1  0.999382  0.000618  0.000000  1
  Ru  Ru27  1  0.000107  0.999893  0.500000  1
