# generated using pymatgen
data_ErTm3(As4O9)2
_symmetry_space_group_name_H-M   'P 1'
_cell_length_a   6.67432865
_cell_length_b   7.48182683
_cell_length_c   9.76264690
_cell_angle_alpha   94.77662904
_cell_angle_beta   104.14290263
_cell_angle_gamma   104.73597385
_symmetry_Int_Tables_number   1
_chemical_formula_structural   ErTm3(As4O9)2
_chemical_formula_sum   'Er1 Tm3 As8 O18'
_cell_volume   451.65318427
_cell_formula_units_Z   1
loop_
 _symmetry_equiv_pos_site_id
 _symmetry_equiv_pos_as_xyz
  1  'x, y, z'
loop_
 _atom_site_type_symbol
 _atom_site_label
 _atom_site_symmetry_multiplicity
 _atom_site_fract_x
 _atom_site_fract_y
 _atom_site_fract_z
 _atom_site_occupancy
  Er  Er0  1  0.242263  0.939025  0.614644  1
  Tm  Tm1  1  0.757502  0.061348  0.385332  1
  Tm  Tm2  1  0.721448  0.528909  0.410337  1
  Tm  Tm3  1  0.278385  0.470928  0.589564  1
  As  As4  1  0.684045  0.773513  0.079675  1
  As  As5  1  0.316025  0.226801  0.920620  1
  As  As6  1  0.168824  0.751626  0.912554  1
  As  As7  1  0.831071  0.248220  0.087604  1
  As  As8  1  0.743345  0.914560  0.709807  1
  As  As9  1  0.256956  0.085487  0.290029  1
  As  As10  1  0.810256  0.351646  0.701872  1
  As  As11  1  0.189938  0.648261  0.297970  1
  O  O12  1  0.723459  0.748315  0.261230  1
  O  O13  1  0.276655  0.252438  0.739097  1
  O  O14  1  0.315586  0.978397  0.868308  1
  O  O15  1  0.684774  0.021765  0.132555  1
  O  O16  1  0.608725  0.326780  0.985191  1
  O  O17  1  0.391258  0.673235  0.014784  1
  O  O18  1  0.124996  0.643496  0.736989  1
  O  O19  1  0.874934  0.356307  0.263047  1
  O  O20  1  0.847432  0.876779  0.558417  1
  O  O21  1  0.151098  0.123871  0.440580  1
  O  O22  1  0.479996  0.766360  0.665789  1
  O  O23  1  0.520869  0.232951  0.334485  1
  O  O24  1  0.373247  0.531580  0.380733  1
  O  O25  1  0.626811  0.468307  0.619222  1
  O  O26  1  0.088524  0.669486  0.454454  1
  O  O27  1  0.910867  0.329386  0.545018  1
  O  O28  1  0.380432  0.899734  0.358899  1
  O  O29  1  0.620281  0.100491  0.641195  1
