# generated using pymatgen
data_YbY3Se4
_symmetry_space_group_name_H-M   'P 1'
_cell_length_a   13.50448214
_cell_length_b   13.50448222
_cell_length_c   13.50448170
_cell_angle_alpha   17.55530074
_cell_angle_beta   17.55530200
_cell_angle_gamma   17.55529739
_symmetry_Int_Tables_number   1
_chemical_formula_structural   YbY3Se4
_chemical_formula_sum   'Yb1 Y3 Se4'
_cell_volume   195.56280992
_cell_formula_units_Z   1
loop_
 _symmetry_equiv_pos_site_id
 _symmetry_equiv_pos_as_xyz
  1  'x, y, z'
loop_
 _atom_site_type_symbol
 _atom_site_label
 _atom_site_symmetry_multiplicity
 _atom_site_fract_x
 _atom_site_fract_y
 _atom_site_fract_z
 _atom_site_occupancy
  Yb  Yb0  1  0.000000  0.000000  0.000000  1
  Y  Y1  1  0.248663  0.248663  0.248663  1
  Y  Y2  1  0.500000  0.500000  0.500000  1
  Y  Y3  1  0.751337  0.751337  0.751337  1
  Se  Se4  1  0.375617  0.375617  0.375617  1
  Se  Se5  1  0.125338  0.125338  0.125338  1
  Se  Se6  1  0.624383  0.624383  0.624383  1
  Se  Se7  1  0.874662  0.874662  0.874662  1
