# generated using pymatgen
data_Ca4Si2SnPd4
_symmetry_space_group_name_H-M   'P 1'
_cell_length_a   11.11844970
_cell_length_b   11.07536626
_cell_length_c   7.94075812
_cell_angle_alpha   71.24251957
_cell_angle_beta   70.97175226
_cell_angle_gamma   30.88922192
_symmetry_Int_Tables_number   1
_chemical_formula_structural   Ca4Si2SnPd4
_chemical_formula_sum   'Ca8 Si4 Sn2 Pd8'
_cell_volume   472.80786245
_cell_formula_units_Z   2
loop_
 _symmetry_equiv_pos_site_id
 _symmetry_equiv_pos_as_xyz
  1  'x, y, z'
loop_
 _atom_site_type_symbol
 _atom_site_label
 _atom_site_symmetry_multiplicity
 _atom_site_fract_x
 _atom_site_fract_y
 _atom_site_fract_z
 _atom_site_occupancy
  Ca  Ca0  1  0.917075  0.216641  0.325800  1
  Ca  Ca1  1  0.065251  0.798371  0.669775  1
  Ca  Ca2  1  0.788840  0.073610  0.168226  1
  Ca  Ca3  1  0.457618  0.198307  0.910024  1
  Ca  Ca4  1  0.788418  0.554587  0.602093  1
  Ca  Ca5  1  0.210469  0.445675  0.404123  1
  Ca  Ca6  1  0.201818  0.931482  0.836481  1
  Ca  Ca7  1  0.545932  0.792940  0.085981  1
  Si  Si8  1  0.038713  0.306318  0.931730  1
  Si  Si9  1  0.699896  0.959380  0.565890  1
  Si  Si10  1  0.964474  0.695929  0.057056  1
  Si  Si11  1  0.627962  0.367783  0.754277  1
  Sn  Sn12  1  0.296523  0.051803  0.432094  1
  Sn  Sn13  1  0.351259  0.646458  0.249638  1
  Pd  Pd14  1  0.581435  0.287974  0.538588  1
  Pd  Pd15  1  0.710432  0.417585  0.960367  1
  Pd  Pd16  1  0.301123  0.564052  0.006704  1
  Pd  Pd17  1  0.443473  0.676839  0.501556  1
  Pd  Pd18  1  0.676408  0.891822  0.319572  1
  Pd  Pd19  1  0.907092  0.649824  0.816983  1
  Pd  Pd20  1  0.371885  0.080625  0.699847  1
  Pd  Pd21  1  0.053903  0.391994  0.163195  1
