# generated using pymatgen
data_LiY3Rh2
_symmetry_space_group_name_H-M   'P 1'
_cell_length_a   4.89518700
_cell_length_b   4.89518699
_cell_length_c   6.11304500
_cell_angle_alpha   90.00000000
_cell_angle_beta   90.00000000
_cell_angle_gamma   120.00000681
_symmetry_Int_Tables_number   1
_chemical_formula_structural   LiY3Rh2
_chemical_formula_sum   'Li1 Y3 Rh2'
_cell_volume   126.86060190
_cell_formula_units_Z   1
loop_
 _symmetry_equiv_pos_site_id
 _symmetry_equiv_pos_as_xyz
  1  'x, y, z'
loop_
 _atom_site_type_symbol
 _atom_site_label
 _atom_site_symmetry_multiplicity
 _atom_site_fract_x
 _atom_site_fract_y
 _atom_site_fract_z
 _atom_site_occupancy
  Li  Li0  1  0.000000  0.000000  0.000000  1
  Y  Y1  1  0.000000  0.000000  0.500000  1
  Y  Y2  1  0.333333  0.666667  0.820667  1
  Y  Y3  1  0.666667  0.333333  0.179333  1
  Rh  Rh4  1  0.333333  0.666667  0.322146  1
  Rh  Rh5  1  0.666667  0.333333  0.677854  1
