# generated using pymatgen
data_Y3Tm3ZrCo17P12
_symmetry_space_group_name_H-M   'P 1'
_cell_length_a   3.70120700
_cell_length_b   10.58197408
_cell_length_c   12.28640210
_cell_angle_alpha   89.98563419
_cell_angle_beta   90.00000000
_cell_angle_gamma   90.00000000
_symmetry_Int_Tables_number   1
_chemical_formula_structural   Y3Tm3ZrCo17P12
_chemical_formula_sum   'Y3 Tm3 Zr1 Co17 P12'
_cell_volume   481.21014992
_cell_formula_units_Z   1
loop_
 _symmetry_equiv_pos_site_id
 _symmetry_equiv_pos_as_xyz
  1  'x, y, z'
loop_
 _atom_site_type_symbol
 _atom_site_label
 _atom_site_symmetry_multiplicity
 _atom_site_fract_x
 _atom_site_fract_y
 _atom_site_fract_z
 _atom_site_occupancy
  Y  Y0  1  0.000000  0.499908  0.529660  1
  Y  Y1  1  0.500000  0.000175  0.477567  1
  Y  Y2  1  0.500000  0.821368  0.206983  1
  Tm  Tm3  1  0.500000  0.178560  0.207185  1
  Tm  Tm4  1  0.000000  0.682663  0.796403  1
  Tm  Tm5  1  0.000000  0.317329  0.796082  1
  Zr  Zr6  1  0.500000  0.499499  0.154094  1
  Co  Co7  1  0.000000  0.000147  0.836625  1
  Co  Co8  1  0.500000  0.499830  0.704100  1
  Co  Co9  1  0.000000  0.001601  0.295495  1
  Co  Co10  1  0.000000  0.499401  0.982470  1
  Co  Co11  1  0.500000  0.000630  0.013029  1
  Co  Co12  1  0.500000  0.326675  0.987501  1
  Co  Co13  1  0.500000  0.672736  0.986972  1
  Co  Co14  1  0.000000  0.161965  0.000948  1
  Co  Co15  1  0.000000  0.838723  0.000815  1
  Co  Co16  1  0.500000  0.294152  0.434604  1
  Co  Co17  1  0.500000  0.705781  0.435402  1
  Co  Co18  1  0.000000  0.202306  0.570894  1
  Co  Co19  1  0.000000  0.797795  0.571440  1
  Co  Co20  1  0.500000  0.879801  0.708400  1
  Co  Co21  1  0.500000  0.120249  0.708135  1
  Co  Co22  1  0.000000  0.622165  0.298238  1
  Co  Co23  1  0.000000  0.376255  0.296747  1
  P  P24  1  0.500000  0.499664  0.880840  1
  P  P25  1  0.000000  0.001246  0.116222  1
  P  P26  1  0.500000  0.500125  0.361733  1
  P  P27  1  0.000000  0.000025  0.655125  1
  P  P28  1  0.500000  0.309058  0.619233  1
  P  P29  1  0.500000  0.690777  0.619688  1
  P  P30  1  0.000000  0.188651  0.385599  1
  P  P31  1  0.000000  0.811669  0.386795  1
  P  P32  1  0.500000  0.851894  0.888141  1
  P  P33  1  0.500000  0.148406  0.887752  1
  P  P34  1  0.000000  0.664802  0.098776  1
  P  P35  1  0.000000  0.333966  0.100299  1
