# generated using pymatgen
data_TaNb19(Al4Au)2
_symmetry_space_group_name_H-M   'P 1'
_cell_length_a   9.98007291
_cell_length_b   9.96808291
_cell_length_c   5.25445900
_cell_angle_alpha   90.00000000
_cell_angle_beta   90.00000000
_cell_angle_gamma   90.07090400
_symmetry_Int_Tables_number   1
_chemical_formula_structural   TaNb19(Al4Au)2
_chemical_formula_sum   'Ta1 Nb19 Al8 Au2'
_cell_volume   522.72471040
_cell_formula_units_Z   1
loop_
 _symmetry_equiv_pos_site_id
 _symmetry_equiv_pos_as_xyz
  1  'x, y, z'
loop_
 _atom_site_type_symbol
 _atom_site_label
 _atom_site_symmetry_multiplicity
 _atom_site_fract_x
 _atom_site_fract_y
 _atom_site_fract_z
 _atom_site_occupancy
  Ta  Ta0  1  0.130391  0.465464  0.000000  1
  Nb  Nb1  1  0.398732  0.397417  0.000000  1
  Nb  Nb2  1  0.897794  0.102210  0.500000  1
  Nb  Nb3  1  0.102384  0.897754  0.500000  1
  Nb  Nb4  1  0.602940  0.602539  0.000000  1
  Nb  Nb5  1  0.966078  0.370377  0.500000  1
  Nb  Nb6  1  0.035031  0.629278  0.500000  1
  Nb  Nb7  1  0.868836  0.534820  0.000000  1
  Nb  Nb8  1  0.369813  0.965203  0.500000  1
  Nb  Nb9  1  0.629948  0.034614  0.500000  1
  Nb  Nb10  1  0.465519  0.129741  0.000000  1
  Nb  Nb11  1  0.534423  0.870152  0.000000  1
  Nb  Nb12  1  0.184026  0.185103  0.253108  1
  Nb  Nb13  1  0.684076  0.315608  0.753333  1
  Nb  Nb14  1  0.315304  0.683415  0.753680  1
  Nb  Nb15  1  0.815821  0.816017  0.253482  1
  Nb  Nb16  1  0.315304  0.683415  0.246320  1
  Nb  Nb17  1  0.684076  0.315608  0.246667  1
  Nb  Nb18  1  0.184026  0.185103  0.746892  1
  Nb  Nb19  1  0.815821  0.816017  0.746518  1
  Al  Al20  1  0.259772  0.934667  0.000000  1
  Al  Al21  1  0.434666  0.239932  0.500000  1
  Al  Al22  1  0.565089  0.759885  0.500000  1
  Al  Al23  1  0.740138  0.065222  0.000000  1
  Al  Al24  1  0.240353  0.434641  0.500000  1
  Al  Al25  1  0.759910  0.565332  0.500000  1
  Al  Al26  1  0.934572  0.260416  0.000000  1
  Al  Al27  1  0.065005  0.739826  0.000000  1
  Au  Au28  1  0.000054  0.000280  0.000000  1
  Au  Au29  1  0.500097  0.499947  0.500000  1
