# generated using pymatgen
data_Ho14ErTh(InRh)4
_symmetry_space_group_name_H-M   'P 1'
_cell_length_a   9.65581655
_cell_length_b   9.65661990
_cell_length_c   9.63593039
_cell_angle_alpha   60.17146633
_cell_angle_beta   60.14199675
_cell_angle_gamma   59.66983639
_symmetry_Int_Tables_number   1
_chemical_formula_structural   Ho14ErTh(InRh)4
_chemical_formula_sum   'Ho14 Er1 Th1 In4 Rh4'
_cell_volume   635.20963518
_cell_formula_units_Z   1
loop_
 _symmetry_equiv_pos_site_id
 _symmetry_equiv_pos_as_xyz
  1  'x, y, z'
loop_
 _atom_site_type_symbol
 _atom_site_label
 _atom_site_symmetry_multiplicity
 _atom_site_fract_x
 _atom_site_fract_y
 _atom_site_fract_z
 _atom_site_occupancy
  Ho  Ho0  1  0.440078  0.058608  0.060798  1
  Ho  Ho1  1  0.439246  0.059934  0.437746  1
  Ho  Ho2  1  0.058501  0.440582  0.060518  1
  Ho  Ho3  1  0.654263  0.051193  0.645773  1
  Ho  Ho4  1  0.188906  0.805817  0.812625  1
  Ho  Ho5  1  0.064390  0.064078  0.435321  1
  Ho  Ho6  1  0.806450  0.187257  0.194150  1
  Ho  Ho7  1  0.810119  0.809830  0.190298  1
  Ho  Ho8  1  0.647805  0.648079  0.051161  1
  Ho  Ho9  1  0.651652  0.651695  0.654015  1
  Ho  Ho10  1  0.060000  0.439669  0.437371  1
  Ho  Ho11  1  0.051615  0.654187  0.645385  1
  Ho  Ho12  1  0.805754  0.188877  0.812363  1
  Ho  Ho13  1  0.434032  0.434473  0.065948  1
  Er  Er14  1  0.187418  0.806280  0.194344  1
  Th  Th15  1  0.185929  0.186203  0.812400  1
  In  In16  1  0.418742  0.748527  0.416769  1
  In  In17  1  0.419204  0.419243  0.748195  1
  In  In18  1  0.748626  0.418387  0.416615  1
  In  In19  1  0.418044  0.417983  0.412986  1
  Rh  Rh20  1  0.873296  0.422241  0.854677  1
  Rh  Rh21  1  0.858405  0.857664  0.426234  1
  Rh  Rh22  1  0.421788  0.873542  0.854672  1
  Rh  Rh23  1  0.855737  0.855652  0.859638  1
