# generated using pymatgen
data_LaNdPa2(Al3Ir)6
_symmetry_space_group_name_H-M   'P 1'
_cell_length_a   7.64280705
_cell_length_b   7.63790864
_cell_length_c   9.44271400
_cell_angle_alpha   90.00000000
_cell_angle_beta   90.00000000
_cell_angle_gamma   119.62361936
_symmetry_Int_Tables_number   1
_chemical_formula_structural   LaNdPa2(Al3Ir)6
_chemical_formula_sum   'La1 Nd1 Pa2 Al18 Ir6'
_cell_volume   479.16985812
_cell_formula_units_Z   1
loop_
 _symmetry_equiv_pos_site_id
 _symmetry_equiv_pos_as_xyz
  1  'x, y, z'
loop_
 _atom_site_type_symbol
 _atom_site_label
 _atom_site_symmetry_multiplicity
 _atom_site_fract_x
 _atom_site_fract_y
 _atom_site_fract_z
 _atom_site_occupancy
  La  La0  1  0.669369  0.994113  0.250000  1
  Nd  Nd1  1  0.330541  0.006280  0.750000  1
  Pa  Pa2  1  0.997728  0.671173  0.250000  1
  Pa  Pa3  1  0.002175  0.328695  0.750000  1
  Al  Al4  1  0.132930  0.128288  0.250000  1
  Al  Al5  1  0.868946  0.872004  0.750000  1
  Al  Al6  1  0.003036  0.334650  0.075308  1
  Al  Al7  1  0.998243  0.666780  0.924279  1
  Al  Al8  1  0.998243  0.666780  0.575721  1
  Al  Al9  1  0.335385  0.003190  0.425817  1
  Al  Al10  1  0.003036  0.334650  0.424692  1
  Al  Al11  1  0.663186  0.996407  0.575786  1
  Al  Al12  1  0.663186  0.996407  0.924214  1
  Al  Al13  1  0.335385  0.003190  0.074183  1
  Al  Al14  1  0.335079  0.334437  0.551878  1
  Al  Al15  1  0.664951  0.664504  0.449268  1
  Al  Al16  1  0.664951  0.664504  0.050732  1
  Al  Al17  1  0.335079  0.334437  0.948122  1
  Al  Al18  1  0.337310  0.544536  0.250000  1
  Al  Al19  1  0.661405  0.453819  0.750000  1
  Al  Al20  1  0.549248  0.345049  0.250000  1
  Al  Al21  1  0.450411  0.656062  0.750000  1
  Ir  Ir22  1  0.676234  0.331077  0.999496  1
  Ir  Ir23  1  0.323659  0.668837  0.000160  1
  Ir  Ir24  1  0.323659  0.668837  0.499840  1
  Ir  Ir25  1  0.676234  0.331077  0.500504  1
  Ir  Ir26  1  0.000196  0.000110  0.999832  1
  Ir  Ir27  1  0.000196  0.000110  0.500168  1
