# generated using pymatgen
data_Ti8Nb2Sn6P
_symmetry_space_group_name_H-M   'P 1'
_cell_length_a   8.15805200
_cell_length_b   8.15805263
_cell_length_c   5.52751300
_cell_angle_alpha   90.00000000
_cell_angle_beta   90.00000000
_cell_angle_gamma   119.99999746
_symmetry_Int_Tables_number   1
_chemical_formula_structural   Ti8Nb2Sn6P
_chemical_formula_sum   'Ti8 Nb2 Sn6 P1'
_cell_volume   318.59091499
_cell_formula_units_Z   1
loop_
 _symmetry_equiv_pos_site_id
 _symmetry_equiv_pos_as_xyz
  1  'x, y, z'
loop_
 _atom_site_type_symbol
 _atom_site_label
 _atom_site_symmetry_multiplicity
 _atom_site_fract_x
 _atom_site_fract_y
 _atom_site_fract_z
 _atom_site_occupancy
  Ti  Ti0  1  0.333333  0.666667  0.000000  1
  Ti  Ti1  1  0.666667  0.333333  0.000000  1
  Ti  Ti2  1  0.750526  0.750526  0.248227  1
  Ti  Ti3  1  0.249474  0.000000  0.248227  1
  Ti  Ti4  1  0.000000  0.249474  0.248227  1
  Ti  Ti5  1  0.249474  0.249474  0.751773  1
  Ti  Ti6  1  0.750526  0.000000  0.751773  1
  Ti  Ti7  1  0.000000  0.750526  0.751773  1
  Nb  Nb8  1  0.666667  0.333333  0.500000  1
  Nb  Nb9  1  0.333333  0.666667  0.500000  1
  Sn  Sn10  1  0.392151  0.392151  0.244116  1
  Sn  Sn11  1  0.607849  0.000000  0.244116  1
  Sn  Sn12  1  0.000000  0.607849  0.244116  1
  Sn  Sn13  1  0.607849  0.607849  0.755884  1
  Sn  Sn14  1  0.392151  0.000000  0.755884  1
  Sn  Sn15  1  0.000000  0.392151  0.755884  1
  P  P16  1  0.000000  0.000000  0.500000  1
