# generated using pymatgen
data_LiNd4Al3Pd4
_symmetry_space_group_name_H-M   'P 1'
_cell_length_a   4.53087500
_cell_length_b   7.10019643
_cell_length_c   8.00303507
_cell_angle_alpha   89.91399435
_cell_angle_beta   90.00000000
_cell_angle_gamma   90.00000000
_symmetry_Int_Tables_number   1
_chemical_formula_structural   LiNd4Al3Pd4
_chemical_formula_sum   'Li1 Nd4 Al3 Pd4'
_cell_volume   257.45816821
_cell_formula_units_Z   1
loop_
 _symmetry_equiv_pos_site_id
 _symmetry_equiv_pos_as_xyz
  1  'x, y, z'
loop_
 _atom_site_type_symbol
 _atom_site_label
 _atom_site_symmetry_multiplicity
 _atom_site_fract_x
 _atom_site_fract_y
 _atom_site_fract_z
 _atom_site_occupancy
  Li  Li0  1  0.750000  0.870746  0.932909  1
  Nd  Nd1  1  0.750000  0.463087  0.185451  1
  Nd  Nd2  1  0.250000  0.031705  0.683358  1
  Nd  Nd3  1  0.750000  0.969782  0.314828  1
  Nd  Nd4  1  0.250000  0.531544  0.816924  1
  Al  Al5  1  0.250000  0.643350  0.435684  1
  Al  Al6  1  0.750000  0.347145  0.567055  1
  Al  Al7  1  0.250000  0.142230  0.064299  1
  Pd  Pd8  1  0.750000  0.712211  0.599594  1
  Pd  Pd9  1  0.750000  0.236509  0.887127  1
  Pd  Pd10  1  0.250000  0.278304  0.390384  1
  Pd  Pd11  1  0.250000  0.773388  0.122386  1
