# generated using pymatgen
data_Dy2Ho2Si3Ir4
_symmetry_space_group_name_H-M   'P 1'
_cell_length_a   10.69389857
_cell_length_b   10.69389951
_cell_length_c   7.70411600
_cell_angle_alpha   71.22047552
_cell_angle_beta   71.22047380
_cell_angle_gamma   29.81266845
_symmetry_Int_Tables_number   1
_chemical_formula_structural   Dy2Ho2Si3Ir4
_chemical_formula_sum   'Dy4 Ho4 Si6 Ir8'
_cell_volume   413.00159404
_cell_formula_units_Z   2
loop_
 _symmetry_equiv_pos_site_id
 _symmetry_equiv_pos_as_xyz
  1  'x, y, z'
loop_
 _atom_site_type_symbol
 _atom_site_label
 _atom_site_symmetry_multiplicity
 _atom_site_fract_x
 _atom_site_fract_y
 _atom_site_fract_z
 _atom_site_occupancy
  Dy  Dy0  1  0.792215  0.548221  0.599330  1
  Dy  Dy1  1  0.451779  0.207785  0.900670  1
  Dy  Dy2  1  0.207785  0.451779  0.400670  1
  Dy  Dy3  1  0.548221  0.792215  0.099330  1
  Ho  Ho4  1  0.788541  0.072876  0.169695  1
  Ho  Ho5  1  0.927124  0.211459  0.330305  1
  Ho  Ho6  1  0.211459  0.927124  0.830305  1
  Ho  Ho7  1  0.072876  0.788541  0.669695  1
  Si  Si8  1  0.959092  0.697401  0.056617  1
  Si  Si9  1  0.302599  0.040908  0.443383  1
  Si  Si10  1  0.040908  0.302599  0.943383  1
  Si  Si11  1  0.697401  0.959092  0.556617  1
  Si  Si12  1  0.611836  0.388164  0.750000  1
  Si  Si13  1  0.388164  0.611836  0.250000  1
  Ir  Ir14  1  0.588674  0.288198  0.523920  1
  Ir  Ir15  1  0.711802  0.411326  0.976080  1
  Ir  Ir16  1  0.411326  0.711802  0.476080  1
  Ir  Ir17  1  0.288198  0.588674  0.023920  1
  Ir  Ir18  1  0.632265  0.928886  0.307980  1
  Ir  Ir19  1  0.071114  0.367735  0.192020  1
  Ir  Ir20  1  0.367735  0.071114  0.692020  1
  Ir  Ir21  1  0.928886  0.632265  0.807980  1
