# generated using pymatgen
data_Ce3Gd5Tm2(SiB4)4
_symmetry_space_group_name_H-M   'P 1'
_cell_length_a   7.26938879
_cell_length_b   7.26938860
_cell_length_c   8.20480504
_cell_angle_alpha   89.98840695
_cell_angle_beta   89.98840718
_cell_angle_gamma   90.06496547
_symmetry_Int_Tables_number   1
_chemical_formula_structural   Ce3Gd5Tm2(SiB4)4
_chemical_formula_sum   'Ce3 Gd5 Tm2 Si4 B16'
_cell_volume   433.57451935
_cell_formula_units_Z   1
loop_
 _symmetry_equiv_pos_site_id
 _symmetry_equiv_pos_as_xyz
  1  'x, y, z'
loop_
 _atom_site_type_symbol
 _atom_site_label
 _atom_site_symmetry_multiplicity
 _atom_site_fract_x
 _atom_site_fract_y
 _atom_site_fract_z
 _atom_site_occupancy
  Ce  Ce0  1  0.681766  0.181766  0.228093  1
  Ce  Ce1  1  0.317686  0.817686  0.771678  1
  Ce  Ce2  1  0.318387  0.818387  0.229049  1
  Gd  Gd3  1  0.819736  0.680090  0.223643  1
  Gd  Gd4  1  0.819772  0.680254  0.776390  1
  Gd  Gd5  1  0.681572  0.181572  0.776042  1
  Gd  Gd6  1  0.180254  0.319772  0.776390  1
  Gd  Gd7  1  0.180090  0.319736  0.223643  1
  Tm  Tm8  1  0.999244  0.000756  0.500575  1
  Tm  Tm9  1  0.500756  0.499244  0.500575  1
  Si  Si10  1  0.115230  0.615230  0.500338  1
  Si  Si11  1  0.884036  0.384036  0.499729  1
  Si  Si12  1  0.384626  0.115323  0.500149  1
  Si  Si13  1  0.615323  0.884626  0.500149  1
  B  B14  1  0.172514  0.038649  0.999374  1
  B  B15  1  0.827401  0.961353  0.999606  1
  B  B16  1  0.959847  0.172248  0.999369  1
  B  B17  1  0.328325  0.539861  0.999351  1
  B  B18  1  0.039861  0.828325  0.999351  1
  B  B19  1  0.672248  0.459847  0.999369  1
  B  B20  1  0.538649  0.672514  0.999374  1
  B  B21  1  0.461353  0.327401  0.999606  1
  B  B22  1  0.091478  0.591478  0.999565  1
  B  B23  1  0.908835  0.408835  0.000717  1
  B  B24  1  0.409916  0.090223  0.000070  1
  B  B25  1  0.590223  0.909916  0.000070  1
  B  B26  1  0.999717  0.000016  0.159386  1
  B  B27  1  0.000939  0.000200  0.839478  1
  B  B28  1  0.500200  0.500939  0.839478  1
  B  B29  1  0.500016  0.499717  0.159386  1
