# generated using pymatgen
data_Ho8Lu12HgBi11
_symmetry_space_group_name_H-M   'P 1'
_cell_length_a   8.11496271
_cell_length_b   9.37612300
_cell_length_c   11.85669500
_cell_angle_alpha   90.00000000
_cell_angle_beta   89.65196412
_cell_angle_gamma   90.00000000
_symmetry_Int_Tables_number   1
_chemical_formula_structural   Ho8Lu12HgBi11
_chemical_formula_sum   'Ho8 Lu12 Hg1 Bi11'
_cell_volume   902.12238732
_cell_formula_units_Z   1
loop_
 _symmetry_equiv_pos_site_id
 _symmetry_equiv_pos_as_xyz
  1  'x, y, z'
loop_
 _atom_site_type_symbol
 _atom_site_label
 _atom_site_symmetry_multiplicity
 _atom_site_fract_x
 _atom_site_fract_y
 _atom_site_fract_z
 _atom_site_occupancy
  Ho  Ho0  1  0.352154  0.250000  0.289049  1
  Ho  Ho1  1  0.651636  0.750000  0.717121  1
  Ho  Ho2  1  0.151073  0.750000  0.783867  1
  Ho  Ho3  1  0.850287  0.250000  0.214459  1
  Ho  Ho4  1  0.191401  0.250000  0.780822  1
  Ho  Ho5  1  0.809899  0.750000  0.216873  1
  Ho  Ho6  1  0.312003  0.750000  0.281955  1
  Ho  Ho7  1  0.680973  0.250000  0.713437  1
  Lu  Lu8  1  0.032936  0.250000  0.508786  1
  Lu  Lu9  1  0.980487  0.750000  0.489899  1
  Lu  Lu10  1  0.478380  0.750000  0.009840  1
  Lu  Lu11  1  0.521873  0.250000  0.990393  1
  Lu  Lu12  1  0.190262  0.067127  0.059686  1
  Lu  Lu13  1  0.809284  0.932707  0.941880  1
  Lu  Lu14  1  0.308922  0.946037  0.559177  1
  Lu  Lu15  1  0.809284  0.567293  0.941880  1
  Lu  Lu16  1  0.686731  0.070499  0.444546  1
  Lu  Lu17  1  0.190262  0.432873  0.059686  1
  Lu  Lu18  1  0.686731  0.429501  0.444546  1
  Lu  Lu19  1  0.308922  0.553963  0.559177  1
  Hg  Hg20  1  0.403481  0.250000  0.540770  1
  Bi  Bi21  1  0.596559  0.750000  0.456989  1
  Bi  Bi22  1  0.098976  0.750000  0.044106  1
  Bi  Bi23  1  0.901196  0.250000  0.953361  1
  Bi  Bi24  1  0.060148  0.003012  0.324507  1
  Bi  Bi25  1  0.937861  0.996907  0.674376  1
  Bi  Bi26  1  0.437817  0.996238  0.826710  1
  Bi  Bi27  1  0.937861  0.503093  0.674376  1
  Bi  Bi28  1  0.562322  0.003819  0.173254  1
  Bi  Bi29  1  0.060148  0.496988  0.324507  1
  Bi  Bi30  1  0.562322  0.496181  0.173254  1
  Bi  Bi31  1  0.437817  0.503762  0.826710  1
