# generated using pymatgen
data_Hf2Ti2SiAs
_symmetry_space_group_name_H-M   'P 1'
_cell_length_a   7.89162978
_cell_length_b   7.89220474
_cell_length_c   7.89165617
_cell_angle_alpha   127.86768261
_cell_angle_beta   123.22676656
_cell_angle_gamma   80.68274159
_symmetry_Int_Tables_number   1
_chemical_formula_structural   Hf2Ti2SiAs
_chemical_formula_sum   'Hf6 Ti6 Si3 As3'
_cell_volume   313.04565491
_cell_formula_units_Z   3
loop_
 _symmetry_equiv_pos_site_id
 _symmetry_equiv_pos_as_xyz
  1  'x, y, z'
loop_
 _atom_site_type_symbol
 _atom_site_label
 _atom_site_symmetry_multiplicity
 _atom_site_fract_x
 _atom_site_fract_y
 _atom_site_fract_z
 _atom_site_occupancy
  Hf  Hf0  1  0.451017  0.656852  0.701187  1
  Hf  Hf1  1  0.545825  0.255765  0.205277  1
  Hf  Hf2  1  0.745492  0.845824  0.594531  1
  Hf  Hf3  1  0.251490  0.846267  0.100325  1
  Hf  Hf4  1  0.050531  0.255766  0.709583  1
  Hf  Hf5  1  0.955165  0.656273  0.205422  1
  Ti  Ti6  1  0.499541  0.498096  0.999212  1
  Ti  Ti7  1  0.999667  0.495680  0.495898  1
  Ti  Ti8  1  0.122565  0.256132  0.133051  1
  Ti  Ti9  1  0.879256  0.011366  0.133647  1
  Ti  Ti10  1  0.377027  0.006664  0.628583  1
  Ti  Ti11  1  0.622682  0.253733  0.632062  1
  Si  Si12  1  0.251565  0.253902  0.504490  1
  Si  Si13  1  0.748683  0.252325  0.001881  1
  Si  Si14  1  0.332951  0.586448  0.252975  1
  As  As15  1  0.667534  0.920956  0.253266  1
  As  As16  1  0.165305  0.919551  0.753898  1
  As  As17  1  0.833706  0.588002  0.754315  1
