# generated using pymatgen
data_Ac3ZnPd2
_symmetry_space_group_name_H-M   'P 1'
_cell_length_a   4.68456500
_cell_length_b   6.22265165
_cell_length_c   12.21492648
_cell_angle_alpha   82.50538946
_cell_angle_beta   90.00000000
_cell_angle_gamma   90.00000000
_symmetry_Int_Tables_number   1
_chemical_formula_structural   Ac3ZnPd2
_chemical_formula_sum   'Ac6 Zn2 Pd4'
_cell_volume   353.02833030
_cell_formula_units_Z   2
loop_
 _symmetry_equiv_pos_site_id
 _symmetry_equiv_pos_as_xyz
  1  'x, y, z'
loop_
 _atom_site_type_symbol
 _atom_site_label
 _atom_site_symmetry_multiplicity
 _atom_site_fract_x
 _atom_site_fract_y
 _atom_site_fract_z
 _atom_site_occupancy
  Ac  Ac0  1  0.250000  0.411907  0.795994  1
  Ac  Ac1  1  0.750000  0.588093  0.204006  1
  Ac  Ac2  1  0.250000  0.120281  0.117672  1
  Ac  Ac3  1  0.750000  0.879719  0.882328  1
  Ac  Ac4  1  0.250000  0.253548  0.450457  1
  Ac  Ac5  1  0.750000  0.746452  0.549543  1
  Zn  Zn6  1  0.250000  0.793118  0.355085  1
  Zn  Zn7  1  0.750000  0.206882  0.644915  1
  Pd  Pd8  1  0.250000  0.647571  0.030242  1
  Pd  Pd9  1  0.750000  0.352429  0.969758  1
  Pd  Pd10  1  0.250000  0.953126  0.692127  1
  Pd  Pd11  1  0.750000  0.046874  0.307873  1
