# generated using pymatgen
data_Ca4Fe(TcO4)3
_symmetry_space_group_name_H-M   'P 1'
_cell_length_a   5.43358660
_cell_length_b   5.59133198
_cell_length_c   7.75951671
_cell_angle_alpha   89.71617272
_cell_angle_beta   89.86188536
_cell_angle_gamma   89.94483748
_symmetry_Int_Tables_number   1
_chemical_formula_structural   Ca4Fe(TcO4)3
_chemical_formula_sum   'Ca4 Fe1 Tc3 O12'
_cell_volume   235.73808873
_cell_formula_units_Z   1
loop_
 _symmetry_equiv_pos_site_id
 _symmetry_equiv_pos_as_xyz
  1  'x, y, z'
loop_
 _atom_site_type_symbol
 _atom_site_label
 _atom_site_symmetry_multiplicity
 _atom_site_fract_x
 _atom_site_fract_y
 _atom_site_fract_z
 _atom_site_occupancy
  Ca  Ca0  1  0.989001  0.951150  0.758411  1
  Ca  Ca1  1  0.010974  0.048329  0.241596  1
  Ca  Ca2  1  0.485057  0.553531  0.240552  1
  Ca  Ca3  1  0.514970  0.446024  0.759452  1
  Fe  Fe4  1  0.500018  0.999718  0.999895  1
  Tc  Tc5  1  0.000018  0.499731  0.000004  1
  Tc  Tc6  1  0.499983  0.999760  0.500000  1
  Tc  Tc7  1  0.000005  0.499737  0.500006  1
  O  O8  1  0.790902  0.211004  0.545185  1
  O  O9  1  0.209085  0.788484  0.454845  1
  O  O10  1  0.093510  0.525138  0.750725  1
  O  O11  1  0.906504  0.474332  0.249289  1
  O  O12  1  0.295764  0.294495  0.048265  1
  O  O13  1  0.704259  0.705036  0.951757  1
  O  O14  1  0.708991  0.712554  0.545762  1
  O  O15  1  0.290994  0.286935  0.454261  1
  O  O16  1  0.408538  0.027789  0.747490  1
  O  O17  1  0.591425  0.971741  0.252509  1
  O  O18  1  0.201520  0.793094  0.048037  1
  O  O19  1  0.798486  0.206409  0.951960  1
