# generated using pymatgen
data_Dy7Tm4Cd9Au4
_symmetry_space_group_name_H-M   'P 1'
_cell_length_a   3.66377000
_cell_length_b   13.31697978
_cell_length_c   13.31697800
_cell_angle_alpha   112.52170062
_cell_angle_beta   90.00000000
_cell_angle_gamma   90.00000000
_symmetry_Int_Tables_number   1
_chemical_formula_structural   Dy7Tm4Cd9Au4
_chemical_formula_sum   'Dy7 Tm4 Cd9 Au4'
_cell_volume   600.18729932
_cell_formula_units_Z   1
loop_
 _symmetry_equiv_pos_site_id
 _symmetry_equiv_pos_as_xyz
  1  'x, y, z'
loop_
 _atom_site_type_symbol
 _atom_site_label
 _atom_site_symmetry_multiplicity
 _atom_site_fract_x
 _atom_site_fract_y
 _atom_site_fract_z
 _atom_site_occupancy
  Dy  Dy0  1  0.000000  0.161893  0.838107  1
  Dy  Dy1  1  0.000000  0.838107  0.161893  1
  Dy  Dy2  1  0.000000  0.367405  0.632595  1
  Dy  Dy3  1  0.000000  0.632595  0.367405  1
  Dy  Dy4  1  0.000000  0.701688  0.701688  1
  Dy  Dy5  1  0.000000  0.298312  0.298312  1
  Dy  Dy6  1  0.000000  0.000000  0.000000  1
  Tm  Tm7  1  0.000000  0.929391  0.584467  1
  Tm  Tm8  1  0.000000  0.070609  0.415533  1
  Tm  Tm9  1  0.000000  0.584467  0.929391  1
  Tm  Tm10  1  0.000000  0.415533  0.070609  1
  Cd  Cd11  1  0.500000  0.155799  0.634896  1
  Cd  Cd12  1  0.500000  0.844201  0.365104  1
  Cd  Cd13  1  0.500000  0.634896  0.155799  1
  Cd  Cd14  1  0.500000  0.365104  0.844201  1
  Cd  Cd15  1  0.500000  0.931543  0.787916  1
  Cd  Cd16  1  0.500000  0.068457  0.212084  1
  Cd  Cd17  1  0.500000  0.787916  0.931543  1
  Cd  Cd18  1  0.500000  0.212084  0.068457  1
  Cd  Cd19  1  0.500000  0.500000  0.500000  1
  Au  Au20  1  0.500000  0.753101  0.550278  1
  Au  Au21  1  0.500000  0.246899  0.449722  1
  Au  Au22  1  0.500000  0.550278  0.753101  1
  Au  Au23  1  0.500000  0.449722  0.246899  1
