# generated using pymatgen
data_Dy5Co12As8P4Ru7
_symmetry_space_group_name_H-M   'P 1'
_cell_length_a   12.52116386
_cell_length_b   12.52645145
_cell_length_c   3.79500800
_cell_angle_alpha   90.00000000
_cell_angle_beta   90.00000000
_cell_angle_gamma   119.92373396
_symmetry_Int_Tables_number   1
_chemical_formula_structural   Dy5Co12As8P4Ru7
_chemical_formula_sum   'Dy5 Co12 As8 P4 Ru7'
_cell_volume   515.88076100
_cell_formula_units_Z   1
loop_
 _symmetry_equiv_pos_site_id
 _symmetry_equiv_pos_as_xyz
  1  'x, y, z'
loop_
 _atom_site_type_symbol
 _atom_site_label
 _atom_site_symmetry_multiplicity
 _atom_site_fract_x
 _atom_site_fract_y
 _atom_site_fract_z
 _atom_site_occupancy
  Dy  Dy0  1  0.667919  0.334555  0.000000  1
  Dy  Dy1  1  0.334893  0.667295  0.000000  1
  Dy  Dy2  1  0.176034  0.175237  0.500000  1
  Dy  Dy3  1  0.824941  0.000311  0.500000  1
  Dy  Dy4  1  0.999707  0.819093  0.500000  1
  Co  Co5  1  0.832606  0.194349  0.000000  1
  Co  Co6  1  0.810516  0.639519  0.000000  1
  Co  Co7  1  0.361650  0.167103  0.000000  1
  Co  Co8  1  0.188895  0.826449  0.000000  1
  Co  Co9  1  0.634584  0.804627  0.000000  1
  Co  Co10  1  0.170405  0.365997  0.000000  1
  Co  Co11  1  0.521373  0.871918  0.500000  1
  Co  Co12  1  0.353355  0.482242  0.500000  1
  Co  Co13  1  0.726145  0.728186  0.500000  1
  Co  Co14  1  0.271698  0.997422  0.500000  1
  Co  Co15  1  0.001958  0.273836  0.500000  1
  Co  Co16  1  0.999943  0.999980  0.000000  1
  As  As17  1  0.354100  0.360310  0.000000  1
  As  As18  1  0.640987  0.994899  0.000000  1
  As  As19  1  0.842803  0.317813  0.500000  1
  As  As20  1  0.682288  0.526330  0.500000  1
  As  As21  1  0.473987  0.157659  0.500000  1
  As  As22  1  0.320613  0.841680  0.500000  1
  As  As23  1  0.521565  0.684527  0.500000  1
  As  As24  1  0.163523  0.476410  0.500000  1
  P  P25  1  0.001234  0.639529  0.000000  1
  P  P26  1  0.823739  0.823848  0.000000  1
  P  P27  1  0.175247  0.997731  0.000000  1
  P  P28  1  0.001499  0.177203  0.000000  1
  Ru  Ru29  1  0.552160  0.557579  0.000000  1
  Ru  Ru30  1  0.442507  0.994371  0.000000  1
  Ru  Ru31  1  0.000774  0.449287  0.000000  1
  Ru  Ru32  1  0.648023  0.124165  0.500000  1
  Ru  Ru33  1  0.876737  0.527279  0.500000  1
  Ru  Ru34  1  0.474916  0.352056  0.500000  1
  Ru  Ru35  1  0.126676  0.649207  0.500000  1
