# generated using pymatgen
data_Sc6CdSn5Pd6
_symmetry_space_group_name_H-M   'P 1'
_cell_length_a   7.59651400
_cell_length_b   7.62390720
_cell_length_c   7.05399416
_cell_angle_alpha   90.02034179
_cell_angle_beta   90.00000000
_cell_angle_gamma   119.88121336
_symmetry_Int_Tables_number   1
_chemical_formula_structural   Sc6CdSn5Pd6
_chemical_formula_sum   'Sc6 Cd1 Sn5 Pd6'
_cell_volume   354.22257050
_cell_formula_units_Z   1
loop_
 _symmetry_equiv_pos_site_id
 _symmetry_equiv_pos_as_xyz
  1  'x, y, z'
loop_
 _atom_site_type_symbol
 _atom_site_label
 _atom_site_symmetry_multiplicity
 _atom_site_fract_x
 _atom_site_fract_y
 _atom_site_fract_z
 _atom_site_occupancy
  Sc  Sc0  1  0.404968  0.012236  0.245130  1
  Sc  Sc1  1  0.612673  0.603816  0.246699  1
  Sc  Sc2  1  0.982975  0.383546  0.246773  1
  Sc  Sc3  1  0.392732  0.987764  0.754870  1
  Sc  Sc4  1  0.599429  0.616454  0.753227  1
  Sc  Sc5  1  0.008857  0.396184  0.753301  1
  Cd  Cd6  1  0.721649  0.000000  0.000000  1
  Sn  Sn7  1  0.281174  0.280065  0.499629  1
  Sn  Sn8  1  0.001109  0.719935  0.500371  1
  Sn  Sn9  1  0.997148  0.727429  0.999869  1
  Sn  Sn10  1  0.269718  0.272571  0.000131  1
  Sn  Sn11  1  0.723691  0.000000  0.500000  1
  Pd  Pd12  1  0.325867  0.660785  0.022987  1
  Pd  Pd13  1  0.333361  0.665538  0.475539  1
  Pd  Pd14  1  0.665083  0.339215  0.977013  1
  Pd  Pd15  1  0.667824  0.334462  0.524461  1
  Pd  Pd16  1  0.005855  0.999968  0.256415  1
  Pd  Pd17  1  0.005888  0.000032  0.743585  1
