# generated using pymatgen
data_NaLi4Ca(RhN)4
_symmetry_space_group_name_H-M   'P 1'
_cell_length_a   7.09668800
_cell_length_b   7.09668800
_cell_length_c   3.75991300
_cell_angle_alpha   90.00000000
_cell_angle_beta   90.00000000
_cell_angle_gamma   90.00000000
_symmetry_Int_Tables_number   1
_chemical_formula_structural   NaLi4Ca(RhN)4
_chemical_formula_sum   'Na1 Li4 Ca1 Rh4 N4'
_cell_volume   189.36042536
_cell_formula_units_Z   1
loop_
 _symmetry_equiv_pos_site_id
 _symmetry_equiv_pos_as_xyz
  1  'x, y, z'
loop_
 _atom_site_type_symbol
 _atom_site_label
 _atom_site_symmetry_multiplicity
 _atom_site_fract_x
 _atom_site_fract_y
 _atom_site_fract_z
 _atom_site_occupancy
  Na  Na0  1  0.000000  0.000000  0.000000  1
  Li  Li1  1  0.116423  0.632691  0.000000  1
  Li  Li2  1  0.883577  0.367309  0.000000  1
  Li  Li3  1  0.632691  0.883577  0.000000  1
  Li  Li4  1  0.367309  0.116423  0.000000  1
  Ca  Ca5  1  0.500000  0.500000  0.000000  1
  Rh  Rh6  1  0.652978  0.170395  0.500000  1
  Rh  Rh7  1  0.347022  0.829605  0.500000  1
  Rh  Rh8  1  0.170395  0.347022  0.500000  1
  Rh  Rh9  1  0.829605  0.652978  0.500000  1
  N  N10  1  0.660373  0.175749  0.000000  1
  N  N11  1  0.339627  0.824251  0.000000  1
  N  N12  1  0.175749  0.339627  0.000000  1
  N  N13  1  0.824251  0.660373  0.000000  1
