# generated using pymatgen
data_Lu20N19
_symmetry_space_group_name_H-M   'P 1'
_cell_length_a   8.91139314
_cell_length_b   8.91139181
_cell_length_c   8.91139300
_cell_angle_alpha   106.59081794
_cell_angle_beta   106.59081003
_cell_angle_gamma   115.39970812
_symmetry_Int_Tables_number   1
_chemical_formula_structural   Lu20N19
_chemical_formula_sum   'Lu20 N19'
_cell_volume   540.35271384
_cell_formula_units_Z   1
loop_
 _symmetry_equiv_pos_site_id
 _symmetry_equiv_pos_as_xyz
  1  'x, y, z'
loop_
 _atom_site_type_symbol
 _atom_site_label
 _atom_site_symmetry_multiplicity
 _atom_site_fract_x
 _atom_site_fract_y
 _atom_site_fract_z
 _atom_site_occupancy
  Lu  Lu0  1  0.047767  0.650049  0.200538  1
  Lu  Lu1  1  0.396285  0.706809  0.103094  1
  Lu  Lu2  1  0.100087  0.798718  0.898805  1
  Lu  Lu3  1  0.757688  0.757688  0.000000  1
  Lu  Lu4  1  0.798718  0.899913  0.698631  1
  Lu  Lu5  1  0.449512  0.847228  0.799462  1
  Lu  Lu6  1  0.500000  0.000000  0.500000  1
  Lu  Lu7  1  0.152772  0.952233  0.602282  1
  Lu  Lu8  1  0.201282  0.100087  0.301369  1
  Lu  Lu9  1  0.847228  0.047767  0.397718  1
  Lu  Lu10  1  0.899913  0.201282  0.101195  1
  Lu  Lu11  1  0.550488  0.152772  0.200538  1
  Lu  Lu12  1  0.603715  0.293191  0.896906  1
  Lu  Lu13  1  0.242312  0.242312  0.000000  1
  Lu  Lu14  1  0.293191  0.396285  0.689477  1
  Lu  Lu15  1  0.952233  0.349951  0.799462  1
  Lu  Lu16  1  0.000000  0.500000  0.500000  1
  Lu  Lu17  1  0.650049  0.449512  0.602282  1
  Lu  Lu18  1  0.706809  0.603715  0.310523  1
  Lu  Lu19  1  0.349951  0.550488  0.397718  1
  N  N20  1  0.898899  0.699765  0.598664  1
  N  N21  1  0.550188  0.650058  0.701814  1
  N  N22  1  0.600102  0.799063  0.399165  1
  N  N23  1  0.250000  0.750000  0.500000  1
  N  N24  1  0.300235  0.898899  0.199134  1
  N  N25  1  0.948244  0.848374  0.298186  1
  N  N26  1  0.000000  0.000000  0.000000  1
  N  N27  1  0.650058  0.948244  0.099870  1
  N  N28  1  0.699765  0.101101  0.800866  1
  N  N29  1  0.349942  0.051756  0.900130  1
  N  N30  1  0.051756  0.151626  0.701814  1
  N  N31  1  0.750000  0.250000  0.500000  1
  N  N32  1  0.399898  0.200937  0.600835  1
  N  N33  1  0.449812  0.349942  0.298186  1
  N  N34  1  0.101101  0.300235  0.401336  1
  N  N35  1  0.151626  0.449812  0.099870  1
  N  N36  1  0.200937  0.600102  0.801040  1
  N  N37  1  0.799063  0.399898  0.198960  1
  N  N38  1  0.848374  0.550188  0.900130  1
