# generated using pymatgen
data_LiNd8Zn7Rh8
_symmetry_space_group_name_H-M   'P 1'
_cell_length_a   4.06805800
_cell_length_b   7.27961081
_cell_length_c   16.53269557
_cell_angle_alpha   90.11697246
_cell_angle_beta   90.00000000
_cell_angle_gamma   90.00000000
_symmetry_Int_Tables_number   1
_chemical_formula_structural   LiNd8Zn7Rh8
_chemical_formula_sum   'Li1 Nd8 Zn7 Rh8'
_cell_volume   489.59622584
_cell_formula_units_Z   1
loop_
 _symmetry_equiv_pos_site_id
 _symmetry_equiv_pos_as_xyz
  1  'x, y, z'
loop_
 _atom_site_type_symbol
 _atom_site_label
 _atom_site_symmetry_multiplicity
 _atom_site_fract_x
 _atom_site_fract_y
 _atom_site_fract_z
 _atom_site_occupancy
  Li  Li0  1  0.750000  0.005457  0.560434  1
  Nd  Nd1  1  0.250000  0.166648  0.939726  1
  Nd  Nd2  1  0.250000  0.663797  0.559575  1
  Nd  Nd3  1  0.750000  0.332932  0.440035  1
  Nd  Nd4  1  0.750000  0.953818  0.283363  1
  Nd  Nd5  1  0.750000  0.832662  0.060229  1
  Nd  Nd6  1  0.750000  0.452668  0.216487  1
  Nd  Nd7  1  0.250000  0.046899  0.717203  1
  Nd  Nd8  1  0.250000  0.547782  0.783166  1
  Zn  Zn9  1  0.250000  0.624669  0.349824  1
  Zn  Zn10  1  0.750000  0.372644  0.649779  1
  Zn  Zn11  1  0.250000  0.498199  0.060269  1
  Zn  Zn12  1  0.750000  0.501358  0.939639  1
  Zn  Zn13  1  0.250000  0.997741  0.440771  1
  Zn  Zn14  1  0.250000  0.124171  0.150315  1
  Zn  Zn15  1  0.750000  0.875594  0.849508  1
  Rh  Rh16  1  0.750000  0.753950  0.434535  1
  Rh  Rh17  1  0.250000  0.246536  0.313117  1
  Rh  Rh18  1  0.750000  0.253804  0.812844  1
  Rh  Rh19  1  0.750000  0.750897  0.687799  1
  Rh  Rh20  1  0.250000  0.251007  0.564008  1
  Rh  Rh21  1  0.250000  0.745564  0.187268  1
  Rh  Rh22  1  0.750000  0.256604  0.064826  1
  Rh  Rh23  1  0.250000  0.744600  0.935280  1
