# generated using pymatgen
data_SiMo12Pt4Rh3N4
_symmetry_space_group_name_H-M   'P 1'
_cell_length_a   6.87761498
_cell_length_b   6.85964721
_cell_length_c   6.86313959
_cell_angle_alpha   89.89984354
_cell_angle_beta   90.03796130
_cell_angle_gamma   90.06893194
_symmetry_Int_Tables_number   1
_chemical_formula_structural   SiMo12Pt4Rh3N4
_chemical_formula_sum   'Si1 Mo12 Pt4 Rh3 N4'
_cell_volume   323.78848506
_cell_formula_units_Z   1
loop_
 _symmetry_equiv_pos_site_id
 _symmetry_equiv_pos_as_xyz
  1  'x, y, z'
loop_
 _atom_site_type_symbol
 _atom_site_label
 _atom_site_symmetry_multiplicity
 _atom_site_fract_x
 _atom_site_fract_y
 _atom_site_fract_z
 _atom_site_occupancy
  Si  Si0  1  0.191338  0.184622  0.183439  1
  Mo  Mo1  1  0.616738  0.708441  0.945921  1
  Mo  Mo2  1  0.461223  0.868815  0.306719  1
  Mo  Mo3  1  0.702589  0.947200  0.620153  1
  Mo  Mo4  1  0.548754  0.374676  0.206373  1
  Mo  Mo5  1  0.375425  0.203149  0.553141  1
  Mo  Mo6  1  0.206359  0.549212  0.375948  1
  Mo  Mo7  1  0.868512  0.306375  0.463091  1
  Mo  Mo8  1  0.046137  0.118188  0.793557  1
  Mo  Mo9  1  0.307801  0.463834  0.868326  1
  Mo  Mo10  1  0.120825  0.795239  0.041705  1
  Mo  Mo11  1  0.789103  0.045377  0.118325  1
  Mo  Mo12  1  0.950115  0.620392  0.704079  1
  Pt  Pt13  1  0.815415  0.685750  0.307754  1
  Pt  Pt14  1  0.683957  0.305839  0.816787  1
  Pt  Pt15  1  0.071099  0.958881  0.417628  1
  Pt  Pt16  1  0.960088  0.415375  0.069713  1
  Rh  Rh17  1  0.308609  0.816940  0.687172  1
  Rh  Rh18  1  0.416481  0.067910  0.957590  1
  Rh  Rh19  1  0.556762  0.560034  0.560139  1
  N  N20  1  0.376001  0.628500  0.126617  1
  N  N21  1  0.871888  0.871702  0.871067  1
  N  N22  1  0.127453  0.376157  0.628016  1
  N  N23  1  0.627328  0.127389  0.376738  1
