# generated using pymatgen
data_NbPt7Rh
_symmetry_space_group_name_H-M   'P 1'
_cell_length_a   6.26385582
_cell_length_b   6.26385628
_cell_length_c   6.32153259
_cell_angle_alpha   95.67866990
_cell_angle_beta   95.67866881
_cell_angle_gamma   143.15678681
_symmetry_Int_Tables_number   1
_chemical_formula_structural   NbPt7Rh
_chemical_formula_sum   'Nb1 Pt7 Rh1'
_cell_volume   141.24705705
_cell_formula_units_Z   1
loop_
 _symmetry_equiv_pos_site_id
 _symmetry_equiv_pos_as_xyz
  1  'x, y, z'
loop_
 _atom_site_type_symbol
 _atom_site_label
 _atom_site_symmetry_multiplicity
 _atom_site_fract_x
 _atom_site_fract_y
 _atom_site_fract_z
 _atom_site_occupancy
  Nb  Nb0  1  0.003050  0.996950  0.000000  1
  Pt  Pt1  1  0.335981  0.664020  0.000000  1
  Pt  Pt2  1  0.663194  0.661547  0.324740  1
  Pt  Pt3  1  0.328666  0.998486  0.327152  1
  Pt  Pt4  1  0.998560  0.330268  0.328828  1
  Pt  Pt5  1  0.669732  0.001440  0.671172  1
  Pt  Pt6  1  0.001514  0.671334  0.672848  1
  Pt  Pt7  1  0.338454  0.336807  0.675260  1
  Rh  Rh8  1  0.660850  0.339151  0.000000  1
