# generated using pymatgen
data_TbHo4Pt14Au
_symmetry_space_group_name_H-M   'P 1'
_cell_length_a   4.12522900
_cell_length_b   4.09951400
_cell_length_c   20.55218300
_cell_angle_alpha   90.00000000
_cell_angle_beta   90.00000000
_cell_angle_gamma   90.00000000
_symmetry_Int_Tables_number   1
_chemical_formula_structural   TbHo4Pt14Au
_chemical_formula_sum   'Tb1 Ho4 Pt14 Au1'
_cell_volume   347.56688716
_cell_formula_units_Z   1
loop_
 _symmetry_equiv_pos_site_id
 _symmetry_equiv_pos_as_xyz
  1  'x, y, z'
loop_
 _atom_site_type_symbol
 _atom_site_label
 _atom_site_symmetry_multiplicity
 _atom_site_fract_x
 _atom_site_fract_y
 _atom_site_fract_z
 _atom_site_occupancy
  Tb  Tb0  1  0.000000  0.000000  0.000000  1
  Ho  Ho1  1  0.000000  0.000000  0.197961  1
  Ho  Ho2  1  0.000000  0.000000  0.395758  1
  Ho  Ho3  1  0.000000  0.000000  0.604242  1
  Ho  Ho4  1  0.000000  0.000000  0.802039  1
  Pt  Pt5  1  0.500000  0.500000  0.000000  1
  Pt  Pt6  1  0.500000  0.500000  0.197967  1
  Pt  Pt7  1  0.500000  0.500000  0.397904  1
  Pt  Pt8  1  0.500000  0.500000  0.602096  1
  Pt  Pt9  1  0.500000  0.500000  0.802033  1
  Pt  Pt10  1  0.500000  0.000000  0.099227  1
  Pt  Pt11  1  0.500000  0.000000  0.297434  1
  Pt  Pt12  1  0.500000  0.000000  0.702566  1
  Pt  Pt13  1  0.500000  0.000000  0.900773  1
  Pt  Pt14  1  0.000000  0.500000  0.099263  1
  Pt  Pt15  1  0.000000  0.500000  0.297844  1
  Pt  Pt16  1  0.000000  0.500000  0.500000  1
  Pt  Pt17  1  0.000000  0.500000  0.702156  1
  Pt  Pt18  1  0.000000  0.500000  0.900737  1
  Au  Au19  1  0.500000  0.000000  0.500000  1
