# generated using pymatgen
data_NdEr4Bi2Sb
_symmetry_space_group_name_H-M   'P 1'
_cell_length_a   8.23972600
_cell_length_b   9.43132700
_cell_length_c   12.06082300
_cell_angle_alpha   90.00000000
_cell_angle_beta   90.00000000
_cell_angle_gamma   90.00000000
_symmetry_Int_Tables_number   1
_chemical_formula_structural   NdEr4Bi2Sb
_chemical_formula_sum   'Nd4 Er16 Bi8 Sb4'
_cell_volume   937.26525318
_cell_formula_units_Z   4
loop_
 _symmetry_equiv_pos_site_id
 _symmetry_equiv_pos_as_xyz
  1  'x, y, z'
loop_
 _atom_site_type_symbol
 _atom_site_label
 _atom_site_symmetry_multiplicity
 _atom_site_fract_x
 _atom_site_fract_y
 _atom_site_fract_z
 _atom_site_occupancy
  Nd  Nd0  1  0.169098  0.750000  0.221771  1
  Nd  Nd1  1  0.330902  0.750000  0.721771  1
  Nd  Nd2  1  0.830902  0.250000  0.778229  1
  Nd  Nd3  1  0.669098  0.250000  0.278229  1
  Er  Er4  1  0.815281  0.563420  0.062358  1
  Er  Er5  1  0.684719  0.936580  0.562358  1
  Er  Er6  1  0.184719  0.063420  0.937642  1
  Er  Er7  1  0.315281  0.436580  0.437642  1
  Er  Er8  1  0.184719  0.436580  0.937642  1
  Er  Er9  1  0.315281  0.063420  0.437642  1
  Er  Er10  1  0.815281  0.936580  0.062358  1
  Er  Er11  1  0.684719  0.563420  0.562358  1
  Er  Er12  1  0.475782  0.750000  0.002990  1
  Er  Er13  1  0.024218  0.750000  0.502990  1
  Er  Er14  1  0.524218  0.250000  0.997010  1
  Er  Er15  1  0.975782  0.250000  0.497010  1
  Er  Er16  1  0.666283  0.750000  0.289637  1
  Er  Er17  1  0.833717  0.750000  0.789637  1
  Er  Er18  1  0.333717  0.250000  0.710363  1
  Er  Er19  1  0.166283  0.250000  0.210363  1
  Bi  Bi20  1  0.936067  0.505861  0.328326  1
  Bi  Bi21  1  0.563933  0.994139  0.828326  1
  Bi  Bi22  1  0.063933  0.005861  0.671674  1
  Bi  Bi23  1  0.436067  0.494139  0.171674  1
  Bi  Bi24  1  0.063933  0.494139  0.671674  1
  Bi  Bi25  1  0.436067  0.005861  0.171674  1
  Bi  Bi26  1  0.936067  0.994139  0.328326  1
  Bi  Bi27  1  0.563933  0.505861  0.828326  1
  Sb  Sb28  1  0.401060  0.750000  0.462775  1
  Sb  Sb29  1  0.098940  0.750000  0.962775  1
  Sb  Sb30  1  0.598940  0.250000  0.537225  1
  Sb  Sb31  1  0.901060  0.250000  0.037225  1
