# generated using pymatgen
data_Sc4GaB4SbRh10
_symmetry_space_group_name_H-M   'P 1'
_cell_length_a   9.30754800
_cell_length_b   9.30754800
_cell_length_c   3.19249500
_cell_angle_alpha   90.00000000
_cell_angle_beta   90.00000000
_cell_angle_gamma   90.00000000
_symmetry_Int_Tables_number   1
_chemical_formula_structural   Sc4GaB4SbRh10
_chemical_formula_sum   'Sc4 Ga1 B4 Sb1 Rh10'
_cell_volume   276.56727775
_cell_formula_units_Z   1
loop_
 _symmetry_equiv_pos_site_id
 _symmetry_equiv_pos_as_xyz
  1  'x, y, z'
loop_
 _atom_site_type_symbol
 _atom_site_label
 _atom_site_symmetry_multiplicity
 _atom_site_fract_x
 _atom_site_fract_y
 _atom_site_fract_z
 _atom_site_occupancy
  Sc  Sc0  1  0.821000  0.329192  0.000000  1
  Sc  Sc1  1  0.329192  0.179000  0.000000  1
  Sc  Sc2  1  0.670808  0.821000  0.000000  1
  Sc  Sc3  1  0.179000  0.670808  0.000000  1
  Ga  Ga4  1  0.500000  0.500000  0.000000  1
  B  B5  1  0.617872  0.126510  0.000000  1
  B  B6  1  0.126510  0.382128  0.000000  1
  B  B7  1  0.873490  0.617872  0.000000  1
  B  B8  1  0.382128  0.873490  0.000000  1
  Sb  Sb9  1  0.000000  0.000000  0.000000  1
  Rh  Rh10  1  0.073760  0.221504  0.500000  1
  Rh  Rh11  1  0.221504  0.926240  0.500000  1
  Rh  Rh12  1  0.778496  0.073760  0.500000  1
  Rh  Rh13  1  0.926240  0.778496  0.500000  1
  Rh  Rh14  1  0.429727  0.716329  0.500000  1
  Rh  Rh15  1  0.570273  0.283671  0.500000  1
  Rh  Rh16  1  0.716329  0.570273  0.500000  1
  Rh  Rh17  1  0.283671  0.429727  0.500000  1
  Rh  Rh18  1  0.500000  0.000000  0.500000  1
  Rh  Rh19  1  0.000000  0.500000  0.500000  1
