# generated using pymatgen
data_Na2Ni11P7W
_symmetry_space_group_name_H-M   'P 1'
_cell_length_a   9.09350588
_cell_length_b   9.15724612
_cell_length_c   3.62320200
_cell_angle_alpha   90.00000000
_cell_angle_beta   90.00000000
_cell_angle_gamma   120.55495092
_symmetry_Int_Tables_number   1
_chemical_formula_structural   Na2Ni11P7W
_chemical_formula_sum   'Na2 Ni11 P7 W1'
_cell_volume   259.81460226
_cell_formula_units_Z   1
loop_
 _symmetry_equiv_pos_site_id
 _symmetry_equiv_pos_as_xyz
  1  'x, y, z'
loop_
 _atom_site_type_symbol
 _atom_site_label
 _atom_site_symmetry_multiplicity
 _atom_site_fract_x
 _atom_site_fract_y
 _atom_site_fract_z
 _atom_site_occupancy
  Na  Na0  1  0.999931  0.002415  0.000000  1
  Na  Na1  1  0.334177  0.667974  0.500000  1
  Ni  Ni2  1  0.295105  0.392548  0.000000  1
  Ni  Ni3  1  0.100722  0.707620  0.000000  1
  Ni  Ni4  1  0.542063  0.434108  0.500000  1
  Ni  Ni5  1  0.387025  0.174267  0.000000  1
  Ni  Ni6  1  0.786172  0.615438  0.000000  1
  Ni  Ni7  1  0.822239  0.206871  0.000000  1
  Ni  Ni8  1  0.236104  0.948332  0.500000  1
  Ni  Ni9  1  0.052280  0.280309  0.500000  1
  Ni  Ni10  1  0.716220  0.766637  0.500000  1
  Ni  Ni11  1  0.574507  0.117300  0.500000  1
  Ni  Ni12  1  0.606209  0.896380  0.000000  1
  P  P13  1  0.662245  0.330606  0.000000  1
  P  P14  1  0.080511  0.448146  0.000000  1
  P  P15  1  0.260859  0.218606  0.500000  1
  P  P16  1  0.778152  0.038773  0.500000  1
  P  P17  1  0.960232  0.746938  0.500000  1
  P  P18  1  0.549385  0.629229  0.000000  1
  P  P19  1  0.376606  0.924576  0.000000  1
  W  W20  1  0.879255  0.452929  0.500000  1
