# generated using pymatgen
data_Dy16MgCo3Hg3Ru
_symmetry_space_group_name_H-M   'P 1'
_cell_length_a   9.49510739
_cell_length_b   9.54989152
_cell_length_c   9.49600335
_cell_angle_alpha   60.14949666
_cell_angle_beta   59.93679455
_cell_angle_gamma   60.11113190
_symmetry_Int_Tables_number   1
_chemical_formula_structural   Dy16MgCo3Hg3Ru
_chemical_formula_sum   'Dy16 Mg1 Co3 Hg3 Ru1'
_cell_volume   609.77275735
_cell_formula_units_Z   1
loop_
 _symmetry_equiv_pos_site_id
 _symmetry_equiv_pos_as_xyz
  1  'x, y, z'
loop_
 _atom_site_type_symbol
 _atom_site_label
 _atom_site_symmetry_multiplicity
 _atom_site_fract_x
 _atom_site_fract_y
 _atom_site_fract_z
 _atom_site_occupancy
  Dy  Dy0  1  0.061517  0.437421  0.440045  1
  Dy  Dy1  1  0.652019  0.038512  0.654255  1
  Dy  Dy2  1  0.814211  0.813190  0.186421  1
  Dy  Dy3  1  0.438826  0.062092  0.062151  1
  Dy  Dy4  1  0.440852  0.436510  0.061218  1
  Dy  Dy5  1  0.194568  0.185647  0.810319  1
  Dy  Dy6  1  0.814203  0.183254  0.191359  1
  Dy  Dy7  1  0.061256  0.437884  0.061468  1
  Dy  Dy8  1  0.438407  0.062039  0.437210  1
  Dy  Dy9  1  0.052201  0.653297  0.647124  1
  Dy  Dy10  1  0.190132  0.810447  0.810518  1
  Dy  Dy11  1  0.649305  0.657888  0.040961  1
  Dy  Dy12  1  0.190345  0.810358  0.189316  1
  Dy  Dy13  1  0.061737  0.061703  0.438782  1
  Dy  Dy14  1  0.813840  0.182886  0.811854  1
  Dy  Dy15  1  0.649067  0.658197  0.650957  1
  Mg  Mg16  1  0.714539  0.428873  0.428738  1
  Co  Co17  1  0.423625  0.858973  0.858050  1
  Co  Co18  1  0.861100  0.857895  0.423401  1
  Co  Co19  1  0.861439  0.858356  0.856716  1
  Hg  Hg20  1  0.418288  0.413466  0.754621  1
  Hg  Hg21  1  0.418447  0.413296  0.413740  1
  Hg  Hg22  1  0.418507  0.754185  0.413780  1
  Ru  Ru23  1  0.861570  0.423633  0.856997  1
