# generated using pymatgen
data_LuHf2(SnRh)3
_symmetry_space_group_name_H-M   'P 1'
_cell_length_a   7.47837291
_cell_length_b   7.46611943
_cell_length_c   7.27308100
_cell_angle_alpha   90.00000000
_cell_angle_beta   90.00000000
_cell_angle_gamma   119.88780739
_symmetry_Int_Tables_number   1
_chemical_formula_structural   LuHf2(SnRh)3
_chemical_formula_sum   'Lu2 Hf4 Sn6 Rh6'
_cell_volume   352.07969440
_cell_formula_units_Z   2
loop_
 _symmetry_equiv_pos_site_id
 _symmetry_equiv_pos_as_xyz
  1  'x, y, z'
loop_
 _atom_site_type_symbol
 _atom_site_label
 _atom_site_symmetry_multiplicity
 _atom_site_fract_x
 _atom_site_fract_y
 _atom_site_fract_z
 _atom_site_occupancy
  Lu  Lu0  1  0.998216  0.401154  0.250000  1
  Lu  Lu1  1  0.599905  0.596327  0.250000  1
  Hf  Hf2  1  0.999610  0.391754  0.750000  1
  Hf  Hf3  1  0.604122  0.611401  0.750000  1
  Hf  Hf4  1  0.391336  0.995253  0.750000  1
  Hf  Hf5  1  0.400461  0.999731  0.250000  1
  Sn  Sn6  1  0.270283  0.269050  0.504656  1
  Sn  Sn7  1  0.997128  0.729351  0.505240  1
  Sn  Sn8  1  0.997128  0.729351  0.994760  1
  Sn  Sn9  1  0.732697  0.001353  0.497066  1
  Sn  Sn10  1  0.732697  0.001353  0.002934  1
  Sn  Sn11  1  0.270283  0.269050  0.995344  1
  Rh  Rh12  1  0.334742  0.673813  0.519611  1
  Rh  Rh13  1  0.662970  0.328466  0.530478  1
  Rh  Rh14  1  0.334742  0.673813  0.980389  1
  Rh  Rh15  1  0.999102  0.000381  0.750000  1
  Rh  Rh16  1  0.011608  0.999932  0.250000  1
  Rh  Rh17  1  0.662970  0.328466  0.969522  1
