# generated using pymatgen
data_Na3Sr3AlBiSb3
_symmetry_space_group_name_H-M   'P 1'
_cell_length_a   10.34847600
_cell_length_b   10.34847777
_cell_length_c   8.07181600
_cell_angle_alpha   90.00000000
_cell_angle_beta   90.00000000
_cell_angle_gamma   120.00000712
_symmetry_Int_Tables_number   1
_chemical_formula_structural   Na3Sr3AlBiSb3
_chemical_formula_sum   'Na6 Sr6 Al2 Bi2 Sb6'
_cell_volume   748.60844496
_cell_formula_units_Z   2
loop_
 _symmetry_equiv_pos_site_id
 _symmetry_equiv_pos_as_xyz
  1  'x, y, z'
loop_
 _atom_site_type_symbol
 _atom_site_label
 _atom_site_symmetry_multiplicity
 _atom_site_fract_x
 _atom_site_fract_y
 _atom_site_fract_z
 _atom_site_occupancy
  Na  Na0  1  0.857989  0.715976  0.956040  1
  Na  Na1  1  0.857989  0.142011  0.956040  1
  Na  Na2  1  0.142011  0.284024  0.456040  1
  Na  Na3  1  0.284024  0.142011  0.956040  1
  Na  Na4  1  0.142011  0.857989  0.456040  1
  Na  Na5  1  0.715976  0.857989  0.456040  1
  Sr  Sr6  1  0.480213  0.960426  0.781898  1
  Sr  Sr7  1  0.480213  0.519787  0.781898  1
  Sr  Sr8  1  0.519787  0.039574  0.281898  1
  Sr  Sr9  1  0.039574  0.519787  0.781898  1
  Sr  Sr10  1  0.519787  0.480213  0.281898  1
  Sr  Sr11  1  0.960426  0.480213  0.281898  1
  Al  Al12  1  0.666667  0.333333  0.642975  1
  Al  Al13  1  0.333333  0.666667  0.142975  1
  Bi  Bi14  1  0.666667  0.333333  0.001405  1
  Bi  Bi15  1  0.333333  0.666667  0.501405  1
  Sb  Sb16  1  0.812689  0.625380  0.556069  1
  Sb  Sb17  1  0.812689  0.187311  0.556069  1
  Sb  Sb18  1  0.187311  0.374620  0.056069  1
  Sb  Sb19  1  0.374620  0.187311  0.556069  1
  Sb  Sb20  1  0.187311  0.812689  0.056069  1
  Sb  Sb21  1  0.625380  0.812689  0.056069  1
