# generated using pymatgen
data_Sm4Ga18RePd5
_symmetry_space_group_name_H-M   'P 1'
_cell_length_a   7.69716908
_cell_length_b   7.69716895
_cell_length_c   9.68125337
_cell_angle_alpha   89.83268064
_cell_angle_beta   89.83471499
_cell_angle_gamma   119.62446649
_symmetry_Int_Tables_number   1
_chemical_formula_structural   Sm4Ga18RePd5
_chemical_formula_sum   'Sm4 Ga18 Re1 Pd5'
_cell_volume   498.59514610
_cell_formula_units_Z   1
loop_
 _symmetry_equiv_pos_site_id
 _symmetry_equiv_pos_as_xyz
  1  'x, y, z'
loop_
 _atom_site_type_symbol
 _atom_site_label
 _atom_site_symmetry_multiplicity
 _atom_site_fract_x
 _atom_site_fract_y
 _atom_site_fract_z
 _atom_site_occupancy
  Sm  Sm0  1  0.997519  0.672302  0.250423  1
  Sm  Sm1  1  0.002481  0.327698  0.749577  1
  Sm  Sm2  1  0.672303  0.997519  0.250421  1
  Sm  Sm3  1  0.327697  0.002481  0.749579  1
  Ga  Ga4  1  0.132534  0.132536  0.246954  1
  Ga  Ga5  1  0.867466  0.867464  0.753046  1
  Ga  Ga6  1  0.000417  0.331856  0.076994  1
  Ga  Ga7  1  0.999583  0.668144  0.923006  1
  Ga  Ga8  1  0.997636  0.663212  0.581443  1
  Ga  Ga9  1  0.336796  0.002364  0.418557  1
  Ga  Ga10  1  0.002364  0.336788  0.418557  1
  Ga  Ga11  1  0.663204  0.997636  0.581443  1
  Ga  Ga12  1  0.668147  0.999578  0.923005  1
  Ga  Ga13  1  0.331853  0.000422  0.076995  1
  Ga  Ga14  1  0.334384  0.334380  0.564785  1
  Ga  Ga15  1  0.665616  0.665620  0.435215  1
  Ga  Ga16  1  0.670905  0.670903  0.060276  1
  Ga  Ga17  1  0.329095  0.329097  0.939724  1
  Ga  Ga18  1  0.342513  0.547305  0.249533  1
  Ga  Ga19  1  0.657487  0.452695  0.750467  1
  Ga  Ga20  1  0.547307  0.342511  0.249531  1
  Ga  Ga21  1  0.452693  0.657489  0.750469  1
  Re  Re22  1  0.000000  0.000000  0.000000  1
  Pd  Pd23  1  0.670664  0.329342  0.999998  1
  Pd  Pd24  1  0.329336  0.670658  0.000002  1
  Pd  Pd25  1  0.328973  0.671019  0.500004  1
  Pd  Pd26  1  0.671027  0.328981  0.499996  1
  Pd  Pd27  1  0.000000  0.000000  0.500000  1
