# generated using pymatgen
data_Tb7Y(Sc3Ge4)4
_symmetry_space_group_name_H-M   'P 1'
_cell_length_a   7.28857305
_cell_length_b   7.47656905
_cell_length_c   14.12631301
_cell_angle_alpha   90.00007505
_cell_angle_beta   90.00419583
_cell_angle_gamma   89.98731106
_symmetry_Int_Tables_number   1
_chemical_formula_structural   Tb7Y(Sc3Ge4)4
_chemical_formula_sum   'Tb7 Y1 Sc12 Ge16'
_cell_volume   769.79249463
_cell_formula_units_Z   1
loop_
 _symmetry_equiv_pos_site_id
 _symmetry_equiv_pos_as_xyz
  1  'x, y, z'
loop_
 _atom_site_type_symbol
 _atom_site_label
 _atom_site_symmetry_multiplicity
 _atom_site_fract_x
 _atom_site_fract_y
 _atom_site_fract_z
 _atom_site_occupancy
  Tb  Tb0  1  0.007144  0.822837  0.096366  1
  Tb  Tb1  1  0.507166  0.677240  0.403584  1
  Tb  Tb2  1  0.492800  0.322807  0.903586  1
  Tb  Tb3  1  0.992791  0.177159  0.596380  1
  Tb  Tb4  1  0.992836  0.177171  0.903593  1
  Tb  Tb5  1  0.492836  0.322837  0.596400  1
  Tb  Tb6  1  0.507208  0.677213  0.096448  1
  Y  Y7  1  0.007363  0.822788  0.403589  1
  Sc  Sc8  1  0.814097  0.502326  0.750003  1
  Sc  Sc9  1  0.314071  0.997688  0.750034  1
  Sc  Sc10  1  0.685883  0.002261  0.250025  1
  Sc  Sc11  1  0.185868  0.497649  0.250002  1
  Sc  Sc12  1  0.351772  0.166455  0.123961  1
  Sc  Sc13  1  0.851797  0.333547  0.376066  1
  Sc  Sc14  1  0.148265  0.666430  0.876068  1
  Sc  Sc15  1  0.648302  0.833547  0.623913  1
  Sc  Sc16  1  0.648240  0.833555  0.876063  1
  Sc  Sc17  1  0.148245  0.666454  0.623950  1
  Sc  Sc18  1  0.851745  0.333560  0.123972  1
  Sc  Sc19  1  0.351774  0.166377  0.376049  1
  Ge  Ge20  1  0.314976  0.862568  0.250033  1
  Ge  Ge21  1  0.815065  0.637541  0.250018  1
  Ge  Ge22  1  0.184977  0.362536  0.750007  1
  Ge  Ge23  1  0.684957  0.137455  0.749999  1
  Ge  Ge24  1  0.051619  0.127105  0.249970  1
  Ge  Ge25  1  0.551558  0.372831  0.249998  1
  Ge  Ge26  1  0.448413  0.627157  0.749989  1
  Ge  Ge27  1  0.948419  0.872892  0.749989  1
  Ge  Ge28  1  0.186929  0.457721  0.042452  1
  Ge  Ge29  1  0.687002  0.042274  0.457523  1
  Ge  Ge30  1  0.313060  0.957718  0.957550  1
  Ge  Ge31  1  0.813104  0.542292  0.542452  1
  Ge  Ge32  1  0.813088  0.542273  0.957553  1
  Ge  Ge33  1  0.312846  0.957670  0.542417  1
  Ge  Ge34  1  0.686905  0.042313  0.042454  1
  Ge  Ge35  1  0.186880  0.457755  0.457545  1
