# generated using pymatgen
data_Dy5TmAl25Os7
_symmetry_space_group_name_H-M   'P 1'
_cell_length_a   8.86436652
_cell_length_b   8.86436876
_cell_length_c   9.55733888
_cell_angle_alpha   90.20107100
_cell_angle_beta   89.79893742
_cell_angle_gamma   119.95788738
_symmetry_Int_Tables_number   1
_chemical_formula_structural   Dy5TmAl25Os7
_chemical_formula_sum   'Dy5 Tm1 Al25 Os7'
_cell_volume   650.64441706
_cell_formula_units_Z   1
loop_
 _symmetry_equiv_pos_site_id
 _symmetry_equiv_pos_as_xyz
  1  'x, y, z'
loop_
 _atom_site_type_symbol
 _atom_site_label
 _atom_site_symmetry_multiplicity
 _atom_site_fract_x
 _atom_site_fract_y
 _atom_site_fract_z
 _atom_site_occupancy
  Dy  Dy0  1  0.192509  0.384769  0.245049  1
  Dy  Dy1  1  0.807735  0.615201  0.754829  1
  Dy  Dy2  1  0.615231  0.807491  0.245049  1
  Dy  Dy3  1  0.384799  0.192265  0.754829  1
  Dy  Dy4  1  0.193611  0.806389  0.256130  1
  Tm  Tm5  1  0.804754  0.195246  0.743465  1
  Al  Al6  1  0.326852  0.673148  0.022972  1
  Al  Al7  1  0.673330  0.326670  0.975974  1
  Al  Al8  1  0.665950  0.334050  0.519368  1
  Al  Al9  1  0.334118  0.665882  0.481290  1
  Al  Al10  1  0.162161  0.325591  0.571474  1
  Al  Al11  1  0.837329  0.673856  0.429121  1
  Al  Al12  1  0.674409  0.837839  0.571474  1
  Al  Al13  1  0.851577  0.677482  0.081949  1
  Al  Al14  1  0.326144  0.162671  0.429121  1
  Al  Al15  1  0.147518  0.321552  0.917446  1
  Al  Al16  1  0.162904  0.837096  0.576664  1
  Al  Al17  1  0.322518  0.148423  0.081949  1
  Al  Al18  1  0.837291  0.162709  0.424494  1
  Al  Al19  1  0.678448  0.852482  0.917446  1
  Al  Al20  1  0.837001  0.162999  0.075786  1
  Al  Al21  1  0.163102  0.836898  0.923195  1
  Al  Al22  1  0.562427  0.120876  0.249678  1
  Al  Al23  1  0.438496  0.879568  0.750392  1
  Al  Al24  1  0.879124  0.437573  0.249678  1
  Al  Al25  1  0.120432  0.561504  0.750392  1
  Al  Al26  1  0.565643  0.434357  0.258707  1
  Al  Al27  1  0.434453  0.565547  0.741380  1
  Al  Al28  1  0.998907  0.001093  0.250681  1
  Al  Al29  1  0.999847  0.000153  0.749427  1
  Al  Al30  1  0.500052  0.499948  0.000071  1
  Os  Os31  1  0.500612  0.000210  0.999631  1
  Os  Os32  1  0.999790  0.499388  0.999631  1
  Os  Os33  1  0.500759  0.000344  0.500536  1
  Os  Os34  1  0.999656  0.499241  0.500536  1
  Os  Os35  1  0.500038  0.499962  0.500003  1
  Os  Os36  1  0.000247  0.999753  0.000076  1
  Os  Os37  1  0.000225  0.999775  0.500106  1
