# generated using pymatgen
data_Hf8Pt4CN
_symmetry_space_group_name_H-M   'P 1'
_cell_length_a   8.80270631
_cell_length_b   8.78977521
_cell_length_c   8.80270507
_cell_angle_alpha   60.04857156
_cell_angle_beta   60.10342941
_cell_angle_gamma   60.04857051
_symmetry_Int_Tables_number   1
_chemical_formula_structural   Hf8Pt4CN
_chemical_formula_sum   'Hf16 Pt8 C2 N2'
_cell_volume   482.33902903
_cell_formula_units_Z   2
loop_
 _symmetry_equiv_pos_site_id
 _symmetry_equiv_pos_as_xyz
  1  'x, y, z'
loop_
 _atom_site_type_symbol
 _atom_site_label
 _atom_site_symmetry_multiplicity
 _atom_site_fract_x
 _atom_site_fract_y
 _atom_site_fract_z
 _atom_site_occupancy
  Hf  Hf0  1  0.125000  0.625000  0.625000  1
  Hf  Hf1  1  0.625000  0.125000  0.625000  1
  Hf  Hf2  1  0.625000  0.625000  0.125000  1
  Hf  Hf3  1  0.625000  0.625000  0.625000  1
  Hf  Hf4  1  0.817133  0.818162  0.182309  1
  Hf  Hf5  1  0.182309  0.182395  0.817133  1
  Hf  Hf6  1  0.817361  0.182639  0.817361  1
  Hf  Hf7  1  0.182113  0.817887  0.182113  1
  Hf  Hf8  1  0.182309  0.818162  0.817133  1
  Hf  Hf9  1  0.817133  0.182395  0.182309  1
  Hf  Hf10  1  0.432867  0.431838  0.067691  1
  Hf  Hf11  1  0.067691  0.067605  0.432867  1
  Hf  Hf12  1  0.432639  0.067361  0.432639  1
  Hf  Hf13  1  0.067887  0.432113  0.067887  1
  Hf  Hf14  1  0.067691  0.431838  0.432867  1
  Hf  Hf15  1  0.432867  0.067605  0.067691  1
  Pt  Pt16  1  0.779056  0.407502  0.405939  1
  Pt  Pt17  1  0.406405  0.779147  0.406405  1
  Pt  Pt18  1  0.405939  0.407502  0.779056  1
  Pt  Pt19  1  0.406405  0.408042  0.406405  1
  Pt  Pt20  1  0.470944  0.842498  0.844061  1
  Pt  Pt21  1  0.843595  0.470853  0.843595  1
  Pt  Pt22  1  0.844061  0.842498  0.470944  1
  Pt  Pt23  1  0.843595  0.841958  0.843595  1
  C  C24  1  0.625000  0.125000  0.125000  1
  C  C25  1  0.125000  0.125000  0.625000  1
  N  N26  1  0.125000  0.625000  0.125000  1
  N  N27  1  0.125000  0.125000  0.125000  1
