# generated using pymatgen
data_Th2Ta3P7Rh9
_symmetry_space_group_name_H-M   'P 1'
_cell_length_a   3.98890200
_cell_length_b   9.68851363
_cell_length_c   9.68806800
_cell_angle_alpha   120.00288505
_cell_angle_beta   90.00014623
_cell_angle_gamma   89.99978787
_symmetry_Int_Tables_number   1
_chemical_formula_structural   Th2Ta3P7Rh9
_chemical_formula_sum   'Th2 Ta3 P7 Rh9'
_cell_volume   324.23933871
_cell_formula_units_Z   1
loop_
 _symmetry_equiv_pos_site_id
 _symmetry_equiv_pos_as_xyz
  1  'x, y, z'
loop_
 _atom_site_type_symbol
 _atom_site_label
 _atom_site_symmetry_multiplicity
 _atom_site_fract_x
 _atom_site_fract_y
 _atom_site_fract_z
 _atom_site_occupancy
  Th  Th0  1  0.261836  0.666630  0.333341  1
  Th  Th1  1  0.761934  0.333350  0.666693  1
  Ta  Ta2  1  0.761948  0.093786  0.874612  1
  Ta  Ta3  1  0.761948  0.125364  0.219163  1
  Ta  Ta4  1  0.761954  0.780945  0.906247  1
  P  P5  1  0.261993  0.000032  0.000075  1
  P  P6  1  0.761840  0.883750  0.594508  1
  P  P7  1  0.761840  0.405383  0.289266  1
  P  P8  1  0.761843  0.710785  0.116194  1
  P  P9  1  0.261838  0.112669  0.410164  1
  P  P10  1  0.261840  0.589785  0.702404  1
  P  P11  1  0.261833  0.297434  0.887290  1
  Rh  Rh12  1  0.261913  0.883466  0.158787  1
  Rh  Rh13  1  0.261912  0.841205  0.724798  1
  Rh  Rh14  1  0.261900  0.275337  0.116512  1
  Rh  Rh15  1  0.761917  0.613019  0.560689  1
  Rh  Rh16  1  0.761902  0.439414  0.052459  1
  Rh  Rh17  1  0.761920  0.947626  0.386941  1
  Rh  Rh18  1  0.261955  0.367558  0.438231  1
  Rh  Rh19  1  0.261962  0.561849  0.929200  1
  Rh  Rh20  1  0.261972  0.070612  0.632423  1
