# generated using pymatgen
data_PrNd11(IrI3)4
_symmetry_space_group_name_H-M   'P 1'
_cell_length_a   10.85311707
_cell_length_b   10.85814073
_cell_length_c   10.85390617
_cell_angle_alpha   109.44314972
_cell_angle_beta   109.48301873
_cell_angle_gamma   109.49870359
_symmetry_Int_Tables_number   1
_chemical_formula_structural   PrNd11(IrI3)4
_chemical_formula_sum   'Pr1 Nd11 Ir4 I12'
_cell_volume   984.49597730
_cell_formula_units_Z   1
loop_
 _symmetry_equiv_pos_site_id
 _symmetry_equiv_pos_as_xyz
  1  'x, y, z'
loop_
 _atom_site_type_symbol
 _atom_site_label
 _atom_site_symmetry_multiplicity
 _atom_site_fract_x
 _atom_site_fract_y
 _atom_site_fract_z
 _atom_site_occupancy
  Pr  Pr0  1  0.457339  0.478669  0.228668  1
  Nd  Nd1  1  0.750046  0.228325  0.271753  1
  Nd  Nd2  1  0.750047  0.021721  0.478295  1
  Nd  Nd3  1  0.228109  0.456601  0.478511  1
  Nd  Nd4  1  0.271625  0.750285  0.228354  1
  Nd  Nd5  1  0.043061  0.271532  0.021532  1
  Nd  Nd6  1  0.021813  0.043431  0.271612  1
  Nd  Nd7  1  0.478399  0.750236  0.021709  1
  Nd  Nd8  1  0.478399  0.228164  0.456691  1
  Nd  Nd9  1  0.021812  0.478380  0.750201  1
  Nd  Nd10  1  0.271629  0.021342  0.043274  1
  Nd  Nd11  1  0.228110  0.271511  0.749597  1
  Ir  Ir12  1  0.249411  0.249453  0.250018  1
  Ir  Ir13  1  0.500004  0.000003  0.250002  1
  Ir  Ir14  1  0.000013  0.250007  0.500006  1
  Ir  Ir15  1  0.249410  0.499958  0.999392  1
  I  I16  1  0.250036  0.758884  0.741164  1
  I  I17  1  0.517687  0.508845  0.758844  1
  I  I18  1  0.982253  0.741126  0.991126  1
  I  I19  1  0.741094  0.249926  0.758823  1
  I  I20  1  0.991136  0.982305  0.741133  1
  I  I21  1  0.250036  0.991152  0.508870  1
  I  I22  1  0.759382  0.517727  0.509367  1
  I  I23  1  0.508768  0.249246  0.990403  1
  I  I24  1  0.759380  0.741650  0.250014  1
  I  I25  1  0.741097  0.991167  0.982275  1
  I  I26  1  0.991136  0.508832  0.250004  1
  I  I27  1  0.508768  0.759522  0.518363  1
