# generated using pymatgen
data_Dy4Al4Ir3Pt
_symmetry_space_group_name_H-M   'P 1'
_cell_length_a   4.29921500
_cell_length_b   6.85624102
_cell_length_c   7.88683102
_cell_angle_alpha   89.99081386
_cell_angle_beta   90.00000000
_cell_angle_gamma   90.00000000
_symmetry_Int_Tables_number   1
_chemical_formula_structural   Dy4Al4Ir3Pt
_chemical_formula_sum   'Dy4 Al4 Ir3 Pt1'
_cell_volume   232.47581088
_cell_formula_units_Z   1
loop_
 _symmetry_equiv_pos_site_id
 _symmetry_equiv_pos_as_xyz
  1  'x, y, z'
loop_
 _atom_site_type_symbol
 _atom_site_label
 _atom_site_symmetry_multiplicity
 _atom_site_fract_x
 _atom_site_fract_y
 _atom_site_fract_z
 _atom_site_occupancy
  Dy  Dy0  1  0.250000  0.472421  0.183370  1
  Dy  Dy1  1  0.750000  0.534206  0.818289  1
  Dy  Dy2  1  0.750000  0.027290  0.678199  1
  Dy  Dy3  1  0.250000  0.970326  0.319800  1
  Al  Al4  1  0.250000  0.855303  0.937531  1
  Al  Al5  1  0.750000  0.140434  0.064845  1
  Al  Al6  1  0.750000  0.641318  0.437021  1
  Al  Al7  1  0.250000  0.359788  0.560787  1
  Ir  Ir8  1  0.250000  0.731943  0.619116  1
  Ir  Ir9  1  0.750000  0.268510  0.381907  1
  Ir  Ir10  1  0.750000  0.768678  0.117326  1
  Pt  Pt11  1  0.250000  0.229782  0.881809  1
