# generated using pymatgen
data_TbTmAl20Fe3Ir
_symmetry_space_group_name_H-M   'P 1'
_cell_length_a   6.77682502
_cell_length_b   6.76854812
_cell_length_c   9.01732731
_cell_angle_alpha   90.09116344
_cell_angle_beta   89.91612665
_cell_angle_gamma   96.93511643
_symmetry_Int_Tables_number   1
_chemical_formula_structural   TbTmAl20Fe3Ir
_chemical_formula_sum   'Tb1 Tm1 Al20 Fe3 Ir1'
_cell_volume   410.59110343
_cell_formula_units_Z   1
loop_
 _symmetry_equiv_pos_site_id
 _symmetry_equiv_pos_as_xyz
  1  'x, y, z'
loop_
 _atom_site_type_symbol
 _atom_site_label
 _atom_site_symmetry_multiplicity
 _atom_site_fract_x
 _atom_site_fract_y
 _atom_site_fract_z
 _atom_site_occupancy
  Tb  Tb0  1  0.126161  0.872008  0.251452  1
  Tm  Tm1  1  0.872901  0.129521  0.748395  1
  Al  Al2  1  0.414394  0.140445  0.744238  1
  Al  Al3  1  0.137076  0.415332  0.250784  1
  Al  Al4  1  0.587485  0.860395  0.255655  1
  Al  Al5  1  0.862277  0.582636  0.749220  1
  Al  Al6  1  0.520679  0.779304  0.744405  1
  Al  Al7  1  0.780777  0.518910  0.251223  1
  Al  Al8  1  0.480162  0.221331  0.255710  1
  Al  Al9  1  0.218606  0.480355  0.748750  1
  Al  Al10  1  0.842485  0.156877  0.402974  1
  Al  Al11  1  0.157226  0.843467  0.597928  1
  Al  Al12  1  0.847887  0.161724  0.100230  1
  Al  Al13  1  0.151445  0.838818  0.898932  1
  Al  Al14  1  0.628105  0.380760  0.949518  1
  Al  Al15  1  0.372190  0.619051  0.049558  1
  Al  Al16  1  0.625962  0.375529  0.548590  1
  Al  Al17  1  0.374328  0.624244  0.452507  1
  Al  Al18  1  0.778572  0.768661  0.002836  1
  Al  Al19  1  0.774181  0.772750  0.502554  1
  Al  Al20  1  0.220935  0.231089  0.995491  1
  Al  Al21  1  0.225590  0.227506  0.499293  1
  Fe  Fe22  1  0.999833  0.499642  0.999563  1
  Fe  Fe23  1  0.500546  0.000150  0.500236  1
  Fe  Fe24  1  0.999883  0.499491  0.500370  1
  Ir  Ir25  1  0.500314  0.000006  0.999588  1
