# generated using pymatgen
data_La4YIn3Br
_symmetry_space_group_name_H-M   'P 1'
_cell_length_a   9.70809600
_cell_length_b   9.70817150
_cell_length_c   6.91502100
_cell_angle_alpha   89.99986828
_cell_angle_beta   90.00006265
_cell_angle_gamma   120.00025548
_symmetry_Int_Tables_number   1
_chemical_formula_structural   La4YIn3Br
_chemical_formula_sum   'La8 Y2 In6 Br2'
_cell_volume   564.40976511
_cell_formula_units_Z   2
loop_
 _symmetry_equiv_pos_site_id
 _symmetry_equiv_pos_as_xyz
  1  'x, y, z'
loop_
 _atom_site_type_symbol
 _atom_site_label
 _atom_site_symmetry_multiplicity
 _atom_site_fract_x
 _atom_site_fract_y
 _atom_site_fract_z
 _atom_site_occupancy
  La  La0  1  0.732905  0.732909  0.253471  1
  La  La1  1  0.000000  0.732906  0.746532  1
  La  La2  1  0.732905  0.999997  0.746529  1
  La  La3  1  0.267095  0.267091  0.746529  1
  La  La4  1  0.000000  0.267094  0.253468  1
  La  La5  1  0.267095  0.000003  0.253471  1
  La  La6  1  0.333331  0.666666  0.000000  1
  La  La7  1  0.666669  0.333334  0.000000  1
  Y  Y8  1  0.333331  0.666666  0.500000  1
  Y  Y9  1  0.666669  0.333334  0.500000  1
  In  In10  1  0.393404  0.000000  0.743599  1
  In  In11  1  0.000000  0.606591  0.256401  1
  In  In12  1  0.606596  0.000000  0.256401  1
  In  In13  1  0.000000  0.393409  0.743599  1
  In  In14  1  0.393404  0.393404  0.256401  1
  In  In15  1  0.606596  0.606596  0.743599  1
  Br  Br16  1  0.000000  0.000000  0.500000  1
  Br  Br17  1  0.000000  0.000000  0.000000  1
