# generated using pymatgen
data_PrNd15MgAg3Ir4
_symmetry_space_group_name_H-M   'P 1'
_cell_length_a   9.90809403
_cell_length_b   9.96031740
_cell_length_c   9.93511200
_cell_angle_alpha   60.08366908
_cell_angle_beta   59.90974849
_cell_angle_gamma   59.93032808
_symmetry_Int_Tables_number   1
_chemical_formula_structural   PrNd15MgAg3Ir4
_chemical_formula_sum   'Pr1 Nd15 Mg1 Ag3 Ir4'
_cell_volume   692.89636097
_cell_formula_units_Z   1
loop_
 _symmetry_equiv_pos_site_id
 _symmetry_equiv_pos_as_xyz
  1  'x, y, z'
loop_
 _atom_site_type_symbol
 _atom_site_label
 _atom_site_symmetry_multiplicity
 _atom_site_fract_x
 _atom_site_fract_y
 _atom_site_fract_z
 _atom_site_occupancy
  Pr  Pr0  1  0.937667  0.937976  0.562179  1
  Nd  Nd1  1  0.347946  0.347940  0.348220  1
  Nd  Nd2  1  0.347946  0.347940  0.955894  1
  Nd  Nd3  1  0.348297  0.955502  0.348100  1
  Nd  Nd4  1  0.944356  0.351997  0.351824  1
  Nd  Nd5  1  0.807104  0.192104  0.191958  1
  Nd  Nd6  1  0.188275  0.810787  0.812031  1
  Nd  Nd7  1  0.188275  0.810787  0.188907  1
  Nd  Nd8  1  0.807104  0.192104  0.808833  1
  Nd  Nd9  1  0.188451  0.188521  0.811515  1
  Nd  Nd10  1  0.806967  0.807956  0.192538  1
  Nd  Nd11  1  0.936941  0.561966  0.562043  1
  Nd  Nd12  1  0.560849  0.938842  0.938587  1
  Nd  Nd13  1  0.560849  0.938842  0.561723  1
  Nd  Nd14  1  0.936941  0.561966  0.939052  1
  Nd  Nd15  1  0.561328  0.562569  0.938052  1
  Mg  Mg16  1  0.293276  0.568557  0.569083  1
  Ag  Ag17  1  0.580622  0.584165  0.583758  1
  Ag  Ag18  1  0.580622  0.584165  0.251456  1
  Ag  Ag19  1  0.579359  0.252946  0.583848  1
  Ir  Ir20  1  0.140569  0.142906  0.141227  1
  Ir  Ir21  1  0.140569  0.142906  0.575298  1
  Ir  Ir22  1  0.140613  0.574263  0.142562  1
  Ir  Ir23  1  0.575073  0.142298  0.141314  1
