# generated using pymatgen
data_Ti3Nb3Co15Si7Pt
_symmetry_space_group_name_H-M   'P 1'
_cell_length_a   7.93471174
_cell_length_b   7.93314836
_cell_length_c   7.94010890
_cell_angle_alpha   59.82291292
_cell_angle_beta   59.86526117
_cell_angle_gamma   59.86019975
_symmetry_Int_Tables_number   1
_chemical_formula_structural   Ti3Nb3Co15Si7Pt
_chemical_formula_sum   'Ti3 Nb3 Co15 Si7 Pt1'
_cell_volume   352.21008913
_cell_formula_units_Z   1
loop_
 _symmetry_equiv_pos_site_id
 _symmetry_equiv_pos_as_xyz
  1  'x, y, z'
loop_
 _atom_site_type_symbol
 _atom_site_label
 _atom_site_symmetry_multiplicity
 _atom_site_fract_x
 _atom_site_fract_y
 _atom_site_fract_z
 _atom_site_occupancy
  Ti  Ti0  1  0.202647  0.794684  0.795197  1
  Ti  Ti1  1  0.199218  0.804139  0.200290  1
  Ti  Ti2  1  0.804026  0.199136  0.201470  1
  Nb  Nb3  1  0.798627  0.198908  0.798358  1
  Nb  Nb4  1  0.799496  0.798295  0.199064  1
  Nb  Nb5  1  0.197257  0.196193  0.807481  1
  Co  Co6  1  0.496996  0.834014  0.835701  1
  Co  Co7  1  0.621892  0.622063  0.141508  1
  Co  Co8  1  0.163689  0.162224  0.505087  1
  Co  Co9  1  0.835244  0.836037  0.496521  1
  Co  Co10  1  0.165219  0.165769  0.167119  1
  Co  Co11  1  0.833625  0.832814  0.831526  1
  Co  Co12  1  0.380480  0.380762  0.857855  1
  Co  Co13  1  0.833092  0.498816  0.835719  1
  Co  Co14  1  0.620407  0.620493  0.619757  1
  Co  Co15  1  0.380100  0.858787  0.380682  1
  Co  Co16  1  0.141756  0.620532  0.621490  1
  Co  Co17  1  0.620357  0.142823  0.621165  1
  Co  Co18  1  0.162635  0.507175  0.161688  1
  Co  Co19  1  0.857894  0.380692  0.381046  1
  Co  Co20  1  0.504787  0.163162  0.163556  1
  Si  Si21  1  0.001297  0.998324  0.498195  1
  Si  Si22  1  0.501211  0.988778  0.502599  1
  Si  Si23  1  0.505197  0.506851  0.505522  1
  Si  Si24  1  0.999818  0.499326  0.999670  1
  Si  Si25  1  0.499860  0.503162  0.989127  1
  Si  Si26  1  0.497952  0.998234  0.001376  1
  Si  Si27  1  0.990428  0.502843  0.500852  1
  Pt  Pt28  1  0.384796  0.384962  0.380382  1
