# generated using pymatgen
data_Er16Cd4Ir3Os
_symmetry_space_group_name_H-M   'P 1'
_cell_length_a   9.61743530
_cell_length_b   9.61743475
_cell_length_c   9.61743631
_cell_angle_alpha   59.32708319
_cell_angle_beta   59.32708722
_cell_angle_gamma   59.32708807
_symmetry_Int_Tables_number   1
_chemical_formula_structural   Er16Cd4Ir3Os
_chemical_formula_sum   'Er16 Cd4 Ir3 Os1'
_cell_volume   619.38122700
_cell_formula_units_Z   1
loop_
 _symmetry_equiv_pos_site_id
 _symmetry_equiv_pos_as_xyz
  1  'x, y, z'
loop_
 _atom_site_type_symbol
 _atom_site_label
 _atom_site_symmetry_multiplicity
 _atom_site_fract_x
 _atom_site_fract_y
 _atom_site_fract_z
 _atom_site_occupancy
  Er  Er0  1  0.600096  0.600096  0.600096  1
  Er  Er1  1  0.599039  0.599039  0.206786  1
  Er  Er2  1  0.599039  0.206786  0.599039  1
  Er  Er3  1  0.206786  0.599039  0.599039  1
  Er  Er4  1  0.061757  0.439067  0.439067  1
  Er  Er5  1  0.437024  0.059421  0.059421  1
  Er  Er6  1  0.439067  0.061757  0.439067  1
  Er  Er7  1  0.059421  0.437024  0.059421  1
  Er  Er8  1  0.439067  0.439067  0.061757  1
  Er  Er9  1  0.059421  0.059421  0.437024  1
  Er  Er10  1  0.189004  0.811006  0.811006  1
  Er  Er11  1  0.806683  0.188849  0.188849  1
  Er  Er12  1  0.811006  0.189004  0.811006  1
  Er  Er13  1  0.188849  0.806683  0.188849  1
  Er  Er14  1  0.811006  0.811006  0.189004  1
  Er  Er15  1  0.188849  0.188849  0.806683  1
  Cd  Cd16  1  0.829989  0.829989  0.829989  1
  Cd  Cd17  1  0.830505  0.830505  0.505248  1
  Cd  Cd18  1  0.830505  0.505248  0.830505  1
  Cd  Cd19  1  0.505248  0.830505  0.830505  1
  Ir  Ir20  1  0.394239  0.394239  0.827108  1
  Ir  Ir21  1  0.394239  0.827108  0.394239  1
  Ir  Ir22  1  0.827108  0.394239  0.394239  1
  Os  Os23  1  0.392051  0.392051  0.392051  1
