# generated using pymatgen
data_Ho20Al3Co2Au3
_symmetry_space_group_name_H-M   'P 1'
_cell_length_a   9.38631100
_cell_length_b   9.38774148
_cell_length_c   9.21257800
_cell_angle_alpha   90.00000000
_cell_angle_beta   90.00000000
_cell_angle_gamma   119.96947705
_symmetry_Int_Tables_number   1
_chemical_formula_structural   Ho20Al3Co2Au3
_chemical_formula_sum   'Ho20 Al3 Co2 Au3'
_cell_volume   703.23643634
_cell_formula_units_Z   1
loop_
 _symmetry_equiv_pos_site_id
 _symmetry_equiv_pos_as_xyz
  1  'x, y, z'
loop_
 _atom_site_type_symbol
 _atom_site_label
 _atom_site_symmetry_multiplicity
 _atom_site_fract_x
 _atom_site_fract_y
 _atom_site_fract_z
 _atom_site_occupancy
  Ho  Ho0  1  0.000029  0.000028  0.463219  1
  Ho  Ho1  1  0.000029  0.000028  0.036781  1
  Ho  Ho2  1  0.541610  0.458314  0.250000  1
  Ho  Ho3  1  0.541623  0.083287  0.250000  1
  Ho  Ho4  1  0.916738  0.458395  0.250000  1
  Ho  Ho5  1  0.457082  0.542897  0.750000  1
  Ho  Ho6  1  0.457100  0.914142  0.750000  1
  Ho  Ho7  1  0.085848  0.542920  0.750000  1
  Ho  Ho8  1  0.210376  0.789611  0.438425  1
  Ho  Ho9  1  0.210400  0.420789  0.438393  1
  Ho  Ho10  1  0.579216  0.789584  0.438404  1
  Ho  Ho11  1  0.791937  0.208058  0.562463  1
  Ho  Ho12  1  0.791939  0.583885  0.562482  1
  Ho  Ho13  1  0.416109  0.208046  0.562486  1
  Ho  Ho14  1  0.791937  0.208058  0.937537  1
  Ho  Ho15  1  0.791939  0.583885  0.937518  1
  Ho  Ho16  1  0.416109  0.208046  0.937514  1
  Ho  Ho17  1  0.210376  0.789611  0.061575  1
  Ho  Ho18  1  0.210400  0.420789  0.061607  1
  Ho  Ho19  1  0.579216  0.789584  0.061596  1
  Al  Al20  1  0.103640  0.896371  0.750000  1
  Al  Al21  1  0.103665  0.207320  0.750000  1
  Al  Al22  1  0.792712  0.896355  0.750000  1
  Co  Co23  1  0.333313  0.666658  0.250000  1
  Co  Co24  1  0.666669  0.333317  0.750000  1
  Au  Au25  1  0.869965  0.130050  0.250000  1
  Au  Au26  1  0.869900  0.739905  0.250000  1
  Au  Au27  1  0.260124  0.130072  0.250000  1
