# generated using pymatgen
data_Lu4MgCo17(P6Ru)2
_symmetry_space_group_name_H-M   'P 1'
_cell_length_a   3.65636100
_cell_length_b   10.30684500
_cell_length_c   11.79723901
_cell_angle_alpha   89.99581711
_cell_angle_beta   90.00000000
_cell_angle_gamma   90.00000000
_symmetry_Int_Tables_number   1
_chemical_formula_structural   Lu4MgCo17(P6Ru)2
_chemical_formula_sum   'Lu4 Mg1 Co17 P12 Ru2'
_cell_volume   444.58539351
_cell_formula_units_Z   1
loop_
 _symmetry_equiv_pos_site_id
 _symmetry_equiv_pos_as_xyz
  1  'x, y, z'
loop_
 _atom_site_type_symbol
 _atom_site_label
 _atom_site_symmetry_multiplicity
 _atom_site_fract_x
 _atom_site_fract_y
 _atom_site_fract_z
 _atom_site_occupancy
  Lu  Lu0  1  0.250000  0.581093  0.701146  1
  Lu  Lu1  1  0.250000  0.917667  0.205428  1
  Lu  Lu2  1  0.750000  0.415317  0.298454  1
  Lu  Lu3  1  0.750000  0.082255  0.792811  1
  Mg  Mg4  1  0.750000  0.293460  0.011029  1
  Co  Co5  1  0.750000  0.218464  0.505425  1
  Co  Co6  1  0.250000  0.407181  0.484557  1
  Co  Co7  1  0.250000  0.091783  0.985208  1
  Co  Co8  1  0.750000  0.590883  0.510808  1
  Co  Co9  1  0.750000  0.905842  0.012693  1
  Co  Co10  1  0.250000  0.220312  0.179801  1
  Co  Co11  1  0.250000  0.280309  0.670680  1
  Co  Co12  1  0.750000  0.776950  0.822463  1
  Co  Co13  1  0.750000  0.722713  0.323876  1
  Co  Co14  1  0.250000  0.887212  0.703216  1
  Co  Co15  1  0.250000  0.616988  0.202682  1
  Co  Co16  1  0.750000  0.113958  0.302346  1
  Co  Co17  1  0.750000  0.384593  0.796891  1
  Co  Co18  1  0.250000  0.463936  0.932927  1
  Co  Co19  1  0.250000  0.034603  0.432736  1
  Co  Co20  1  0.750000  0.537347  0.069375  1
  Co  Co21  1  0.750000  0.966538  0.570437  1
  P  P22  1  0.250000  0.423209  0.120423  1
  P  P23  1  0.250000  0.082032  0.612115  1
  P  P24  1  0.750000  0.578372  0.885089  1
  P  P25  1  0.750000  0.920878  0.388127  1
  P  P26  1  0.250000  0.268284  0.856861  1
  P  P27  1  0.250000  0.230073  0.369259  1
  P  P28  1  0.750000  0.734110  0.134380  1
  P  P29  1  0.750000  0.768710  0.633669  1
  P  P30  1  0.250000  0.595229  0.389809  1
  P  P31  1  0.250000  0.904489  0.890468  1
  P  P32  1  0.750000  0.399660  0.605609  1
  P  P33  1  0.750000  0.091934  0.113955  1
  Ru  Ru34  1  0.250000  0.710999  0.990999  1
  Ru  Ru35  1  0.250000  0.782616  0.494250  1
