# generated using pymatgen
data_Y5ErAl24Os5Pt3
_symmetry_space_group_name_H-M   'P 1'
_cell_length_a   8.81453815
_cell_length_b   8.83455788
_cell_length_c   9.56551820
_cell_angle_alpha   90.14106934
_cell_angle_beta   89.76274934
_cell_angle_gamma   119.48199140
_symmetry_Int_Tables_number   1
_chemical_formula_structural   Y5ErAl24Os5Pt3
_chemical_formula_sum   'Y5 Er1 Al24 Os5 Pt3'
_cell_volume   648.42998073
_cell_formula_units_Z   1
loop_
 _symmetry_equiv_pos_site_id
 _symmetry_equiv_pos_as_xyz
  1  'x, y, z'
loop_
 _atom_site_type_symbol
 _atom_site_label
 _atom_site_symmetry_multiplicity
 _atom_site_fract_x
 _atom_site_fract_y
 _atom_site_fract_z
 _atom_site_occupancy
  Y  Y0  1  0.187616  0.382828  0.250885  1
  Y  Y1  1  0.812340  0.616818  0.749157  1
  Y  Y2  1  0.614344  0.813879  0.252087  1
  Y  Y3  1  0.386116  0.186145  0.747929  1
  Y  Y4  1  0.194821  0.808898  0.251442  1
  Er  Er5  1  0.804167  0.191463  0.748102  1
  Al  Al6  1  0.335324  0.671381  0.028641  1
  Al  Al7  1  0.665012  0.328546  0.970732  1
  Al  Al8  1  0.669288  0.331029  0.527737  1
  Al  Al9  1  0.330889  0.668776  0.472831  1
  Al  Al10  1  0.157583  0.325481  0.575523  1
  Al  Al11  1  0.841903  0.674219  0.424884  1
  Al  Al12  1  0.673379  0.841177  0.575847  1
  Al  Al13  1  0.836782  0.676003  0.077960  1
  Al  Al14  1  0.326901  0.159272  0.424550  1
  Al  Al15  1  0.162749  0.323780  0.921657  1
  Al  Al16  1  0.163876  0.834935  0.576323  1
  Al  Al17  1  0.325758  0.158760  0.076522  1
  Al  Al18  1  0.836093  0.165047  0.424247  1
  Al  Al19  1  0.674525  0.841700  0.923077  1
  Al  Al20  1  0.831606  0.159334  0.077303  1
  Al  Al21  1  0.168436  0.840738  0.922162  1
  Al  Al22  1  0.560918  0.125015  0.249928  1
  Al  Al23  1  0.439678  0.875357  0.750090  1
  Al  Al24  1  0.873892  0.437664  0.252762  1
  Al  Al25  1  0.125689  0.561724  0.747371  1
  Al  Al26  1  0.562647  0.436387  0.249812  1
  Al  Al27  1  0.437325  0.563638  0.750194  1
  Al  Al28  1  0.998972  0.002500  0.250232  1
  Al  Al29  1  0.000459  0.998065  0.749782  1
  Os  Os30  1  0.500639  0.000369  0.999511  1
  Os  Os31  1  0.500594  0.000345  0.500535  1
  Os  Os32  1  0.999694  0.499483  0.500448  1
  Os  Os33  1  0.000043  0.999964  0.000016  1
  Os  Os34  1  0.000042  0.999908  0.499980  1
  Pt  Pt35  1  0.999791  0.499584  0.999725  1
  Pt  Pt36  1  0.500043  0.499889  0.999951  1
  Pt  Pt37  1  0.500068  0.499900  0.500065  1
