# generated using pymatgen
data_Rb6NbBrO5
_symmetry_space_group_name_H-M   'P 1'
_cell_length_a   8.17049815
_cell_length_b   8.17049837
_cell_length_c   8.17049800
_cell_angle_alpha   60.00000151
_cell_angle_beta   60.00000060
_cell_angle_gamma   59.99999897
_symmetry_Int_Tables_number   1
_chemical_formula_structural   Rb6NbBrO5
_chemical_formula_sum   'Rb6 Nb1 Br1 O5'
_cell_volume   385.68310730
_cell_formula_units_Z   1
loop_
 _symmetry_equiv_pos_site_id
 _symmetry_equiv_pos_as_xyz
  1  'x, y, z'
loop_
 _atom_site_type_symbol
 _atom_site_label
 _atom_site_symmetry_multiplicity
 _atom_site_fract_x
 _atom_site_fract_y
 _atom_site_fract_z
 _atom_site_occupancy
  Rb  Rb0  1  0.488635  0.011366  0.011366  1
  Rb  Rb1  1  0.011366  0.488635  0.011366  1
  Rb  Rb2  1  0.488635  0.488635  0.011366  1
  Rb  Rb3  1  0.011366  0.011366  0.488635  1
  Rb  Rb4  1  0.488635  0.011366  0.488635  1
  Rb  Rb5  1  0.011366  0.488635  0.488635  1
  Nb  Nb6  1  0.500000  0.500000  0.500000  1
  Br  Br7  1  0.000000  0.000000  0.000000  1
  O  O8  1  0.250000  0.250000  0.250000  1
  O  O9  1  0.594327  0.594327  0.217019  1
  O  O10  1  0.594327  0.217019  0.594327  1
  O  O11  1  0.217019  0.594327  0.594327  1
  O  O12  1  0.594327  0.594327  0.594327  1
