# generated using pymatgen
data_TbDy5(Ho3Ni2)2
_symmetry_space_group_name_H-M   'P 1'
_cell_length_a   6.34670146
_cell_length_b   6.83116405
_cell_length_c   9.52895890
_cell_angle_alpha   89.99723728
_cell_angle_beta   90.04532837
_cell_angle_gamma   89.98655805
_symmetry_Int_Tables_number   1
_chemical_formula_structural   TbDy5(Ho3Ni2)2
_chemical_formula_sum   'Tb1 Dy5 Ho6 Ni4'
_cell_volume   413.13129096
_cell_formula_units_Z   1
loop_
 _symmetry_equiv_pos_site_id
 _symmetry_equiv_pos_as_xyz
  1  'x, y, z'
loop_
 _atom_site_type_symbol
 _atom_site_label
 _atom_site_symmetry_multiplicity
 _atom_site_fract_x
 _atom_site_fract_y
 _atom_site_fract_z
 _atom_site_occupancy
  Tb  Tb0  1  0.360026  0.967286  0.750208  1
  Dy  Dy1  1  0.320921  0.677676  0.066153  1
  Dy  Dy2  1  0.178726  0.178144  0.433894  1
  Dy  Dy3  1  0.859476  0.533006  0.250305  1
  Dy  Dy4  1  0.640547  0.032938  0.249688  1
  Dy  Dy5  1  0.139804  0.466738  0.749801  1
  Ho  Ho6  1  0.678455  0.321927  0.566306  1
  Ho  Ho7  1  0.821948  0.821628  0.933798  1
  Ho  Ho8  1  0.678837  0.322329  0.933873  1
  Ho  Ho9  1  0.821516  0.822003  0.566092  1
  Ho  Ho10  1  0.321627  0.677772  0.433922  1
  Ho  Ho11  1  0.178061  0.178291  0.066015  1
  Ni  Ni12  1  0.054725  0.891354  0.249833  1
  Ni  Ni13  1  0.445465  0.391393  0.250104  1
  Ni  Ni14  1  0.944360  0.109296  0.750594  1
  Ni  Ni15  1  0.555507  0.608220  0.749413  1
