# generated using pymatgen
data_Dy3MnVC6
_symmetry_space_group_name_H-M   'P 1'
_cell_length_a   8.16648300
_cell_length_b   8.16648348
_cell_length_c   4.96402700
_cell_angle_alpha   90.00000000
_cell_angle_beta   90.00000000
_cell_angle_gamma   120.00000212
_symmetry_Int_Tables_number   1
_chemical_formula_structural   Dy3MnVC6
_chemical_formula_sum   'Dy6 Mn2 V2 C12'
_cell_volume   286.70476274
_cell_formula_units_Z   2
loop_
 _symmetry_equiv_pos_site_id
 _symmetry_equiv_pos_as_xyz
  1  'x, y, z'
loop_
 _atom_site_type_symbol
 _atom_site_label
 _atom_site_symmetry_multiplicity
 _atom_site_fract_x
 _atom_site_fract_y
 _atom_site_fract_z
 _atom_site_occupancy
  Dy  Dy0  1  0.622187  0.682044  0.750000  1
  Dy  Dy1  1  0.940143  0.622187  0.250000  1
  Dy  Dy2  1  0.682044  0.059857  0.250000  1
  Dy  Dy3  1  0.317956  0.940143  0.750000  1
  Dy  Dy4  1  0.059857  0.377813  0.750000  1
  Dy  Dy5  1  0.377813  0.317956  0.250000  1
  Mn  Mn6  1  0.666667  0.333333  0.750000  1
  Mn  Mn7  1  0.333333  0.666667  0.250000  1
  V  V8  1  0.000000  0.000000  0.500000  1
  V  V9  1  0.000000  0.000000  0.000000  1
  C  C10  1  0.962464  0.766832  0.750000  1
  C  C11  1  0.195633  0.962464  0.250000  1
  C  C12  1  0.766832  0.804367  0.250000  1
  C  C13  1  0.233168  0.195633  0.750000  1
  C  C14  1  0.804367  0.037536  0.750000  1
  C  C15  1  0.037536  0.233168  0.250000  1
  C  C16  1  0.864252  0.572881  0.750000  1
  C  C17  1  0.291371  0.864252  0.250000  1
  C  C18  1  0.572881  0.708629  0.250000  1
  C  C19  1  0.427119  0.291371  0.750000  1
  C  C20  1  0.135748  0.427119  0.250000  1
  C  C21  1  0.708629  0.135748  0.750000  1
