# generated using pymatgen
data_Th3MgIn2Au3
_symmetry_space_group_name_H-M   'P 1'
_cell_length_a   7.58654370
_cell_length_b   7.58654339
_cell_length_c   4.49009700
_cell_angle_alpha   90.00000000
_cell_angle_beta   90.00000000
_cell_angle_gamma   120.85974254
_symmetry_Int_Tables_number   1
_chemical_formula_structural   Th3MgIn2Au3
_chemical_formula_sum   'Th3 Mg1 In2 Au3'
_cell_volume   221.84326787
_cell_formula_units_Z   1
loop_
 _symmetry_equiv_pos_site_id
 _symmetry_equiv_pos_as_xyz
  1  'x, y, z'
loop_
 _atom_site_type_symbol
 _atom_site_label
 _atom_site_symmetry_multiplicity
 _atom_site_fract_x
 _atom_site_fract_y
 _atom_site_fract_z
 _atom_site_occupancy
  Th  Th0  1  0.580173  0.000338  0.000000  1
  Th  Th1  1  0.000338  0.580173  0.000000  1
  Th  Th2  1  0.417748  0.417748  0.000000  1
  Mg  Mg3  1  0.760016  0.760016  0.500000  1
  In  In4  1  0.245363  0.997084  0.500000  1
  In  In5  1  0.997084  0.245363  0.500000  1
  Au  Au6  1  0.348449  0.668632  0.500000  1
  Au  Au7  1  0.668632  0.348449  0.500000  1
  Au  Au8  1  0.982198  0.982198  0.000000  1
