# generated using pymatgen
data_Nd2UAs3
_symmetry_space_group_name_H-M   'P 1'
_cell_length_a   7.31587484
_cell_length_b   7.31587444
_cell_length_c   7.31587496
_cell_angle_alpha   146.73954609
_cell_angle_beta   132.04045227
_cell_angle_gamma   59.61278940
_symmetry_Int_Tables_number   1
_chemical_formula_structural   Nd2UAs3
_chemical_formula_sum   'Nd2 U1 As3'
_cell_volume   158.07476155
_cell_formula_units_Z   1
loop_
 _symmetry_equiv_pos_site_id
 _symmetry_equiv_pos_as_xyz
  1  'x, y, z'
loop_
 _atom_site_type_symbol
 _atom_site_label
 _atom_site_symmetry_multiplicity
 _atom_site_fract_x
 _atom_site_fract_y
 _atom_site_fract_z
 _atom_site_occupancy
  Nd  Nd0  1  0.667273  0.667273  0.000000  1
  Nd  Nd1  1  0.332727  0.332727  0.000000  1
  U  U2  1  0.000000  0.000000  0.000000  1
  As  As3  1  0.500000  0.000000  0.500000  1
  As  As4  1  0.158292  0.658292  0.500000  1
  As  As5  1  0.841708  0.341708  0.500000  1
