# generated using pymatgen
data_NdSm4Dy3(Si3Rh)4
_symmetry_space_group_name_H-M   'P 1'
_cell_length_a   8.22844300
_cell_length_b   8.22844390
_cell_length_c   8.10057200
_cell_angle_alpha   90.00000000
_cell_angle_beta   90.00000000
_cell_angle_gamma   119.99999236
_symmetry_Int_Tables_number   1
_chemical_formula_structural   NdSm4Dy3(Si3Rh)4
_chemical_formula_sum   'Nd1 Sm4 Dy3 Si12 Rh4'
_cell_volume   474.98700627
_cell_formula_units_Z   1
loop_
 _symmetry_equiv_pos_site_id
 _symmetry_equiv_pos_as_xyz
  1  'x, y, z'
loop_
 _atom_site_type_symbol
 _atom_site_label
 _atom_site_symmetry_multiplicity
 _atom_site_fract_x
 _atom_site_fract_y
 _atom_site_fract_z
 _atom_site_occupancy
  Nd  Nd0  1  0.000000  0.000000  0.250000  1
  Sm  Sm1  1  0.000000  0.000000  0.750000  1
  Sm  Sm2  1  0.506600  0.493400  0.250000  1
  Sm  Sm3  1  0.506600  0.013201  0.250000  1
  Sm  Sm4  1  0.986799  0.493400  0.250000  1
  Dy  Dy5  1  0.491740  0.508260  0.750000  1
  Dy  Dy6  1  0.491740  0.983480  0.750000  1
  Dy  Dy7  1  0.016520  0.508260  0.750000  1
  Si  Si8  1  0.166923  0.833077  0.504546  1
  Si  Si9  1  0.166923  0.333846  0.504546  1
  Si  Si10  1  0.666154  0.833077  0.504546  1
  Si  Si11  1  0.832133  0.167867  0.502021  1
  Si  Si12  1  0.832133  0.664264  0.502021  1
  Si  Si13  1  0.335736  0.167867  0.502021  1
  Si  Si14  1  0.832133  0.167867  0.997979  1
  Si  Si15  1  0.832133  0.664264  0.997979  1
  Si  Si16  1  0.335736  0.167867  0.997979  1
  Si  Si17  1  0.166923  0.833077  0.995454  1
  Si  Si18  1  0.166923  0.333846  0.995454  1
  Si  Si19  1  0.666154  0.833077  0.995454  1
  Rh  Rh20  1  0.333333  0.666667  0.478823  1
  Rh  Rh21  1  0.666667  0.333333  0.538685  1
  Rh  Rh22  1  0.666667  0.333333  0.961315  1
  Rh  Rh23  1  0.333333  0.666667  0.021177  1
