# generated using pymatgen
data_YbCdCo3O8
_symmetry_space_group_name_H-M   'P 1'
_cell_length_a   6.15345353
_cell_length_b   6.15345343
_cell_length_c   4.92494418
_cell_angle_alpha   73.08133796
_cell_angle_beta   73.08132365
_cell_angle_gamma   56.10982519
_symmetry_Int_Tables_number   1
_chemical_formula_structural   YbCdCo3O8
_chemical_formula_sum   'Yb1 Cd1 Co3 O8'
_cell_volume   146.14205613
_cell_formula_units_Z   1
loop_
 _symmetry_equiv_pos_site_id
 _symmetry_equiv_pos_as_xyz
  1  'x, y, z'
loop_
 _atom_site_type_symbol
 _atom_site_label
 _atom_site_symmetry_multiplicity
 _atom_site_fract_x
 _atom_site_fract_y
 _atom_site_fract_z
 _atom_site_occupancy
  Yb  Yb0  1  0.274774  0.274774  0.671264  1
  Cd  Cd1  1  0.719837  0.719837  0.333997  1
  Co  Co2  1  0.997407  0.997407  0.501020  1
  Co  Co3  1  0.746287  0.254700  0.996477  1
  Co  Co4  1  0.254700  0.746287  0.996477  1
  O  O5  1  0.400181  0.400181  0.961338  1
  O  O6  1  0.609653  0.609653  0.028390  1
  O  O7  1  0.901032  0.901032  0.906037  1
  O  O8  1  0.094981  0.094981  0.093843  1
  O  O9  1  0.318354  0.879155  0.614644  1
  O  O10  1  0.879155  0.318354  0.614644  1
  O  O11  1  0.127746  0.675891  0.390933  1
  O  O12  1  0.675891  0.127746  0.390933  1
