# generated using pymatgen
data_YbCd(CoO2)4
_symmetry_space_group_name_H-M   'P 1'
_cell_length_a   4.93394401
_cell_length_b   5.69644500
_cell_length_c   10.77795101
_cell_angle_alpha   89.99965689
_cell_angle_beta   90.00148830
_cell_angle_gamma   89.99894145
_symmetry_Int_Tables_number   1
_chemical_formula_structural   YbCd(CoO2)4
_chemical_formula_sum   'Yb2 Cd2 Co8 O16'
_cell_volume   302.92445160
_cell_formula_units_Z   2
loop_
 _symmetry_equiv_pos_site_id
 _symmetry_equiv_pos_as_xyz
  1  'x, y, z'
loop_
 _atom_site_type_symbol
 _atom_site_label
 _atom_site_symmetry_multiplicity
 _atom_site_fract_x
 _atom_site_fract_y
 _atom_site_fract_z
 _atom_site_occupancy
  Yb  Yb0  1  0.349695  0.750004  0.749994  1
  Yb  Yb1  1  0.650305  0.249996  0.250007  1
  Cd  Cd2  1  0.042091  0.750003  0.249998  1
  Cd  Cd3  1  0.957908  0.249998  0.750001  1
  Co  Co4  1  0.005260  0.250000  0.006429  1
  Co  Co5  1  0.994739  0.750000  0.993572  1
  Co  Co6  1  0.005262  0.250001  0.493569  1
  Co  Co7  1  0.994739  0.749998  0.506431  1
  Co  Co8  1  0.500000  0.000000  0.000000  1
  Co  Co9  1  0.500000  0.000000  0.500000  1
  Co  Co10  1  0.500000  0.500000  0.000000  1
  Co  Co11  1  0.500000  0.500000  0.500000  1
  O  O12  1  0.165777  0.002164  0.902876  1
  O  O13  1  0.165784  0.002165  0.597124  1
  O  O14  1  0.165785  0.497837  0.597124  1
  O  O15  1  0.165776  0.497844  0.902877  1
  O  O16  1  0.338542  0.249993  0.095441  1
  O  O17  1  0.338535  0.249997  0.404558  1
  O  O18  1  0.326264  0.749996  0.088243  1
  O  O19  1  0.326250  0.750001  0.411757  1
  O  O20  1  0.673751  0.249999  0.588242  1
  O  O21  1  0.673737  0.250004  0.911757  1
  O  O22  1  0.661464  0.750003  0.595442  1
  O  O23  1  0.661458  0.750007  0.904559  1
  O  O24  1  0.834223  0.997837  0.097125  1
  O  O25  1  0.834217  0.997834  0.402876  1
  O  O26  1  0.834224  0.502156  0.097124  1
  O  O27  1  0.834215  0.502163  0.402876  1
