# generated using pymatgen
data_Ta12Mn3Cr(Ga2C)4
_symmetry_space_group_name_H-M   'P 1'
_cell_length_a   8.24437499
_cell_length_b   8.24437496
_cell_length_c   8.24100323
_cell_angle_alpha   59.98646814
_cell_angle_beta   59.98646664
_cell_angle_gamma   60.00000561
_symmetry_Int_Tables_number   1
_chemical_formula_structural   Ta12Mn3Cr(Ga2C)4
_chemical_formula_sum   'Ta12 Mn3 Cr1 Ga8 C4'
_cell_volume   395.99683488
_cell_formula_units_Z   1
loop_
 _symmetry_equiv_pos_site_id
 _symmetry_equiv_pos_as_xyz
  1  'x, y, z'
loop_
 _atom_site_type_symbol
 _atom_site_label
 _atom_site_symmetry_multiplicity
 _atom_site_fract_x
 _atom_site_fract_y
 _atom_site_fract_z
 _atom_site_occupancy
  Ta  Ta0  1  0.553479  0.945078  0.556366  1
  Ta  Ta1  1  0.304922  0.696521  0.693634  1
  Ta  Ta2  1  0.693741  0.306151  0.306367  1
  Ta  Ta3  1  0.306151  0.693741  0.306367  1
  Ta  Ta4  1  0.693741  0.693741  0.306367  1
  Ta  Ta5  1  0.304922  0.304922  0.693634  1
  Ta  Ta6  1  0.556259  0.556259  0.943633  1
  Ta  Ta7  1  0.945078  0.553479  0.556366  1
  Ta  Ta8  1  0.556259  0.943849  0.943633  1
  Ta  Ta9  1  0.945078  0.945078  0.556366  1
  Ta  Ta10  1  0.696521  0.304922  0.693634  1
  Ta  Ta11  1  0.943849  0.556259  0.943633  1
  Mn  Mn12  1  0.125000  0.125000  0.125000  1
  Mn  Mn13  1  0.625000  0.125000  0.125000  1
  Mn  Mn14  1  0.125000  0.625000  0.125000  1
  Cr  Cr15  1  0.125000  0.125000  0.625000  1
  Ga  Ga16  1  0.913213  0.913213  0.916239  1
  Ga  Ga17  1  0.992664  0.336787  0.333761  1
  Ga  Ga18  1  0.336787  0.992664  0.333761  1
  Ga  Ga19  1  0.335896  0.335896  0.992310  1
  Ga  Ga20  1  0.913213  0.257336  0.916239  1
  Ga  Ga21  1  0.914104  0.914104  0.257690  1
  Ga  Ga22  1  0.257336  0.913213  0.916239  1
  Ga  Ga23  1  0.336787  0.336787  0.333761  1
  C  C24  1  0.625000  0.625000  0.625000  1
  C  C25  1  0.125000  0.625000  0.625000  1
  C  C26  1  0.625000  0.125000  0.625000  1
  C  C27  1  0.625000  0.625000  0.125000  1
