# generated using pymatgen
data_Nd8Zr12Si15P
_symmetry_space_group_name_H-M   'P 1'
_cell_length_a   7.22534904
_cell_length_b   7.38764450
_cell_length_c   14.06795000
_cell_angle_alpha   90.11745122
_cell_angle_beta   89.44987555
_cell_angle_gamma   90.08534989
_symmetry_Int_Tables_number   1
_chemical_formula_structural   Nd8Zr12Si15P
_chemical_formula_sum   'Nd8 Zr12 Si15 P1'
_cell_volume   750.88639643
_cell_formula_units_Z   1
loop_
 _symmetry_equiv_pos_site_id
 _symmetry_equiv_pos_as_xyz
  1  'x, y, z'
loop_
 _atom_site_type_symbol
 _atom_site_label
 _atom_site_symmetry_multiplicity
 _atom_site_fract_x
 _atom_site_fract_y
 _atom_site_fract_z
 _atom_site_occupancy
  Nd  Nd0  1  0.012817  0.173630  0.097073  1
  Nd  Nd1  1  0.987254  0.826618  0.902366  1
  Nd  Nd2  1  0.486541  0.672837  0.902183  1
  Nd  Nd3  1  0.989328  0.821735  0.595988  1
  Nd  Nd4  1  0.513347  0.327264  0.097427  1
  Nd  Nd5  1  0.012941  0.178038  0.404986  1
  Nd  Nd6  1  0.507971  0.325943  0.403281  1
  Nd  Nd7  1  0.489294  0.671189  0.596933  1
  Zr  Zr8  1  0.159725  0.495677  0.748680  1
  Zr  Zr9  1  0.840750  0.503569  0.251128  1
  Zr  Zr10  1  0.340670  0.997440  0.250551  1
  Zr  Zr11  1  0.659617  0.002646  0.749583  1
  Zr  Zr12  1  0.329895  0.177654  0.623771  1
  Zr  Zr13  1  0.668308  0.826437  0.375376  1
  Zr  Zr14  1  0.166083  0.672157  0.377719  1
  Zr  Zr15  1  0.670313  0.824639  0.125775  1
  Zr  Zr16  1  0.836414  0.326841  0.622863  1
  Zr  Zr17  1  0.329272  0.175740  0.874384  1
  Zr  Zr18  1  0.830721  0.323166  0.874139  1
  Zr  Zr19  1  0.169976  0.676635  0.125519  1
  Si  Si20  1  0.034759  0.122313  0.748556  1
  Si  Si21  1  0.965914  0.876700  0.251445  1
  Si  Si22  1  0.463308  0.624816  0.250678  1
  Si  Si23  1  0.537128  0.374293  0.749163  1
  Si  Si24  1  0.286744  0.879948  0.749145  1
  Si  Si25  1  0.714632  0.121886  0.250627  1
  Si  Si26  1  0.213320  0.380553  0.250213  1
  Si  Si27  1  0.786335  0.619705  0.749563  1
  Si  Si28  1  0.831046  0.537361  0.456331  1
  Si  Si29  1  0.345231  0.963401  0.459347  1
  Si  Si30  1  0.848705  0.534861  0.041120  1
  Si  Si31  1  0.655359  0.035509  0.542135  1
  Si  Si32  1  0.150949  0.465829  0.958060  1
  Si  Si33  1  0.651065  0.034053  0.958541  1
  Si  Si34  1  0.349232  0.966010  0.041348  1
  P  P35  1  0.165035  0.462909  0.544002  1
