# generated using pymatgen
data_Ce2PaO6
_symmetry_space_group_name_H-M   'P 1'
_cell_length_a   6.68263172
_cell_length_b   6.68263162
_cell_length_c   6.68263319
_cell_angle_alpha   146.10256879
_cell_angle_beta   131.43941443
_cell_angle_gamma   60.53676394
_symmetry_Int_Tables_number   1
_chemical_formula_structural   Ce2PaO6
_chemical_formula_sum   'Ce2 Pa1 O6'
_cell_volume   123.58571073
_cell_formula_units_Z   1
loop_
 _symmetry_equiv_pos_site_id
 _symmetry_equiv_pos_as_xyz
  1  'x, y, z'
loop_
 _atom_site_type_symbol
 _atom_site_label
 _atom_site_symmetry_multiplicity
 _atom_site_fract_x
 _atom_site_fract_y
 _atom_site_fract_z
 _atom_site_occupancy
  Ce  Ce0  1  0.166843  0.666843  0.500000  1
  Ce  Ce1  1  0.833157  0.333157  0.500000  1
  Pa  Pa2  1  0.500000  0.000000  0.500000  1
  O  O3  1  0.416854  0.159964  0.256890  1
  O  O4  1  0.263710  0.500000  0.763710  1
  O  O5  1  0.903074  0.159964  0.743110  1
  O  O6  1  0.096926  0.840036  0.256890  1
  O  O7  1  0.736290  0.500000  0.236290  1
  O  O8  1  0.583146  0.840036  0.743110  1
