# generated using pymatgen
data_Pr2Dy2LuSn4
_symmetry_space_group_name_H-M   'P 1'
_cell_length_a   8.06373800
_cell_length_b   8.29120900
_cell_length_c   15.63459200
_cell_angle_alpha   90.00000000
_cell_angle_beta   90.00000000
_cell_angle_gamma   90.00000000
_symmetry_Int_Tables_number   1
_chemical_formula_structural   Pr2Dy2LuSn4
_chemical_formula_sum   'Pr8 Dy8 Lu4 Sn16'
_cell_volume   1045.29969511
_cell_formula_units_Z   4
loop_
 _symmetry_equiv_pos_site_id
 _symmetry_equiv_pos_as_xyz
  1  'x, y, z'
loop_
 _atom_site_type_symbol
 _atom_site_label
 _atom_site_symmetry_multiplicity
 _atom_site_fract_x
 _atom_site_fract_y
 _atom_site_fract_z
 _atom_site_occupancy
  Pr  Pr0  1  0.508961  0.324164  0.903866  1
  Pr  Pr1  1  0.008961  0.175836  0.596134  1
  Pr  Pr2  1  0.491039  0.675836  0.403866  1
  Pr  Pr3  1  0.991039  0.824164  0.096134  1
  Pr  Pr4  1  0.491039  0.675836  0.096134  1
  Pr  Pr5  1  0.991039  0.824164  0.403866  1
  Pr  Pr6  1  0.508961  0.324164  0.596134  1
  Pr  Pr7  1  0.008961  0.175836  0.903866  1
  Dy  Dy8  1  0.349051  0.835553  0.875478  1
  Dy  Dy9  1  0.849051  0.664447  0.624522  1
  Dy  Dy10  1  0.650949  0.164447  0.375478  1
  Dy  Dy11  1  0.150949  0.335553  0.124522  1
  Dy  Dy12  1  0.650949  0.164447  0.124522  1
  Dy  Dy13  1  0.150949  0.335553  0.375478  1
  Dy  Dy14  1  0.349051  0.835553  0.624522  1
  Dy  Dy15  1  0.849051  0.664447  0.875478  1
  Lu  Lu16  1  0.182031  0.501971  0.750000  1
  Lu  Lu17  1  0.682031  0.998029  0.750000  1
  Lu  Lu18  1  0.817969  0.498029  0.250000  1
  Lu  Lu19  1  0.317969  0.001971  0.250000  1
  Sn  Sn20  1  0.313849  0.041363  0.042175  1
  Sn  Sn21  1  0.813849  0.458637  0.457825  1
  Sn  Sn22  1  0.686151  0.958637  0.542175  1
  Sn  Sn23  1  0.186151  0.541363  0.957825  1
  Sn  Sn24  1  0.686151  0.958637  0.957825  1
  Sn  Sn25  1  0.186151  0.541363  0.542175  1
  Sn  Sn26  1  0.313849  0.041363  0.457825  1
  Sn  Sn27  1  0.813849  0.458637  0.042175  1
  Sn  Sn28  1  0.545647  0.623807  0.750000  1
  Sn  Sn29  1  0.045647  0.876193  0.750000  1
  Sn  Sn30  1  0.454353  0.376193  0.250000  1
  Sn  Sn31  1  0.954353  0.123807  0.250000  1
  Sn  Sn32  1  0.316510  0.145230  0.750000  1
  Sn  Sn33  1  0.816510  0.354770  0.750000  1
  Sn  Sn34  1  0.683490  0.854770  0.250000  1
  Sn  Sn35  1  0.183490  0.645230  0.250000  1
