# generated using pymatgen
data_Dy3IrI3
_symmetry_space_group_name_H-M   'P 1'
_cell_length_a   4.28510700
_cell_length_b   8.83999133
_cell_length_c   12.32233013
_cell_angle_alpha   86.41310725
_cell_angle_beta   90.00000000
_cell_angle_gamma   90.00000000
_symmetry_Int_Tables_number   1
_chemical_formula_structural   Dy3IrI3
_chemical_formula_sum   'Dy6 Ir2 I6'
_cell_volume   465.85929119
_cell_formula_units_Z   2
loop_
 _symmetry_equiv_pos_site_id
 _symmetry_equiv_pos_as_xyz
  1  'x, y, z'
loop_
 _atom_site_type_symbol
 _atom_site_label
 _atom_site_symmetry_multiplicity
 _atom_site_fract_x
 _atom_site_fract_y
 _atom_site_fract_z
 _atom_site_occupancy
  Dy  Dy0  1  0.750000  0.140794  0.130028  1
  Dy  Dy1  1  0.250000  0.859206  0.869972  1
  Dy  Dy2  1  0.750000  0.096606  0.684236  1
  Dy  Dy3  1  0.250000  0.903394  0.315764  1
  Dy  Dy4  1  0.250000  0.249899  0.899935  1
  Dy  Dy5  1  0.750000  0.750101  0.100065  1
  Ir  Ir6  1  0.750000  0.048793  0.907741  1
  Ir  Ir7  1  0.250000  0.951207  0.092259  1
  I  I8  1  0.250000  0.428424  0.133489  1
  I  I9  1  0.750000  0.571576  0.866511  1
  I  I10  1  0.250000  0.350535  0.638120  1
  I  I11  1  0.750000  0.649465  0.361880  1
  I  I12  1  0.750000  0.142566  0.394799  1
  I  I13  1  0.250000  0.857434  0.605201  1
