# generated using pymatgen
data_DyEr3Al18CuIr5
_symmetry_space_group_name_H-M   'P 1'
_cell_length_a   7.55923535
_cell_length_b   7.55832568
_cell_length_c   9.43169507
_cell_angle_alpha   90.11075392
_cell_angle_beta   90.09933558
_cell_angle_gamma   119.72112130
_symmetry_Int_Tables_number   1
_chemical_formula_structural   DyEr3Al18CuIr5
_chemical_formula_sum   'Dy1 Er3 Al18 Cu1 Ir5'
_cell_volume   467.98781600
_cell_formula_units_Z   1
loop_
 _symmetry_equiv_pos_site_id
 _symmetry_equiv_pos_as_xyz
  1  'x, y, z'
loop_
 _atom_site_type_symbol
 _atom_site_label
 _atom_site_symmetry_multiplicity
 _atom_site_fract_x
 _atom_site_fract_y
 _atom_site_fract_z
 _atom_site_occupancy
  Dy  Dy0  1  0.329542  0.004736  0.249810  1
  Er  Er1  1  0.995272  0.670365  0.750332  1
  Er  Er2  1  0.004683  0.329623  0.249687  1
  Er  Er3  1  0.670428  0.995286  0.750319  1
  Al  Al4  1  0.127617  0.127653  0.750532  1
  Al  Al5  1  0.872035  0.872252  0.249447  1
  Al  Al6  1  0.000599  0.337494  0.576778  1
  Al  Al7  1  0.999123  0.662180  0.423385  1
  Al  Al8  1  0.999879  0.665759  0.073669  1
  Al  Al9  1  0.333931  0.999826  0.925870  1
  Al  Al10  1  0.999827  0.333943  0.926133  1
  Al  Al11  1  0.666323  0.000166  0.073698  1
  Al  Al12  1  0.662790  0.999388  0.423421  1
  Al  Al13  1  0.337532  0.000615  0.577035  1
  Al  Al14  1  0.333119  0.333355  0.052801  1
  Al  Al15  1  0.666879  0.666888  0.946978  1
  Al  Al16  1  0.664233  0.664254  0.555477  1
  Al  Al17  1  0.335787  0.336029  0.444761  1
  Al  Al18  1  0.338661  0.548068  0.750360  1
  Al  Al19  1  0.661607  0.452299  0.249642  1
  Al  Al20  1  0.548077  0.338675  0.750368  1
  Al  Al21  1  0.452033  0.661156  0.249632  1
  Cu  Cu22  1  0.999910  0.999989  0.500084  1
  Ir  Ir23  1  0.672314  0.328089  0.500212  1
  Ir  Ir24  1  0.327876  0.671942  0.500187  1
  Ir  Ir25  1  0.327938  0.671941  0.999815  1
  Ir  Ir26  1  0.672247  0.328093  0.999783  1
  Ir  Ir27  1  0.999736  0.999936  0.999786  1
