# generated using pymatgen
data_SrNp2S5
_symmetry_space_group_name_H-M   'P 1'
_cell_length_a   7.43440101
_cell_length_b   8.23148147
_cell_length_c   11.63656667
_cell_angle_alpha   89.73498905
_cell_angle_beta   90.00068383
_cell_angle_gamma   89.99439350
_symmetry_Int_Tables_number   1
_chemical_formula_structural   SrNp2S5
_chemical_formula_sum   'Sr4 Np8 S20'
_cell_volume   712.10527448
_cell_formula_units_Z   4
loop_
 _symmetry_equiv_pos_site_id
 _symmetry_equiv_pos_as_xyz
  1  'x, y, z'
loop_
 _atom_site_type_symbol
 _atom_site_label
 _atom_site_symmetry_multiplicity
 _atom_site_fract_x
 _atom_site_fract_y
 _atom_site_fract_z
 _atom_site_occupancy
  Sr  Sr0  1  0.046812  0.492221  0.329590  1
  Sr  Sr1  1  0.546842  0.507794  0.170379  1
  Sr  Sr2  1  0.953188  0.507779  0.670410  1
  Sr  Sr3  1  0.453158  0.492206  0.829621  1
  Np  Np4  1  0.019914  0.999997  0.319801  1
  Np  Np5  1  0.519908  0.999983  0.180200  1
  Np  Np6  1  0.980086  0.000003  0.680199  1
  Np  Np7  1  0.480092  0.000017  0.819800  1
  Np  Np8  1  0.070334  0.753264  0.008630  1
  Np  Np9  1  0.570524  0.246766  0.491352  1
  Np  Np10  1  0.929666  0.246736  0.991370  1
  Np  Np11  1  0.429476  0.753234  0.508648  1
  S  S12  1  0.661906  0.955268  0.402271  1
  S  S13  1  0.161826  0.044751  0.097788  1
  S  S14  1  0.338094  0.044732  0.597729  1
  S  S15  1  0.838174  0.955249  0.902212  1
  S  S16  1  0.453697  0.784890  0.001055  1
  S  S17  1  0.953692  0.215175  0.498935  1
  S  S18  1  0.546303  0.215110  0.998945  1
  S  S19  1  0.046308  0.784825  0.501065  1
  S  S20  1  0.835878  0.778707  0.188003  1
  S  S21  1  0.335934  0.221248  0.312014  1
  S  S22  1  0.164122  0.221293  0.811997  1
  S  S23  1  0.664066  0.778752  0.687986  1
  S  S24  1  0.307619  0.767234  0.283923  1
  S  S25  1  0.807613  0.232811  0.216089  1
  S  S26  1  0.692381  0.232766  0.716077  1
  S  S27  1  0.192387  0.767189  0.783911  1
  S  S28  1  0.175837  0.459463  0.077566  1
  S  S29  1  0.675733  0.540555  0.422432  1
  S  S30  1  0.824163  0.540537  0.922434  1
  S  S31  1  0.324267  0.459445  0.577568  1
