# generated using pymatgen
data_Be8NbRu3
_symmetry_space_group_name_H-M   'P 1'
_cell_length_a   4.39764700
_cell_length_b   4.39764810
_cell_length_c   7.20081900
_cell_angle_alpha   90.00000000
_cell_angle_beta   90.00000000
_cell_angle_gamma   119.99999925
_symmetry_Int_Tables_number   1
_chemical_formula_structural   Be8NbRu3
_chemical_formula_sum   'Be8 Nb1 Ru3'
_cell_volume   120.60168322
_cell_formula_units_Z   1
loop_
 _symmetry_equiv_pos_site_id
 _symmetry_equiv_pos_as_xyz
  1  'x, y, z'
loop_
 _atom_site_type_symbol
 _atom_site_label
 _atom_site_symmetry_multiplicity
 _atom_site_fract_x
 _atom_site_fract_y
 _atom_site_fract_z
 _atom_site_occupancy
  Be  Be0  1  0.000000  0.000000  0.504392  1
  Be  Be1  1  0.000000  0.000000  0.998410  1
  Be  Be2  1  0.830326  0.169674  0.238264  1
  Be  Be3  1  0.830326  0.660652  0.238264  1
  Be  Be4  1  0.339348  0.169674  0.238264  1
  Be  Be5  1  0.167519  0.832481  0.760118  1
  Be  Be6  1  0.167519  0.335038  0.760118  1
  Be  Be7  1  0.664962  0.832481  0.760118  1
  Nb  Nb8  1  0.333333  0.666667  0.437519  1
  Ru  Ru9  1  0.666667  0.333333  0.554668  1
  Ru  Ru10  1  0.666667  0.333333  0.939289  1
  Ru  Ru11  1  0.333333  0.666667  0.070577  1
