# generated using pymatgen
data_PrBi3Ru4F28
_symmetry_space_group_name_H-M   'P 1'
_cell_length_a   5.66446086
_cell_length_b   9.27225390
_cell_length_c   12.21244866
_cell_angle_alpha   61.88644892
_cell_angle_beta   89.81892317
_cell_angle_gamma   90.01718890
_symmetry_Int_Tables_number   1
_chemical_formula_structural   PrBi3Ru4F28
_chemical_formula_sum   'Pr1 Bi3 Ru4 F28'
_cell_volume   565.74376061
_cell_formula_units_Z   1
loop_
 _symmetry_equiv_pos_site_id
 _symmetry_equiv_pos_as_xyz
  1  'x, y, z'
loop_
 _atom_site_type_symbol
 _atom_site_label
 _atom_site_symmetry_multiplicity
 _atom_site_fract_x
 _atom_site_fract_y
 _atom_site_fract_z
 _atom_site_occupancy
  Pr  Pr0  1  0.738936  0.804540  0.267524  1
  Bi  Bi1  1  0.764560  0.819431  0.758471  1
  Bi  Bi2  1  0.267928  0.181211  0.741615  1
  Bi  Bi3  1  0.232827  0.184655  0.232274  1
  Ru  Ru4  1  0.758302  0.272388  0.956636  1
  Ru  Ru5  1  0.256345  0.727207  0.545136  1
  Ru  Ru6  1  0.243065  0.726786  0.040073  1
  Ru  Ru7  1  0.742215  0.272384  0.458508  1
  F  F8  1  0.432199  0.707230  0.916004  1
  F  F9  1  0.928976  0.291751  0.580429  1
  F  F10  1  0.568020  0.288716  0.085655  1
  F  F11  1  0.066533  0.711703  0.415813  1
  F  F12  1  0.447043  0.280097  0.544244  1
  F  F13  1  0.947795  0.720811  0.956222  1
  F  F14  1  0.549658  0.720165  0.459980  1
  F  F15  1  0.056832  0.278147  0.040901  1
  F  F16  1  0.768092  0.504062  0.864146  1
  F  F17  1  0.263955  0.495153  0.638001  1
  F  F18  1  0.235401  0.492389  0.134480  1
  F  F19  1  0.732240  0.512223  0.361285  1
  F  F20  1  0.760192  0.038469  0.048365  1
  F  F21  1  0.259501  0.961580  0.453094  1
  F  F22  1  0.241532  0.967570  0.948116  1
  F  F23  1  0.743722  0.029630  0.553267  1
  F  F24  1  0.964880  0.730348  0.632888  1
  F  F25  1  0.469194  0.268906  0.868411  1
  F  F26  1  0.028307  0.269472  0.367815  1
  F  F27  1  0.527499  0.734178  0.129760  1
  F  F28  1  0.057133  0.746929  0.166810  1
  F  F29  1  0.558232  0.255363  0.334111  1
  F  F30  1  0.943762  0.255669  0.825115  1
  F  F31  1  0.441686  0.743632  0.675858  1
  F  F32  1  0.399876  0.972235  0.228358  1
  F  F33  1  0.911846  0.032578  0.269824  1
  F  F34  1  0.596053  0.029130  0.773574  1
  F  F35  1  0.095662  0.973261  0.727236  1
