# generated using pymatgen
data_Ca7Ho(AgSn)4
_symmetry_space_group_name_H-M   'P 1'
_cell_length_a   7.55612405
_cell_length_b   5.31095200
_cell_length_c   10.63184806
_cell_angle_alpha   90.00000000
_cell_angle_beta   90.01304060
_cell_angle_gamma   90.00000000
_symmetry_Int_Tables_number   1
_chemical_formula_structural   Ca7Ho(AgSn)4
_chemical_formula_sum   'Ca7 Ho1 Ag4 Sn4'
_cell_volume   426.65830730
_cell_formula_units_Z   1
loop_
 _symmetry_equiv_pos_site_id
 _symmetry_equiv_pos_as_xyz
  1  'x, y, z'
loop_
 _atom_site_type_symbol
 _atom_site_label
 _atom_site_symmetry_multiplicity
 _atom_site_fract_x
 _atom_site_fract_y
 _atom_site_fract_z
 _atom_site_occupancy
  Ca  Ca0  1  0.495773  0.750000  0.125923  1
  Ca  Ca1  1  0.000572  0.250000  0.377946  1
  Ca  Ca2  1  0.499970  0.250000  0.373876  1
  Ca  Ca3  1  0.503396  0.750000  0.625634  1
  Ca  Ca4  1  0.001354  0.750000  0.625845  1
  Ca  Ca5  1  0.499628  0.250000  0.874774  1
  Ca  Ca6  1  0.000300  0.250000  0.870512  1
  Ho  Ho7  1  0.999173  0.750000  0.125694  1
  Ag  Ag8  1  0.759524  0.250000  0.122773  1
  Ag  Ag9  1  0.245030  0.750000  0.372315  1
  Ag  Ag10  1  0.749980  0.250000  0.622725  1
  Ag  Ag11  1  0.245065  0.750000  0.881891  1
  Sn  Sn12  1  0.242006  0.250000  0.123825  1
  Sn  Sn13  1  0.753454  0.750000  0.372527  1
  Sn  Sn14  1  0.251561  0.250000  0.623649  1
  Sn  Sn15  1  0.753211  0.750000  0.880092  1
