# generated using pymatgen
data_HoTaFe4P3
_symmetry_space_group_name_H-M   'P 1'
_cell_length_a   3.66578400
_cell_length_b   10.43295000
_cell_length_c   12.31611200
_cell_angle_alpha   90.00000000
_cell_angle_beta   90.00000000
_cell_angle_gamma   90.00000000
_symmetry_Int_Tables_number   1
_chemical_formula_structural   HoTaFe4P3
_chemical_formula_sum   'Ho4 Ta4 Fe16 P12'
_cell_volume   471.02897904
_cell_formula_units_Z   4
loop_
 _symmetry_equiv_pos_site_id
 _symmetry_equiv_pos_as_xyz
  1  'x, y, z'
loop_
 _atom_site_type_symbol
 _atom_site_label
 _atom_site_symmetry_multiplicity
 _atom_site_fract_x
 _atom_site_fract_y
 _atom_site_fract_z
 _atom_site_occupancy
  Ho  Ho0  1  0.250000  0.583328  0.712838  1
  Ho  Ho1  1  0.250000  0.916672  0.212838  1
  Ho  Ho2  1  0.750000  0.416672  0.287162  1
  Ho  Ho3  1  0.750000  0.083328  0.787162  1
  Ta  Ta4  1  0.250000  0.703591  0.992122  1
  Ta  Ta5  1  0.250000  0.796409  0.492122  1
  Ta  Ta6  1  0.750000  0.296409  0.007878  1
  Ta  Ta7  1  0.750000  0.203591  0.507878  1
  Fe  Fe8  1  0.250000  0.416456  0.491549  1
  Fe  Fe9  1  0.250000  0.083544  0.991549  1
  Fe  Fe10  1  0.750000  0.583544  0.508451  1
  Fe  Fe11  1  0.750000  0.916456  0.008451  1
  Fe  Fe12  1  0.250000  0.216131  0.170715  1
  Fe  Fe13  1  0.250000  0.283869  0.670715  1
  Fe  Fe14  1  0.750000  0.783869  0.829285  1
  Fe  Fe15  1  0.750000  0.716131  0.329285  1
  Fe  Fe16  1  0.250000  0.878720  0.697727  1
  Fe  Fe17  1  0.250000  0.621280  0.197727  1
  Fe  Fe18  1  0.750000  0.121280  0.302273  1
  Fe  Fe19  1  0.750000  0.378720  0.802273  1
  Fe  Fe20  1  0.250000  0.463783  0.933821  1
  Fe  Fe21  1  0.250000  0.036217  0.433821  1
  Fe  Fe22  1  0.750000  0.536217  0.066179  1
  Fe  Fe23  1  0.750000  0.963783  0.566179  1
  P  P24  1  0.250000  0.424944  0.113646  1
  P  P25  1  0.250000  0.075056  0.613646  1
  P  P26  1  0.750000  0.575056  0.886354  1
  P  P27  1  0.750000  0.924944  0.386354  1
  P  P28  1  0.250000  0.272860  0.854881  1
  P  P29  1  0.250000  0.227140  0.354881  1
  P  P30  1  0.750000  0.727140  0.145119  1
  P  P31  1  0.750000  0.772860  0.645119  1
  P  P32  1  0.250000  0.596326  0.376423  1
  P  P33  1  0.250000  0.903674  0.876423  1
  P  P34  1  0.750000  0.403674  0.623577  1
  P  P35  1  0.750000  0.096326  0.123577  1
