# generated using pymatgen
data_MnNb6Cr(Fe2N)2
_symmetry_space_group_name_H-M   'P 1'
_cell_length_a   8.03928993
_cell_length_b   8.03929162
_cell_length_c   8.05635800
_cell_angle_alpha   59.92974287
_cell_angle_beta   59.92973590
_cell_angle_gamma   59.87770505
_symmetry_Int_Tables_number   1
_chemical_formula_structural   MnNb6Cr(Fe2N)2
_chemical_formula_sum   'Mn2 Nb12 Cr2 Fe8 N4'
_cell_volume   367.44729145
_cell_formula_units_Z   2
loop_
 _symmetry_equiv_pos_site_id
 _symmetry_equiv_pos_as_xyz
  1  'x, y, z'
loop_
 _atom_site_type_symbol
 _atom_site_label
 _atom_site_symmetry_multiplicity
 _atom_site_fract_x
 _atom_site_fract_y
 _atom_site_fract_z
 _atom_site_occupancy
  Mn  Mn0  1  0.625000  0.625000  0.125000  1
  Mn  Mn1  1  0.625000  0.625000  0.625000  1
  Nb  Nb2  1  0.801169  0.801169  0.198831  1
  Nb  Nb3  1  0.195656  0.195656  0.804344  1
  Nb  Nb4  1  0.802605  0.197950  0.803284  1
  Nb  Nb5  1  0.197950  0.802605  0.196162  1
  Nb  Nb6  1  0.197950  0.802605  0.803284  1
  Nb  Nb7  1  0.802605  0.197950  0.196162  1
  Nb  Nb8  1  0.448831  0.448831  0.051169  1
  Nb  Nb9  1  0.054344  0.054344  0.445656  1
  Nb  Nb10  1  0.447395  0.052050  0.446716  1
  Nb  Nb11  1  0.052050  0.447395  0.053838  1
  Nb  Nb12  1  0.052050  0.447395  0.446716  1
  Nb  Nb13  1  0.447395  0.052050  0.053838  1
  Cr  Cr14  1  0.125000  0.625000  0.625000  1
  Cr  Cr15  1  0.625000  0.125000  0.625000  1
  Fe  Fe16  1  0.724506  0.425057  0.425220  1
  Fe  Fe17  1  0.425057  0.724506  0.425220  1
  Fe  Fe18  1  0.424517  0.424517  0.726741  1
  Fe  Fe19  1  0.424517  0.424517  0.424226  1
  Fe  Fe20  1  0.525494  0.824943  0.824780  1
  Fe  Fe21  1  0.824943  0.525494  0.824780  1
  Fe  Fe22  1  0.825483  0.825483  0.523259  1
  Fe  Fe23  1  0.825483  0.825483  0.825774  1
  N  N24  1  0.625000  0.125000  0.125000  1
  N  N25  1  0.125000  0.625000  0.125000  1
  N  N26  1  0.125000  0.125000  0.625000  1
  N  N27  1  0.125000  0.125000  0.125000  1
