# generated using pymatgen
data_Zr10Ga5AsO
_symmetry_space_group_name_H-M   'P 1'
_cell_length_a   8.10503540
_cell_length_b   8.09267245
_cell_length_c   5.69274225
_cell_angle_alpha   90.23644330
_cell_angle_beta   89.88196352
_cell_angle_gamma   119.94955249
_symmetry_Int_Tables_number   1
_chemical_formula_structural   Zr10Ga5AsO
_chemical_formula_sum   'Zr10 Ga5 As1 O1'
_cell_volume   323.53098457
_cell_formula_units_Z   1
loop_
 _symmetry_equiv_pos_site_id
 _symmetry_equiv_pos_as_xyz
  1  'x, y, z'
loop_
 _atom_site_type_symbol
 _atom_site_label
 _atom_site_symmetry_multiplicity
 _atom_site_fract_x
 _atom_site_fract_y
 _atom_site_fract_z
 _atom_site_occupancy
  Zr  Zr0  1  0.000000  0.760823  0.255022  1
  Zr  Zr1  1  0.239102  0.238754  0.253640  1
  Zr  Zr2  1  0.760898  0.999652  0.253640  1
  Zr  Zr3  1  0.000000  0.240787  0.745470  1
  Zr  Zr4  1  0.761586  0.762492  0.748086  1
  Zr  Zr5  1  0.238414  0.000906  0.748086  1
  Zr  Zr6  1  0.333471  0.665181  0.500286  1
  Zr  Zr7  1  0.666529  0.331709  0.500286  1
  Zr  Zr8  1  0.667049  0.332670  0.999592  1
  Zr  Zr9  1  0.332951  0.665622  0.999592  1
  Ga  Ga10  1  0.604927  0.604415  0.246173  1
  Ga  Ga11  1  0.395073  0.999488  0.246173  1
  Ga  Ga12  1  0.000000  0.606575  0.752460  1
  Ga  Ga13  1  0.397116  0.395931  0.754120  1
  Ga  Ga14  1  0.602884  0.998816  0.754120  1
  As  As15  1  0.000000  0.393238  0.243270  1
  O  O16  1  0.000000  0.002941  0.499984  1
