# generated using pymatgen
data_Y4UCo5
_symmetry_space_group_name_H-M   'P 1'
_cell_length_a   5.69734330
_cell_length_b   5.69734387
_cell_length_c   7.04851232
_cell_angle_alpha   87.01352621
_cell_angle_beta   92.98647260
_cell_angle_gamma   122.13195109
_symmetry_Int_Tables_number   1
_chemical_formula_structural   Y4UCo5
_chemical_formula_sum   'Y4 U1 Co5'
_cell_volume   193.40391691
_cell_formula_units_Z   1
loop_
 _symmetry_equiv_pos_site_id
 _symmetry_equiv_pos_as_xyz
  1  'x, y, z'
loop_
 _atom_site_type_symbol
 _atom_site_label
 _atom_site_symmetry_multiplicity
 _atom_site_fract_x
 _atom_site_fract_y
 _atom_site_fract_z
 _atom_site_occupancy
  Y  Y0  1  0.332877  0.667125  0.113027  1
  Y  Y1  1  0.834111  0.165891  0.413071  1
  Y  Y2  1  0.165891  0.834111  0.586929  1
  Y  Y3  1  0.667125  0.332877  0.886973  1
  U  U4  1  0.000000  0.000000  0.000000  1
  Co  Co5  1  0.332874  0.166783  0.244147  1
  Co  Co6  1  0.833216  0.667126  0.244147  1
  Co  Co7  1  0.500001  0.500001  0.499999  1
  Co  Co8  1  0.166783  0.332874  0.755853  1
  Co  Co9  1  0.667126  0.833216  0.755853  1
