# generated using pymatgen
data_SrMnCrP2O9
_symmetry_space_group_name_H-M   'P 1'
_cell_length_a   6.57328200
_cell_length_b   7.66063600
_cell_length_c   14.24991600
_cell_angle_alpha   90.00000000
_cell_angle_beta   90.00000000
_cell_angle_gamma   90.00000000
_symmetry_Int_Tables_number   1
_chemical_formula_structural   SrMnCrP2O9
_chemical_formula_sum   'Sr4 Mn4 Cr4 P8 O36'
_cell_volume   717.56194050
_cell_formula_units_Z   4
loop_
 _symmetry_equiv_pos_site_id
 _symmetry_equiv_pos_as_xyz
  1  'x, y, z'
loop_
 _atom_site_type_symbol
 _atom_site_label
 _atom_site_symmetry_multiplicity
 _atom_site_fract_x
 _atom_site_fract_y
 _atom_site_fract_z
 _atom_site_occupancy
  Sr  Sr0  1  0.250000  0.869748  0.282360  1
  Sr  Sr1  1  0.250000  0.630252  0.782360  1
  Sr  Sr2  1  0.750000  0.130252  0.717640  1
  Sr  Sr3  1  0.750000  0.369748  0.217640  1
  Mn  Mn4  1  0.000000  0.000000  0.500000  1
  Mn  Mn5  1  0.000000  0.500000  0.000000  1
  Mn  Mn6  1  0.500000  0.500000  0.000000  1
  Mn  Mn7  1  0.500000  0.000000  0.500000  1
  Cr  Cr8  1  0.250000  0.343078  0.383331  1
  Cr  Cr9  1  0.750000  0.656922  0.616669  1
  Cr  Cr10  1  0.750000  0.843078  0.116669  1
  Cr  Cr11  1  0.250000  0.156922  0.883331  1
  P  P12  1  0.750000  0.363577  0.441711  1
  P  P13  1  0.250000  0.636423  0.558289  1
  P  P14  1  0.250000  0.863577  0.058289  1
  P  P15  1  0.750000  0.136423  0.941711  1
  P  P16  1  0.250000  0.399953  0.194743  1
  P  P17  1  0.750000  0.600047  0.805257  1
  P  P18  1  0.750000  0.899953  0.305257  1
  P  P19  1  0.250000  0.100047  0.694743  1
  O  O20  1  0.560955  0.580909  0.868282  1
  O  O21  1  0.060955  0.419091  0.131718  1
  O  O22  1  0.439045  0.080909  0.631718  1
  O  O23  1  0.939045  0.919091  0.368282  1
  O  O24  1  0.439045  0.419091  0.131718  1
  O  O25  1  0.939045  0.580909  0.868282  1
  O  O26  1  0.560955  0.919091  0.368282  1
  O  O27  1  0.060955  0.080909  0.631718  1
  O  O28  1  0.750000  0.300788  0.005592  1
  O  O29  1  0.250000  0.699212  0.994408  1
  O  O30  1  0.250000  0.800788  0.494408  1
  O  O31  1  0.750000  0.199212  0.505592  1
  O  O32  1  0.250000  0.113895  0.447672  1
  O  O33  1  0.750000  0.886105  0.552328  1
  O  O34  1  0.750000  0.613895  0.052328  1
  O  O35  1  0.250000  0.386105  0.947672  1
  O  O36  1  0.250000  0.224995  0.250810  1
  O  O37  1  0.750000  0.775005  0.749190  1
  O  O38  1  0.750000  0.724995  0.249190  1
  O  O39  1  0.250000  0.275005  0.750810  1
  O  O40  1  0.937947  0.146134  0.874368  1
  O  O41  1  0.437947  0.853866  0.125632  1
  O  O42  1  0.062053  0.646134  0.625632  1
  O  O43  1  0.562053  0.353866  0.374368  1
  O  O44  1  0.062053  0.853866  0.125632  1
  O  O45  1  0.562053  0.146134  0.874368  1
  O  O46  1  0.937947  0.353866  0.374368  1
  O  O47  1  0.437947  0.646134  0.625632  1
  O  O48  1  0.250000  0.963988  0.776693  1
  O  O49  1  0.750000  0.036012  0.223307  1
  O  O50  1  0.750000  0.463988  0.723307  1
  O  O51  1  0.250000  0.536012  0.276693  1
  O  O52  1  0.250000  0.032308  0.002064  1
  O  O53  1  0.750000  0.967692  0.997936  1
  O  O54  1  0.750000  0.532308  0.497936  1
  O  O55  1  0.250000  0.467692  0.502064  1
