# generated using pymatgen
data_Ca10RuAu
_symmetry_space_group_name_H-M   'P 1'
_cell_length_a   6.87762405
_cell_length_b   7.63720222
_cell_length_c   16.16814200
_cell_angle_alpha   90.00000000
_cell_angle_beta   90.00000000
_cell_angle_gamma   89.49629468
_symmetry_Int_Tables_number   1
_chemical_formula_structural   Ca10RuAu
_chemical_formula_sum   'Ca20 Ru2 Au2'
_cell_volume   849.21186719
_cell_formula_units_Z   2
loop_
 _symmetry_equiv_pos_site_id
 _symmetry_equiv_pos_as_xyz
  1  'x, y, z'
loop_
 _atom_site_type_symbol
 _atom_site_label
 _atom_site_symmetry_multiplicity
 _atom_site_fract_x
 _atom_site_fract_y
 _atom_site_fract_z
 _atom_site_occupancy
  Ca  Ca0  1  0.351930  0.313579  0.060879  1
  Ca  Ca1  1  0.648070  0.686421  0.939121  1
  Ca  Ca2  1  0.851137  0.187629  0.935660  1
  Ca  Ca3  1  0.648070  0.686421  0.560879  1
  Ca  Ca4  1  0.148863  0.812371  0.064340  1
  Ca  Ca5  1  0.351930  0.313579  0.439121  1
  Ca  Ca6  1  0.148863  0.812371  0.435660  1
  Ca  Ca7  1  0.851137  0.187629  0.564340  1
  Ca  Ca8  1  0.137926  0.087993  0.250000  1
  Ca  Ca9  1  0.862074  0.912007  0.750000  1
  Ca  Ca10  1  0.662585  0.392689  0.750000  1
  Ca  Ca11  1  0.337415  0.607311  0.250000  1
  Ca  Ca12  1  0.321829  0.049023  0.642049  1
  Ca  Ca13  1  0.678171  0.950977  0.357951  1
  Ca  Ca14  1  0.834632  0.473786  0.357493  1
  Ca  Ca15  1  0.678171  0.950977  0.142049  1
  Ca  Ca16  1  0.165368  0.526214  0.642507  1
  Ca  Ca17  1  0.321829  0.049023  0.857951  1
  Ca  Ca18  1  0.165368  0.526214  0.857493  1
  Ca  Ca19  1  0.834632  0.473786  0.142507  1
  Ru  Ru20  1  0.040591  0.239309  0.750000  1
  Ru  Ru21  1  0.959409  0.760691  0.250000  1
  Au  Au22  1  0.541162  0.258680  0.250000  1
  Au  Au23  1  0.458838  0.741320  0.750000  1
