# generated using pymatgen
data_Er5Lu5(SiSb2)2
_symmetry_space_group_name_H-M   'P 1'
_cell_length_a   11.56944900
_cell_length_b   8.83488209
_cell_length_c   7.75198100
_cell_angle_alpha   89.99169897
_cell_angle_beta   90.00000000
_cell_angle_gamma   90.00000000
_symmetry_Int_Tables_number   1
_chemical_formula_structural   Er5Lu5(SiSb2)2
_chemical_formula_sum   'Er10 Lu10 Si4 Sb8'
_cell_volume   792.36654193
_cell_formula_units_Z   2
loop_
 _symmetry_equiv_pos_site_id
 _symmetry_equiv_pos_as_xyz
  1  'x, y, z'
loop_
 _atom_site_type_symbol
 _atom_site_label
 _atom_site_symmetry_multiplicity
 _atom_site_fract_x
 _atom_site_fract_y
 _atom_site_fract_z
 _atom_site_occupancy
  Er  Er0  1  0.064486  0.948676  0.816302  1
  Er  Er1  1  0.564486  0.551324  0.683698  1
  Er  Er2  1  0.215325  0.749637  0.166240  1
  Er  Er3  1  0.715325  0.750363  0.333760  1
  Er  Er4  1  0.784811  0.250034  0.834239  1
  Er  Er5  1  0.284811  0.249966  0.665761  1
  Er  Er6  1  0.292414  0.749996  0.641327  1
  Er  Er7  1  0.792414  0.750004  0.858673  1
  Er  Er8  1  0.707693  0.249965  0.358088  1
  Er  Er9  1  0.207693  0.250035  0.141912  1
  Lu  Lu10  1  0.064348  0.553032  0.816949  1
  Lu  Lu11  1  0.564348  0.946968  0.683051  1
  Lu  Lu12  1  0.935588  0.053276  0.182643  1
  Lu  Lu13  1  0.435588  0.446724  0.317357  1
  Lu  Lu14  1  0.935918  0.447453  0.183601  1
  Lu  Lu15  1  0.435918  0.052547  0.316399  1
  Lu  Lu16  1  0.001234  0.750431  0.461243  1
  Lu  Lu17  1  0.501234  0.749569  0.038757  1
  Lu  Lu18  1  0.998665  0.249888  0.538272  1
  Lu  Lu19  1  0.498665  0.250112  0.961728  1
  Si  Si20  1  0.476915  0.750518  0.411614  1
  Si  Si21  1  0.976915  0.749482  0.088386  1
  Si  Si22  1  0.522353  0.247678  0.586859  1
  Si  Si23  1  0.022353  0.252322  0.913141  1
  Sb  Sb24  1  0.327419  0.509858  0.931735  1
  Sb  Sb25  1  0.827419  0.990142  0.568265  1
  Sb  Sb26  1  0.672275  0.010221  0.068304  1
  Sb  Sb27  1  0.172275  0.489779  0.431696  1
  Sb  Sb28  1  0.672671  0.489775  0.068755  1
  Sb  Sb29  1  0.172671  0.010225  0.431245  1
  Sb  Sb30  1  0.327889  0.989914  0.932153  1
  Sb  Sb31  1  0.827889  0.510086  0.567847  1
