# generated using pymatgen
data_Hf3Sc5Ti7Si16Mo5
_symmetry_space_group_name_H-M   'P 1'
_cell_length_a   6.58898589
_cell_length_b   6.76297785
_cell_length_c   12.89615901
_cell_angle_alpha   89.98699994
_cell_angle_beta   89.81587916
_cell_angle_gamma   90.00003679
_symmetry_Int_Tables_number   1
_chemical_formula_structural   Hf3Sc5Ti7Si16Mo5
_chemical_formula_sum   'Hf3 Sc5 Ti7 Si16 Mo5'
_cell_volume   574.66489567
_cell_formula_units_Z   1
loop_
 _symmetry_equiv_pos_site_id
 _symmetry_equiv_pos_as_xyz
  1  'x, y, z'
loop_
 _atom_site_type_symbol
 _atom_site_label
 _atom_site_symmetry_multiplicity
 _atom_site_fract_x
 _atom_site_fract_y
 _atom_site_fract_z
 _atom_site_occupancy
  Hf  Hf0  1  0.996335  0.174325  0.405601  1
  Hf  Hf1  1  0.494854  0.327441  0.406590  1
  Hf  Hf2  1  0.502061  0.673246  0.594269  1
  Sc  Sc3  1  0.999576  0.176009  0.093499  1
  Sc  Sc4  1  0.000924  0.825980  0.906346  1
  Sc  Sc5  1  0.501795  0.673350  0.905672  1
  Sc  Sc6  1  0.002274  0.827109  0.593773  1
  Sc  Sc7  1  0.496780  0.328570  0.093866  1
  Ti  Ti8  1  0.337108  0.171164  0.624584  1
  Ti  Ti9  1  0.665353  0.830313  0.374171  1
  Ti  Ti10  1  0.165052  0.668885  0.374290  1
  Ti  Ti11  1  0.663686  0.829275  0.126211  1
  Ti  Ti12  1  0.834512  0.330126  0.625489  1
  Ti  Ti13  1  0.333521  0.169111  0.874615  1
  Ti  Ti14  1  0.833820  0.331145  0.874423  1
  Si  Si15  1  0.035758  0.115726  0.750111  1
  Si  Si16  1  0.966347  0.882288  0.248466  1
  Si  Si17  1  0.463111  0.616178  0.250692  1
  Si  Si18  1  0.535988  0.384017  0.750333  1
  Si  Si19  1  0.296128  0.861120  0.750741  1
  Si  Si20  1  0.703378  0.139173  0.248811  1
  Si  Si21  1  0.200638  0.361189  0.249629  1
  Si  Si22  1  0.798069  0.639862  0.750027  1
  Si  Si23  1  0.170922  0.461599  0.539525  1
  Si  Si24  1  0.827944  0.538591  0.460755  1
  Si  Si25  1  0.329959  0.961820  0.460026  1
  Si  Si26  1  0.834794  0.537193  0.041922  1
  Si  Si27  1  0.671370  0.037649  0.539309  1
  Si  Si28  1  0.169463  0.461175  0.959535  1
  Si  Si29  1  0.668673  0.036451  0.959662  1
  Si  Si30  1  0.330178  0.961449  0.041270  1
  Mo  Mo31  1  0.162944  0.493528  0.748483  1
  Mo  Mo32  1  0.835606  0.506308  0.252092  1
  Mo  Mo33  1  0.339634  0.995033  0.252278  1
  Mo  Mo34  1  0.661521  0.006737  0.748081  1
  Mo  Mo35  1  0.169917  0.666860  0.124854  1
