# generated using pymatgen
data_Gd3Dy5Re3B24Os
_symmetry_space_group_name_H-M   'P 1'
_cell_length_a   3.68150800
_cell_length_b   9.17612538
_cell_length_c   11.56448305
_cell_angle_alpha   90.06711252
_cell_angle_beta   90.00000000
_cell_angle_gamma   90.00000000
_symmetry_Int_Tables_number   1
_chemical_formula_structural   Gd3Dy5Re3B24Os
_chemical_formula_sum   'Gd3 Dy5 Re3 B24 Os1'
_cell_volume   390.67085558
_cell_formula_units_Z   1
loop_
 _symmetry_equiv_pos_site_id
 _symmetry_equiv_pos_as_xyz
  1  'x, y, z'
loop_
 _atom_site_type_symbol
 _atom_site_label
 _atom_site_symmetry_multiplicity
 _atom_site_fract_x
 _atom_site_fract_y
 _atom_site_fract_z
 _atom_site_occupancy
  Gd  Gd0  1  0.000000  0.321922  0.414411  1
  Gd  Gd1  1  0.000000  0.677101  0.587815  1
  Gd  Gd2  1  0.000000  0.824671  0.084477  1
  Dy  Dy3  1  0.000000  0.176469  0.913554  1
  Dy  Dy4  1  0.000000  0.942543  0.369571  1
  Dy  Dy5  1  0.000000  0.056780  0.629862  1
  Dy  Dy6  1  0.000000  0.442467  0.129993  1
  Dy  Dy7  1  0.000000  0.556974  0.870529  1
  Re  Re8  1  0.000000  0.361822  0.678652  1
  Re  Re9  1  0.000000  0.138752  0.179757  1
  Re  Re10  1  0.000000  0.861794  0.820666  1
  B  B11  1  0.500000  0.554003  0.432312  1
  B  B12  1  0.500000  0.446629  0.567444  1
  B  B13  1  0.500000  0.053636  0.066969  1
  B  B14  1  0.500000  0.947184  0.932451  1
  B  B15  1  0.500000  0.748213  0.417808  1
  B  B16  1  0.500000  0.250888  0.581878  1
  B  B17  1  0.500000  0.248911  0.081289  1
  B  B18  1  0.500000  0.751791  0.918218  1
  B  B19  1  0.500000  0.790440  0.265729  1
  B  B20  1  0.500000  0.208383  0.734521  1
  B  B21  1  0.500000  0.291345  0.234369  1
  B  B22  1  0.500000  0.708618  0.765939  1
  B  B23  1  0.500000  0.631045  0.186269  1
  B  B24  1  0.500000  0.369063  0.814119  1
  B  B25  1  0.500000  0.130980  0.314405  1
  B  B26  1  0.500000  0.869078  0.685930  1
  B  B27  1  0.500000  0.983295  0.211757  1
  B  B28  1  0.500000  0.017481  0.787757  1
  B  B29  1  0.500000  0.483965  0.288062  1
  B  B30  1  0.500000  0.517162  0.712325  1
  B  B31  1  0.500000  0.601011  0.028602  1
  B  B32  1  0.500000  0.398320  0.971897  1
  B  B33  1  0.500000  0.100101  0.471753  1
  B  B34  1  0.500000  0.898664  0.527980  1
  Os  Os35  1  0.000000  0.638500  0.320927  1
