# generated using pymatgen
data_Er6CdIn9
_symmetry_space_group_name_H-M   'P 1'
_cell_length_a   6.34157480
_cell_length_b   6.34157442
_cell_length_c   10.38651200
_cell_angle_alpha   90.00000000
_cell_angle_beta   90.00000000
_cell_angle_gamma   102.25020200
_symmetry_Int_Tables_number   1
_chemical_formula_structural   Er6CdIn9
_chemical_formula_sum   'Er6 Cd1 In9'
_cell_volume   408.18861756
_cell_formula_units_Z   1
loop_
 _symmetry_equiv_pos_site_id
 _symmetry_equiv_pos_as_xyz
  1  'x, y, z'
loop_
 _atom_site_type_symbol
 _atom_site_label
 _atom_site_symmetry_multiplicity
 _atom_site_fract_x
 _atom_site_fract_y
 _atom_site_fract_z
 _atom_site_occupancy
  Er  Er0  1  0.615725  0.615725  0.250000  1
  Er  Er1  1  0.384625  0.384625  0.750000  1
  Er  Er2  1  0.202116  0.793107  0.503640  1
  Er  Er3  1  0.202116  0.793107  0.996360  1
  Er  Er4  1  0.793107  0.202116  0.503640  1
  Er  Er5  1  0.793107  0.202116  0.996360  1
  Cd  Cd6  1  0.006622  0.006622  0.250000  1
  In  In7  1  0.996486  0.996486  0.750000  1
  In  In8  1  0.304036  0.304036  0.043875  1
  In  In9  1  0.692093  0.692093  0.956048  1
  In  In10  1  0.304036  0.304036  0.456125  1
  In  In11  1  0.692093  0.692093  0.543952  1
  In  In12  1  0.514682  0.071997  0.250000  1
  In  In13  1  0.932698  0.494462  0.750000  1
  In  In14  1  0.494462  0.932698  0.750000  1
  In  In15  1  0.071997  0.514682  0.250000  1
