# generated using pymatgen
data_CaTb2(B3Rh4)2
_symmetry_space_group_name_H-M   'P 1'
_cell_length_a   9.96465321
_cell_length_b   9.13662626
_cell_length_c   5.57119548
_cell_angle_alpha   81.40081909
_cell_angle_beta   65.03913699
_cell_angle_gamma   33.56004550
_symmetry_Int_Tables_number   1
_chemical_formula_structural   CaTb2(B3Rh4)2
_chemical_formula_sum   'Ca1 Tb2 B6 Rh8'
_cell_volume   232.61414851
_cell_formula_units_Z   1
loop_
 _symmetry_equiv_pos_site_id
 _symmetry_equiv_pos_as_xyz
  1  'x, y, z'
loop_
 _atom_site_type_symbol
 _atom_site_label
 _atom_site_symmetry_multiplicity
 _atom_site_fract_x
 _atom_site_fract_y
 _atom_site_fract_z
 _atom_site_occupancy
  Ca  Ca0  1  0.683343  0.683343  0.316657  1
  Tb  Tb1  1  0.318099  0.318099  0.681901  1
  Tb  Tb2  1  0.502237  0.502237  0.497763  1
  B  B3  1  0.669905  0.984603  0.015397  1
  B  B4  1  0.984603  0.669905  0.330095  1
  B  B5  1  0.328797  0.015625  0.984375  1
  B  B6  1  0.015625  0.328797  0.671203  1
  B  B7  1  0.167723  0.832004  0.167996  1
  B  B8  1  0.832004  0.167723  0.832277  1
  Rh  Rh9  1  0.585501  0.585501  0.914499  1
  Rh  Rh10  1  0.913499  0.913499  0.086501  1
  Rh  Rh11  1  0.414434  0.414434  0.085566  1
  Rh  Rh12  1  0.085501  0.085501  0.414499  1
  Rh  Rh13  1  0.914434  0.914434  0.585566  1
  Rh  Rh14  1  0.249361  0.249361  0.250639  1
  Rh  Rh15  1  0.085575  0.085575  0.914425  1
  Rh  Rh16  1  0.749361  0.749361  0.750639  1
