# generated using pymatgen
data_MgSc4Fe(SeO3)8
_symmetry_space_group_name_H-M   'P 1'
_cell_length_a   8.42505683
_cell_length_b   8.48601956
_cell_length_c   8.54277338
_cell_angle_alpha   86.94681091
_cell_angle_beta   89.83526646
_cell_angle_gamma   89.96474600
_symmetry_Int_Tables_number   1
_chemical_formula_structural   MgSc4Fe(SeO3)8
_chemical_formula_sum   'Mg1 Sc4 Fe1 Se8 O24'
_cell_volume   609.89770762
_cell_formula_units_Z   1
loop_
 _symmetry_equiv_pos_site_id
 _symmetry_equiv_pos_as_xyz
  1  'x, y, z'
loop_
 _atom_site_type_symbol
 _atom_site_label
 _atom_site_symmetry_multiplicity
 _atom_site_fract_x
 _atom_site_fract_y
 _atom_site_fract_z
 _atom_site_occupancy
  Mg  Mg0  1  0.401081  0.842283  0.157785  1
  Sc  Sc1  1  0.762933  0.748661  0.003043  1
  Sc  Sc2  1  0.735888  0.246107  0.508163  1
  Sc  Sc3  1  0.236045  0.248888  0.001631  1
  Sc  Sc4  1  0.264324  0.745566  0.508431  1
  Fe  Fe5  1  0.597656  0.341403  0.157933  1
  Se  Se6  1  0.102605  0.552607  0.199084  1
  Se  Se7  1  0.899136  0.050741  0.198624  1
  Se  Se8  1  0.566332  0.454731  0.823669  1
  Se  Se9  1  0.328080  0.153071  0.407794  1
  Se  Se10  1  0.054570  0.422912  0.678421  1
  Se  Se11  1  0.433224  0.953686  0.826205  1
  Se  Se12  1  0.671735  0.655793  0.407121  1
  Se  Se13  1  0.944774  0.923196  0.678813  1
  O  O14  1  0.961064  0.682177  0.125856  1
  O  O15  1  0.314044  0.007325  0.985550  1
  O  O16  1  0.159661  0.271356  0.776215  1
  O  O17  1  0.660176  0.456339  0.362030  1
  O  O18  1  0.758681  0.185689  0.265043  1
  O  O19  1  0.191588  0.489987  0.032858  1
  O  O20  1  0.207924  0.517650  0.576962  1
  O  O21  1  0.618952  0.747769  0.226474  1
  O  O22  1  0.701372  0.359260  0.716362  1
  O  O23  1  0.343598  0.956324  0.356659  1
  O  O24  1  0.969167  0.322460  0.529683  1
  O  O25  1  0.480543  0.299799  0.937862  1
  O  O26  1  0.839704  0.771507  0.776848  1
  O  O27  1  0.506372  0.679903  0.516144  1
  O  O28  1  0.298800  0.859791  0.717075  1
  O  O29  1  0.245408  0.686655  0.260966  1
  O  O30  1  0.377548  0.249524  0.226656  1
  O  O31  1  0.038965  0.181763  0.125047  1
  O  O32  1  0.031823  0.822882  0.529707  1
  O  O33  1  0.517114  0.799613  0.942363  1
  O  O34  1  0.686325  0.507615  0.982390  1
  O  O35  1  0.792015  0.017461  0.577564  1
  O  O36  1  0.492750  0.178792  0.515465  1
  O  O37  1  0.808025  0.990112  0.033309  1
