# generated using pymatgen
data_Tb2Yb2ErRu2
_symmetry_space_group_name_H-M   'P 1'
_cell_length_a   6.32911526
_cell_length_b   7.39031393
_cell_length_c   8.51437370
_cell_angle_alpha   96.58584919
_cell_angle_beta   111.81878530
_cell_angle_gamma   90.00000061
_symmetry_Int_Tables_number   1
_chemical_formula_structural   Tb2Yb2ErRu2
_chemical_formula_sum   'Tb4 Yb4 Er2 Ru4'
_cell_volume   366.89104987
_cell_formula_units_Z   2
loop_
 _symmetry_equiv_pos_site_id
 _symmetry_equiv_pos_as_xyz
  1  'x, y, z'
loop_
 _atom_site_type_symbol
 _atom_site_label
 _atom_site_symmetry_multiplicity
 _atom_site_fract_x
 _atom_site_fract_y
 _atom_site_fract_z
 _atom_site_occupancy
  Tb  Tb0  1  0.798059  0.583927  0.826617  1
  Tb  Tb1  1  0.971442  0.916073  0.173383  1
  Tb  Tb2  1  0.201941  0.416073  0.173383  1
  Tb  Tb3  1  0.028558  0.083927  0.826617  1
  Yb  Yb4  1  0.197419  0.683116  0.567522  1
  Yb  Yb5  1  0.629896  0.816884  0.432478  1
  Yb  Yb6  1  0.802581  0.316884  0.432478  1
  Yb  Yb7  1  0.370104  0.183116  0.567522  1
  Er  Er8  1  0.422794  0.750000  0.000000  1
  Er  Er9  1  0.577206  0.250000  0.000000  1
  Ru  Ru10  1  0.615836  0.922723  0.795359  1
  Ru  Ru11  1  0.820477  0.577277  0.204641  1
  Ru  Ru12  1  0.384164  0.077277  0.204641  1
  Ru  Ru13  1  0.179523  0.422723  0.795359  1
