# generated using pymatgen
data_Dy17Lu3Ir11Au
_symmetry_space_group_name_H-M   'P 1'
_cell_length_a   10.91770726
_cell_length_b   10.91770336
_cell_length_c   6.33984106
_cell_angle_alpha   89.98483875
_cell_angle_beta   90.00300643
_cell_angle_gamma   89.67003371
_symmetry_Int_Tables_number   1
_chemical_formula_structural   Dy17Lu3Ir11Au
_chemical_formula_sum   'Dy17 Lu3 Ir11 Au1'
_cell_volume   755.67296963
_cell_formula_units_Z   1
loop_
 _symmetry_equiv_pos_site_id
 _symmetry_equiv_pos_as_xyz
  1  'x, y, z'
loop_
 _atom_site_type_symbol
 _atom_site_label
 _atom_site_symmetry_multiplicity
 _atom_site_fract_x
 _atom_site_fract_y
 _atom_site_fract_z
 _atom_site_occupancy
  Dy  Dy0  1  0.289502  0.087849  0.378296  1
  Dy  Dy1  1  0.291399  0.911595  0.877115  1
  Dy  Dy2  1  0.705614  0.084547  0.867666  1
  Dy  Dy3  1  0.706981  0.905841  0.381066  1
  Dy  Dy4  1  0.587305  0.790201  0.879721  1
  Dy  Dy5  1  0.580489  0.210189  0.379938  1
  Dy  Dy6  1  0.411132  0.791379  0.378243  1
  Dy  Dy7  1  0.411009  0.209250  0.878806  1
  Dy  Dy8  1  0.209197  0.412322  0.620253  1
  Dy  Dy9  1  0.209286  0.588348  0.121784  1
  Dy  Dy10  1  0.789138  0.419756  0.120087  1
  Dy  Dy11  1  0.791265  0.589559  0.621251  1
  Dy  Dy12  1  0.912078  0.710514  0.121718  1
  Dy  Dy13  1  0.915438  0.294506  0.632152  1
  Dy  Dy14  1  0.088365  0.708588  0.622526  1
  Dy  Dy15  1  0.094159  0.292939  0.119139  1
  Dy  Dy16  1  0.500061  0.500788  0.500796  1
  Lu  Lu17  1  0.003933  0.995908  0.502474  1
  Lu  Lu18  1  0.004170  0.996058  0.997505  1
  Lu  Lu19  1  0.499284  0.499965  0.999231  1
  Ir  Ir20  1  0.849544  0.850425  0.749342  1
  Ir  Ir21  1  0.149257  0.150873  0.750132  1
  Ir  Ir22  1  0.151990  0.848443  0.250224  1
  Ir  Ir23  1  0.653760  0.345824  0.752260  1
  Ir  Ir24  1  0.652880  0.651800  0.247107  1
  Ir  Ir25  1  0.347891  0.347567  0.248654  1
  Ir  Ir26  1  0.347346  0.652943  0.752270  1
  Ir  Ir27  1  0.500764  0.000275  0.126036  1
  Ir  Ir28  1  0.499966  0.000457  0.623177  1
  Ir  Ir29  1  0.999524  0.500004  0.876950  1
  Ir  Ir30  1  0.999685  0.499226  0.373977  1
  Au  Au31  1  0.847589  0.152060  0.250104  1
