# generated using pymatgen
data_Tb8HoEr11Pb16
_symmetry_space_group_name_H-M   'P 1'
_cell_length_a   8.18650618
_cell_length_b   8.26618361
_cell_length_c   15.59302902
_cell_angle_alpha   90.00035532
_cell_angle_beta   90.00991961
_cell_angle_gamma   90.04669323
_symmetry_Int_Tables_number   1
_chemical_formula_structural   Tb8HoEr11Pb16
_chemical_formula_sum   'Tb8 Ho1 Er11 Pb16'
_cell_volume   1055.19804560
_cell_formula_units_Z   1
loop_
 _symmetry_equiv_pos_site_id
 _symmetry_equiv_pos_as_xyz
  1  'x, y, z'
loop_
 _atom_site_type_symbol
 _atom_site_label
 _atom_site_symmetry_multiplicity
 _atom_site_fract_x
 _atom_site_fract_y
 _atom_site_fract_z
 _atom_site_occupancy
  Tb  Tb0  1  0.534428  0.322777  0.900178  1
  Tb  Tb1  1  0.034565  0.176977  0.599728  1
  Tb  Tb2  1  0.465519  0.677031  0.400117  1
  Tb  Tb3  1  0.965419  0.823272  0.100218  1
  Tb  Tb4  1  0.465707  0.676861  0.099922  1
  Tb  Tb5  1  0.965449  0.823029  0.400095  1
  Tb  Tb6  1  0.534375  0.322897  0.599812  1
  Tb  Tb7  1  0.034543  0.176811  0.900049  1
  Ho  Ho8  1  0.876662  0.659393  0.879406  1
  Er  Er9  1  0.376327  0.840838  0.878969  1
  Er  Er10  1  0.876362  0.658996  0.620890  1
  Er  Er11  1  0.623676  0.158980  0.379049  1
  Er  Er12  1  0.123532  0.341073  0.120868  1
  Er  Er13  1  0.623368  0.158948  0.121278  1
  Er  Er14  1  0.123595  0.340884  0.379031  1
  Er  Er15  1  0.376534  0.841007  0.620791  1
  Er  Er16  1  0.208178  0.504506  0.749869  1
  Er  Er17  1  0.707940  0.995518  0.749806  1
  Er  Er18  1  0.791918  0.495267  0.250121  1
  Er  Er19  1  0.291876  0.004564  0.249956  1
  Pb  Pb20  1  0.282475  0.034195  0.042694  1
  Pb  Pb21  1  0.782602  0.465791  0.457285  1
  Pb  Pb22  1  0.717430  0.965801  0.542640  1
  Pb  Pb23  1  0.218701  0.533764  0.957398  1
  Pb  Pb24  1  0.716758  0.966958  0.957402  1
  Pb  Pb25  1  0.217334  0.534236  0.542654  1
  Pb  Pb26  1  0.282520  0.034243  0.457254  1
  Pb  Pb27  1  0.782311  0.465253  0.043328  1
  Pb  Pb28  1  0.571050  0.627493  0.749710  1
  Pb  Pb29  1  0.071782  0.873074  0.749604  1
  Pb  Pb30  1  0.428514  0.372538  0.250064  1
  Pb  Pb31  1  0.928711  0.127487  0.250014  1
  Pb  Pb32  1  0.345512  0.152141  0.749962  1
  Pb  Pb33  1  0.845481  0.347397  0.749778  1
  Pb  Pb34  1  0.654411  0.847735  0.250029  1
  Pb  Pb35  1  0.154435  0.652266  0.250034  1
