# generated using pymatgen
data_Ho12IrPdPt2
_symmetry_space_group_name_H-M   'P 1'
_cell_length_a   6.43618385
_cell_length_b   7.04050365
_cell_length_c   9.50862000
_cell_angle_alpha   90.00000000
_cell_angle_beta   90.00000000
_cell_angle_gamma   90.08850404
_symmetry_Int_Tables_number   1
_chemical_formula_structural   Ho12IrPdPt2
_chemical_formula_sum   'Ho12 Ir1 Pd1 Pt2'
_cell_volume   430.87286331
_cell_formula_units_Z   1
loop_
 _symmetry_equiv_pos_site_id
 _symmetry_equiv_pos_as_xyz
  1  'x, y, z'
loop_
 _atom_site_type_symbol
 _atom_site_label
 _atom_site_symmetry_multiplicity
 _atom_site_fract_x
 _atom_site_fract_y
 _atom_site_fract_z
 _atom_site_occupancy
  Ho  Ho0  1  0.321081  0.684683  0.061904  1
  Ho  Ho1  1  0.173904  0.178333  0.437972  1
  Ho  Ho2  1  0.676373  0.318292  0.560876  1
  Ho  Ho3  1  0.824324  0.817429  0.941717  1
  Ho  Ho4  1  0.676373  0.318292  0.939124  1
  Ho  Ho5  1  0.824324  0.817429  0.558283  1
  Ho  Ho6  1  0.321081  0.684683  0.438096  1
  Ho  Ho7  1  0.173904  0.178333  0.062028  1
  Ho  Ho8  1  0.872338  0.534462  0.250000  1
  Ho  Ho9  1  0.635763  0.025688  0.250000  1
  Ho  Ho10  1  0.131636  0.471883  0.750000  1
  Ho  Ho11  1  0.368893  0.972150  0.750000  1
  Ir  Ir12  1  0.050650  0.887619  0.250000  1
  Pd  Pd13  1  0.449785  0.389606  0.250000  1
  Pt  Pt14  1  0.946967  0.110085  0.750000  1
  Pt  Pt15  1  0.552606  0.611031  0.750000  1
