# generated using pymatgen
data_ThZr8(CoHg2)7
_symmetry_space_group_name_H-M   'P 1'
_cell_length_a   9.47606697
_cell_length_b   9.47606734
_cell_length_c   9.47606800
_cell_angle_alpha   60.00000468
_cell_angle_beta   60.00000337
_cell_angle_gamma   60.00000356
_symmetry_Int_Tables_number   1
_chemical_formula_structural   ThZr8(CoHg2)7
_chemical_formula_sum   'Th1 Zr8 Co7 Hg14'
_cell_volume   601.68539299
_cell_formula_units_Z   1
loop_
 _symmetry_equiv_pos_site_id
 _symmetry_equiv_pos_as_xyz
  1  'x, y, z'
loop_
 _atom_site_type_symbol
 _atom_site_label
 _atom_site_symmetry_multiplicity
 _atom_site_fract_x
 _atom_site_fract_y
 _atom_site_fract_z
 _atom_site_occupancy
  Th  Th0  1  0.500000  0.500000  0.500000  1
  Zr  Zr1  1  0.120428  0.638716  0.120428  1
  Zr  Zr2  1  0.361284  0.879572  0.879572  1
  Zr  Zr3  1  0.879572  0.879572  0.879572  1
  Zr  Zr4  1  0.638716  0.120428  0.120428  1
  Zr  Zr5  1  0.879572  0.879572  0.361284  1
  Zr  Zr6  1  0.120428  0.120428  0.120428  1
  Zr  Zr7  1  0.879572  0.361284  0.879572  1
  Zr  Zr8  1  0.120428  0.120428  0.638716  1
  Co  Co9  1  0.789496  0.789496  0.210504  1
  Co  Co10  1  0.000000  0.000000  0.000000  1
  Co  Co11  1  0.210504  0.789496  0.210504  1
  Co  Co12  1  0.210504  0.789496  0.789496  1
  Co  Co13  1  0.210504  0.210504  0.789496  1
  Co  Co14  1  0.789496  0.210504  0.789496  1
  Co  Co15  1  0.789496  0.210504  0.210504  1
  Hg  Hg16  1  0.500000  0.845385  0.154615  1
  Hg  Hg17  1  0.500000  0.845385  0.500000  1
  Hg  Hg18  1  0.500000  0.154615  0.500000  1
  Hg  Hg19  1  0.500000  0.500000  0.845385  1
  Hg  Hg20  1  0.154615  0.500000  0.500000  1
  Hg  Hg21  1  0.845385  0.154615  0.500000  1
  Hg  Hg22  1  0.154615  0.845385  0.500000  1
  Hg  Hg23  1  0.500000  0.154615  0.845385  1
  Hg  Hg24  1  0.154615  0.500000  0.845385  1
  Hg  Hg25  1  0.500000  0.500000  0.154615  1
  Hg  Hg26  1  0.845385  0.500000  0.500000  1
  Hg  Hg27  1  0.845385  0.500000  0.154615  1
  Hg  Hg28  1  0.250000  0.250000  0.250000  1
  Hg  Hg29  1  0.750000  0.750000  0.750000  1
