# generated using pymatgen
data_Y2Al16MoPt8
_symmetry_space_group_name_H-M   'P 1'
_cell_length_a   11.23832406
_cell_length_b   11.23832443
_cell_length_c   11.23832517
_cell_angle_alpha   158.83131353
_cell_angle_beta   117.08306556
_cell_angle_gamma   67.18213141
_symmetry_Int_Tables_number   1
_chemical_formula_structural   Y2Al16MoPt8
_chemical_formula_sum   'Y2 Al16 Mo1 Pt8'
_cell_volume   453.37016857
_cell_formula_units_Z   1
loop_
 _symmetry_equiv_pos_site_id
 _symmetry_equiv_pos_as_xyz
  1  'x, y, z'
loop_
 _atom_site_type_symbol
 _atom_site_label
 _atom_site_symmetry_multiplicity
 _atom_site_fract_x
 _atom_site_fract_y
 _atom_site_fract_z
 _atom_site_occupancy
  Y  Y0  1  0.232095  0.232769  0.999326  1
  Y  Y1  1  0.766557  0.767231  0.999326  1
  Al  Al2  1  0.273738  0.392109  0.881629  1
  Al  Al3  1  0.088781  0.924895  0.163885  1
  Al  Al4  1  0.503766  0.200758  0.303009  1
  Al  Al5  1  0.238991  0.075105  0.163885  1
  Al  Al6  1  0.908436  0.415800  0.492636  1
  Al  Al7  1  0.725602  0.599623  0.125979  1
  Al  Al8  1  0.903569  0.210668  0.692901  1
  Al  Al9  1  0.482235  0.789332  0.692901  1
  Al  Al10  1  0.390204  0.000000  0.390204  1
  Al  Al11  1  0.627392  0.000000  0.627392  1
  Al  Al12  1  0.489520  0.607891  0.881629  1
  Al  Al13  1  0.102251  0.799242  0.303009  1
  Al  Al14  1  0.912786  0.089636  0.823151  1
  Al  Al15  1  0.733514  0.910364  0.823151  1
  Al  Al16  1  0.526355  0.400377  0.125979  1
  Al  Al17  1  0.076836  0.584200  0.492636  1
  Mo  Mo18  1  0.787528  0.500000  0.287528  1
  Pt  Pt19  1  0.022191  0.343576  0.678614  1
  Pt  Pt20  1  0.630303  0.127921  0.502381  1
  Pt  Pt21  1  0.256598  0.500000  0.756598  1
  Pt  Pt22  1  0.374460  0.872079  0.502381  1
  Pt  Pt23  1  0.982989  0.000000  0.982989  1
  Pt  Pt24  1  0.647549  0.333415  0.314134  1
  Pt  Pt25  1  0.335038  0.656424  0.678614  1
  Pt  Pt26  1  0.980718  0.666585  0.314134  1
