# generated using pymatgen
data_Tb4Nd2Ga17Pd5
_symmetry_space_group_name_H-M   'P 1'
_cell_length_a   8.22374271
_cell_length_b   8.22374326
_cell_length_c   15.88529116
_cell_angle_alpha   76.17947651
_cell_angle_beta   76.17947471
_cell_angle_gamma   30.38120480
_symmetry_Int_Tables_number   1
_chemical_formula_structural   Tb4Nd2Ga17Pd5
_chemical_formula_sum   'Tb4 Nd2 Ga17 Pd5'
_cell_volume   526.43031670
_cell_formula_units_Z   1
loop_
 _symmetry_equiv_pos_site_id
 _symmetry_equiv_pos_as_xyz
  1  'x, y, z'
loop_
 _atom_site_type_symbol
 _atom_site_label
 _atom_site_symmetry_multiplicity
 _atom_site_fract_x
 _atom_site_fract_y
 _atom_site_fract_z
 _atom_site_occupancy
  Tb  Tb0  1  0.599960  0.599960  0.596789  1
  Tb  Tb1  1  0.090846  0.090846  0.093342  1
  Tb  Tb2  1  0.909154  0.909154  0.906658  1
  Tb  Tb3  1  0.400040  0.400040  0.403211  1
  Nd  Nd4  1  0.753526  0.753526  0.750467  1
  Nd  Nd5  1  0.246474  0.246474  0.249533  1
  Ga  Ga6  1  0.821863  0.821863  0.539623  1
  Ga  Ga7  1  0.327678  0.327678  0.042983  1
  Ga  Ga8  1  0.672322  0.672322  0.957017  1
  Ga  Ga9  1  0.178137  0.178137  0.460377  1
  Ga  Ga10  1  0.545572  0.545572  0.827129  1
  Ga  Ga11  1  0.037932  0.037932  0.323042  1
  Ga  Ga12  1  0.962068  0.962068  0.676958  1
  Ga  Ga13  1  0.454428  0.454428  0.172871  1
  Ga  Ga14  1  0.269310  0.269310  0.898701  1
  Ga  Ga15  1  0.761007  0.761007  0.396142  1
  Ga  Ga16  1  0.238993  0.238993  0.603858  1
  Ga  Ga17  1  0.730690  0.730690  0.101299  1
  Ga  Ga18  1  0.401513  0.401513  0.764922  1
  Ga  Ga19  1  0.893271  0.893271  0.266662  1
  Ga  Ga20  1  0.106729  0.106729  0.733338  1
  Ga  Ga21  1  0.598487  0.598487  0.235078  1
  Ga  Ga22  1  0.000000  0.000000  0.500000  1
  Pd  Pd23  1  0.106485  0.106485  0.895469  1
  Pd  Pd24  1  0.594276  0.594276  0.403445  1
  Pd  Pd25  1  0.405724  0.405724  0.596555  1
  Pd  Pd26  1  0.893515  0.893515  0.104531  1
  Pd  Pd27  1  0.500000  0.500000  0.000000  1
