# generated using pymatgen
data_Rb3As7Se12
_symmetry_space_group_name_H-M   'P 1'
_cell_length_a   9.90451000
_cell_length_b   9.90451163
_cell_length_c   8.35351300
_cell_angle_alpha   90.00000000
_cell_angle_beta   90.00000000
_cell_angle_gamma   120.00000213
_symmetry_Int_Tables_number   1
_chemical_formula_structural   Rb3As7Se12
_chemical_formula_sum   'Rb3 As7 Se12'
_cell_volume   709.68534362
_cell_formula_units_Z   1
loop_
 _symmetry_equiv_pos_site_id
 _symmetry_equiv_pos_as_xyz
  1  'x, y, z'
loop_
 _atom_site_type_symbol
 _atom_site_label
 _atom_site_symmetry_multiplicity
 _atom_site_fract_x
 _atom_site_fract_y
 _atom_site_fract_z
 _atom_site_occupancy
  Rb  Rb0  1  0.000000  0.000000  0.000000  1
  Rb  Rb1  1  0.333333  0.666667  0.863658  1
  Rb  Rb2  1  0.666667  0.333333  0.136342  1
  As  As3  1  0.000000  0.000000  0.500000  1
  As  As4  1  0.277957  0.831318  0.397602  1
  As  As5  1  0.168682  0.446641  0.397602  1
  As  As6  1  0.553359  0.722043  0.397602  1
  As  As7  1  0.722043  0.168682  0.602398  1
  As  As8  1  0.831318  0.553359  0.602398  1
  As  As9  1  0.446641  0.277957  0.602398  1
  Se  Se10  1  0.247110  0.043430  0.310082  1
  Se  Se11  1  0.956570  0.203681  0.310082  1
  Se  Se12  1  0.796319  0.752890  0.310082  1
  Se  Se13  1  0.752890  0.956570  0.689918  1
  Se  Se14  1  0.043430  0.796319  0.689918  1
  Se  Se15  1  0.203681  0.247110  0.689918  1
  Se  Se16  1  0.520175  0.912937  0.236231  1
  Se  Se17  1  0.087063  0.607236  0.236231  1
  Se  Se18  1  0.392764  0.479825  0.236231  1
  Se  Se19  1  0.479825  0.087063  0.763769  1
  Se  Se20  1  0.912937  0.392764  0.763769  1
  Se  Se21  1  0.607236  0.520175  0.763769  1
