# generated using pymatgen
data_Yb20(CdAg3)3
_symmetry_space_group_name_H-M   'P 1'
_cell_length_a   8.04664800
_cell_length_b   8.04664800
_cell_length_c   14.59908200
_cell_angle_alpha   90.00000000
_cell_angle_beta   90.00000000
_cell_angle_gamma   90.00000000
_symmetry_Int_Tables_number   1
_chemical_formula_structural   Yb20(CdAg3)3
_chemical_formula_sum   'Yb20 Cd3 Ag9'
_cell_volume   945.26930376
_cell_formula_units_Z   1
loop_
 _symmetry_equiv_pos_site_id
 _symmetry_equiv_pos_as_xyz
  1  'x, y, z'
loop_
 _atom_site_type_symbol
 _atom_site_label
 _atom_site_symmetry_multiplicity
 _atom_site_fract_x
 _atom_site_fract_y
 _atom_site_fract_z
 _atom_site_occupancy
  Yb  Yb0  1  0.000000  0.000000  0.754513  1
  Yb  Yb1  1  0.500000  0.500000  0.250179  1
  Yb  Yb2  1  0.000000  0.000000  0.245487  1
  Yb  Yb3  1  0.500000  0.500000  0.749821  1
  Yb  Yb4  1  0.170738  0.660964  0.106550  1
  Yb  Yb5  1  0.666012  0.165481  0.609808  1
  Yb  Yb6  1  0.829262  0.339036  0.106550  1
  Yb  Yb7  1  0.333988  0.834519  0.609808  1
  Yb  Yb8  1  0.339036  0.170738  0.106550  1
  Yb  Yb9  1  0.834519  0.666012  0.609808  1
  Yb  Yb10  1  0.660964  0.829262  0.106550  1
  Yb  Yb11  1  0.165481  0.333988  0.609808  1
  Yb  Yb12  1  0.339036  0.829262  0.893450  1
  Yb  Yb13  1  0.834519  0.333988  0.390192  1
  Yb  Yb14  1  0.660964  0.170738  0.893450  1
  Yb  Yb15  1  0.165481  0.666012  0.390192  1
  Yb  Yb16  1  0.170738  0.339036  0.893450  1
  Yb  Yb17  1  0.666012  0.834519  0.390192  1
  Yb  Yb18  1  0.829262  0.660964  0.893450  1
  Yb  Yb19  1  0.333988  0.165481  0.390192  1
  Cd  Cd20  1  0.000000  0.000000  0.500000  1
  Cd  Cd21  1  0.000000  0.000000  0.000000  1
  Cd  Cd22  1  0.500000  0.500000  0.500000  1
  Ag  Ag23  1  0.629378  0.128376  0.248539  1
  Ag  Ag24  1  0.128376  0.629378  0.751461  1
  Ag  Ag25  1  0.871624  0.370622  0.751461  1
  Ag  Ag26  1  0.370622  0.871624  0.248539  1
  Ag  Ag27  1  0.370622  0.128376  0.751461  1
  Ag  Ag28  1  0.871624  0.629378  0.248539  1
  Ag  Ag29  1  0.128376  0.370622  0.248539  1
  Ag  Ag30  1  0.629378  0.871624  0.751461  1
  Ag  Ag31  1  0.500000  0.500000  0.000000  1
