# generated using pymatgen
data_CeHo(SnRu)2
_symmetry_space_group_name_H-M   'P 1'
_cell_length_a   6.24161525
_cell_length_b   6.24161468
_cell_length_c   10.07160211
_cell_angle_alpha   78.65466571
_cell_angle_beta   78.65467539
_cell_angle_gamma   45.19025632
_symmetry_Int_Tables_number   1
_chemical_formula_structural   CeHo(SnRu)2
_chemical_formula_sum   'Ce2 Ho2 Sn4 Ru4'
_cell_volume   271.97259630
_cell_formula_units_Z   2
loop_
 _symmetry_equiv_pos_site_id
 _symmetry_equiv_pos_as_xyz
  1  'x, y, z'
loop_
 _atom_site_type_symbol
 _atom_site_label
 _atom_site_symmetry_multiplicity
 _atom_site_fract_x
 _atom_site_fract_y
 _atom_site_fract_z
 _atom_site_occupancy
  Ce  Ce0  1  0.859719  0.859719  0.911983  1
  Ce  Ce1  1  0.140281  0.140281  0.088017  1
  Ho  Ho2  1  0.120907  0.120907  0.593909  1
  Ho  Ho3  1  0.879093  0.879093  0.406091  1
  Sn  Sn4  1  0.427807  0.427807  0.160370  1
  Sn  Sn5  1  0.402447  0.402447  0.640070  1
  Sn  Sn6  1  0.572193  0.572193  0.839630  1
  Sn  Sn7  1  0.597553  0.597553  0.359930  1
  Ru  Ru8  1  0.818499  0.818499  0.150215  1
  Ru  Ru9  1  0.198168  0.198168  0.308376  1
  Ru  Ru10  1  0.181501  0.181501  0.849785  1
  Ru  Ru11  1  0.801832  0.801832  0.691624  1
