# generated using pymatgen
data_Rb4Li2DyInAs4
_symmetry_space_group_name_H-M   'P 1'
_cell_length_a   10.57998852
_cell_length_b   10.57998978
_cell_length_c   6.70960600
_cell_angle_alpha   90.00000000
_cell_angle_beta   90.00000000
_cell_angle_gamma   101.99107555
_symmetry_Int_Tables_number   1
_chemical_formula_structural   Rb4Li2DyInAs4
_chemical_formula_sum   'Rb8 Li4 Dy2 In2 As8'
_cell_volume   734.65972199
_cell_formula_units_Z   2
loop_
 _symmetry_equiv_pos_site_id
 _symmetry_equiv_pos_as_xyz
  1  'x, y, z'
loop_
 _atom_site_type_symbol
 _atom_site_label
 _atom_site_symmetry_multiplicity
 _atom_site_fract_x
 _atom_site_fract_y
 _atom_site_fract_z
 _atom_site_occupancy
  Rb  Rb0  1  0.574110  0.925890  0.750000  1
  Rb  Rb1  1  0.925890  0.574110  0.250000  1
  Rb  Rb2  1  0.431467  0.068533  0.250000  1
  Rb  Rb3  1  0.068533  0.431467  0.750000  1
  Rb  Rb4  1  0.678953  0.327247  0.785408  1
  Rb  Rb5  1  0.821047  0.172753  0.285408  1
  Rb  Rb6  1  0.327247  0.678953  0.214592  1
  Rb  Rb7  1  0.172753  0.821047  0.714592  1
  Li  Li8  1  0.622723  0.622723  0.000000  1
  Li  Li9  1  0.877277  0.877277  0.500000  1
  Li  Li10  1  0.382824  0.382824  0.000000  1
  Li  Li11  1  0.117176  0.117176  0.500000  1
  Dy  Dy12  1  0.126929  0.126929  0.000000  1
  Dy  Dy13  1  0.373071  0.373071  0.500000  1
  In  In14  1  0.868317  0.868317  0.000000  1
  In  In15  1  0.631683  0.631683  0.500000  1
  As  As16  1  0.343933  0.156067  0.750000  1
  As  As17  1  0.156067  0.343933  0.250000  1
  As  As18  1  0.656289  0.843711  0.250000  1
  As  As19  1  0.843711  0.656289  0.750000  1
  As  As20  1  0.902578  0.088818  0.765382  1
  As  As21  1  0.597422  0.411182  0.265382  1
  As  As22  1  0.088818  0.902578  0.234618  1
  As  As23  1  0.411182  0.597422  0.734618  1
