# generated using pymatgen
data_ErPa(Al3Ir)3
_symmetry_space_group_name_H-M   'P 1'
_cell_length_a   7.59219406
_cell_length_b   7.60161407
_cell_length_c   9.35458700
_cell_angle_alpha   90.00000000
_cell_angle_beta   90.00000000
_cell_angle_gamma   119.71036797
_symmetry_Int_Tables_number   1
_chemical_formula_structural   ErPa(Al3Ir)3
_chemical_formula_sum   'Er2 Pa2 Al18 Ir6'
_cell_volume   468.90890682
_cell_formula_units_Z   2
loop_
 _symmetry_equiv_pos_site_id
 _symmetry_equiv_pos_as_xyz
  1  'x, y, z'
loop_
 _atom_site_type_symbol
 _atom_site_label
 _atom_site_symmetry_multiplicity
 _atom_site_fract_x
 _atom_site_fract_y
 _atom_site_fract_z
 _atom_site_occupancy
  Er  Er0  1  0.669613  0.993271  0.250000  1
  Er  Er1  1  0.330387  0.006729  0.750000  1
  Pa  Pa2  1  0.998002  0.670916  0.250000  1
  Pa  Pa3  1  0.001998  0.329084  0.750000  1
  Al  Al4  1  0.130593  0.126922  0.250000  1
  Al  Al5  1  0.869407  0.873078  0.750000  1
  Al  Al6  1  0.000116  0.330882  0.078567  1
  Al  Al7  1  0.999884  0.669118  0.921433  1
  Al  Al8  1  0.999884  0.669118  0.578567  1
  Al  Al9  1  0.338610  0.003218  0.425510  1
  Al  Al10  1  0.000116  0.330882  0.421433  1
  Al  Al11  1  0.661390  0.996782  0.574490  1
  Al  Al12  1  0.661390  0.996782  0.925510  1
  Al  Al13  1  0.338610  0.003218  0.074490  1
  Al  Al14  1  0.335154  0.332971  0.554273  1
  Al  Al15  1  0.664846  0.667029  0.445727  1
  Al  Al16  1  0.664846  0.667029  0.054273  1
  Al  Al17  1  0.335154  0.332971  0.945727  1
  Al  Al18  1  0.341601  0.548313  0.250000  1
  Al  Al19  1  0.658399  0.451687  0.750000  1
  Al  Al20  1  0.548624  0.340102  0.250000  1
  Al  Al21  1  0.451376  0.659898  0.750000  1
  Ir  Ir22  1  0.676069  0.329623  0.999613  1
  Ir  Ir23  1  0.323931  0.670377  0.000387  1
  Ir  Ir24  1  0.323931  0.670377  0.499613  1
  Ir  Ir25  1  0.676069  0.329623  0.500387  1
  Ir  Ir26  1  0.000000  0.000000  0.000000  1
  Ir  Ir27  1  0.000000  0.000000  0.500000  1
