# generated using pymatgen
data_Li4Dy3PuSi8
_symmetry_space_group_name_H-M   'P 1'
_cell_length_a   3.83739600
_cell_length_b   7.66960464
_cell_length_c   10.29967600
_cell_angle_alpha   89.73563302
_cell_angle_beta   90.00000000
_cell_angle_gamma   90.00000000
_symmetry_Int_Tables_number   1
_chemical_formula_structural   Li4Dy3PuSi8
_chemical_formula_sum   'Li4 Dy3 Pu1 Si8'
_cell_volume   303.12973224
_cell_formula_units_Z   1
loop_
 _symmetry_equiv_pos_site_id
 _symmetry_equiv_pos_as_xyz
  1  'x, y, z'
loop_
 _atom_site_type_symbol
 _atom_site_label
 _atom_site_symmetry_multiplicity
 _atom_site_fract_x
 _atom_site_fract_y
 _atom_site_fract_z
 _atom_site_occupancy
  Li  Li0  1  0.250000  0.990101  0.393372  1
  Li  Li1  1  0.750000  0.011554  0.607455  1
  Li  Li2  1  0.250000  0.489259  0.106956  1
  Li  Li3  1  0.750000  0.508594  0.892929  1
  Dy  Dy4  1  0.250000  0.135528  0.863963  1
  Dy  Dy5  1  0.750000  0.865312  0.135794  1
  Dy  Dy6  1  0.250000  0.637163  0.635729  1
  Pu  Pu7  1  0.750000  0.361282  0.362520  1
  Si  Si8  1  0.750000  0.261424  0.067356  1
  Si  Si9  1  0.250000  0.735086  0.932569  1
  Si  Si10  1  0.750000  0.767174  0.431125  1
  Si  Si11  1  0.250000  0.239786  0.567127  1
  Si  Si12  1  0.750000  0.841735  0.818930  1
  Si  Si13  1  0.250000  0.158333  0.181701  1
  Si  Si14  1  0.750000  0.342166  0.681037  1
  Si  Si15  1  0.250000  0.655506  0.321435  1
