# generated using pymatgen
data_Ce2Dy2Ga12Tc
_symmetry_space_group_name_H-M   'P 1'
_cell_length_a   7.53300489
_cell_length_b   7.61995163
_cell_length_c   7.53300400
_cell_angle_alpha   109.40372480
_cell_angle_beta   109.14049155
_cell_angle_gamma   109.40373632
_symmetry_Int_Tables_number   1
_chemical_formula_structural   Ce2Dy2Ga12Tc
_chemical_formula_sum   'Ce2 Dy2 Ga12 Tc1'
_cell_volume   334.76164750
_cell_formula_units_Z   1
loop_
 _symmetry_equiv_pos_site_id
 _symmetry_equiv_pos_as_xyz
  1  'x, y, z'
loop_
 _atom_site_type_symbol
 _atom_site_label
 _atom_site_symmetry_multiplicity
 _atom_site_fract_x
 _atom_site_fract_y
 _atom_site_fract_z
 _atom_site_occupancy
  Ce  Ce0  1  0.000000  0.000000  0.500000  1
  Ce  Ce1  1  0.500000  0.000000  0.000000  1
  Dy  Dy2  1  0.000000  0.500000  0.000000  1
  Dy  Dy3  1  0.500000  0.500000  0.500000  1
  Ga  Ga4  1  0.750013  0.251878  0.501865  1
  Ga  Ga5  1  0.750000  0.500000  0.250000  1
  Ga  Ga6  1  0.501865  0.251878  0.750013  1
  Ga  Ga7  1  0.250000  0.500000  0.750000  1
  Ga  Ga8  1  0.249987  0.748122  0.498135  1
  Ga  Ga9  1  0.498135  0.748122  0.249987  1
  Ga  Ga10  1  0.709581  0.709770  0.000188  1
  Ga  Ga11  1  0.290934  0.000000  0.290934  1
  Ga  Ga12  1  0.999812  0.290230  0.290419  1
  Ga  Ga13  1  0.290419  0.290230  0.999812  1
  Ga  Ga14  1  0.709066  0.000000  0.709066  1
  Ga  Ga15  1  0.000188  0.709770  0.709581  1
  Tc  Tc16  1  0.000000  0.000000  0.000000  1
