# generated using pymatgen
data_Tb5Dy15(Bi2P)4
_symmetry_space_group_name_H-M   'P 1'
_cell_length_a   7.99973810
_cell_length_b   8.98468801
_cell_length_c   12.19808216
_cell_angle_alpha   90.00504666
_cell_angle_beta   90.01813549
_cell_angle_gamma   89.99969694
_symmetry_Int_Tables_number   1
_chemical_formula_structural   Tb5Dy15(Bi2P)4
_chemical_formula_sum   'Tb5 Dy15 Bi8 P4'
_cell_volume   876.73894994
_cell_formula_units_Z   1
loop_
 _symmetry_equiv_pos_site_id
 _symmetry_equiv_pos_as_xyz
  1  'x, y, z'
loop_
 _atom_site_type_symbol
 _atom_site_label
 _atom_site_symmetry_multiplicity
 _atom_site_fract_x
 _atom_site_fract_y
 _atom_site_fract_z
 _atom_site_occupancy
  Tb  Tb0  1  0.315883  0.547976  0.435830  1
  Tb  Tb1  1  0.815026  0.047483  0.064444  1
  Tb  Tb2  1  0.684087  0.452107  0.564192  1
  Tb  Tb3  1  0.815693  0.452448  0.064261  1
  Tb  Tb4  1  0.184532  0.547848  0.935770  1
  Dy  Dy5  1  0.852265  0.750309  0.794659  1
  Dy  Dy6  1  0.147642  0.249876  0.205240  1
  Dy  Dy7  1  0.352259  0.249785  0.705220  1
  Dy  Dy8  1  0.647547  0.750233  0.294898  1
  Dy  Dy9  1  0.377676  0.750174  0.699667  1
  Dy  Dy10  1  0.622189  0.250043  0.300543  1
  Dy  Dy11  1  0.877761  0.249908  0.800157  1
  Dy  Dy12  1  0.122319  0.750208  0.199850  1
  Dy  Dy13  1  0.958496  0.750096  0.502162  1
  Dy  Dy14  1  0.041625  0.249987  0.497888  1
  Dy  Dy15  1  0.458231  0.249811  0.997710  1
  Dy  Dy16  1  0.541413  0.750172  0.002135  1
  Dy  Dy17  1  0.684111  0.048263  0.564322  1
  Dy  Dy18  1  0.315796  0.951710  0.435681  1
  Dy  Dy19  1  0.183971  0.951775  0.935661  1
  Bi  Bi20  1  0.578801  0.490789  0.826714  1
  Bi  Bi21  1  0.421159  0.509307  0.173275  1
  Bi  Bi22  1  0.078741  0.509360  0.673200  1
  Bi  Bi23  1  0.420930  0.990777  0.173436  1
  Bi  Bi24  1  0.921266  0.490734  0.326772  1
  Bi  Bi25  1  0.578766  0.009323  0.826516  1
  Bi  Bi26  1  0.921365  0.009338  0.327064  1
  Bi  Bi27  1  0.078751  0.990707  0.673159  1
  P  P28  1  0.571414  0.752129  0.511829  1
  P  P29  1  0.428582  0.247876  0.488323  1
  P  P30  1  0.072066  0.248662  0.988040  1
  P  P31  1  0.929636  0.750787  0.011382  1
