# generated using pymatgen
data_Y2Al20IrOs3
_symmetry_space_group_name_H-M   'P 1'
_cell_length_a   6.86119364
_cell_length_b   6.86107429
_cell_length_c   9.14994280
_cell_angle_alpha   90.18575450
_cell_angle_beta   90.08797493
_cell_angle_gamma   96.46042599
_symmetry_Int_Tables_number   1
_chemical_formula_structural   Y2Al20IrOs3
_chemical_formula_sum   'Y2 Al20 Ir1 Os3'
_cell_volume   427.99673295
_cell_formula_units_Z   1
loop_
 _symmetry_equiv_pos_site_id
 _symmetry_equiv_pos_as_xyz
  1  'x, y, z'
loop_
 _atom_site_type_symbol
 _atom_site_label
 _atom_site_symmetry_multiplicity
 _atom_site_fract_x
 _atom_site_fract_y
 _atom_site_fract_z
 _atom_site_occupancy
  Y  Y0  1  0.631705  0.371191  0.749719  1
  Y  Y1  1  0.368295  0.628809  0.250281  1
  Al  Al2  1  0.280370  0.017732  0.747795  1
  Al  Al3  1  0.017411  0.281684  0.249527  1
  Al  Al4  1  0.719630  0.982268  0.252205  1
  Al  Al5  1  0.982589  0.718316  0.750473  1
  Al  Al6  1  0.878956  0.124051  0.951029  1
  Al  Al7  1  0.121044  0.875949  0.048971  1
  Al  Al8  1  0.876857  0.123653  0.547420  1
  Al  Al9  1  0.123143  0.876347  0.452580  1
  Al  Al10  1  0.647374  0.915942  0.749138  1
  Al  Al11  1  0.915274  0.646259  0.250304  1
  Al  Al12  1  0.352626  0.084058  0.250862  1
  Al  Al13  1  0.084726  0.353741  0.749696  1
  Al  Al14  1  0.342341  0.655669  0.896425  1
  Al  Al15  1  0.657659  0.344331  0.103575  1
  Al  Al16  1  0.344141  0.656582  0.601519  1
  Al  Al17  1  0.655859  0.343418  0.398481  1
  Al  Al18  1  0.724227  0.722720  0.998931  1
  Al  Al19  1  0.722921  0.722628  0.500047  1
  Al  Al20  1  0.275773  0.277280  0.001069  1
  Al  Al21  1  0.277079  0.277372  0.499953  1
  Ir  Ir22  1  0.500000  0.000000  0.000000  1
  Os  Os23  1  0.000000  0.500000  0.000000  1
  Os  Os24  1  0.500000  0.000000  0.500000  1
  Os  Os25  1  0.000000  0.500000  0.500000  1
