# generated using pymatgen
data_Er2Sc3Sn3Ge
_symmetry_space_group_name_H-M   'P 1'
_cell_length_a   7.49365300
_cell_length_b   7.83497700
_cell_length_c   14.70930800
_cell_angle_alpha   90.00000000
_cell_angle_beta   90.00000000
_cell_angle_gamma   90.00000000
_symmetry_Int_Tables_number   1
_chemical_formula_structural   Er2Sc3Sn3Ge
_chemical_formula_sum   'Er8 Sc12 Sn12 Ge4'
_cell_volume   863.62170071
_cell_formula_units_Z   4
loop_
 _symmetry_equiv_pos_site_id
 _symmetry_equiv_pos_as_xyz
  1  'x, y, z'
loop_
 _atom_site_type_symbol
 _atom_site_label
 _atom_site_symmetry_multiplicity
 _atom_site_fract_x
 _atom_site_fract_y
 _atom_site_fract_z
 _atom_site_occupancy
  Er  Er0  1  0.994836  0.174009  0.096348  1
  Er  Er1  1  0.005164  0.825991  0.903652  1
  Er  Er2  1  0.505164  0.674009  0.903652  1
  Er  Er3  1  0.005164  0.825991  0.596348  1
  Er  Er4  1  0.494836  0.325991  0.096348  1
  Er  Er5  1  0.994836  0.174009  0.403652  1
  Er  Er6  1  0.494836  0.325991  0.403652  1
  Er  Er7  1  0.505164  0.674009  0.596348  1
  Sc  Sc8  1  0.171584  0.490397  0.750000  1
  Sc  Sc9  1  0.828416  0.509603  0.250000  1
  Sc  Sc10  1  0.328416  0.990397  0.250000  1
  Sc  Sc11  1  0.671584  0.009603  0.750000  1
  Sc  Sc12  1  0.334393  0.166852  0.632854  1
  Sc  Sc13  1  0.665607  0.833148  0.367146  1
  Sc  Sc14  1  0.165607  0.666852  0.367146  1
  Sc  Sc15  1  0.665607  0.833148  0.132854  1
  Sc  Sc16  1  0.834393  0.333148  0.632854  1
  Sc  Sc17  1  0.334393  0.166852  0.867146  1
  Sc  Sc18  1  0.834393  0.333148  0.867146  1
  Sc  Sc19  1  0.165607  0.666852  0.132854  1
  Sn  Sn20  1  0.304731  0.851651  0.750000  1
  Sn  Sn21  1  0.695269  0.148349  0.250000  1
  Sn  Sn22  1  0.195269  0.351651  0.250000  1
  Sn  Sn23  1  0.804731  0.648349  0.750000  1
  Sn  Sn24  1  0.179733  0.458080  0.540612  1
  Sn  Sn25  1  0.820267  0.541920  0.459388  1
  Sn  Sn26  1  0.320267  0.958080  0.459388  1
  Sn  Sn27  1  0.820267  0.541920  0.040612  1
  Sn  Sn28  1  0.679733  0.041920  0.540612  1
  Sn  Sn29  1  0.179733  0.458080  0.959388  1
  Sn  Sn30  1  0.679733  0.041920  0.959388  1
  Sn  Sn31  1  0.320267  0.958080  0.040612  1
  Ge  Ge32  1  0.026779  0.129620  0.750000  1
  Ge  Ge33  1  0.973221  0.870380  0.250000  1
  Ge  Ge34  1  0.473221  0.629620  0.250000  1
  Ge  Ge35  1  0.526779  0.370380  0.750000  1
