# generated using pymatgen
data_Ce2NdSm(Si5Pt3)2
_symmetry_space_group_name_H-M   'P 1'
_cell_length_a   8.23173855
_cell_length_b   8.23821376
_cell_length_c   8.23821373
_cell_angle_alpha   136.40336903
_cell_angle_beta   105.31968236
_cell_angle_gamma   90.67611889
_symmetry_Int_Tables_number   1
_chemical_formula_structural   Ce2NdSm(Si5Pt3)2
_chemical_formula_sum   'Ce2 Nd1 Sm1 Si10 Pt6'
_cell_volume   353.80257174
_cell_formula_units_Z   1
loop_
 _symmetry_equiv_pos_site_id
 _symmetry_equiv_pos_as_xyz
  1  'x, y, z'
loop_
 _atom_site_type_symbol
 _atom_site_label
 _atom_site_symmetry_multiplicity
 _atom_site_fract_x
 _atom_site_fract_y
 _atom_site_fract_z
 _atom_site_occupancy
  Ce  Ce0  1  0.640020  0.370498  0.269521  1
  Ce  Ce1  1  0.359895  0.629482  0.730414  1
  Nd  Nd2  1  0.102085  0.870759  0.231327  1
  Sm  Sm3  1  0.898593  0.129349  0.769244  1
  Si  Si4  1  0.272198  0.522959  0.251212  1
  Si  Si5  1  0.727472  0.476741  0.748599  1
  Si  Si6  1  0.727472  0.978874  0.250731  1
  Si  Si7  1  0.272198  0.020985  0.749239  1
  Si  Si8  1  0.464062  0.113848  0.350212  1
  Si  Si9  1  0.536889  0.887001  0.649890  1
  Si  Si10  1  0.761855  0.612381  0.149474  1
  Si  Si11  1  0.237694  0.387004  0.850690  1
  Si  Si12  1  0.999804  0.251058  0.250725  1
  Si  Si13  1  0.999804  0.749079  0.748747  1
  Pt  Pt14  1  0.246705  0.137028  0.109678  1
  Pt  Pt15  1  0.753345  0.863416  0.889929  1
  Pt  Pt16  1  0.025548  0.636473  0.389075  1
  Pt  Pt17  1  0.973531  0.362777  0.610754  1
  Pt  Pt18  1  0.500416  0.250913  0.751035  1
  Pt  Pt19  1  0.500416  0.749381  0.249503  1
