# generated using pymatgen
data_Ba4TaVO8
_symmetry_space_group_name_H-M   'P 1'
_cell_length_a   7.33417273
_cell_length_b   7.33417329
_cell_length_c   5.81475100
_cell_angle_alpha   90.00000000
_cell_angle_beta   90.00000000
_cell_angle_gamma   133.05883842
_symmetry_Int_Tables_number   1
_chemical_formula_structural   Ba4TaVO8
_chemical_formula_sum   'Ba4 Ta1 V1 O8'
_cell_volume   228.53070980
_cell_formula_units_Z   1
loop_
 _symmetry_equiv_pos_site_id
 _symmetry_equiv_pos_as_xyz
  1  'x, y, z'
loop_
 _atom_site_type_symbol
 _atom_site_label
 _atom_site_symmetry_multiplicity
 _atom_site_fract_x
 _atom_site_fract_y
 _atom_site_fract_z
 _atom_site_occupancy
  Ba  Ba0  1  0.646697  0.353303  0.000000  1
  Ba  Ba1  1  0.144008  0.855992  0.500000  1
  Ba  Ba2  1  0.855992  0.144008  0.500000  1
  Ba  Ba3  1  0.353303  0.646697  0.000000  1
  Ta  Ta4  1  0.500000  0.500000  0.500000  1
  V  V5  1  0.000000  0.000000  0.000000  1
  O  O6  1  0.743840  0.743840  0.743824  1
  O  O7  1  0.256160  0.256160  0.256176  1
  O  O8  1  0.256160  0.256160  0.743824  1
  O  O9  1  0.743840  0.743840  0.256176  1
  O  O10  1  0.847674  0.152326  0.000000  1
  O  O11  1  0.348513  0.651487  0.500000  1
  O  O12  1  0.651487  0.348513  0.500000  1
  O  O13  1  0.152326  0.847674  0.000000  1
