# generated using pymatgen
data_Cs4Li2AlCrH12
_symmetry_space_group_name_H-M   'P 1'
_cell_length_a   10.29090154
_cell_length_b   10.29090174
_cell_length_c   10.29090238
_cell_angle_alpha   34.78951569
_cell_angle_beta   34.78951505
_cell_angle_gamma   34.78951824
_symmetry_Int_Tables_number   1
_chemical_formula_structural   Cs4Li2AlCrH12
_chemical_formula_sum   'Cs4 Li2 Al1 Cr1 H12'
_cell_volume   316.66907795
_cell_formula_units_Z   1
loop_
 _symmetry_equiv_pos_site_id
 _symmetry_equiv_pos_as_xyz
  1  'x, y, z'
loop_
 _atom_site_type_symbol
 _atom_site_label
 _atom_site_symmetry_multiplicity
 _atom_site_fract_x
 _atom_site_fract_y
 _atom_site_fract_z
 _atom_site_occupancy
  Cs  Cs0  1  0.126985  0.126985  0.126985  1
  Cs  Cs1  1  0.873015  0.873015  0.873015  1
  Cs  Cs2  1  0.285790  0.285790  0.285790  1
  Cs  Cs3  1  0.714210  0.714210  0.714210  1
  Li  Li4  1  0.410885  0.410885  0.410885  1
  Li  Li5  1  0.589115  0.589115  0.589115  1
  Al  Al6  1  0.000000  0.000000  0.000000  1
  Cr  Cr7  1  0.500000  0.500000  0.500000  1
  H  H8  1  0.176074  0.176074  0.753690  1
  H  H9  1  0.753690  0.176074  0.176074  1
  H  H10  1  0.176074  0.753690  0.176074  1
  H  H11  1  0.823926  0.246310  0.823926  1
  H  H12  1  0.823926  0.823926  0.246310  1
  H  H13  1  0.246310  0.823926  0.823926  1
  H  H14  1  0.411702  0.411702  0.791057  1
  H  H15  1  0.791057  0.411702  0.411702  1
  H  H16  1  0.208943  0.588298  0.588298  1
  H  H17  1  0.588298  0.588298  0.208943  1
  H  H18  1  0.588298  0.208943  0.588298  1
  H  H19  1  0.411702  0.791057  0.411702  1
