# generated using pymatgen
data_ZrSc6Al13Tc2Os7
_symmetry_space_group_name_H-M   'P 1'
_cell_length_a   8.81584176
_cell_length_b   8.81584243
_cell_length_c   8.87114422
_cell_angle_alpha   59.74787691
_cell_angle_beta   59.74788377
_cell_angle_gamma   59.91482928
_symmetry_Int_Tables_number   1
_chemical_formula_structural   ZrSc6Al13Tc2Os7
_chemical_formula_sum   'Zr1 Sc6 Al13 Tc2 Os7'
_cell_volume   485.34271155
_cell_formula_units_Z   1
loop_
 _symmetry_equiv_pos_site_id
 _symmetry_equiv_pos_as_xyz
  1  'x, y, z'
loop_
 _atom_site_type_symbol
 _atom_site_label
 _atom_site_symmetry_multiplicity
 _atom_site_fract_x
 _atom_site_fract_y
 _atom_site_fract_z
 _atom_site_occupancy
  Zr  Zr0  1  0.879355  0.879355  0.358879  1
  Sc  Sc1  1  0.707027  0.707027  0.282569  1
  Sc  Sc2  1  0.297656  0.707428  0.285511  1
  Sc  Sc3  1  0.707428  0.297656  0.285511  1
  Sc  Sc4  1  0.288154  0.288154  0.714869  1
  Sc  Sc5  1  0.711886  0.279862  0.715511  1
  Sc  Sc6  1  0.279862  0.711886  0.715511  1
  Al  Al7  1  0.879408  0.879408  0.883034  1
  Al  Al8  1  0.122278  0.122278  0.633426  1
  Al  Al9  1  0.121477  0.637417  0.120493  1
  Al  Al10  1  0.637417  0.121477  0.120493  1
  Al  Al11  1  0.122972  0.122972  0.123250  1
  Al  Al12  1  0.665116  0.665116  0.005947  1
  Al  Al13  1  0.662223  0.007681  0.669012  1
  Al  Al14  1  0.007681  0.662223  0.669012  1
  Al  Al15  1  0.656236  0.656236  0.662802  1
  Al  Al16  1  0.336752  0.336752  0.994175  1
  Al  Al17  1  0.337684  0.994969  0.334650  1
  Al  Al18  1  0.994969  0.337684  0.334650  1
  Al  Al19  1  0.336708  0.336708  0.334780  1
  Tc  Tc20  1  0.876472  0.363184  0.877091  1
  Tc  Tc21  1  0.363184  0.876472  0.877091  1
  Os  Os22  1  0.012494  0.012494  0.985695  1
  Os  Os23  1  0.000104  0.000104  0.504667  1
  Os  Os24  1  0.495750  0.999071  0.507100  1
  Os  Os25  1  0.999071  0.495750  0.507100  1
  Os  Os26  1  0.502442  0.502442  0.998430  1
  Os  Os27  1  0.000245  0.497947  0.999369  1
  Os  Os28  1  0.497947  0.000245  0.999369  1
