# generated using pymatgen
data_Y2SiAuI2
_symmetry_space_group_name_H-M   'P 1'
_cell_length_a   4.24983100
_cell_length_b   4.24983159
_cell_length_c   11.50703300
_cell_angle_alpha   90.00000000
_cell_angle_beta   90.00000000
_cell_angle_gamma   120.00000319
_symmetry_Int_Tables_number   1
_chemical_formula_structural   Y2SiAuI2
_chemical_formula_sum   'Y2 Si1 Au1 I2'
_cell_volume   179.98543283
_cell_formula_units_Z   1
loop_
 _symmetry_equiv_pos_site_id
 _symmetry_equiv_pos_as_xyz
  1  'x, y, z'
loop_
 _atom_site_type_symbol
 _atom_site_label
 _atom_site_symmetry_multiplicity
 _atom_site_fract_x
 _atom_site_fract_y
 _atom_site_fract_z
 _atom_site_occupancy
  Y  Y0  1  0.000000  0.000000  0.831246  1
  Y  Y1  1  0.000000  0.000000  0.168872  1
  Si  Si2  1  0.666667  0.333333  0.018265  1
  Au  Au3  1  0.333333  0.666667  0.982046  1
  I  I4  1  0.333333  0.666667  0.341642  1
  I  I5  1  0.666667  0.333333  0.657928  1
