# generated using pymatgen
data_Dy4HoPb3Cl
_symmetry_space_group_name_H-M   'P 1'
_cell_length_a   9.19569300
_cell_length_b   9.19569211
_cell_length_c   6.60875900
_cell_angle_alpha   90.00000000
_cell_angle_beta   90.00000000
_cell_angle_gamma   119.99999962
_symmetry_Int_Tables_number   1
_chemical_formula_structural   Dy4HoPb3Cl
_chemical_formula_sum   'Dy8 Ho2 Pb6 Cl2'
_cell_volume   483.97110540
_cell_formula_units_Z   2
loop_
 _symmetry_equiv_pos_site_id
 _symmetry_equiv_pos_as_xyz
  1  'x, y, z'
loop_
 _atom_site_type_symbol
 _atom_site_label
 _atom_site_symmetry_multiplicity
 _atom_site_fract_x
 _atom_site_fract_y
 _atom_site_fract_z
 _atom_site_occupancy
  Dy  Dy0  1  0.260242  0.000000  0.750134  1
  Dy  Dy1  1  0.739758  0.000000  0.249866  1
  Dy  Dy2  1  0.000000  0.260242  0.750134  1
  Dy  Dy3  1  0.000000  0.739758  0.249866  1
  Dy  Dy4  1  0.739758  0.739758  0.750134  1
  Dy  Dy5  1  0.260242  0.260242  0.249866  1
  Dy  Dy6  1  0.333333  0.666667  0.500000  1
  Dy  Dy7  1  0.666667  0.333333  0.500000  1
  Ho  Ho8  1  0.666667  0.333333  0.000000  1
  Ho  Ho9  1  0.333333  0.666667  0.000000  1
  Pb  Pb10  1  0.610397  0.000000  0.750399  1
  Pb  Pb11  1  0.389603  0.000000  0.249601  1
  Pb  Pb12  1  0.000000  0.610397  0.750399  1
  Pb  Pb13  1  0.000000  0.389603  0.249601  1
  Pb  Pb14  1  0.389603  0.389603  0.750399  1
  Pb  Pb15  1  0.610397  0.610397  0.249601  1
  Cl  Cl16  1  0.000000  0.000000  0.500000  1
  Cl  Cl17  1  0.000000  0.000000  0.000000  1
