# generated using pymatgen
data_YbY18Sc(Cd3Ru)2
_symmetry_space_group_name_H-M   'P 1'
_cell_length_a   9.62097800
_cell_length_b   9.62097769
_cell_length_c   9.80400800
_cell_angle_alpha   90.00000000
_cell_angle_beta   90.00000000
_cell_angle_gamma   120.00000106
_symmetry_Int_Tables_number   1
_chemical_formula_structural   YbY18Sc(Cd3Ru)2
_chemical_formula_sum   'Yb1 Y18 Sc1 Cd6 Ru2'
_cell_volume   785.90981604
_cell_formula_units_Z   1
loop_
 _symmetry_equiv_pos_site_id
 _symmetry_equiv_pos_as_xyz
  1  'x, y, z'
loop_
 _atom_site_type_symbol
 _atom_site_label
 _atom_site_symmetry_multiplicity
 _atom_site_fract_x
 _atom_site_fract_y
 _atom_site_fract_z
 _atom_site_occupancy
  Yb  Yb0  1  0.000000  0.000000  0.500000  1
  Y  Y1  1  0.210460  0.789540  0.440554  1
  Y  Y2  1  0.210460  0.420920  0.440554  1
  Y  Y3  1  0.579080  0.789540  0.440554  1
  Y  Y4  1  0.789540  0.210460  0.559446  1
  Y  Y5  1  0.789540  0.579080  0.559446  1
  Y  Y6  1  0.420920  0.210460  0.559446  1
  Y  Y7  1  0.791372  0.208628  0.940465  1
  Y  Y8  1  0.791372  0.582745  0.940465  1
  Y  Y9  1  0.417255  0.208628  0.940465  1
  Y  Y10  1  0.208628  0.791372  0.059535  1
  Y  Y11  1  0.208628  0.417255  0.059535  1
  Y  Y12  1  0.582745  0.791372  0.059535  1
  Y  Y13  1  0.541420  0.458580  0.250707  1
  Y  Y14  1  0.541420  0.082839  0.250707  1
  Y  Y15  1  0.917161  0.458580  0.250707  1
  Y  Y16  1  0.458580  0.541420  0.749293  1
  Y  Y17  1  0.458580  0.917161  0.749293  1
  Y  Y18  1  0.082839  0.541420  0.749293  1
  Sc  Sc19  1  0.000000  0.000000  0.000000  1
  Cd  Cd20  1  0.887087  0.112913  0.244974  1
  Cd  Cd21  1  0.887087  0.774177  0.244974  1
  Cd  Cd22  1  0.225823  0.112913  0.244974  1
  Cd  Cd23  1  0.112913  0.887087  0.755026  1
  Cd  Cd24  1  0.112913  0.225823  0.755026  1
  Cd  Cd25  1  0.774177  0.887087  0.755026  1
  Ru  Ru26  1  0.333333  0.666667  0.249854  1
  Ru  Ru27  1  0.666667  0.333333  0.750146  1
