# generated using pymatgen
data_Y3TmAl4NiRh3
_symmetry_space_group_name_H-M   'P 1'
_cell_length_a   4.22011300
_cell_length_b   6.82204641
_cell_length_c   7.89778126
_cell_angle_alpha   90.63399814
_cell_angle_beta   90.00000000
_cell_angle_gamma   90.00000000
_symmetry_Int_Tables_number   1
_chemical_formula_structural   Y3TmAl4NiRh3
_chemical_formula_sum   'Y3 Tm1 Al4 Ni1 Rh3'
_cell_volume   227.36167619
_cell_formula_units_Z   1
loop_
 _symmetry_equiv_pos_site_id
 _symmetry_equiv_pos_as_xyz
  1  'x, y, z'
loop_
 _atom_site_type_symbol
 _atom_site_label
 _atom_site_symmetry_multiplicity
 _atom_site_fract_x
 _atom_site_fract_y
 _atom_site_fract_z
 _atom_site_occupancy
  Y  Y0  1  0.250000  0.964514  0.318999  1
  Y  Y1  1  0.750000  0.538178  0.822264  1
  Y  Y2  1  0.250000  0.467279  0.178260  1
  Tm  Tm3  1  0.750000  0.034668  0.677473  1
  Al  Al4  1  0.750000  0.637767  0.437191  1
  Al  Al5  1  0.750000  0.130286  0.059431  1
  Al  Al6  1  0.250000  0.363747  0.560262  1
  Al  Al7  1  0.250000  0.861139  0.943708  1
  Ni  Ni8  1  0.750000  0.771295  0.125108  1
  Rh  Rh9  1  0.750000  0.262925  0.379998  1
  Rh  Rh10  1  0.250000  0.230254  0.876123  1
  Rh  Rh11  1  0.250000  0.737946  0.621182  1
