# generated using pymatgen
data_Be8V2ReRh
_symmetry_space_group_name_H-M   'P 1'
_cell_length_a   4.33312700
_cell_length_b   4.33312856
_cell_length_c   7.09708700
_cell_angle_alpha   90.00000000
_cell_angle_beta   90.00000000
_cell_angle_gamma   120.00001096
_symmetry_Int_Tables_number   1
_chemical_formula_structural   Be8V2ReRh
_chemical_formula_sum   'Be8 V2 Re1 Rh1'
_cell_volume   115.40209833
_cell_formula_units_Z   1
loop_
 _symmetry_equiv_pos_site_id
 _symmetry_equiv_pos_as_xyz
  1  'x, y, z'
loop_
 _atom_site_type_symbol
 _atom_site_label
 _atom_site_symmetry_multiplicity
 _atom_site_fract_x
 _atom_site_fract_y
 _atom_site_fract_z
 _atom_site_occupancy
  Be  Be0  1  0.000000  0.000000  0.000124  1
  Be  Be1  1  0.000000  0.000000  0.495410  1
  Be  Be2  1  0.830101  0.660200  0.250289  1
  Be  Be3  1  0.168486  0.831514  0.749360  1
  Be  Be4  1  0.663028  0.831514  0.749360  1
  Be  Be5  1  0.339800  0.169899  0.250289  1
  Be  Be6  1  0.830101  0.169899  0.250289  1
  Be  Be7  1  0.168486  0.336972  0.749360  1
  V  V8  1  0.666667  0.333333  0.935320  1
  V  V9  1  0.333333  0.666667  0.440790  1
  Re  Re10  1  0.666667  0.333333  0.563376  1
  Rh  Rh11  1  0.333333  0.666667  0.066032  1
