# generated using pymatgen
data_Li2MnNbRh4
_symmetry_space_group_name_H-M   'P 1'
_cell_length_a   4.29703101
_cell_length_b   6.08374500
_cell_length_c   12.77911903
_cell_angle_alpha   90.00000000
_cell_angle_beta   90.00819592
_cell_angle_gamma   90.00000000
_symmetry_Int_Tables_number   1
_chemical_formula_structural   Li2MnNbRh4
_chemical_formula_sum   'Li6 Mn3 Nb3 Rh12'
_cell_volume   334.07224936
_cell_formula_units_Z   3
loop_
 _symmetry_equiv_pos_site_id
 _symmetry_equiv_pos_as_xyz
  1  'x, y, z'
loop_
 _atom_site_type_symbol
 _atom_site_label
 _atom_site_symmetry_multiplicity
 _atom_site_fract_x
 _atom_site_fract_y
 _atom_site_fract_z
 _atom_site_occupancy
  Li  Li0  1  0.000065  0.000000  0.005698  1
  Li  Li1  1  0.499605  0.499999  0.166858  1
  Li  Li2  1  0.999740  0.000000  0.327696  1
  Li  Li3  1  0.500008  0.499999  0.496256  1
  Li  Li4  1  0.000271  0.000000  0.666569  1
  Li  Li5  1  0.500356  0.499999  0.836900  1
  Mn  Mn6  1  0.000012  0.499999  0.003715  1
  Mn  Mn7  1  0.499710  0.000000  0.166700  1
  Mn  Mn8  1  0.999731  0.499999  0.329547  1
  Nb  Nb9  1  0.500013  0.000000  0.490646  1
  Nb  Nb10  1  0.000233  0.499999  0.666685  1
  Nb  Nb11  1  0.500278  0.000000  0.842699  1
  Rh  Rh12  1  0.500024  0.255873  0.003644  1
  Rh  Rh13  1  0.500024  0.744128  0.003644  1
  Rh  Rh14  1  0.999692  0.249971  0.166669  1
  Rh  Rh15  1  0.999692  0.750029  0.166669  1
  Rh  Rh16  1  0.499749  0.255915  0.329740  1
  Rh  Rh17  1  0.499749  0.744084  0.329740  1
  Rh  Rh18  1  0.000012  0.252141  0.496934  1
  Rh  Rh19  1  0.000012  0.747859  0.496934  1
  Rh  Rh20  1  0.500232  0.247863  0.666659  1
  Rh  Rh21  1  0.500232  0.752136  0.666659  1
  Rh  Rh22  1  0.000277  0.252020  0.836369  1
  Rh  Rh23  1  0.000277  0.747980  0.836369  1
