# generated using pymatgen
data_Tb4DyY2FeI12
_symmetry_space_group_name_H-M   'P 1'
_cell_length_a   9.73808646
_cell_length_b   9.79155109
_cell_length_c   9.80050804
_cell_angle_alpha   107.06033602
_cell_angle_beta   107.06711379
_cell_angle_gamma   106.83503252
_symmetry_Int_Tables_number   1
_chemical_formula_structural   Tb4DyY2FeI12
_chemical_formula_sum   'Tb4 Dy1 Y2 Fe1 I12'
_cell_volume   778.51266193
_cell_formula_units_Z   1
loop_
 _symmetry_equiv_pos_site_id
 _symmetry_equiv_pos_as_xyz
  1  'x, y, z'
loop_
 _atom_site_type_symbol
 _atom_site_label
 _atom_site_symmetry_multiplicity
 _atom_site_fract_x
 _atom_site_fract_y
 _atom_site_fract_z
 _atom_site_occupancy
  Tb  Tb0  1  0.280306  0.021333  0.089377  1
  Tb  Tb1  1  0.906779  0.706793  0.977318  1
  Tb  Tb2  1  0.978242  0.906303  0.706611  1
  Tb  Tb3  1  0.719876  0.978726  0.911229  1
  Dy  Dy4  1  0.021744  0.093495  0.291942  1
  Y  Y5  1  0.499931  0.500105  0.500057  1
  Y  Y6  1  0.093160  0.293214  0.022895  1
  Fe  Fe7  1  0.000122  0.999732  0.000154  1
  I  I8  1  0.462251  0.384497  0.160324  1
  I  I9  1  0.159654  0.463369  0.386055  1
  I  I10  1  0.385295  0.160299  0.461415  1
  I  I11  1  0.536828  0.615398  0.839207  1
  I  I12  1  0.839634  0.535616  0.613105  1
  I  I13  1  0.613752  0.839860  0.538611  1
  I  I14  1  0.773272  0.318788  0.927120  1
  I  I15  1  0.927901  0.774788  0.320942  1
  I  I16  1  0.320317  0.928579  0.775981  1
  I  I17  1  0.227521  0.680513  0.073041  1
  I  I18  1  0.072510  0.226715  0.679588  1
  I  I19  1  0.680905  0.071876  0.225028  1
