# generated using pymatgen
data_SmLu4Th3(ReB6)4
_symmetry_space_group_name_H-M   'P 1'
_cell_length_a   3.72389000
_cell_length_b   9.18844053
_cell_length_c   11.63126194
_cell_angle_alpha   89.93389755
_cell_angle_beta   90.00000000
_cell_angle_gamma   90.00000000
_symmetry_Int_Tables_number   1
_chemical_formula_structural   SmLu4Th3(ReB6)4
_chemical_formula_sum   'Sm1 Lu4 Th3 Re4 B24'
_cell_volume   397.98362159
_cell_formula_units_Z   1
loop_
 _symmetry_equiv_pos_site_id
 _symmetry_equiv_pos_as_xyz
  1  'x, y, z'
loop_
 _atom_site_type_symbol
 _atom_site_label
 _atom_site_symmetry_multiplicity
 _atom_site_fract_x
 _atom_site_fract_y
 _atom_site_fract_z
 _atom_site_occupancy
  Sm  Sm0  1  0.000000  0.322804  0.413757  1
  Lu  Lu1  1  0.000000  0.945081  0.371514  1
  Lu  Lu2  1  0.000000  0.056941  0.627557  1
  Lu  Lu3  1  0.000000  0.444095  0.128973  1
  Lu  Lu4  1  0.000000  0.554560  0.872390  1
  Th  Th5  1  0.000000  0.676299  0.585191  1
  Th  Th6  1  0.000000  0.821316  0.085512  1
  Th  Th7  1  0.000000  0.178229  0.914949  1
  Re  Re8  1  0.000000  0.640568  0.319112  1
  Re  Re9  1  0.000000  0.359880  0.681067  1
  Re  Re10  1  0.000000  0.139188  0.181258  1
  Re  Re11  1  0.000000  0.860222  0.818621  1
  B  B12  1  0.500000  0.555346  0.430150  1
  B  B13  1  0.500000  0.443529  0.569017  1
  B  B14  1  0.500000  0.056535  0.070997  1
  B  B15  1  0.500000  0.943431  0.929109  1
  B  B16  1  0.500000  0.750640  0.416350  1
  B  B17  1  0.500000  0.249130  0.582389  1
  B  B18  1  0.500000  0.251830  0.084238  1
  B  B19  1  0.500000  0.748271  0.916333  1
  B  B20  1  0.500000  0.792059  0.266445  1
  B  B21  1  0.500000  0.208113  0.733202  1
  B  B22  1  0.500000  0.293043  0.234790  1
  B  B23  1  0.500000  0.707722  0.765989  1
  B  B24  1  0.500000  0.629478  0.186075  1
  B  B25  1  0.500000  0.369950  0.814302  1
  B  B26  1  0.500000  0.130759  0.315454  1
  B  B27  1  0.500000  0.870206  0.685210  1
  B  B28  1  0.500000  0.984939  0.215013  1
  B  B29  1  0.500000  0.015563  0.785111  1
  B  B30  1  0.500000  0.483284  0.285957  1
  B  B31  1  0.500000  0.514993  0.713952  1
  B  B32  1  0.500000  0.599681  0.027346  1
  B  B33  1  0.500000  0.400161  0.973345  1
  B  B34  1  0.500000  0.099678  0.472603  1
  B  B35  1  0.500000  0.902476  0.526722  1
