# generated using pymatgen
data_Nd7Ho9(ErSi4)4
_symmetry_space_group_name_H-M   'P 1'
_cell_length_a   7.72315081
_cell_length_b   7.72807129
_cell_length_c   14.28858000
_cell_angle_alpha   90.00570759
_cell_angle_beta   89.87115079
_cell_angle_gamma   90.07433382
_symmetry_Int_Tables_number   1
_chemical_formula_structural   Nd7Ho9(ErSi4)4
_chemical_formula_sum   'Nd7 Ho9 Er4 Si16'
_cell_volume   852.81187772
_cell_formula_units_Z   1
loop_
 _symmetry_equiv_pos_site_id
 _symmetry_equiv_pos_as_xyz
  1  'x, y, z'
loop_
 _atom_site_type_symbol
 _atom_site_label
 _atom_site_symmetry_multiplicity
 _atom_site_fract_x
 _atom_site_fract_y
 _atom_site_fract_z
 _atom_site_occupancy
  Nd  Nd0  1  0.358691  0.007404  0.958101  1
  Nd  Nd1  1  0.992367  0.642861  0.540805  1
  Nd  Nd2  1  0.490524  0.858564  0.209454  1
  Nd  Nd3  1  0.509372  0.139582  0.707067  1
  Nd  Nd4  1  0.859727  0.490379  0.791620  1
  Nd  Nd5  1  0.139712  0.508726  0.292968  1
  Nd  Nd6  1  0.007682  0.358175  0.042648  1
  Ho  Ho7  1  0.491028  0.360870  0.124901  1
  Ho  Ho8  1  0.991764  0.136670  0.624250  1
  Ho  Ho9  1  0.861994  0.008371  0.874615  1
  Ho  Ho10  1  0.137334  0.993012  0.375196  1
  Ho  Ho11  1  0.511183  0.639661  0.622911  1
  Ho  Ho12  1  0.361255  0.491119  0.875214  1
  Ho  Ho13  1  0.639679  0.510029  0.376299  1
  Ho  Ho14  1  0.006728  0.861368  0.126524  1
  Ho  Ho15  1  0.636248  0.995836  0.456041  1
  Er  Er16  1  0.318049  0.316896  0.499860  1
  Er  Er17  1  0.184409  0.816383  0.749096  1
  Er  Er18  1  0.815027  0.182937  0.250557  1
  Er  Er19  1  0.682671  0.681920  0.000307  1
  Si  Si20  1  0.293997  0.938616  0.560237  1
  Si  Si21  1  0.709408  0.063206  0.061856  1
  Si  Si22  1  0.933669  0.288092  0.438172  1
  Si  Si23  1  0.438017  0.209171  0.312952  1
  Si  Si24  1  0.564626  0.788431  0.811625  1
  Si  Si25  1  0.211687  0.436206  0.687667  1
  Si  Si26  1  0.788313  0.564994  0.189012  1
  Si  Si27  1  0.064361  0.710201  0.938621  1
  Si  Si28  1  0.799235  0.844814  0.690648  1
  Si  Si29  1  0.202497  0.153207  0.189952  1
  Si  Si30  1  0.843177  0.801510  0.314074  1
  Si  Si31  1  0.350399  0.706869  0.437979  1
  Si  Si32  1  0.653235  0.296160  0.939762  1
  Si  Si33  1  0.701564  0.342476  0.558832  1
  Si  Si34  1  0.296108  0.653281  0.060705  1
  Si  Si35  1  0.154262  0.202001  0.809471  1
