# generated using pymatgen
data_La9Pr3(Si7Cl3)2
_symmetry_space_group_name_H-M   'P 1'
_cell_length_a   4.02519000
_cell_length_b   11.63552717
_cell_length_c   16.41673100
_cell_angle_alpha   89.82679557
_cell_angle_beta   90.00000000
_cell_angle_gamma   90.00000000
_symmetry_Int_Tables_number   1
_chemical_formula_structural   La9Pr3(Si7Cl3)2
_chemical_formula_sum   'La9 Pr3 Si14 Cl6'
_cell_volume   768.87749115
_cell_formula_units_Z   1
loop_
 _symmetry_equiv_pos_site_id
 _symmetry_equiv_pos_as_xyz
  1  'x, y, z'
loop_
 _atom_site_type_symbol
 _atom_site_label
 _atom_site_symmetry_multiplicity
 _atom_site_fract_x
 _atom_site_fract_y
 _atom_site_fract_z
 _atom_site_occupancy
  La  La0  1  0.500000  0.332044  0.502117  1
  La  La1  1  0.000000  0.667256  0.999867  1
  La  La2  1  0.000000  0.648195  0.746282  1
  La  La3  1  0.500000  0.351919  0.246171  1
  La  La4  1  0.000000  0.646279  0.254404  1
  La  La5  1  0.500000  0.057119  0.876073  1
  La  La6  1  0.000000  0.945465  0.622399  1
  La  La7  1  0.500000  0.055280  0.121130  1
  La  La8  1  0.000000  0.943130  0.377311  1
  Pr  Pr9  1  0.500000  0.355931  0.755890  1
  Pr  Pr10  1  0.500000  0.352997  0.999471  1
  Pr  Pr11  1  0.000000  0.645960  0.501054  1
  Si  Si12  1  0.000000  0.145985  0.998679  1
  Si  Si13  1  0.500000  0.854342  0.500173  1
  Si  Si14  1  0.500000  0.567521  0.877965  1
  Si  Si15  1  0.000000  0.431700  0.623817  1
  Si  Si16  1  0.500000  0.565390  0.121492  1
  Si  Si17  1  0.000000  0.433199  0.379327  1
  Si  Si18  1  0.000000  0.250297  0.873286  1
  Si  Si19  1  0.500000  0.750843  0.625709  1
  Si  Si20  1  0.000000  0.249037  0.124776  1
  Si  Si21  1  0.500000  0.749203  0.375261  1
  Si  Si22  1  0.000000  0.457350  0.877892  1
  Si  Si23  1  0.500000  0.543136  0.623919  1
  Si  Si24  1  0.500000  0.542451  0.377390  1
  Si  Si25  1  0.000000  0.455787  0.123408  1
  Cl  Cl26  1  0.500000  0.111375  0.692832  1
  Cl  Cl27  1  0.000000  0.893142  0.805598  1
  Cl  Cl28  1  0.000000  0.136244  0.499034  1
  Cl  Cl29  1  0.500000  0.863405  0.998925  1
  Cl  Cl30  1  0.500000  0.106246  0.305190  1
  Cl  Cl31  1  0.000000  0.891772  0.193154  1
