# generated using pymatgen
data_Tm3GaCo2Sn3
_symmetry_space_group_name_H-M   'P 1'
_cell_length_a   7.29245500
_cell_length_b   7.29245550
_cell_length_c   3.94643500
_cell_angle_alpha   90.00000000
_cell_angle_beta   90.00000000
_cell_angle_gamma   120.00001133
_symmetry_Int_Tables_number   1
_chemical_formula_structural   Tm3GaCo2Sn3
_chemical_formula_sum   'Tm3 Ga1 Co2 Sn3'
_cell_volume   181.75362520
_cell_formula_units_Z   1
loop_
 _symmetry_equiv_pos_site_id
 _symmetry_equiv_pos_as_xyz
  1  'x, y, z'
loop_
 _atom_site_type_symbol
 _atom_site_label
 _atom_site_symmetry_multiplicity
 _atom_site_fract_x
 _atom_site_fract_y
 _atom_site_fract_z
 _atom_site_occupancy
  Tm  Tm0  1  0.017028  0.410271  0.000000  1
  Tm  Tm1  1  0.589729  0.606757  0.000000  1
  Tm  Tm2  1  0.393243  0.982972  0.000000  1
  Ga  Ga3  1  0.666667  0.333333  0.500000  1
  Co  Co4  1  0.333333  0.666667  0.500000  1
  Co  Co5  1  0.000000  0.000000  0.000000  1
  Sn  Sn6  1  0.248371  0.257130  0.500000  1
  Sn  Sn7  1  0.008759  0.751629  0.500000  1
  Sn  Sn8  1  0.742870  0.991241  0.500000  1
