# generated using pymatgen
data_CeHoMgZnRh2
_symmetry_space_group_name_H-M   'P 1'
_cell_length_a   3.90307100
_cell_length_b   7.13192948
_cell_length_c   8.69935700
_cell_angle_alpha   93.08508565
_cell_angle_beta   90.00000000
_cell_angle_gamma   90.00000000
_symmetry_Int_Tables_number   1
_chemical_formula_structural   CeHoMgZnRh2
_chemical_formula_sum   'Ce2 Ho2 Mg2 Zn2 Rh4'
_cell_volume   241.80805944
_cell_formula_units_Z   2
loop_
 _symmetry_equiv_pos_site_id
 _symmetry_equiv_pos_as_xyz
  1  'x, y, z'
loop_
 _atom_site_type_symbol
 _atom_site_label
 _atom_site_symmetry_multiplicity
 _atom_site_fract_x
 _atom_site_fract_y
 _atom_site_fract_z
 _atom_site_occupancy
  Ce  Ce0  1  0.250000  0.530947  0.200672  1
  Ce  Ce1  1  0.750000  0.469053  0.799328  1
  Ho  Ho2  1  0.250000  0.051560  0.332062  1
  Ho  Ho3  1  0.750000  0.948440  0.667938  1
  Mg  Mg4  1  0.250000  0.133493  0.936544  1
  Mg  Mg5  1  0.750000  0.866507  0.063456  1
  Zn  Zn6  1  0.250000  0.632577  0.553660  1
  Zn  Zn7  1  0.750000  0.367423  0.446340  1
  Rh  Rh8  1  0.750000  0.744021  0.364720  1
  Rh  Rh9  1  0.250000  0.255979  0.635280  1
  Rh  Rh10  1  0.750000  0.263929  0.140964  1
  Rh  Rh11  1  0.250000  0.736071  0.859036  1
