# generated using pymatgen
data_Ba4U3ReN11
_symmetry_space_group_name_H-M   'P 1'
_cell_length_a   6.19388151
_cell_length_b   6.32789497
_cell_length_c   8.47068629
_cell_angle_alpha   89.98510546
_cell_angle_beta   90.00629368
_cell_angle_gamma   92.72997042
_symmetry_Int_Tables_number   1
_chemical_formula_structural   Ba4U3ReN11
_chemical_formula_sum   'Ba4 U3 Re1 N11'
_cell_volume   331.62523817
_cell_formula_units_Z   1
loop_
 _symmetry_equiv_pos_site_id
 _symmetry_equiv_pos_as_xyz
  1  'x, y, z'
loop_
 _atom_site_type_symbol
 _atom_site_label
 _atom_site_symmetry_multiplicity
 _atom_site_fract_x
 _atom_site_fract_y
 _atom_site_fract_z
 _atom_site_occupancy
  Ba  Ba0  1  0.014481  0.994828  0.251509  1
  Ba  Ba1  1  0.487460  0.479076  0.257291  1
  Ba  Ba2  1  0.487447  0.478801  0.738471  1
  Ba  Ba3  1  0.014770  0.994766  0.744153  1
  U  U4  1  0.510764  0.998526  0.498085  1
  U  U5  1  0.995800  0.501341  0.497967  1
  U  U6  1  0.990407  0.498529  0.997973  1
  Re  Re7  1  0.515509  0.918626  0.997486  1
  N  N8  1  0.735962  0.724247  0.997568  1
  N  N9  1  0.987997  0.498893  0.249226  1
  N  N10  1  0.550770  0.056963  0.187085  1
  N  N11  1  0.727547  0.780780  0.497878  1
  N  N12  1  0.760039  0.259727  0.498119  1
  N  N13  1  0.247847  0.734733  0.497853  1
  N  N14  1  0.283022  0.208945  0.497800  1
  N  N15  1  0.549188  0.055456  0.806923  1
  N  N16  1  0.988422  0.499089  0.746647  1
  N  N17  1  0.264297  0.756463  0.998170  1
  N  N18  1  0.174839  0.269030  0.997865  1
