# generated using pymatgen
data_AcPr(In2Ir9)2
_symmetry_space_group_name_H-M   'P 1'
_cell_length_a   8.93673800
_cell_length_b   8.93673800
_cell_length_c   5.25410800
_cell_angle_alpha   90.00000000
_cell_angle_beta   90.00000000
_cell_angle_gamma   90.00000000
_symmetry_Int_Tables_number   1
_chemical_formula_structural   AcPr(In2Ir9)2
_chemical_formula_sum   'Ac1 Pr1 In4 Ir18'
_cell_volume   419.62083852
_cell_formula_units_Z   1
loop_
 _symmetry_equiv_pos_site_id
 _symmetry_equiv_pos_as_xyz
  1  'x, y, z'
loop_
 _atom_site_type_symbol
 _atom_site_label
 _atom_site_symmetry_multiplicity
 _atom_site_fract_x
 _atom_site_fract_y
 _atom_site_fract_z
 _atom_site_occupancy
  Ac  Ac0  1  0.500000  0.500000  0.000000  1
  Pr  Pr1  1  0.000000  0.000000  0.000000  1
  In  In2  1  0.118911  0.621753  0.000000  1
  In  In3  1  0.881089  0.378247  0.000000  1
  In  In4  1  0.378247  0.118911  0.000000  1
  In  In5  1  0.621753  0.881089  0.000000  1
  Ir  Ir6  1  0.000000  0.500000  0.500000  1
  Ir  Ir7  1  0.500000  0.000000  0.500000  1
  Ir  Ir8  1  0.558304  0.704962  0.500000  1
  Ir  Ir9  1  0.441696  0.295038  0.500000  1
  Ir  Ir10  1  0.941833  0.203136  0.500000  1
  Ir  Ir11  1  0.058167  0.796864  0.500000  1
  Ir  Ir12  1  0.704962  0.441696  0.500000  1
  Ir  Ir13  1  0.295038  0.558304  0.500000  1
  Ir  Ir14  1  0.203136  0.058167  0.500000  1
  Ir  Ir15  1  0.796864  0.941833  0.500000  1
  Ir  Ir16  1  0.319088  0.821127  0.756096  1
  Ir  Ir17  1  0.680912  0.178873  0.756096  1
  Ir  Ir18  1  0.178873  0.319088  0.756096  1
  Ir  Ir19  1  0.821127  0.680912  0.756096  1
  Ir  Ir20  1  0.680912  0.178873  0.243904  1
  Ir  Ir21  1  0.319088  0.821127  0.243904  1
  Ir  Ir22  1  0.821127  0.680912  0.243904  1
  Ir  Ir23  1  0.178873  0.319088  0.243904  1
