# generated using pymatgen
data_Zr7Sc15Os8
_symmetry_space_group_name_H-M   'P 1'
_cell_length_a   9.47054312
_cell_length_b   9.47054336
_cell_length_c   9.47054352
_cell_angle_alpha   60.40660293
_cell_angle_beta   60.40660004
_cell_angle_gamma   60.40660256
_symmetry_Int_Tables_number   1
_chemical_formula_structural   Zr7Sc15Os8
_chemical_formula_sum   'Zr7 Sc15 Os8'
_cell_volume   606.15636496
_cell_formula_units_Z   1
loop_
 _symmetry_equiv_pos_site_id
 _symmetry_equiv_pos_as_xyz
  1  'x, y, z'
loop_
 _atom_site_type_symbol
 _atom_site_label
 _atom_site_symmetry_multiplicity
 _atom_site_fract_x
 _atom_site_fract_y
 _atom_site_fract_z
 _atom_site_occupancy
  Zr  Zr0  1  0.842762  0.842762  0.842762  1
  Zr  Zr1  1  0.529497  0.156623  0.156623  1
  Zr  Zr2  1  0.156623  0.156623  0.529497  1
  Zr  Zr3  1  0.156623  0.529497  0.156623  1
  Zr  Zr4  1  0.843598  0.843598  0.471349  1
  Zr  Zr5  1  0.843598  0.471349  0.843598  1
  Zr  Zr6  1  0.471349  0.843598  0.843598  1
  Sc  Sc7  1  0.156583  0.156583  0.156583  1
  Sc  Sc8  1  0.198547  0.801443  0.198547  1
  Sc  Sc9  1  0.199294  0.800509  0.800509  1
  Sc  Sc10  1  0.801443  0.198547  0.198547  1
  Sc  Sc11  1  0.800509  0.800509  0.199294  1
  Sc  Sc12  1  0.198547  0.198547  0.801443  1
  Sc  Sc13  1  0.800509  0.199294  0.800509  1
  Sc  Sc14  1  0.383036  0.383036  0.383036  1
  Sc  Sc15  1  0.150337  0.616618  0.616618  1
  Sc  Sc16  1  0.616618  0.150337  0.616618  1
  Sc  Sc17  1  0.616618  0.616618  0.150337  1
  Sc  Sc18  1  0.381877  0.852045  0.381877  1
  Sc  Sc19  1  0.381877  0.381877  0.852045  1
  Sc  Sc20  1  0.852045  0.381877  0.381877  1
  Sc  Sc21  1  0.616685  0.616685  0.616685  1
  Os  Os22  1  0.499950  0.499950  0.000578  1
  Os  Os23  1  0.999290  0.999290  0.502585  1
  Os  Os24  1  0.499950  0.000578  0.499950  1
  Os  Os25  1  0.000578  0.499950  0.499950  1
  Os  Os26  1  0.502585  0.999290  0.999290  1
  Os  Os27  1  0.999290  0.502585  0.999290  1
  Os  Os28  1  0.500202  0.500202  0.500202  1
  Os  Os29  1  0.999582  0.999582  0.999582  1
