# generated using pymatgen
data_Ho4Zr2MoO12
_symmetry_space_group_name_H-M   'P 1'
_cell_length_a   6.30830879
_cell_length_b   6.39045924
_cell_length_c   6.55547782
_cell_angle_alpha   100.27264155
_cell_angle_beta   98.45042843
_cell_angle_gamma   99.31245279
_symmetry_Int_Tables_number   1
_chemical_formula_structural   Ho4Zr2MoO12
_chemical_formula_sum   'Ho4 Zr2 Mo1 O12'
_cell_volume   252.36635176
_cell_formula_units_Z   1
loop_
 _symmetry_equiv_pos_site_id
 _symmetry_equiv_pos_as_xyz
  1  'x, y, z'
loop_
 _atom_site_type_symbol
 _atom_site_label
 _atom_site_symmetry_multiplicity
 _atom_site_fract_x
 _atom_site_fract_y
 _atom_site_fract_z
 _atom_site_occupancy
  Ho  Ho0  1  0.387500  0.700284  0.865467  1
  Ho  Ho1  1  0.699921  0.865946  0.391326  1
  Ho  Ho2  1  0.612500  0.299716  0.134533  1
  Ho  Ho3  1  0.300079  0.134054  0.608674  1
  Zr  Zr4  1  0.848293  0.396234  0.672803  1
  Zr  Zr5  1  0.151707  0.603766  0.327197  1
  Mo  Mo6  1  0.000000  0.000000  0.000000  1
  O  O7  1  0.024867  0.683413  0.891788  1
  O  O8  1  0.690068  0.931596  0.057993  1
  O  O9  1  0.923246  0.086163  0.693510  1
  O  O10  1  0.975133  0.316587  0.108212  1
  O  O11  1  0.309932  0.068404  0.942007  1
  O  O12  1  0.076754  0.913837  0.306490  1
  O  O13  1  0.587044  0.187171  0.433157  1
  O  O14  1  0.173752  0.432124  0.576418  1
  O  O15  1  0.416959  0.583015  0.177308  1
  O  O16  1  0.412956  0.812829  0.566843  1
  O  O17  1  0.826248  0.567876  0.423582  1
  O  O18  1  0.583041  0.416985  0.822692  1
