# generated using pymatgen
data_Sc4B4As2RuRh9
_symmetry_space_group_name_H-M   'P 1'
_cell_length_a   3.16245100
_cell_length_b   9.25021251
_cell_length_c   9.25021251
_cell_angle_alpha   89.81156617
_cell_angle_beta   90.00000000
_cell_angle_gamma   90.00000000
_symmetry_Int_Tables_number   1
_chemical_formula_structural   Sc4B4As2RuRh9
_chemical_formula_sum   'Sc4 B4 As2 Ru1 Rh9'
_cell_volume   270.59818317
_cell_formula_units_Z   1
loop_
 _symmetry_equiv_pos_site_id
 _symmetry_equiv_pos_as_xyz
  1  'x, y, z'
loop_
 _atom_site_type_symbol
 _atom_site_label
 _atom_site_symmetry_multiplicity
 _atom_site_fract_x
 _atom_site_fract_y
 _atom_site_fract_z
 _atom_site_occupancy
  Sc  Sc0  1  0.000000  0.327163  0.172835  1
  Sc  Sc1  1  0.000000  0.825629  0.325628  1
  Sc  Sc2  1  0.000000  0.174370  0.674371  1
  Sc  Sc3  1  0.000000  0.672836  0.827164  1
  B  B4  1  0.000000  0.623193  0.123193  1
  B  B5  1  0.000000  0.123254  0.376745  1
  B  B6  1  0.000000  0.876745  0.623254  1
  B  B7  1  0.000000  0.376806  0.876806  1
  As  As8  1  0.000000  0.000000  0.000000  1
  As  As9  1  0.000000  0.500000  0.500000  1
  Ru  Ru10  1  0.499999  0.500000  0.000000  1
  Rh  Rh11  1  0.499999  0.784653  0.073353  1
  Rh  Rh12  1  0.499999  0.072519  0.216885  1
  Rh  Rh13  1  0.499999  0.573354  0.284652  1
  Rh  Rh14  1  0.499999  0.283113  0.427479  1
  Rh  Rh15  1  0.499999  0.000000  0.500000  1
  Rh  Rh16  1  0.499999  0.716886  0.572520  1
  Rh  Rh17  1  0.499999  0.426645  0.715347  1
  Rh  Rh18  1  0.499999  0.927479  0.783114  1
  Rh  Rh19  1  0.499999  0.215346  0.926645  1
