# generated using pymatgen
data_TmTh2(InRh)3
_symmetry_space_group_name_H-M   'P 1'
_cell_length_a   7.57740300
_cell_length_b   7.69230854
_cell_length_c   3.95919900
_cell_angle_alpha   90.00000000
_cell_angle_beta   90.00000000
_cell_angle_gamma   119.50708659
_symmetry_Int_Tables_number   1
_chemical_formula_structural   TmTh2(InRh)3
_chemical_formula_sum   'Tm1 Th2 In3 Rh3'
_cell_volume   200.84026833
_cell_formula_units_Z   1
loop_
 _symmetry_equiv_pos_site_id
 _symmetry_equiv_pos_as_xyz
  1  'x, y, z'
loop_
 _atom_site_type_symbol
 _atom_site_label
 _atom_site_symmetry_multiplicity
 _atom_site_fract_x
 _atom_site_fract_y
 _atom_site_fract_z
 _atom_site_occupancy
  Tm  Tm0  1  0.407198  0.000000  0.500000  1
  Th  Th1  1  0.001635  0.413608  0.500000  1
  Th  Th2  1  0.588027  0.586392  0.500000  1
  In  In3  1  0.253014  0.238606  0.000000  1
  In  In4  1  0.014408  0.761394  0.000000  1
  In  In5  1  0.733268  0.000000  0.000000  1
  Rh  Rh6  1  0.330837  0.648786  0.000000  1
  Rh  Rh7  1  0.989559  0.000000  0.500000  1
  Rh  Rh8  1  0.682053  0.351214  0.000000  1
