# generated using pymatgen
data_RbNa2Cu3P2
_symmetry_space_group_name_H-M   'P 1'
_cell_length_a   7.25511786
_cell_length_b   7.25511832
_cell_length_c   7.25511927
_cell_angle_alpha   43.60793212
_cell_angle_beta   43.60792918
_cell_angle_gamma   43.60792650
_symmetry_Int_Tables_number   1
_chemical_formula_structural   RbNa2Cu3P2
_chemical_formula_sum   'Rb1 Na2 Cu3 P2'
_cell_volume   164.86999013
_cell_formula_units_Z   1
loop_
 _symmetry_equiv_pos_site_id
 _symmetry_equiv_pos_as_xyz
  1  'x, y, z'
loop_
 _atom_site_type_symbol
 _atom_site_label
 _atom_site_symmetry_multiplicity
 _atom_site_fract_x
 _atom_site_fract_y
 _atom_site_fract_z
 _atom_site_occupancy
  Rb  Rb0  1  0.500000  0.500000  0.500000  1
  Na  Na1  1  0.911069  0.911069  0.911069  1
  Na  Na2  1  0.088931  0.088931  0.088931  1
  Cu  Cu3  1  0.000000  0.500000  0.500000  1
  Cu  Cu4  1  0.500000  0.500000  0.000000  1
  Cu  Cu5  1  0.500000  0.000000  0.500000  1
  P  P6  1  0.249969  0.249969  0.249969  1
  P  P7  1  0.750031  0.750031  0.750031  1
