# generated using pymatgen
data_TmLu3Al17GeIr6
_symmetry_space_group_name_H-M   'P 1'
_cell_length_a   7.52347109
_cell_length_b   7.52353270
_cell_length_c   9.40680300
_cell_angle_alpha   90.00000000
_cell_angle_beta   90.00000000
_cell_angle_gamma   119.57079855
_symmetry_Int_Tables_number   1
_chemical_formula_structural   TmLu3Al17GeIr6
_chemical_formula_sum   'Tm1 Lu3 Al17 Ge1 Ir6'
_cell_volume   463.10006037
_cell_formula_units_Z   1
loop_
 _symmetry_equiv_pos_site_id
 _symmetry_equiv_pos_as_xyz
  1  'x, y, z'
loop_
 _atom_site_type_symbol
 _atom_site_label
 _atom_site_symmetry_multiplicity
 _atom_site_fract_x
 _atom_site_fract_y
 _atom_site_fract_z
 _atom_site_occupancy
  Tm  Tm0  1  0.677403  0.994724  0.250000  1
  Lu  Lu1  1  0.994746  0.677436  0.250000  1
  Lu  Lu2  1  0.003311  0.328118  0.750000  1
  Lu  Lu3  1  0.328107  0.003306  0.750000  1
  Al  Al4  1  0.871923  0.871917  0.750000  1
  Al  Al5  1  0.999913  0.338078  0.074472  1
  Al  Al6  1  0.998551  0.664507  0.924148  1
  Al  Al7  1  0.998551  0.664507  0.575852  1
  Al  Al8  1  0.337910  0.999837  0.425518  1
  Al  Al9  1  0.999913  0.338078  0.425528  1
  Al  Al10  1  0.664506  0.998551  0.575918  1
  Al  Al11  1  0.664506  0.998551  0.924082  1
  Al  Al12  1  0.337910  0.999837  0.074482  1
  Al  Al13  1  0.332134  0.332128  0.560529  1
  Al  Al14  1  0.664079  0.663997  0.447160  1
  Al  Al15  1  0.664079  0.663997  0.052840  1
  Al  Al16  1  0.332134  0.332128  0.939471  1
  Al  Al17  1  0.337325  0.554626  0.250000  1
  Al  Al18  1  0.661258  0.450539  0.750000  1
  Al  Al19  1  0.554699  0.337450  0.250000  1
  Al  Al20  1  0.450538  0.661253  0.750000  1
  Ge  Ge21  1  0.136130  0.136095  0.250000  1
  Ir  Ir22  1  0.669719  0.326178  0.000068  1
  Ir  Ir23  1  0.326099  0.669683  0.000070  1
  Ir  Ir24  1  0.326099  0.669683  0.499930  1
  Ir  Ir25  1  0.669719  0.326178  0.499932  1
  Ir  Ir26  1  0.999369  0.999310  0.001093  1
  Ir  Ir27  1  0.999369  0.999310  0.498907  1
