# generated using pymatgen
data_Sc4ReSi3O
_symmetry_space_group_name_H-M   'P 1'
_cell_length_a   7.69473400
_cell_length_b   7.69473476
_cell_length_c   5.44743000
_cell_angle_alpha   90.00000000
_cell_angle_beta   90.00000000
_cell_angle_gamma   119.99999672
_symmetry_Int_Tables_number   1
_chemical_formula_structural   Sc4ReSi3O
_chemical_formula_sum   'Sc8 Re2 Si6 O2'
_cell_volume   279.32484718
_cell_formula_units_Z   2
loop_
 _symmetry_equiv_pos_site_id
 _symmetry_equiv_pos_as_xyz
  1  'x, y, z'
loop_
 _atom_site_type_symbol
 _atom_site_label
 _atom_site_symmetry_multiplicity
 _atom_site_fract_x
 _atom_site_fract_y
 _atom_site_fract_z
 _atom_site_occupancy
  Sc  Sc0  1  0.232774  0.000000  0.248069  1
  Sc  Sc1  1  0.767226  0.000000  0.751931  1
  Sc  Sc2  1  0.000000  0.232774  0.248069  1
  Sc  Sc3  1  0.000000  0.767226  0.751931  1
  Sc  Sc4  1  0.767226  0.767226  0.248069  1
  Sc  Sc5  1  0.232774  0.232774  0.751931  1
  Sc  Sc6  1  0.666667  0.333333  0.500000  1
  Sc  Sc7  1  0.333333  0.666667  0.500000  1
  Re  Re8  1  0.333333  0.666667  0.000000  1
  Re  Re9  1  0.666667  0.333333  0.000000  1
  Si  Si10  1  0.589108  0.000000  0.217931  1
  Si  Si11  1  0.410892  0.000000  0.782069  1
  Si  Si12  1  0.000000  0.589108  0.217931  1
  Si  Si13  1  0.000000  0.410892  0.782069  1
  Si  Si14  1  0.410892  0.410892  0.217931  1
  Si  Si15  1  0.589108  0.589108  0.782069  1
  O  O16  1  0.000000  0.000000  0.000000  1
  O  O17  1  0.000000  0.000000  0.500000  1
