# generated using pymatgen
data_Dy3Zn2Ga7Pd2
_symmetry_space_group_name_H-M   'P 1'
_cell_length_a   4.28840581
_cell_length_b   8.14296812
_cell_length_c   8.18622338
_cell_angle_alpha   70.66590617
_cell_angle_beta   74.81550950
_cell_angle_gamma   74.73288189
_symmetry_Int_Tables_number   1
_chemical_formula_structural   Dy3Zn2Ga7Pd2
_chemical_formula_sum   'Dy3 Zn2 Ga7 Pd2'
_cell_volume   255.38464559
_cell_formula_units_Z   1
loop_
 _symmetry_equiv_pos_site_id
 _symmetry_equiv_pos_as_xyz
  1  'x, y, z'
loop_
 _atom_site_type_symbol
 _atom_site_label
 _atom_site_symmetry_multiplicity
 _atom_site_fract_x
 _atom_site_fract_y
 _atom_site_fract_z
 _atom_site_occupancy
  Dy  Dy0  1  0.500000  0.500000  0.500000  1
  Dy  Dy1  1  0.201154  0.794769  0.802923  1
  Dy  Dy2  1  0.798846  0.205231  0.197077  1
  Zn  Zn3  1  0.362164  0.359817  0.915855  1
  Zn  Zn4  1  0.637836  0.640183  0.084145  1
  Ga  Ga5  1  0.360807  0.920581  0.357806  1
  Ga  Ga6  1  0.639193  0.079419  0.642194  1
  Ga  Ga7  1  0.156016  0.483402  0.204566  1
  Ga  Ga8  1  0.843984  0.516598  0.795434  1
  Ga  Ga9  1  0.155181  0.213014  0.476624  1
  Ga  Ga10  1  0.844819  0.786986  0.523376  1
  Ga  Ga11  1  0.500000  0.000000  0.000000  1
  Pd  Pd12  1  0.997670  0.821867  0.182794  1
  Pd  Pd13  1  0.002330  0.178133  0.817206  1
