# generated using pymatgen
data_Ce2MnAl20Ir2Ru
_symmetry_space_group_name_H-M   'P 1'
_cell_length_a   6.84782440
_cell_length_b   6.83941719
_cell_length_c   9.13069089
_cell_angle_alpha   89.94953169
_cell_angle_beta   89.83918898
_cell_angle_gamma   97.38380239
_symmetry_Int_Tables_number   1
_chemical_formula_structural   Ce2MnAl20Ir2Ru
_chemical_formula_sum   'Ce2 Mn1 Al20 Ir2 Ru1'
_cell_volume   424.08890726
_cell_formula_units_Z   1
loop_
 _symmetry_equiv_pos_site_id
 _symmetry_equiv_pos_as_xyz
  1  'x, y, z'
loop_
 _atom_site_type_symbol
 _atom_site_label
 _atom_site_symmetry_multiplicity
 _atom_site_fract_x
 _atom_site_fract_y
 _atom_site_fract_z
 _atom_site_occupancy
  Ce  Ce0  1  0.878860  0.127370  0.747597  1
  Ce  Ce1  1  0.121140  0.872630  0.252403  1
  Mn  Mn2  1  0.000000  0.500000  0.500000  1
  Al  Al3  1  0.591368  0.858643  0.252087  1
  Al  Al4  1  0.777599  0.518009  0.255932  1
  Al  Al5  1  0.158639  0.841972  0.895127  1
  Al  Al6  1  0.408632  0.141357  0.747913  1
  Al  Al7  1  0.621819  0.378899  0.947228  1
  Al  Al8  1  0.843531  0.161709  0.400182  1
  Al  Al9  1  0.778429  0.778095  0.998936  1
  Al  Al10  1  0.861344  0.589659  0.744831  1
  Al  Al11  1  0.841361  0.158028  0.104873  1
  Al  Al12  1  0.222401  0.481991  0.744068  1
  Al  Al13  1  0.156469  0.838291  0.599818  1
  Al  Al14  1  0.779971  0.774113  0.498518  1
  Al  Al15  1  0.479520  0.222863  0.252745  1
  Al  Al16  1  0.626997  0.378891  0.548332  1
  Al  Al17  1  0.220029  0.225887  0.501482  1
  Al  Al18  1  0.373003  0.621109  0.451668  1
  Al  Al19  1  0.138656  0.410341  0.255169  1
  Al  Al20  1  0.520480  0.777137  0.747255  1
  Al  Al21  1  0.378181  0.621101  0.052772  1
  Al  Al22  1  0.221571  0.221905  0.001064  1
  Ir  Ir23  1  0.500000  0.000000  0.000000  1
  Ir  Ir24  1  0.000000  0.500000  0.000000  1
  Ru  Ru25  1  0.500000  0.000000  0.500000  1
