# generated using pymatgen
data_CsRb5Na2Li4(BO3)4
_symmetry_space_group_name_H-M   'P 1'
_cell_length_a   6.64450566
_cell_length_b   7.23259153
_cell_length_c   10.13740800
_cell_angle_alpha   96.60860114
_cell_angle_beta   101.48875978
_cell_angle_gamma   103.86844177
_symmetry_Int_Tables_number   1
_chemical_formula_structural   CsRb5Na2Li4(BO3)4
_chemical_formula_sum   'Cs1 Rb5 Na2 Li4 B4 O12'
_cell_volume   456.65652826
_cell_formula_units_Z   1
loop_
 _symmetry_equiv_pos_site_id
 _symmetry_equiv_pos_as_xyz
  1  'x, y, z'
loop_
 _atom_site_type_symbol
 _atom_site_label
 _atom_site_symmetry_multiplicity
 _atom_site_fract_x
 _atom_site_fract_y
 _atom_site_fract_z
 _atom_site_occupancy
  Cs  Cs0  1  0.216469  0.231132  0.126572  1
  Rb  Rb1  1  0.640743  0.267002  0.923476  1
  Rb  Rb2  1  0.803904  0.690139  0.515038  1
  Rb  Rb3  1  0.359934  0.738416  0.075916  1
  Rb  Rb4  1  0.195998  0.309764  0.486145  1
  Rb  Rb5  1  0.775976  0.767314  0.863964  1
  Na  Na6  1  0.325603  0.824122  0.414424  1
  Na  Na7  1  0.672852  0.174772  0.586557  1
  Li  Li8  1  0.198405  0.087150  0.768403  1
  Li  Li9  1  0.229060  0.599093  0.763258  1
  Li  Li10  1  0.770349  0.400958  0.236893  1
  Li  Li11  1  0.800762  0.911915  0.230248  1
  B  B12  1  0.353965  0.868724  0.687714  1
  B  B13  1  0.028769  0.315508  0.789206  1
  B  B14  1  0.650470  0.131394  0.314405  1
  B  B15  1  0.969332  0.683962  0.210805  1
  O  O16  1  0.250780  0.371785  0.843647  1
  O  O17  1  0.322641  0.878859  0.822235  1
  O  O18  1  0.077792  0.878775  0.228370  1
  O  O19  1  0.679667  0.121280  0.179404  1
  O  O20  1  0.336328  0.024232  0.621074  1
  O  O21  1  0.386839  0.699387  0.626455  1
  O  O22  1  0.749812  0.626135  0.147701  1
  O  O23  1  0.663183  0.973509  0.379295  1
  O  O24  1  0.926799  0.452384  0.744466  1
  O  O25  1  0.920685  0.120367  0.774615  1
  O  O26  1  0.624117  0.302564  0.377675  1
  O  O27  1  0.068767  0.549356  0.262040  1
