# generated using pymatgen
data_NaCa9(Bi2As)2
_symmetry_space_group_name_H-M   'P 1'
_cell_length_a   8.19207591
_cell_length_b   9.52563800
_cell_length_c   12.69123740
_cell_angle_alpha   90.00000000
_cell_angle_beta   89.72727597
_cell_angle_gamma   90.00000000
_symmetry_Int_Tables_number   1
_chemical_formula_structural   NaCa9(Bi2As)2
_chemical_formula_sum   'Na2 Ca18 Bi8 As4'
_cell_volume   990.34631298
_cell_formula_units_Z   2
loop_
 _symmetry_equiv_pos_site_id
 _symmetry_equiv_pos_as_xyz
  1  'x, y, z'
loop_
 _atom_site_type_symbol
 _atom_site_label
 _atom_site_symmetry_multiplicity
 _atom_site_fract_x
 _atom_site_fract_y
 _atom_site_fract_z
 _atom_site_occupancy
  Na  Na0  1  0.046438  0.750000  0.499927  1
  Na  Na1  1  0.953562  0.250000  0.500073  1
  Ca  Ca2  1  0.545624  0.250000  0.997024  1
  Ca  Ca3  1  0.454376  0.750000  0.002976  1
  Ca  Ca4  1  0.868190  0.750000  0.801518  1
  Ca  Ca5  1  0.131810  0.250000  0.198482  1
  Ca  Ca6  1  0.357482  0.250000  0.704322  1
  Ca  Ca7  1  0.642518  0.750000  0.295678  1
  Ca  Ca8  1  0.692872  0.522099  0.566425  1
  Ca  Ca9  1  0.307128  0.477901  0.433575  1
  Ca  Ca10  1  0.184129  0.463935  0.925924  1
  Ca  Ca11  1  0.307128  0.022099  0.433575  1
  Ca  Ca12  1  0.815871  0.536065  0.074076  1
  Ca  Ca13  1  0.692872  0.977901  0.566425  1
  Ca  Ca14  1  0.815871  0.963935  0.074076  1
  Ca  Ca15  1  0.184129  0.036065  0.925924  1
  Ca  Ca16  1  0.332767  0.750000  0.710212  1
  Ca  Ca17  1  0.667233  0.250000  0.289788  1
  Ca  Ca18  1  0.841113  0.250000  0.784195  1
  Ca  Ca19  1  0.158887  0.750000  0.215805  1
  Bi  Bi20  1  0.569459  0.512255  0.827174  1
  Bi  Bi21  1  0.430541  0.487745  0.172826  1
  Bi  Bi22  1  0.065693  0.492488  0.670778  1
  Bi  Bi23  1  0.430541  0.012255  0.172826  1
  Bi  Bi24  1  0.934307  0.507512  0.329222  1
  Bi  Bi25  1  0.569459  0.987745  0.827174  1
  Bi  Bi26  1  0.934307  0.992488  0.329222  1
  Bi  Bi27  1  0.065693  0.007512  0.670778  1
  As  As28  1  0.073743  0.750000  0.988008  1
  As  As29  1  0.926257  0.250000  0.011992  1
  As  As30  1  0.540751  0.250000  0.507493  1
  As  As31  1  0.459249  0.750000  0.492507  1
