# generated using pymatgen
data_NdYHo3(In2Pd)2
_symmetry_space_group_name_H-M   'P 1'
_cell_length_a   3.63710700
_cell_length_b   8.20855068
_cell_length_c   18.39753757
_cell_angle_alpha   89.95298927
_cell_angle_beta   90.00000000
_cell_angle_gamma   90.00000000
_symmetry_Int_Tables_number   1
_chemical_formula_structural   NdYHo3(In2Pd)2
_chemical_formula_sum   'Nd2 Y2 Ho6 In8 Pd4'
_cell_volume   549.26523775
_cell_formula_units_Z   2
loop_
 _symmetry_equiv_pos_site_id
 _symmetry_equiv_pos_as_xyz
  1  'x, y, z'
loop_
 _atom_site_type_symbol
 _atom_site_label
 _atom_site_symmetry_multiplicity
 _atom_site_fract_x
 _atom_site_fract_y
 _atom_site_fract_z
 _atom_site_occupancy
  Nd  Nd0  1  0.000000  0.500000  0.500000  1
  Nd  Nd1  1  0.000000  0.000000  0.000000  1
  Y  Y2  1  0.000000  0.737747  0.282341  1
  Y  Y3  1  0.000000  0.262253  0.717659  1
  Ho  Ho4  1  0.000000  0.761355  0.781812  1
  Ho  Ho5  1  0.000000  0.238645  0.218188  1
  Ho  Ho6  1  0.000000  0.620766  0.084358  1
  Ho  Ho7  1  0.000000  0.379234  0.915642  1
  Ho  Ho8  1  0.000000  0.878544  0.584359  1
  Ho  Ho9  1  0.000000  0.121456  0.415641  1
  In  In10  1  0.500000  0.700050  0.931981  1
  In  In11  1  0.500000  0.299950  0.068019  1
  In  In12  1  0.500000  0.800990  0.432174  1
  In  In13  1  0.500000  0.199010  0.567826  1
  In  In14  1  0.500000  0.583188  0.653511  1
  In  In15  1  0.500000  0.416812  0.346489  1
  In  In16  1  0.500000  0.917865  0.153450  1
  In  In17  1  0.500000  0.082135  0.846550  1
  Pd  Pd18  1  0.500000  0.520845  0.194681  1
  Pd  Pd19  1  0.500000  0.479155  0.805319  1
  Pd  Pd20  1  0.500000  0.972614  0.695493  1
  Pd  Pd21  1  0.500000  0.027386  0.304507  1
