# generated using pymatgen
data_Ag3IO6
_symmetry_space_group_name_H-M   'P 1'
_cell_length_a   5.42414706
_cell_length_b   5.57399400
_cell_length_c   9.11249338
_cell_angle_alpha   90.00000000
_cell_angle_beta   86.87961944
_cell_angle_gamma   90.00000000
_symmetry_Int_Tables_number   1
_chemical_formula_structural   Ag3IO6
_chemical_formula_sum   'Ag6 I2 O12'
_cell_volume   275.10013467
_cell_formula_units_Z   2
loop_
 _symmetry_equiv_pos_site_id
 _symmetry_equiv_pos_as_xyz
  1  'x, y, z'
loop_
 _atom_site_type_symbol
 _atom_site_label
 _atom_site_symmetry_multiplicity
 _atom_site_fract_x
 _atom_site_fract_y
 _atom_site_fract_z
 _atom_site_occupancy
  Ag  Ag0  1  0.000000  0.000000  0.500000  1
  Ag  Ag1  1  0.500000  0.500000  0.000000  1
  Ag  Ag2  1  0.985214  0.588110  0.288482  1
  Ag  Ag3  1  0.014786  0.411890  0.711518  1
  Ag  Ag4  1  0.514786  0.088110  0.211518  1
  Ag  Ag5  1  0.485214  0.911890  0.788482  1
  I  I6  1  0.000000  0.000000  0.000000  1
  I  I7  1  0.500000  0.500000  0.500000  1
  O  O8  1  0.858944  0.274059  0.098504  1
  O  O9  1  0.141056  0.725941  0.901496  1
  O  O10  1  0.641056  0.774059  0.401496  1
  O  O11  1  0.358944  0.225941  0.598504  1
  O  O12  1  0.152480  0.903074  0.181411  1
  O  O13  1  0.847520  0.096926  0.818589  1
  O  O14  1  0.347520  0.403074  0.318589  1
  O  O15  1  0.652480  0.596926  0.681411  1
  O  O16  1  0.708319  0.823186  0.066537  1
  O  O17  1  0.291681  0.176814  0.933463  1
  O  O18  1  0.791681  0.323186  0.433463  1
  O  O19  1  0.208319  0.676814  0.566537  1
