# generated using pymatgen
data_Ba2IrO5
_symmetry_space_group_name_H-M   'P 1'
_cell_length_a   5.77131400
_cell_length_b   7.49305200
_cell_length_c   11.70256300
_cell_angle_alpha   90.00000000
_cell_angle_beta   90.00000000
_cell_angle_gamma   90.00002522
_symmetry_Int_Tables_number   1
_chemical_formula_structural   Ba2IrO5
_chemical_formula_sum   'Ba8 Ir4 O20'
_cell_volume   506.07448046
_cell_formula_units_Z   4
loop_
 _symmetry_equiv_pos_site_id
 _symmetry_equiv_pos_as_xyz
  1  'x, y, z'
loop_
 _atom_site_type_symbol
 _atom_site_label
 _atom_site_symmetry_multiplicity
 _atom_site_fract_x
 _atom_site_fract_y
 _atom_site_fract_z
 _atom_site_occupancy
  Ba  Ba0  1  0.749999  0.478115  0.289354  1
  Ba  Ba1  1  0.250001  0.521885  0.710646  1
  Ba  Ba2  1  0.749999  0.978115  0.210646  1
  Ba  Ba3  1  0.250001  0.021885  0.789354  1
  Ba  Ba4  1  0.750001  0.166103  0.580327  1
  Ba  Ba5  1  0.249999  0.833897  0.419673  1
  Ba  Ba6  1  0.750001  0.666103  0.919673  1
  Ba  Ba7  1  0.249999  0.333897  0.080327  1
  Ir  Ir8  1  0.750003  0.170988  0.937682  1
  Ir  Ir9  1  0.249997  0.829012  0.062318  1
  Ir  Ir10  1  0.750003  0.670988  0.562318  1
  Ir  Ir11  1  0.249997  0.329012  0.437682  1
  O  O12  1  0.492217  0.178648  0.384547  1
  O  O13  1  0.992216  0.821350  0.615452  1
  O  O14  1  0.007784  0.678650  0.115452  1
  O  O15  1  0.507783  0.321352  0.884547  1
  O  O16  1  0.507783  0.821352  0.615453  1
  O  O17  1  0.007784  0.178650  0.384548  1
  O  O18  1  0.992216  0.321350  0.884548  1
  O  O19  1  0.492217  0.678648  0.115453  1
  O  O20  1  0.500000  0.500000  0.500000  1
  O  O21  1  0.000000  0.500000  0.500000  1
  O  O22  1  0.000000  0.000000  0.000000  1
  O  O23  1  0.500000  0.000000  0.000000  1
  O  O24  1  0.750001  0.287647  0.090433  1
  O  O25  1  0.249999  0.712353  0.909567  1
  O  O26  1  0.750001  0.787647  0.409567  1
  O  O27  1  0.249999  0.212353  0.590433  1
  O  O28  1  0.749998  0.029294  0.801744  1
  O  O29  1  0.250002  0.970706  0.198256  1
  O  O30  1  0.749998  0.529294  0.698256  1
  O  O31  1  0.250002  0.470706  0.301744  1
