# generated using pymatgen
data_La3AlAu5
_symmetry_space_group_name_H-M   'P 1'
_cell_length_a   8.87072213
_cell_length_b   8.87072241
_cell_length_c   8.87072205
_cell_angle_alpha   128.21522737
_cell_angle_beta   126.53167367
_cell_angle_gamma   77.64991951
_symmetry_Int_Tables_number   1
_chemical_formula_structural   La3AlAu5
_chemical_formula_sum   'La6 Al2 Au10'
_cell_volume   427.31229163
_cell_formula_units_Z   2
loop_
 _symmetry_equiv_pos_site_id
 _symmetry_equiv_pos_as_xyz
  1  'x, y, z'
loop_
 _atom_site_type_symbol
 _atom_site_label
 _atom_site_symmetry_multiplicity
 _atom_site_fract_x
 _atom_site_fract_y
 _atom_site_fract_z
 _atom_site_occupancy
  La  La0  1  0.821017  0.047558  0.773459  1
  La  La1  1  0.225900  0.452442  0.773459  1
  La  La2  1  0.178983  0.952442  0.226541  1
  La  La3  1  0.376877  0.250000  0.126877  1
  La  La4  1  0.774100  0.547558  0.226541  1
  La  La5  1  0.623123  0.750000  0.873123  1
  Al  Al6  1  0.218012  0.750000  0.468012  1
  Al  Al7  1  0.781988  0.250000  0.531988  1
  Au  Au8  1  0.831927  0.600135  0.639228  1
  Au  Au9  1  0.539093  0.307301  0.639228  1
  Au  Au10  1  0.460907  0.100135  0.768208  1
  Au  Au11  1  0.831927  0.192699  0.231792  1
  Au  Au12  1  0.168073  0.399865  0.360772  1
  Au  Au13  1  0.460907  0.692699  0.360772  1
  Au  Au14  1  0.539093  0.899865  0.231792  1
  Au  Au15  1  0.168073  0.807301  0.768208  1
  Au  Au16  1  0.000000  0.000000  0.500000  1
  Au  Au17  1  0.000000  0.500000  0.000000  1
