# generated using pymatgen
data_Tm11LuInFe3Au
_symmetry_space_group_name_H-M   'P 1'
_cell_length_a   8.15636389
_cell_length_b   8.15228370
_cell_length_c   8.15233934
_cell_angle_alpha   110.25337579
_cell_angle_beta   107.39546349
_cell_angle_gamma   110.78522034
_symmetry_Int_Tables_number   1
_chemical_formula_structural   Tm11LuInFe3Au
_chemical_formula_sum   'Tm11 Lu1 In1 Fe3 Au1'
_cell_volume   416.86897877
_cell_formula_units_Z   1
loop_
 _symmetry_equiv_pos_site_id
 _symmetry_equiv_pos_as_xyz
  1  'x, y, z'
loop_
 _atom_site_type_symbol
 _atom_site_label
 _atom_site_symmetry_multiplicity
 _atom_site_fract_x
 _atom_site_fract_y
 _atom_site_fract_z
 _atom_site_occupancy
  Tm  Tm0  1  0.307077  0.310957  0.617060  1
  Tm  Tm1  1  0.691852  0.690268  0.382769  1
  Tm  Tm2  1  0.692065  0.309218  0.001795  1
  Tm  Tm3  1  0.307019  0.690017  0.996201  1
  Tm  Tm4  1  0.193387  0.451252  0.257709  1
  Tm  Tm5  1  0.806280  0.549919  0.742553  1
  Tm  Tm6  1  0.193264  0.935610  0.742116  1
  Tm  Tm7  1  0.962441  0.187161  0.775236  1
  Tm  Tm8  1  0.806538  0.063926  0.256390  1
  Tm  Tm9  1  0.036917  0.812375  0.224589  1
  Tm  Tm10  1  0.412135  0.187375  0.224797  1
  Lu  Lu11  1  0.588482  0.812790  0.775657  1
  In  In12  1  0.499619  0.999678  0.500399  1
  Fe  Fe13  1  0.382030  0.381989  0.000081  1
  Fe  Fe14  1  0.617755  0.618009  0.999536  1
  Fe  Fe15  1  0.999783  0.999374  0.999618  1
  Au  Au16  1  0.003358  0.500082  0.503494  1
