# generated using pymatgen
data_YbEuErBeO5
_symmetry_space_group_name_H-M   'P 1'
_cell_length_a   6.31625241
_cell_length_b   6.97350375
_cell_length_c   9.22376200
_cell_angle_alpha   90.00000000
_cell_angle_beta   90.00000000
_cell_angle_gamma   89.54611898
_symmetry_Int_Tables_number   1
_chemical_formula_structural   YbEuErBeO5
_chemical_formula_sum   'Yb4 Eu4 Er4 Be4 O20'
_cell_volume   406.26085440
_cell_formula_units_Z   4
loop_
 _symmetry_equiv_pos_site_id
 _symmetry_equiv_pos_as_xyz
  1  'x, y, z'
loop_
 _atom_site_type_symbol
 _atom_site_label
 _atom_site_symmetry_multiplicity
 _atom_site_fract_x
 _atom_site_fract_y
 _atom_site_fract_z
 _atom_site_occupancy
  Yb  Yb0  1  0.917284  0.517823  0.828023  1
  Yb  Yb1  1  0.417284  0.017823  0.671977  1
  Yb  Yb2  1  0.582716  0.982177  0.328023  1
  Yb  Yb3  1  0.082716  0.482177  0.171977  1
  Eu  Eu4  1  0.418469  0.473856  0.675085  1
  Eu  Eu5  1  0.918469  0.973856  0.824915  1
  Eu  Eu6  1  0.581531  0.526144  0.324915  1
  Eu  Eu7  1  0.081531  0.026144  0.175085  1
  Er  Er8  1  0.405601  0.748846  0.977239  1
  Er  Er9  1  0.094399  0.751154  0.477239  1
  Er  Er10  1  0.594399  0.251154  0.022761  1
  Er  Er11  1  0.905601  0.248846  0.522761  1
  Be  Be12  1  0.191434  0.251587  0.898100  1
  Be  Be13  1  0.808566  0.748413  0.101900  1
  Be  Be14  1  0.308566  0.248413  0.398100  1
  Be  Be15  1  0.691434  0.751587  0.601900  1
  O  O16  1  0.131295  0.249017  0.721161  1
  O  O17  1  0.316348  0.444504  0.931114  1
  O  O18  1  0.835107  0.253423  0.280368  1
  O  O19  1  0.664893  0.246577  0.780368  1
  O  O20  1  0.689476  0.947633  0.067231  1
  O  O21  1  0.310524  0.052367  0.932769  1
  O  O22  1  0.368705  0.250983  0.221161  1
  O  O23  1  0.471942  0.753835  0.508740  1
  O  O24  1  0.868705  0.750983  0.278839  1
  O  O25  1  0.335107  0.753423  0.219632  1
  O  O26  1  0.028058  0.746165  0.008740  1
  O  O27  1  0.810524  0.552367  0.567231  1
  O  O28  1  0.528058  0.246165  0.491260  1
  O  O29  1  0.164893  0.746577  0.719632  1
  O  O30  1  0.683652  0.555496  0.068886  1
  O  O31  1  0.189476  0.447633  0.432769  1
  O  O32  1  0.816348  0.944504  0.568886  1
  O  O33  1  0.631295  0.749017  0.778839  1
  O  O34  1  0.971942  0.253835  0.991260  1
  O  O35  1  0.183652  0.055496  0.431114  1
