# generated using pymatgen
data_Ho2Er6B24IrRu3
_symmetry_space_group_name_H-M   'P 1'
_cell_length_a   3.63752700
_cell_length_b   9.10897441
_cell_length_c   11.46061600
_cell_angle_alpha   90.04316114
_cell_angle_beta   90.00000000
_cell_angle_gamma   90.00000000
_symmetry_Int_Tables_number   1
_chemical_formula_structural   Ho2Er6B24IrRu3
_chemical_formula_sum   'Ho2 Er6 B24 Ir1 Ru3'
_cell_volume   379.73755137
_cell_formula_units_Z   1
loop_
 _symmetry_equiv_pos_site_id
 _symmetry_equiv_pos_as_xyz
  1  'x, y, z'
loop_
 _atom_site_type_symbol
 _atom_site_label
 _atom_site_symmetry_multiplicity
 _atom_site_fract_x
 _atom_site_fract_y
 _atom_site_fract_z
 _atom_site_occupancy
  Ho  Ho0  1  0.000000  0.318993  0.414414  1
  Ho  Ho1  1  0.000000  0.679054  0.589054  1
  Er  Er2  1  0.000000  0.823305  0.084005  1
  Er  Er3  1  0.000000  0.178830  0.913223  1
  Er  Er4  1  0.000000  0.945462  0.372896  1
  Er  Er5  1  0.000000  0.056136  0.627118  1
  Er  Er6  1  0.000000  0.441687  0.125613  1
  Er  Er7  1  0.000000  0.556091  0.873323  1
  B  B8  1  0.500000  0.553652  0.433791  1
  B  B9  1  0.500000  0.446081  0.566955  1
  B  B10  1  0.500000  0.053923  0.066560  1
  B  B11  1  0.500000  0.946515  0.933090  1
  B  B12  1  0.500000  0.749684  0.421142  1
  B  B13  1  0.500000  0.251289  0.580109  1
  B  B14  1  0.500000  0.247943  0.079596  1
  B  B15  1  0.500000  0.752099  0.920264  1
  B  B16  1  0.500000  0.792213  0.265310  1
  B  B17  1  0.500000  0.208749  0.733973  1
  B  B18  1  0.500000  0.291297  0.234087  1
  B  B19  1  0.500000  0.708716  0.766432  1
  B  B20  1  0.500000  0.631910  0.183549  1
  B  B21  1  0.500000  0.368478  0.815049  1
  B  B22  1  0.500000  0.131401  0.315036  1
  B  B23  1  0.500000  0.868408  0.685279  1
  B  B24  1  0.500000  0.982622  0.212736  1
  B  B25  1  0.500000  0.017419  0.786949  1
  B  B26  1  0.500000  0.481745  0.286611  1
  B  B27  1  0.500000  0.517050  0.713441  1
  B  B28  1  0.500000  0.609472  0.030394  1
  B  B29  1  0.500000  0.390633  0.969941  1
  B  B30  1  0.500000  0.108093  0.470184  1
  B  B31  1  0.500000  0.891156  0.529600  1
  Ir  Ir32  1  0.000000  0.637490  0.321396  1
  Ru  Ru33  1  0.000000  0.362362  0.678687  1
  Ru  Ru34  1  0.000000  0.137765  0.178913  1
  Ru  Ru35  1  0.000000  0.862274  0.821282  1
