# generated using pymatgen
data_Sr6Co4RhO15
_symmetry_space_group_name_H-M   'P 1'
_cell_length_a   6.96014843
_cell_length_b   6.96014880
_cell_length_c   6.96014793
_cell_angle_alpha   86.57733037
_cell_angle_beta   86.57733307
_cell_angle_gamma   86.57732115
_symmetry_Int_Tables_number   1
_chemical_formula_structural   Sr6Co4RhO15
_chemical_formula_sum   'Sr6 Co4 Rh1 O15'
_cell_volume   335.43971603
_cell_formula_units_Z   1
loop_
 _symmetry_equiv_pos_site_id
 _symmetry_equiv_pos_as_xyz
  1  'x, y, z'
loop_
 _atom_site_type_symbol
 _atom_site_label
 _atom_site_symmetry_multiplicity
 _atom_site_fract_x
 _atom_site_fract_y
 _atom_site_fract_z
 _atom_site_occupancy
  Sr  Sr0  1  0.500000  0.862329  0.137671  1
  Sr  Sr1  1  0.137671  0.500000  0.862329  1
  Sr  Sr2  1  0.862329  0.137671  0.500000  1
  Sr  Sr3  1  0.000000  0.679336  0.320664  1
  Sr  Sr4  1  0.320664  0.000000  0.679336  1
  Sr  Sr5  1  0.679336  0.320664  0.000000  1
  Co  Co6  1  0.709544  0.709544  0.709544  1
  Co  Co7  1  0.290456  0.290456  0.290456  1
  Co  Co8  1  0.903419  0.903419  0.903419  1
  Co  Co9  1  0.096581  0.096581  0.096581  1
  Rh  Rh10  1  0.500000  0.500000  0.500000  1
  O  O11  1  0.359228  0.554194  0.254854  1
  O  O12  1  0.254854  0.359228  0.554194  1
  O  O13  1  0.554194  0.254854  0.359228  1
  O  O14  1  0.640772  0.745146  0.445806  1
  O  O15  1  0.445806  0.640772  0.745146  1
  O  O16  1  0.745146  0.445806  0.640772  1
  O  O17  1  0.206554  0.030412  0.341316  1
  O  O18  1  0.341316  0.206554  0.030412  1
  O  O19  1  0.030412  0.341316  0.206554  1
  O  O20  1  0.793446  0.658684  0.969588  1
  O  O21  1  0.969588  0.793446  0.658684  1
  O  O22  1  0.153576  0.846424  0.000000  1
  O  O23  1  0.846424  0.000000  0.153576  1
  O  O24  1  0.000000  0.153576  0.846424  1
  O  O25  1  0.658684  0.969588  0.793446  1
