# generated using pymatgen
data_PaNiAsH
_symmetry_space_group_name_H-M   'P 1'
_cell_length_a   4.00155900
_cell_length_b   8.10033000
_cell_length_c   7.04587500
_cell_angle_alpha   90.00000000
_cell_angle_beta   90.00000000
_cell_angle_gamma   90.00000000
_symmetry_Int_Tables_number   1
_chemical_formula_structural   PaNiAsH
_chemical_formula_sum   'Pa4 Ni4 As4 H4'
_cell_volume   228.38462878
_cell_formula_units_Z   4
loop_
 _symmetry_equiv_pos_site_id
 _symmetry_equiv_pos_as_xyz
  1  'x, y, z'
loop_
 _atom_site_type_symbol
 _atom_site_label
 _atom_site_symmetry_multiplicity
 _atom_site_fract_x
 _atom_site_fract_y
 _atom_site_fract_z
 _atom_site_occupancy
  Pa  Pa0  1  0.750000  0.505950  0.757993  1
  Pa  Pa1  1  0.250000  0.494050  0.242007  1
  Pa  Pa2  1  0.250000  0.994050  0.257993  1
  Pa  Pa3  1  0.750000  0.005950  0.742007  1
  Ni  Ni4  1  0.750000  0.247213  0.412107  1
  Ni  Ni5  1  0.250000  0.752787  0.587893  1
  Ni  Ni6  1  0.250000  0.252787  0.912107  1
  Ni  Ni7  1  0.750000  0.747213  0.087893  1
  As  As8  1  0.750000  0.224190  0.080978  1
  As  As9  1  0.250000  0.775810  0.919022  1
  As  As10  1  0.250000  0.275810  0.580978  1
  As  As11  1  0.750000  0.724190  0.419022  1
  H  H12  1  0.250000  0.959044  0.579630  1
  H  H13  1  0.750000  0.040956  0.420370  1
  H  H14  1  0.750000  0.540956  0.079630  1
  H  H15  1  0.250000  0.459044  0.920370  1
