# generated using pymatgen
data_Ho10Tl7InPdRu3
_symmetry_space_group_name_H-M   'P 1'
_cell_length_a   3.62318600
_cell_length_b   8.05763787
_cell_length_c   18.44688300
_cell_angle_alpha   90.12352730
_cell_angle_beta   90.00000000
_cell_angle_gamma   90.00000000
_symmetry_Int_Tables_number   1
_chemical_formula_structural   Ho10Tl7InPdRu3
_chemical_formula_sum   'Ho10 Tl7 In1 Pd1 Ru3'
_cell_volume   538.54296686
_cell_formula_units_Z   1
loop_
 _symmetry_equiv_pos_site_id
 _symmetry_equiv_pos_as_xyz
  1  'x, y, z'
loop_
 _atom_site_type_symbol
 _atom_site_label
 _atom_site_symmetry_multiplicity
 _atom_site_fract_x
 _atom_site_fract_y
 _atom_site_fract_z
 _atom_site_occupancy
  Ho  Ho0  1  0.000000  0.500662  0.500532  1
  Ho  Ho1  1  0.000000  0.001684  0.999093  1
  Ho  Ho2  1  0.000000  0.729718  0.278032  1
  Ho  Ho3  1  0.000000  0.255989  0.720701  1
  Ho  Ho4  1  0.000000  0.755753  0.779696  1
  Ho  Ho5  1  0.000000  0.258568  0.218574  1
  Ho  Ho6  1  0.000000  0.614405  0.087848  1
  Ho  Ho7  1  0.000000  0.385628  0.908296  1
  Ho  Ho8  1  0.000000  0.884621  0.593621  1
  Ho  Ho9  1  0.000000  0.114657  0.413790  1
  Tl  Tl10  1  0.500000  0.709584  0.932670  1
  Tl  Tl11  1  0.500000  0.292499  0.065836  1
  Tl  Tl12  1  0.500000  0.791727  0.436371  1
  Tl  Tl13  1  0.500000  0.203578  0.565374  1
  Tl  Tl14  1  0.500000  0.570758  0.650149  1
  Tl  Tl15  1  0.500000  0.425698  0.351156  1
  Tl  Tl16  1  0.500000  0.923673  0.148944  1
  In  In17  1  0.500000  0.072345  0.849225  1
  Pd  Pd18  1  0.500000  0.025483  0.302962  1
  Ru  Ru19  1  0.500000  0.523433  0.195477  1
  Ru  Ru20  1  0.500000  0.476652  0.802778  1
  Ru  Ru21  1  0.500000  0.982887  0.698872  1
