# generated using pymatgen
data_Hf7Nb3ZnSn7
_symmetry_space_group_name_H-M   'P 1'
_cell_length_a   5.78573601
_cell_length_b   8.62270557
_cell_length_c   8.62197801
_cell_angle_alpha   120.00377524
_cell_angle_beta   89.99704926
_cell_angle_gamma   90.00524352
_symmetry_Int_Tables_number   1
_chemical_formula_structural   Hf7Nb3ZnSn7
_chemical_formula_sum   'Hf7 Nb3 Zn1 Sn7'
_cell_volume   372.49735104
_cell_formula_units_Z   1
loop_
 _symmetry_equiv_pos_site_id
 _symmetry_equiv_pos_as_xyz
  1  'x, y, z'
loop_
 _atom_site_type_symbol
 _atom_site_label
 _atom_site_symmetry_multiplicity
 _atom_site_fract_x
 _atom_site_fract_y
 _atom_site_fract_z
 _atom_site_occupancy
  Hf  Hf0  1  0.999974  0.333328  0.666657  1
  Hf  Hf1  1  0.735737  0.277386  0.000288  1
  Hf  Hf2  1  0.735772  0.722884  0.722659  1
  Hf  Hf3  1  0.735721  0.999708  0.277064  1
  Hf  Hf4  1  0.264275  0.722931  0.000274  1
  Hf  Hf5  1  0.264278  0.277345  0.277035  1
  Hf  Hf6  1  0.264246  0.999753  0.722679  1
  Nb  Nb7  1  0.499996  0.333348  0.666686  1
  Nb  Nb8  1  0.499991  0.666663  0.333332  1
  Nb  Nb9  1  0.999995  0.666660  0.333348  1
  Zn  Zn10  1  0.500079  0.999995  0.999959  1
  Sn  Sn11  1  0.754044  0.613957  0.002152  1
  Sn  Sn12  1  0.754032  0.388184  0.386052  1
  Sn  Sn13  1  0.754013  0.997844  0.611804  1
  Sn  Sn14  1  0.245917  0.388200  0.002144  1
  Sn  Sn15  1  0.245965  0.613948  0.611803  1
  Sn  Sn16  1  0.245965  0.997862  0.386060  1
  Sn  Sn17  1  0.999998  0.000003  0.000004  1
