# generated using pymatgen
data_K3Ag(IO3)6
_symmetry_space_group_name_H-M   'P 1'
_cell_length_a   7.07637794
_cell_length_b   7.09751077
_cell_length_c   10.73267737
_cell_angle_alpha   87.23008325
_cell_angle_beta   107.78510941
_cell_angle_gamma   108.05246970
_symmetry_Int_Tables_number   1
_chemical_formula_structural   K3Ag(IO3)6
_chemical_formula_sum   'K3 Ag1 I6 O18'
_cell_volume   487.37679801
_cell_formula_units_Z   1
loop_
 _symmetry_equiv_pos_site_id
 _symmetry_equiv_pos_as_xyz
  1  'x, y, z'
loop_
 _atom_site_type_symbol
 _atom_site_label
 _atom_site_symmetry_multiplicity
 _atom_site_fract_x
 _atom_site_fract_y
 _atom_site_fract_z
 _atom_site_occupancy
  K  K0  1  0.000000  0.000000  0.000000  1
  K  K1  1  0.827404  0.027007  0.603395  1
  K  K2  1  0.172596  0.972993  0.396605  1
  Ag  Ag3  1  0.500000  0.500000  0.000000  1
  I  I4  1  0.037056  0.475963  0.189885  1
  I  I5  1  0.962944  0.524037  0.810115  1
  I  I6  1  0.561713  0.966324  0.192841  1
  I  I7  1  0.438287  0.033676  0.807159  1
  I  I8  1  0.407809  0.550807  0.634234  1
  I  I9  1  0.592191  0.449193  0.365766  1
  O  O10  1  0.842858  0.546575  0.047677  1
  O  O11  1  0.157142  0.453425  0.952323  1
  O  O12  1  0.956907  0.550939  0.321382  1
  O  O13  1  0.043093  0.449061  0.678618  1
  O  O14  1  0.925861  0.204158  0.183901  1
  O  O15  1  0.074139  0.795842  0.816099  1
  O  O16  1  0.575584  0.825868  0.054223  1
  O  O17  1  0.424416  0.174132  0.945777  1
  O  O18  1  0.288244  0.852927  0.189092  1
  O  O19  1  0.711756  0.147073  0.810908  1
  O  O20  1  0.696640  0.844734  0.330243  1
  O  O21  1  0.303360  0.155266  0.669757  1
  O  O22  1  0.535119  0.614172  0.813969  1
  O  O23  1  0.464881  0.385828  0.186031  1
  O  O24  1  0.665012  0.572485  0.611014  1
  O  O25  1  0.334988  0.427515  0.388986  1
  O  O26  1  0.403773  0.803612  0.594986  1
  O  O27  1  0.596227  0.196388  0.405014  1
