# generated using pymatgen
data_Er7Lu3(Bi2Pt)2
_symmetry_space_group_name_H-M   'P 1'
_cell_length_a   7.97539471
_cell_length_b   8.98023105
_cell_length_c   12.31982439
_cell_angle_alpha   89.96631677
_cell_angle_beta   90.05457576
_cell_angle_gamma   90.01620314
_symmetry_Int_Tables_number   1
_chemical_formula_structural   Er7Lu3(Bi2Pt)2
_chemical_formula_sum   'Er14 Lu6 Bi8 Pt4'
_cell_volume   882.35616420
_cell_formula_units_Z   2
loop_
 _symmetry_equiv_pos_site_id
 _symmetry_equiv_pos_as_xyz
  1  'x, y, z'
loop_
 _atom_site_type_symbol
 _atom_site_label
 _atom_site_symmetry_multiplicity
 _atom_site_fract_x
 _atom_site_fract_y
 _atom_site_fract_z
 _atom_site_occupancy
  Er  Er0  1  0.663000  0.749657  0.710772  1
  Er  Er1  1  0.337000  0.250343  0.289228  1
  Er  Er2  1  0.162316  0.249911  0.789549  1
  Er  Er3  1  0.837684  0.750089  0.210451  1
  Er  Er4  1  0.128681  0.750636  0.804067  1
  Er  Er5  1  0.871319  0.249364  0.195933  1
  Er  Er6  1  0.628204  0.251302  0.696753  1
  Er  Er7  1  0.371796  0.748698  0.303247  1
  Er  Er8  1  0.552920  0.750152  0.000432  1
  Er  Er9  1  0.447080  0.249848  0.999568  1
  Er  Er10  1  0.051912  0.251989  0.499355  1
  Er  Er11  1  0.948088  0.748011  0.500645  1
  Er  Er12  1  0.677418  0.045187  0.432798  1
  Er  Er13  1  0.322582  0.954813  0.567202  1
  Lu  Lu14  1  0.825623  0.453306  0.933524  1
  Lu  Lu15  1  0.174377  0.546694  0.066476  1
  Lu  Lu16  1  0.325636  0.547224  0.567311  1
  Lu  Lu17  1  0.174536  0.953194  0.066795  1
  Lu  Lu18  1  0.674364  0.452776  0.432689  1
  Lu  Lu19  1  0.825464  0.046806  0.933205  1
  Bi  Bi20  1  0.932191  0.009960  0.671723  1
  Bi  Bi21  1  0.067809  0.990040  0.328277  1
  Bi  Bi22  1  0.434380  0.990719  0.828083  1
  Bi  Bi23  1  0.065843  0.509427  0.327127  1
  Bi  Bi24  1  0.565620  0.009281  0.171917  1
  Bi  Bi25  1  0.934157  0.490573  0.672873  1
  Bi  Bi26  1  0.566398  0.490161  0.171592  1
  Bi  Bi27  1  0.433602  0.509839  0.828408  1
  Pt  Pt28  1  0.924955  0.750128  0.989023  1
  Pt  Pt29  1  0.075045  0.249872  0.010977  1
  Pt  Pt30  1  0.425128  0.252059  0.510990  1
  Pt  Pt31  1  0.574872  0.747941  0.489010  1
