# generated using pymatgen
data_ScTa(SeO3)4
_symmetry_space_group_name_H-M   'P 1'
_cell_length_a   8.50077300
_cell_length_b   8.46581401
_cell_length_c   8.53974741
_cell_angle_alpha   89.42216542
_cell_angle_beta   90.00000000
_cell_angle_gamma   90.00000000
_symmetry_Int_Tables_number   1
_chemical_formula_structural   ScTa(SeO3)4
_chemical_formula_sum   'Sc2 Ta2 Se8 O24'
_cell_volume   614.53989418
_cell_formula_units_Z   2
loop_
 _symmetry_equiv_pos_site_id
 _symmetry_equiv_pos_as_xyz
  1  'x, y, z'
loop_
 _atom_site_type_symbol
 _atom_site_label
 _atom_site_symmetry_multiplicity
 _atom_site_fract_x
 _atom_site_fract_y
 _atom_site_fract_z
 _atom_site_occupancy
  Sc  Sc0  1  0.000000  0.500000  0.000000  1
  Sc  Sc1  1  0.500000  0.500000  0.500000  1
  Ta  Ta2  1  0.000000  0.000000  0.500000  1
  Ta  Ta3  1  0.500000  0.000000  0.000000  1
  Se  Se4  1  0.322810  0.665438  0.177435  1
  Se  Se5  1  0.822810  0.334562  0.322565  1
  Se  Se6  1  0.678748  0.814661  0.675761  1
  Se  Se7  1  0.178748  0.185339  0.824239  1
  Se  Se8  1  0.677190  0.334562  0.822565  1
  Se  Se9  1  0.177190  0.665438  0.677435  1
  Se  Se10  1  0.321252  0.185339  0.324239  1
  Se  Se11  1  0.821252  0.814661  0.175761  1
  O  O12  1  0.238716  0.546542  0.041974  1
  O  O13  1  0.738716  0.453458  0.458026  1
  O  O14  1  0.775766  0.961389  0.564821  1
  O  O15  1  0.275766  0.038611  0.935179  1
  O  O16  1  0.553510  0.940626  0.779611  1
  O  O17  1  0.459325  0.544125  0.260709  1
  O  O18  1  0.959325  0.455875  0.239291  1
  O  O19  1  0.053510  0.059374  0.720389  1
  O  O20  1  0.948983  0.221442  0.448960  1
  O  O21  1  0.553531  0.743893  0.540820  1
  O  O22  1  0.448983  0.778558  0.051040  1
  O  O23  1  0.053531  0.256107  0.959180  1
  O  O24  1  0.761284  0.453458  0.958026  1
  O  O25  1  0.261284  0.546542  0.541974  1
  O  O26  1  0.224234  0.038611  0.435179  1
  O  O27  1  0.724234  0.961389  0.064821  1
  O  O28  1  0.446490  0.059374  0.220389  1
  O  O29  1  0.540675  0.455875  0.739291  1
  O  O30  1  0.040675  0.544125  0.760709  1
  O  O31  1  0.946490  0.940626  0.279611  1
  O  O32  1  0.051017  0.778558  0.551040  1
  O  O33  1  0.446469  0.256107  0.459180  1
  O  O34  1  0.551017  0.221442  0.948960  1
  O  O35  1  0.946469  0.743893  0.040820  1
