# generated using pymatgen
data_YHoPt2F14
_symmetry_space_group_name_H-M   'P 1'
_cell_length_a   5.55126900
_cell_length_b   8.88287799
_cell_length_c   11.99638811
_cell_angle_alpha   62.48745000
_cell_angle_beta   90.00000000
_cell_angle_gamma   90.00000000
_symmetry_Int_Tables_number   1
_chemical_formula_structural   YHoPt2F14
_chemical_formula_sum   'Y2 Ho2 Pt4 F28'
_cell_volume   524.65747899
_cell_formula_units_Z   2
loop_
 _symmetry_equiv_pos_site_id
 _symmetry_equiv_pos_as_xyz
  1  'x, y, z'
loop_
 _atom_site_type_symbol
 _atom_site_label
 _atom_site_symmetry_multiplicity
 _atom_site_fract_x
 _atom_site_fract_y
 _atom_site_fract_z
 _atom_site_occupancy
  Y  Y0  1  0.761098  0.813590  0.764497  1
  Y  Y1  1  0.261098  0.186410  0.735503  1
  Ho  Ho2  1  0.238920  0.185503  0.235778  1
  Ho  Ho3  1  0.738920  0.814497  0.264222  1
  Pt  Pt4  1  0.758975  0.271853  0.957678  1
  Pt  Pt5  1  0.258975  0.728147  0.542322  1
  Pt  Pt6  1  0.241002  0.727052  0.044014  1
  Pt  Pt7  1  0.741002  0.272948  0.455986  1
  F  F8  1  0.435325  0.702509  0.916363  1
  F  F9  1  0.935325  0.297491  0.583637  1
  F  F10  1  0.563124  0.296606  0.084827  1
  F  F11  1  0.063124  0.703394  0.415173  1
  F  F12  1  0.440430  0.278458  0.541748  1
  F  F13  1  0.940430  0.721542  0.958252  1
  F  F14  1  0.560160  0.722815  0.456527  1
  F  F15  1  0.060160  0.277185  0.043473  1
  F  F16  1  0.774986  0.520778  0.858698  1
  F  F17  1  0.274986  0.479222  0.641302  1
  F  F18  1  0.225265  0.477628  0.141961  1
  F  F19  1  0.725265  0.522372  0.358039  1
  F  F20  1  0.754056  0.022910  0.050972  1
  F  F21  1  0.254056  0.977090  0.449028  1
  F  F22  1  0.245703  0.975908  0.950628  1
  F  F23  1  0.745703  0.024092  0.549372  1
  F  F24  1  0.966233  0.724689  0.635718  1
  F  F25  1  0.466233  0.275311  0.864282  1
  F  F26  1  0.034222  0.274637  0.363154  1
  F  F27  1  0.534222  0.725363  0.136846  1
  F  F28  1  0.050673  0.746146  0.175880  1
  F  F29  1  0.550673  0.253854  0.324120  1
  F  F30  1  0.947384  0.254235  0.824821  1
  F  F31  1  0.447384  0.745765  0.675179  1
  F  F32  1  0.416726  0.970603  0.232848  1
  F  F33  1  0.916726  0.029397  0.267152  1
  F  F34  1  0.585718  0.030519  0.767669  1
  F  F35  1  0.085718  0.969481  0.732331  1
