# generated using pymatgen
data_SrPrIr4
_symmetry_space_group_name_H-M   'P 1'
_cell_length_a   5.47205110
_cell_length_b   5.47205129
_cell_length_c   5.47205100
_cell_angle_alpha   59.99999570
_cell_angle_beta   59.99999454
_cell_angle_gamma   59.99999752
_symmetry_Int_Tables_number   1
_chemical_formula_structural   SrPrIr4
_chemical_formula_sum   'Sr1 Pr1 Ir4'
_cell_volume   115.86050090
_cell_formula_units_Z   1
loop_
 _symmetry_equiv_pos_site_id
 _symmetry_equiv_pos_as_xyz
  1  'x, y, z'
loop_
 _atom_site_type_symbol
 _atom_site_label
 _atom_site_symmetry_multiplicity
 _atom_site_fract_x
 _atom_site_fract_y
 _atom_site_fract_z
 _atom_site_occupancy
  Sr  Sr0  1  0.500000  0.500000  0.500000  1
  Pr  Pr1  1  0.750000  0.750000  0.750000  1
  Ir  Ir2  1  0.625026  0.124991  0.124991  1
  Ir  Ir3  1  0.124991  0.124991  0.124991  1
  Ir  Ir4  1  0.124991  0.124991  0.625026  1
  Ir  Ir5  1  0.124991  0.625026  0.124991  1
