# generated using pymatgen
data_Nd4Al11Ga13PdRh
_symmetry_space_group_name_H-M   'P 1'
_cell_length_a   6.05150339
_cell_length_b   6.05150339
_cell_length_c   15.78622149
_cell_angle_alpha   90.13279146
_cell_angle_beta   90.13279146
_cell_angle_gamma   89.90226743
_symmetry_Int_Tables_number   1
_chemical_formula_structural   Nd4Al11Ga13PdRh
_chemical_formula_sum   'Nd4 Al11 Ga13 Pd1 Rh1'
_cell_volume   578.09843457
_cell_formula_units_Z   1
loop_
 _symmetry_equiv_pos_site_id
 _symmetry_equiv_pos_as_xyz
  1  'x, y, z'
loop_
 _atom_site_type_symbol
 _atom_site_label
 _atom_site_symmetry_multiplicity
 _atom_site_fract_x
 _atom_site_fract_y
 _atom_site_fract_z
 _atom_site_occupancy
  Nd  Nd0  1  0.751832  0.251832  0.249236  1
  Nd  Nd1  1  0.250990  0.750990  0.247591  1
  Nd  Nd2  1  0.248679  0.748679  0.751584  1
  Nd  Nd3  1  0.749200  0.249200  0.750440  1
  Al  Al4  1  0.502385  0.002385  0.912843  1
  Al  Al5  1  0.997166  0.002846  0.913155  1
  Al  Al6  1  0.502846  0.497166  0.913155  1
  Al  Al7  1  0.996872  0.496872  0.912896  1
  Al  Al8  1  0.503366  0.003366  0.086703  1
  Al  Al9  1  0.996837  0.002842  0.086792  1
  Al  Al10  1  0.502842  0.496837  0.086792  1
  Al  Al11  1  0.997516  0.497516  0.086725  1
  Al  Al12  1  0.581272  0.081272  0.433538  1
  Al  Al13  1  0.083469  0.919358  0.432328  1
  Al  Al14  1  0.419358  0.583469  0.432328  1
  Ga  Ga15  1  0.250222  0.250344  0.187629  1
  Ga  Ga16  1  0.750344  0.750222  0.187629  1
  Ga  Ga17  1  0.749408  0.749242  0.812381  1
  Ga  Ga18  1  0.249242  0.249408  0.812381  1
  Ga  Ga19  1  0.254108  0.249661  0.343941  1
  Ga  Ga20  1  0.749661  0.754108  0.343941  1
  Ga  Ga21  1  0.749710  0.747892  0.655819  1
  Ga  Ga22  1  0.247892  0.249710  0.655819  1
  Ga  Ga23  1  0.921052  0.421052  0.430757  1
  Ga  Ga24  1  0.417611  0.917611  0.569070  1
  Ga  Ga25  1  0.916795  0.078317  0.568270  1
  Ga  Ga26  1  0.578317  0.416795  0.568270  1
  Ga  Ga27  1  0.080658  0.580658  0.567975  1
  Pd  Pd28  1  0.250096  0.750096  0.000093  1
  Rh  Rh29  1  0.750255  0.250255  0.999922  1
