# generated using pymatgen
data_La7Y(Tm3Pt4)4
_symmetry_space_group_name_H-M   'P 1'
_cell_length_a   7.63630191
_cell_length_b   7.69543413
_cell_length_c   14.63307800
_cell_angle_alpha   90.03946820
_cell_angle_beta   89.88677096
_cell_angle_gamma   90.08917726
_symmetry_Int_Tables_number   1
_chemical_formula_structural   La7Y(Tm3Pt4)4
_chemical_formula_sum   'La7 Y1 Tm12 Pt16'
_cell_volume   859.90490653
_cell_formula_units_Z   1
loop_
 _symmetry_equiv_pos_site_id
 _symmetry_equiv_pos_as_xyz
  1  'x, y, z'
loop_
 _atom_site_type_symbol
 _atom_site_label
 _atom_site_symmetry_multiplicity
 _atom_site_fract_x
 _atom_site_fract_y
 _atom_site_fract_z
 _atom_site_occupancy
  La  La0  1  0.502378  0.678454  0.594321  1
  La  La1  1  0.001675  0.823496  0.903903  1
  La  La2  1  0.497743  0.324050  0.095903  1
  La  La3  1  0.997909  0.172797  0.406449  1
  La  La4  1  0.497447  0.323893  0.404034  1
  La  La5  1  0.997955  0.176692  0.095336  1
  La  La6  1  0.502150  0.675940  0.903155  1
  Y  Y7  1  0.003251  0.822316  0.598438  1
  Tm  Tm8  1  0.661262  0.164374  0.622552  1
  Tm  Tm9  1  0.157203  0.333089  0.874542  1
  Tm  Tm10  1  0.342714  0.833869  0.124032  1
  Tm  Tm11  1  0.844795  0.668674  0.378565  1
  Tm  Tm12  1  0.340644  0.834526  0.376711  1
  Tm  Tm13  1  0.841240  0.665379  0.124518  1
  Tm  Tm14  1  0.658747  0.165838  0.874287  1
  Tm  Tm15  1  0.158525  0.333987  0.623591  1
  Tm  Tm16  1  0.822758  0.505394  0.748178  1
  Tm  Tm17  1  0.320715  0.995880  0.747817  1
  Tm  Tm18  1  0.176702  0.496134  0.250925  1
  Tm  Tm19  1  0.678056  0.003480  0.250726  1
  Pt  Pt20  1  0.676929  0.960184  0.457549  1
  Pt  Pt21  1  0.176435  0.537179  0.044584  1
  Pt  Pt22  1  0.324239  0.038255  0.955176  1
  Pt  Pt23  1  0.827747  0.468412  0.546942  1
  Pt  Pt24  1  0.314853  0.032921  0.545587  1
  Pt  Pt25  1  0.823658  0.461677  0.955248  1
  Pt  Pt26  1  0.676891  0.961749  0.044349  1
  Pt  Pt27  1  0.175488  0.541452  0.457465  1
  Pt  Pt28  1  0.454069  0.372781  0.749138  1
  Pt  Pt29  1  0.955964  0.124457  0.748012  1
  Pt  Pt30  1  0.545871  0.629018  0.251177  1
  Pt  Pt31  1  0.045787  0.871249  0.249945  1
  Pt  Pt32  1  0.689456  0.863375  0.747841  1
  Pt  Pt33  1  0.185107  0.638857  0.747568  1
  Pt  Pt34  1  0.311705  0.136338  0.250409  1
  Pt  Pt35  1  0.811933  0.363833  0.251029  1
