# generated using pymatgen
data_Nd2Ni2Br
_symmetry_space_group_name_H-M   'P 1'
_cell_length_a   4.04714700
_cell_length_b   4.04714802
_cell_length_c   17.06276900
_cell_angle_alpha   90.00000000
_cell_angle_beta   90.00000000
_cell_angle_gamma   119.99999986
_symmetry_Int_Tables_number   1
_chemical_formula_structural   Nd2Ni2Br
_chemical_formula_sum   'Nd4 Ni4 Br2'
_cell_volume   242.03502125
_cell_formula_units_Z   2
loop_
 _symmetry_equiv_pos_site_id
 _symmetry_equiv_pos_as_xyz
  1  'x, y, z'
loop_
 _atom_site_type_symbol
 _atom_site_label
 _atom_site_symmetry_multiplicity
 _atom_site_fract_x
 _atom_site_fract_y
 _atom_site_fract_z
 _atom_site_occupancy
  Nd  Nd0  1  0.000000  0.000000  0.609046  1
  Nd  Nd1  1  0.000000  0.000000  0.390954  1
  Nd  Nd2  1  0.000000  0.000000  0.109046  1
  Nd  Nd3  1  0.000000  0.000000  0.890954  1
  Ni  Ni4  1  0.666667  0.333333  0.500785  1
  Ni  Ni5  1  0.333333  0.666667  0.000785  1
  Ni  Ni6  1  0.666667  0.333333  0.999215  1
  Ni  Ni7  1  0.333333  0.666667  0.499215  1
  Br  Br8  1  0.666667  0.333333  0.250000  1
  Br  Br9  1  0.333333  0.666667  0.750000  1
