# generated using pymatgen
data_Sr8P5Au
_symmetry_space_group_name_H-M   'P 1'
_cell_length_a   8.10684267
_cell_length_b   8.10684318
_cell_length_c   8.10684240
_cell_angle_alpha   109.16117742
_cell_angle_beta   109.16117668
_cell_angle_gamma   110.09309876
_symmetry_Int_Tables_number   1
_chemical_formula_structural   Sr8P5Au
_chemical_formula_sum   'Sr8 P5 Au1'
_cell_volume   410.10490015
_cell_formula_units_Z   1
loop_
 _symmetry_equiv_pos_site_id
 _symmetry_equiv_pos_as_xyz
  1  'x, y, z'
loop_
 _atom_site_type_symbol
 _atom_site_label
 _atom_site_symmetry_multiplicity
 _atom_site_fract_x
 _atom_site_fract_y
 _atom_site_fract_z
 _atom_site_occupancy
  Sr  Sr0  1  0.740134  0.367101  0.241844  1
  Sr  Sr1  1  0.978700  0.735569  0.094015  1
  Sr  Sr2  1  0.641556  0.884686  0.905985  1
  Sr  Sr3  1  0.125257  0.498289  0.758156  1
  Sr  Sr4  1  0.632899  0.874743  0.373034  1
  Sr  Sr5  1  0.501711  0.259866  0.626966  1
  Sr  Sr6  1  0.264431  0.358444  0.243130  1
  Sr  Sr7  1  0.115314  0.021300  0.756870  1
  P  P8  1  0.742921  0.632406  0.617876  1
  P  P9  1  0.367594  0.985470  0.110515  1
  P  P10  1  0.014530  0.125046  0.382124  1
  P  P11  1  0.500000  0.500000  0.000000  1
  P  P12  1  0.874954  0.257079  0.889485  1
  Au  Au13  1  0.250000  0.750000  0.500000  1
