# generated using pymatgen
data_KLi6CeO6
_symmetry_space_group_name_H-M   'P 1'
_cell_length_a   5.57325334
_cell_length_b   5.57325339
_cell_length_c   5.57325451
_cell_angle_alpha   101.64276264
_cell_angle_beta   101.64276910
_cell_angle_gamma   101.64276182
_symmetry_Int_Tables_number   1
_chemical_formula_structural   KLi6CeO6
_chemical_formula_sum   'K1 Li6 Ce1 O6'
_cell_volume   160.66606765
_cell_formula_units_Z   1
loop_
 _symmetry_equiv_pos_site_id
 _symmetry_equiv_pos_as_xyz
  1  'x, y, z'
loop_
 _atom_site_type_symbol
 _atom_site_label
 _atom_site_symmetry_multiplicity
 _atom_site_fract_x
 _atom_site_fract_y
 _atom_site_fract_z
 _atom_site_occupancy
  K  K0  1  0.500000  0.500000  0.500000  1
  Li  Li1  1  0.000000  0.347200  0.652800  1
  Li  Li2  1  0.652800  0.000000  0.347200  1
  Li  Li3  1  0.652800  0.347200  0.000000  1
  Li  Li4  1  0.347200  0.000000  0.652800  1
  Li  Li5  1  0.000000  0.652800  0.347200  1
  Li  Li6  1  0.347200  0.652800  0.000000  1
  Ce  Ce7  1  0.000000  0.000000  0.000000  1
  O  O8  1  0.280652  0.890283  0.280652  1
  O  O9  1  0.890283  0.280652  0.280652  1
  O  O10  1  0.719348  0.719348  0.109717  1
  O  O11  1  0.719348  0.109717  0.719348  1
  O  O12  1  0.109717  0.719348  0.719348  1
  O  O13  1  0.280652  0.280652  0.890283  1
