# generated using pymatgen
data_YbSm3Ga2(Si4Pt3)2
_symmetry_space_group_name_H-M   'P 1'
_cell_length_a   8.29832817
_cell_length_b   8.31997320
_cell_length_c   8.28497481
_cell_angle_alpha   137.54298292
_cell_angle_beta   104.94001734
_cell_angle_gamma   90.39218949
_symmetry_Int_Tables_number   1
_chemical_formula_structural   YbSm3Ga2(Si4Pt3)2
_chemical_formula_sum   'Yb1 Sm3 Ga2 Si8 Pt6'
_cell_volume   355.64096323
_cell_formula_units_Z   1
loop_
 _symmetry_equiv_pos_site_id
 _symmetry_equiv_pos_as_xyz
  1  'x, y, z'
loop_
 _atom_site_type_symbol
 _atom_site_label
 _atom_site_symmetry_multiplicity
 _atom_site_fract_x
 _atom_site_fract_y
 _atom_site_fract_z
 _atom_site_occupancy
  Yb  Yb0  1  0.634865  0.370937  0.267475  1
  Sm  Sm1  1  0.365233  0.630138  0.731402  1
  Sm  Sm2  1  0.103041  0.867495  0.231858  1
  Sm  Sm3  1  0.895842  0.131259  0.767263  1
  Ga  Ga4  1  0.272110  0.520303  0.250650  1
  Ga  Ga5  1  0.728347  0.479082  0.748487  1
  Si  Si6  1  0.730127  0.980397  0.249916  1
  Si  Si7  1  0.269992  0.018883  0.750109  1
  Si  Si8  1  0.457425  0.108788  0.348737  1
  Si  Si9  1  0.543048  0.891270  0.652144  1
  Si  Si10  1  0.759867  0.608128  0.151072  1
  Si  Si11  1  0.240259  0.392036  0.849598  1
  Si  Si12  1  0.004498  0.256225  0.249872  1
  Si  Si13  1  0.994630  0.744511  0.749395  1
  Pt  Pt14  1  0.248336  0.122847  0.106475  1
  Pt  Pt15  1  0.753767  0.878724  0.895553  1
  Pt  Pt16  1  0.015825  0.640923  0.394445  1
  Pt  Pt17  1  0.983566  0.358209  0.605638  1
  Pt  Pt18  1  0.493241  0.242902  0.749701  1
  Pt  Pt19  1  0.505982  0.756942  0.250209  1
