# generated using pymatgen
data_Dy3Er7(Ga2Ru3)2
_symmetry_space_group_name_H-M   'P 1'
_cell_length_a   8.29644926
_cell_length_b   8.29644822
_cell_length_c   8.29644900
_cell_angle_alpha   109.44011631
_cell_angle_beta   109.44010646
_cell_angle_gamma   109.44010905
_symmetry_Int_Tables_number   1
_chemical_formula_structural   Dy3Er7(Ga2Ru3)2
_chemical_formula_sum   'Dy3 Er7 Ga4 Ru6'
_cell_volume   440.10271452
_cell_formula_units_Z   1
loop_
 _symmetry_equiv_pos_site_id
 _symmetry_equiv_pos_as_xyz
  1  'x, y, z'
loop_
 _atom_site_type_symbol
 _atom_site_label
 _atom_site_symmetry_multiplicity
 _atom_site_fract_x
 _atom_site_fract_y
 _atom_site_fract_z
 _atom_site_occupancy
  Dy  Dy0  1  0.249996  0.182735  0.931963  1
  Dy  Dy1  1  0.931963  0.249996  0.182735  1
  Dy  Dy2  1  0.182735  0.931963  0.249996  1
  Er  Er3  1  0.783822  0.783822  0.783822  1
  Er  Er4  1  0.318923  0.569201  0.750182  1
  Er  Er5  1  0.750182  0.318923  0.569201  1
  Er  Er6  1  0.569201  0.750182  0.318923  1
  Er  Er7  1  0.715121  0.499840  0.999626  1
  Er  Er8  1  0.999626  0.715121  0.499840  1
  Er  Er9  1  0.499840  0.999626  0.715121  1
  Ga  Ga10  1  0.414375  0.414375  0.414375  1
  Ga  Ga11  1  0.087334  0.499689  0.999727  1
  Ga  Ga12  1  0.999727  0.087334  0.499689  1
  Ga  Ga13  1  0.499689  0.999727  0.087334  1
  Ru  Ru14  1  0.873263  0.123388  0.748527  1
  Ru  Ru15  1  0.748527  0.873263  0.123388  1
  Ru  Ru16  1  0.123388  0.748527  0.873263  1
  Ru  Ru17  1  0.250578  0.625847  0.375864  1
  Ru  Ru18  1  0.375864  0.250578  0.625847  1
  Ru  Ru19  1  0.625847  0.375864  0.250578  1
