# generated using pymatgen
data_Hf2Ni2Au
_symmetry_space_group_name_H-M   'P 1'
_cell_length_a   7.00205500
_cell_length_b   7.00205500
_cell_length_c   6.60339900
_cell_angle_alpha   90.00000000
_cell_angle_beta   90.00000000
_cell_angle_gamma   90.00000000
_symmetry_Int_Tables_number   1
_chemical_formula_structural   Hf2Ni2Au
_chemical_formula_sum   'Hf8 Ni8 Au4'
_cell_volume   323.75655868
_cell_formula_units_Z   4
loop_
 _symmetry_equiv_pos_site_id
 _symmetry_equiv_pos_as_xyz
  1  'x, y, z'
loop_
 _atom_site_type_symbol
 _atom_site_label
 _atom_site_symmetry_multiplicity
 _atom_site_fract_x
 _atom_site_fract_y
 _atom_site_fract_z
 _atom_site_occupancy
  Hf  Hf0  1  0.185025  0.185025  0.000000  1
  Hf  Hf1  1  0.685025  0.314975  0.500000  1
  Hf  Hf2  1  0.314975  0.685025  0.500000  1
  Hf  Hf3  1  0.814975  0.814975  0.000000  1
  Hf  Hf4  1  0.662673  0.337327  0.000000  1
  Hf  Hf5  1  0.837327  0.837327  0.500000  1
  Hf  Hf6  1  0.162673  0.162673  0.500000  1
  Hf  Hf7  1  0.337327  0.662673  0.000000  1
  Ni  Ni8  1  0.376264  0.376264  0.275486  1
  Ni  Ni9  1  0.876264  0.123736  0.775486  1
  Ni  Ni10  1  0.123736  0.876264  0.775486  1
  Ni  Ni11  1  0.623736  0.623736  0.275486  1
  Ni  Ni12  1  0.123736  0.876264  0.224514  1
  Ni  Ni13  1  0.876264  0.123736  0.224514  1
  Ni  Ni14  1  0.376264  0.376264  0.724514  1
  Ni  Ni15  1  0.623736  0.623736  0.724514  1
  Au  Au16  1  0.500000  0.000000  0.250000  1
  Au  Au17  1  0.500000  0.000000  0.750000  1
  Au  Au18  1  0.000000  0.500000  0.250000  1
  Au  Au19  1  0.000000  0.500000  0.750000  1
