# generated using pymatgen
data_Dy2Zn(AsRh2)6
_symmetry_space_group_name_H-M   'P 1'
_cell_length_a   9.94519900
_cell_length_b   9.94519877
_cell_length_c   3.98728900
_cell_angle_alpha   90.00000000
_cell_angle_beta   90.00000000
_cell_angle_gamma   119.99999745
_symmetry_Int_Tables_number   1
_chemical_formula_structural   Dy2Zn(AsRh2)6
_chemical_formula_sum   'Dy2 Zn1 As6 Rh12'
_cell_volume   341.53506797
_cell_formula_units_Z   1
loop_
 _symmetry_equiv_pos_site_id
 _symmetry_equiv_pos_as_xyz
  1  'x, y, z'
loop_
 _atom_site_type_symbol
 _atom_site_label
 _atom_site_symmetry_multiplicity
 _atom_site_fract_x
 _atom_site_fract_y
 _atom_site_fract_z
 _atom_site_occupancy
  Dy  Dy0  1  0.333333  0.666667  0.755915  1
  Dy  Dy1  1  0.666667  0.333333  0.246781  1
  Zn  Zn2  1  0.000000  0.000000  0.582816  1
  As  As3  1  0.882730  0.597383  0.750059  1
  As  As4  1  0.402617  0.285347  0.750059  1
  As  As5  1  0.714653  0.117270  0.750059  1
  As  As6  1  0.115757  0.402053  0.251936  1
  As  As7  1  0.597947  0.713704  0.251936  1
  As  As8  1  0.286296  0.884243  0.251936  1
  Rh  Rh9  1  0.616678  0.550431  0.750928  1
  Rh  Rh10  1  0.449569  0.066246  0.750928  1
  Rh  Rh11  1  0.933754  0.383322  0.750928  1
  Rh  Rh12  1  0.386373  0.449091  0.250718  1
  Rh  Rh13  1  0.550909  0.937282  0.250718  1
  Rh  Rh14  1  0.062718  0.613627  0.250718  1
  Rh  Rh15  1  0.126486  0.842511  0.752279  1
  Rh  Rh16  1  0.157489  0.283975  0.752279  1
  Rh  Rh17  1  0.716025  0.873514  0.752279  1
  Rh  Rh18  1  0.877607  0.148304  0.250336  1
  Rh  Rh19  1  0.851696  0.729303  0.250336  1
  Rh  Rh20  1  0.270697  0.122393  0.250336  1
