# generated using pymatgen
data_Ce3Nd(HgRh2)2
_symmetry_space_group_name_H-M   'P 1'
_cell_length_a   7.70002351
_cell_length_b   7.70002432
_cell_length_c   3.75263600
_cell_angle_alpha   90.00000000
_cell_angle_beta   90.00000000
_cell_angle_gamma   91.68796972
_symmetry_Int_Tables_number   1
_chemical_formula_structural   Ce3Nd(HgRh2)2
_chemical_formula_sum   'Ce3 Nd1 Hg2 Rh4'
_cell_volume   222.39862262
_cell_formula_units_Z   1
loop_
 _symmetry_equiv_pos_site_id
 _symmetry_equiv_pos_as_xyz
  1  'x, y, z'
loop_
 _atom_site_type_symbol
 _atom_site_label
 _atom_site_symmetry_multiplicity
 _atom_site_fract_x
 _atom_site_fract_y
 _atom_site_fract_z
 _atom_site_occupancy
  Ce  Ce0  1  0.671151  0.168414  0.500000  1
  Ce  Ce1  1  0.331586  0.828849  0.500000  1
  Ce  Ce2  1  0.171015  0.328985  0.500000  1
  Nd  Nd3  1  0.831248  0.668752  0.500000  1
  Hg  Hg4  1  0.999120  0.993562  0.000000  1
  Hg  Hg5  1  0.506438  0.500880  0.000000  1
  Rh  Rh6  1  0.147766  0.630870  0.000000  1
  Rh  Rh7  1  0.869130  0.352234  0.000000  1
  Rh  Rh8  1  0.616599  0.883401  0.000000  1
  Rh  Rh9  1  0.355947  0.144053  0.000000  1
