# generated using pymatgen
data_Ho2ZnP6(IrRh3)3
_symmetry_space_group_name_H-M   'P 1'
_cell_length_a   9.64195500
_cell_length_b   9.64195441
_cell_length_c   3.91612300
_cell_angle_alpha   90.00000000
_cell_angle_beta   90.00000000
_cell_angle_gamma   119.99999952
_symmetry_Int_Tables_number   1
_chemical_formula_structural   Ho2ZnP6(IrRh3)3
_chemical_formula_sum   'Ho2 Zn1 P6 Ir3 Rh9'
_cell_volume   315.29503477
_cell_formula_units_Z   1
loop_
 _symmetry_equiv_pos_site_id
 _symmetry_equiv_pos_as_xyz
  1  'x, y, z'
loop_
 _atom_site_type_symbol
 _atom_site_label
 _atom_site_symmetry_multiplicity
 _atom_site_fract_x
 _atom_site_fract_y
 _atom_site_fract_z
 _atom_site_occupancy
  Ho  Ho0  1  0.333333  0.666667  0.753034  1
  Ho  Ho1  1  0.666667  0.333333  0.246913  1
  Zn  Zn2  1  0.000000  0.000000  0.499535  1
  P  P3  1  0.403495  0.283944  0.748430  1
  P  P4  1  0.716056  0.119550  0.748430  1
  P  P5  1  0.880450  0.596505  0.748430  1
  P  P6  1  0.598104  0.715715  0.251492  1
  P  P7  1  0.284285  0.882390  0.251492  1
  P  P8  1  0.117610  0.401896  0.251492  1
  Ir  Ir9  1  0.452854  0.066002  0.749466  1
  Ir  Ir10  1  0.933998  0.386852  0.749466  1
  Ir  Ir11  1  0.613148  0.547146  0.749466  1
  Rh  Rh12  1  0.546165  0.931706  0.250900  1
  Rh  Rh13  1  0.068294  0.614459  0.250900  1
  Rh  Rh14  1  0.385541  0.453835  0.250900  1
  Rh  Rh15  1  0.159350  0.283328  0.753568  1
  Rh  Rh16  1  0.716672  0.876022  0.753568  1
  Rh  Rh17  1  0.123978  0.840650  0.753568  1
  Rh  Rh18  1  0.840834  0.716424  0.246317  1
  Rh  Rh19  1  0.283576  0.124410  0.246317  1
  Rh  Rh20  1  0.875590  0.159166  0.246317  1
