# generated using pymatgen
data_WI35
_symmetry_space_group_name_H-M   'P 1'
_cell_length_a   12.94755715
_cell_length_b   12.94755635
_cell_length_c   17.38801834
_cell_angle_alpha   111.32274375
_cell_angle_beta   111.32274488
_cell_angle_gamma   92.40626892
_symmetry_Int_Tables_number   1
_chemical_formula_structural   WI35
_chemical_formula_sum   'W1 I35'
_cell_volume   2478.00980557
_cell_formula_units_Z   1
loop_
 _symmetry_equiv_pos_site_id
 _symmetry_equiv_pos_as_xyz
  1  'x, y, z'
loop_
 _atom_site_type_symbol
 _atom_site_label
 _atom_site_symmetry_multiplicity
 _atom_site_fract_x
 _atom_site_fract_y
 _atom_site_fract_z
 _atom_site_occupancy
  W  W0  1  0.682988  0.682988  0.438470  1
  I  I1  1  0.302571  0.302571  0.578074  1
  I  I2  1  0.751465  0.751465  0.844470  1
  I  I3  1  0.114812  0.114812  0.005413  1
  I  I4  1  0.607781  0.607781  0.559258  1
  I  I5  1  0.492486  0.492486  0.359878  1
  I  I6  1  0.943902  0.943902  0.165691  1
  I  I7  1  0.109465  0.109465  0.830187  1
  I  I8  1  0.733197  0.315350  0.527284  1
  I  I9  1  0.855580  0.154046  0.991604  1
  I  I10  1  0.315350  0.733197  0.527284  1
  I  I11  1  0.154046  0.855580  0.991604  1
  I  I12  1  0.872634  0.643828  0.541420  1
  I  I13  1  0.324326  0.100680  0.449530  1
  I  I14  1  0.715767  0.936990  0.142010  1
  I  I15  1  0.158843  0.386173  0.924441  1
  I  I16  1  0.100680  0.324326  0.449530  1
  I  I17  1  0.643828  0.872634  0.541420  1
  I  I18  1  0.386173  0.158843  0.924441  1
  I  I19  1  0.936990  0.715767  0.142010  1
  I  I20  1  0.734551  0.545627  0.297934  1
  I  I21  1  0.519077  0.301769  0.726857  1
  I  I22  1  0.777806  0.093606  0.802461  1
  I  I23  1  0.962950  0.198039  0.191511  1
  I  I24  1  0.301769  0.519077  0.726857  1
  I  I25  1  0.545627  0.734551  0.297934  1
  I  I26  1  0.198039  0.962950  0.191511  1
  I  I27  1  0.093606  0.777806  0.802461  1
  I  I28  1  0.576137  0.576137  0.791513  1
  I  I29  1  0.399752  0.399752  0.171815  1
  I  I30  1  0.851214  0.851214  0.442400  1
  I  I31  1  0.111137  0.111137  0.670207  1
  I  I32  1  0.782258  0.100755  0.489107  1
  I  I33  1  0.618425  0.224014  0.987152  1
  I  I34  1  0.100755  0.782258  0.489107  1
  I  I35  1  0.224014  0.618425  0.987152  1
