# generated using pymatgen
data_U8Nb11Al(Si7Ge)2
_symmetry_space_group_name_H-M   'P 1'
_cell_length_a   7.06630576
_cell_length_b   7.07987229
_cell_length_c   12.98795216
_cell_angle_alpha   89.78361081
_cell_angle_beta   90.20327765
_cell_angle_gamma   90.17226190
_symmetry_Int_Tables_number   1
_chemical_formula_structural   U8Nb11Al(Si7Ge)2
_chemical_formula_sum   'U8 Nb11 Al1 Si14 Ge2'
_cell_volume   649.75668073
_cell_formula_units_Z   1
loop_
 _symmetry_equiv_pos_site_id
 _symmetry_equiv_pos_as_xyz
  1  'x, y, z'
loop_
 _atom_site_type_symbol
 _atom_site_label
 _atom_site_symmetry_multiplicity
 _atom_site_fract_x
 _atom_site_fract_y
 _atom_site_fract_z
 _atom_site_occupancy
  U  U0  1  0.990639  0.333873  0.218621  1
  U  U1  1  0.008025  0.666208  0.720363  1
  U  U2  1  0.167668  0.495629  0.468207  1
  U  U3  1  0.505108  0.831340  0.029493  1
  U  U4  1  0.833882  0.501575  0.969069  1
  U  U5  1  0.492395  0.170579  0.530493  1
  U  U6  1  0.329804  0.991090  0.782624  1
  U  U7  1  0.670130  0.007602  0.280707  1
  Nb  Nb8  1  0.832721  0.829989  0.498525  1
  Nb  Nb9  1  0.331193  0.666600  0.250459  1
  Nb  Nb10  1  0.669935  0.334376  0.750629  1
  Nb  Nb11  1  0.153824  0.999960  0.375864  1
  Nb  Nb12  1  0.846314  0.000203  0.877101  1
  Nb  Nb13  1  0.500461  0.652494  0.624619  1
  Nb  Nb14  1  0.343406  0.500226  0.875064  1
  Nb  Nb15  1  0.503323  0.347657  0.124793  1
  Nb  Nb16  1  0.656067  0.502705  0.375318  1
  Nb  Nb17  1  0.003979  0.157586  0.624717  1
  Nb  Nb18  1  0.995868  0.841665  0.123831  1
  Al  Al19  1  0.168163  0.171928  0.997546  1
  Si  Si20  1  0.460035  0.798236  0.434856  1
  Si  Si21  1  0.204139  0.542987  0.065576  1
  Si  Si22  1  0.542743  0.203990  0.934625  1
  Si  Si23  1  0.798104  0.460046  0.565472  1
  Si  Si24  1  0.040659  0.294718  0.814951  1
  Si  Si25  1  0.959897  0.704122  0.314255  1
  Si  Si26  1  0.371375  0.296015  0.317181  1
  Si  Si27  1  0.629730  0.703683  0.818418  1
  Si  Si28  1  0.207119  0.869515  0.566702  1
  Si  Si29  1  0.127240  0.786522  0.933390  1
  Si  Si30  1  0.787569  0.127538  0.067242  1
  Si  Si31  1  0.869843  0.207703  0.434290  1
  Si  Si32  1  0.293690  0.369903  0.684426  1
  Si  Si33  1  0.706075  0.631181  0.183108  1
  Ge  Ge34  1  0.294697  0.038733  0.183157  1
  Ge  Ge35  1  0.704182  0.961825  0.684309  1
