# generated using pymatgen
data_Ac4Pr2In3Sn7
_symmetry_space_group_name_H-M   'P 1'
_cell_length_a   6.80194442
_cell_length_b   6.80194437
_cell_length_c   10.90333660
_cell_angle_alpha   90.02443682
_cell_angle_beta   90.02443177
_cell_angle_gamma   102.40838455
_symmetry_Int_Tables_number   1
_chemical_formula_structural   Ac4Pr2In3Sn7
_chemical_formula_sum   'Ac4 Pr2 In3 Sn7'
_cell_volume   492.67480860
_cell_formula_units_Z   1
loop_
 _symmetry_equiv_pos_site_id
 _symmetry_equiv_pos_as_xyz
  1  'x, y, z'
loop_
 _atom_site_type_symbol
 _atom_site_label
 _atom_site_symmetry_multiplicity
 _atom_site_fract_x
 _atom_site_fract_y
 _atom_site_fract_z
 _atom_site_occupancy
  Ac  Ac0  1  0.201591  0.798400  0.500884  1
  Ac  Ac1  1  0.201771  0.797943  0.999907  1
  Ac  Ac2  1  0.798400  0.201591  0.500884  1
  Ac  Ac3  1  0.797943  0.201771  0.999907  1
  Pr  Pr4  1  0.646121  0.646121  0.250006  1
  Pr  Pr5  1  0.357568  0.357568  0.748078  1
  In  In6  1  0.319330  0.319330  0.044904  1
  In  In7  1  0.679989  0.679989  0.953988  1
  In  In8  1  0.316722  0.316722  0.452331  1
  Sn  Sn9  1  0.029584  0.029584  0.249499  1
  Sn  Sn10  1  0.972117  0.972117  0.750763  1
  Sn  Sn11  1  0.676037  0.676037  0.545983  1
  Sn  Sn12  1  0.489258  0.083352  0.249849  1
  Sn  Sn13  1  0.919079  0.511139  0.751585  1
  Sn  Sn14  1  0.511139  0.919079  0.751585  1
  Sn  Sn15  1  0.083352  0.489258  0.249849  1
