# generated using pymatgen
data_Cs5RbHo2Br12
_symmetry_space_group_name_H-M   'P 1'
_cell_length_a   9.93696702
_cell_length_b   9.96355602
_cell_length_c   8.26191600
_cell_angle_alpha   90.00000000
_cell_angle_beta   90.00000000
_cell_angle_gamma   89.88493916
_symmetry_Int_Tables_number   1
_chemical_formula_structural   Cs5RbHo2Br12
_chemical_formula_sum   'Cs5 Rb1 Ho2 Br12'
_cell_volume   817.99022610
_cell_formula_units_Z   1
loop_
 _symmetry_equiv_pos_site_id
 _symmetry_equiv_pos_as_xyz
  1  'x, y, z'
loop_
 _atom_site_type_symbol
 _atom_site_label
 _atom_site_symmetry_multiplicity
 _atom_site_fract_x
 _atom_site_fract_y
 _atom_site_fract_z
 _atom_site_occupancy
  Cs  Cs0  1  0.000000  0.000000  0.000000  1
  Cs  Cs1  1  0.235822  0.580920  0.500000  1
  Cs  Cs2  1  0.764178  0.419080  0.500000  1
  Cs  Cs3  1  0.419052  0.235940  0.000000  1
  Cs  Cs4  1  0.580948  0.764060  0.000000  1
  Rb  Rb5  1  0.000000  0.000000  0.500000  1
  Ho  Ho6  1  0.500000  0.000000  0.500000  1
  Ho  Ho7  1  0.000000  0.500000  0.000000  1
  Br  Br8  1  0.693812  0.055678  0.739559  1
  Br  Br9  1  0.306188  0.944322  0.739559  1
  Br  Br10  1  0.944121  0.692907  0.241325  1
  Br  Br11  1  0.055879  0.307093  0.241325  1
  Br  Br12  1  0.306188  0.944322  0.260441  1
  Br  Br13  1  0.693812  0.055678  0.260441  1
  Br  Br14  1  0.055879  0.307093  0.758675  1
  Br  Br15  1  0.944121  0.692907  0.758675  1
  Br  Br16  1  0.570884  0.728747  0.500000  1
  Br  Br17  1  0.429116  0.271253  0.500000  1
  Br  Br18  1  0.271368  0.570867  0.000000  1
  Br  Br19  1  0.728632  0.429133  0.000000  1
