# generated using pymatgen
data_Co8RhSe8
_symmetry_space_group_name_H-M   'P 1'
_cell_length_a   7.39516410
_cell_length_b   7.39516391
_cell_length_c   7.39516400
_cell_angle_alpha   59.99999960
_cell_angle_beta   60.00000043
_cell_angle_gamma   59.99999946
_symmetry_Int_Tables_number   1
_chemical_formula_structural   Co8RhSe8
_chemical_formula_sum   'Co8 Rh1 Se8'
_cell_volume   285.97523785
_cell_formula_units_Z   1
loop_
 _symmetry_equiv_pos_site_id
 _symmetry_equiv_pos_as_xyz
  1  'x, y, z'
loop_
 _atom_site_type_symbol
 _atom_site_label
 _atom_site_symmetry_multiplicity
 _atom_site_fract_x
 _atom_site_fract_y
 _atom_site_fract_z
 _atom_site_occupancy
  Co  Co0  1  0.629727  0.123425  0.123425  1
  Co  Co1  1  0.123425  0.629727  0.123425  1
  Co  Co2  1  0.123425  0.123425  0.629727  1
  Co  Co3  1  0.123425  0.123425  0.123425  1
  Co  Co4  1  0.370273  0.876575  0.876575  1
  Co  Co5  1  0.876575  0.370273  0.876575  1
  Co  Co6  1  0.876575  0.876575  0.370273  1
  Co  Co7  1  0.876575  0.876575  0.876575  1
  Rh  Rh8  1  0.500000  0.500000  0.500000  1
  Se  Se9  1  0.250000  0.250000  0.250000  1
  Se  Se10  1  0.750000  0.750000  0.750000  1
  Se  Se11  1  0.741485  0.258515  0.258515  1
  Se  Se12  1  0.741485  0.258515  0.741485  1
  Se  Se13  1  0.741485  0.741485  0.258515  1
  Se  Se14  1  0.258515  0.741485  0.741485  1
  Se  Se15  1  0.258515  0.741485  0.258515  1
  Se  Se16  1  0.258515  0.258515  0.741485  1
