# generated using pymatgen
data_La11Nd5Cd4Ir3Pd
_symmetry_space_group_name_H-M   'P 1'
_cell_length_a   10.08709829
_cell_length_b   10.07887861
_cell_length_c   10.07887864
_cell_angle_alpha   60.17314722
_cell_angle_beta   60.24985443
_cell_angle_gamma   60.24986822
_symmetry_Int_Tables_number   1
_chemical_formula_structural   La11Nd5Cd4Ir3Pd
_chemical_formula_sum   'La11 Nd5 Cd4 Ir3 Pd1'
_cell_volume   728.24066453
_cell_formula_units_Z   1
loop_
 _symmetry_equiv_pos_site_id
 _symmetry_equiv_pos_as_xyz
  1  'x, y, z'
loop_
 _atom_site_type_symbol
 _atom_site_label
 _atom_site_symmetry_multiplicity
 _atom_site_fract_x
 _atom_site_fract_y
 _atom_site_fract_z
 _atom_site_occupancy
  La  La0  1  0.346836  0.345934  0.345934  1
  La  La1  1  0.351876  0.351353  0.952613  1
  La  La2  1  0.351876  0.952613  0.351353  1
  La  La3  1  0.952688  0.351389  0.351389  1
  La  La4  1  0.803070  0.191452  0.191452  1
  La  La5  1  0.190019  0.809152  0.809152  1
  La  La6  1  0.191797  0.803659  0.190613  1
  La  La7  1  0.809037  0.189164  0.809694  1
  La  La8  1  0.191797  0.190613  0.803659  1
  La  La9  1  0.809037  0.809694  0.189164  1
  La  La10  1  0.938807  0.563488  0.563488  1
  Nd  Nd11  1  0.565108  0.936222  0.936222  1
  Nd  Nd12  1  0.562871  0.938984  0.564413  1
  Nd  Nd13  1  0.936403  0.565189  0.937414  1
  Nd  Nd14  1  0.562871  0.564413  0.938984  1
  Nd  Nd15  1  0.936403  0.937414  0.565189  1
  Cd  Cd16  1  0.579727  0.580649  0.580649  1
  Cd  Cd17  1  0.580322  0.580054  0.258811  1
  Cd  Cd18  1  0.580322  0.258811  0.580054  1
  Cd  Cd19  1  0.259539  0.580376  0.580376  1
  Ir  Ir20  1  0.141208  0.140835  0.575049  1
  Ir  Ir21  1  0.141208  0.575049  0.140835  1
  Ir  Ir22  1  0.574815  0.141125  0.141125  1
  Pd  Pd23  1  0.142359  0.142365  0.142365  1
