# generated using pymatgen
data_Dy20Cd5InCo2
_symmetry_space_group_name_H-M   'P 1'
_cell_length_a   9.58637385
_cell_length_b   9.58637393
_cell_length_c   9.81243600
_cell_angle_alpha   90.00000000
_cell_angle_beta   90.00000000
_cell_angle_gamma   120.14937217
_symmetry_Int_Tables_number   1
_chemical_formula_structural   Dy20Cd5InCo2
_chemical_formula_sum   'Dy20 Cd5 In1 Co2'
_cell_volume   779.75925370
_cell_formula_units_Z   1
loop_
 _symmetry_equiv_pos_site_id
 _symmetry_equiv_pos_as_xyz
  1  'x, y, z'
loop_
 _atom_site_type_symbol
 _atom_site_label
 _atom_site_symmetry_multiplicity
 _atom_site_fract_x
 _atom_site_fract_y
 _atom_site_fract_z
 _atom_site_occupancy
  Dy  Dy0  1  0.001994  0.998006  0.502398  1
  Dy  Dy1  1  0.001994  0.998006  0.997602  1
  Dy  Dy2  1  0.541890  0.458111  0.250000  1
  Dy  Dy3  1  0.539491  0.086141  0.250000  1
  Dy  Dy4  1  0.913859  0.460510  0.250000  1
  Dy  Dy5  1  0.456355  0.543645  0.750000  1
  Dy  Dy6  1  0.457617  0.914342  0.750000  1
  Dy  Dy7  1  0.085658  0.542383  0.750000  1
  Dy  Dy8  1  0.212025  0.787975  0.436863  1
  Dy  Dy9  1  0.210656  0.422650  0.435751  1
  Dy  Dy10  1  0.577350  0.789345  0.435750  1
  Dy  Dy11  1  0.788665  0.211335  0.563104  1
  Dy  Dy12  1  0.787650  0.576373  0.564561  1
  Dy  Dy13  1  0.423627  0.212350  0.564561  1
  Dy  Dy14  1  0.788665  0.211335  0.936896  1
  Dy  Dy15  1  0.787650  0.576373  0.935439  1
  Dy  Dy16  1  0.423627  0.212350  0.935439  1
  Dy  Dy17  1  0.212025  0.787975  0.063137  1
  Dy  Dy18  1  0.210656  0.422650  0.064249  1
  Dy  Dy19  1  0.577350  0.789345  0.064250  1
  Cd  Cd20  1  0.885973  0.770870  0.250000  1
  Cd  Cd21  1  0.229130  0.114027  0.250000  1
  Cd  Cd22  1  0.115997  0.884002  0.750000  1
  Cd  Cd23  1  0.114517  0.229867  0.750000  1
  Cd  Cd24  1  0.770132  0.885483  0.750000  1
  In  In25  1  0.884946  0.115053  0.250000  1
  Co  Co26  1  0.333328  0.666674  0.250000  1
  Co  Co27  1  0.667176  0.332824  0.750000  1
