# generated using pymatgen
data_Sc4VTc6Mo
_symmetry_space_group_name_H-M   'P 1'
_cell_length_a   5.24463403
_cell_length_b   5.24463464
_cell_length_c   8.59610100
_cell_angle_alpha   90.00000000
_cell_angle_beta   90.00000000
_cell_angle_gamma   119.55893778
_symmetry_Int_Tables_number   1
_chemical_formula_structural   Sc4VTc6Mo
_chemical_formula_sum   'Sc4 V1 Tc6 Mo1'
_cell_volume   205.67222924
_cell_formula_units_Z   1
loop_
 _symmetry_equiv_pos_site_id
 _symmetry_equiv_pos_as_xyz
  1  'x, y, z'
loop_
 _atom_site_type_symbol
 _atom_site_label
 _atom_site_symmetry_multiplicity
 _atom_site_fract_x
 _atom_site_fract_y
 _atom_site_fract_z
 _atom_site_occupancy
  Sc  Sc0  1  0.333925  0.666075  0.440169  1
  Sc  Sc1  1  0.666612  0.333388  0.561462  1
  Sc  Sc2  1  0.666612  0.333388  0.938538  1
  Sc  Sc3  1  0.333925  0.666075  0.059831  1
  V  V4  1  0.831820  0.168180  0.250000  1
  Tc  Tc5  1  0.998878  0.001122  0.493572  1
  Tc  Tc6  1  0.998878  0.001122  0.006428  1
  Tc  Tc7  1  0.825445  0.650927  0.250000  1
  Tc  Tc8  1  0.349073  0.174555  0.250000  1
  Tc  Tc9  1  0.170760  0.343264  0.750000  1
  Tc  Tc10  1  0.656736  0.829240  0.750000  1
  Mo  Mo11  1  0.167333  0.832667  0.750000  1
