# generated using pymatgen
data_Yb6LuPd7
_symmetry_space_group_name_H-M   'P 1'
_cell_length_a   5.94703533
_cell_length_b   7.68571686
_cell_length_c   7.68571600
_cell_angle_alpha   113.59139880
_cell_angle_beta   104.94701354
_cell_angle_gamma   104.94701624
_symmetry_Int_Tables_number   1
_chemical_formula_structural   Yb6LuPd7
_chemical_formula_sum   'Yb6 Lu1 Pd7'
_cell_volume   283.98948853
_cell_formula_units_Z   1
loop_
 _symmetry_equiv_pos_site_id
 _symmetry_equiv_pos_as_xyz
  1  'x, y, z'
loop_
 _atom_site_type_symbol
 _atom_site_label
 _atom_site_symmetry_multiplicity
 _atom_site_fract_x
 _atom_site_fract_y
 _atom_site_fract_z
 _atom_site_occupancy
  Yb  Yb0  1  0.355748  0.431934  0.143435  1
  Yb  Yb1  1  0.212312  0.856565  0.288500  1
  Yb  Yb2  1  0.076187  0.288499  0.431934  1
  Yb  Yb3  1  0.923813  0.711501  0.568066  1
  Yb  Yb4  1  0.787688  0.143435  0.711501  1
  Yb  Yb5  1  0.644252  0.568066  0.856565  1
  Lu  Lu6  1  0.500000  0.000000  0.000000  1
  Pd  Pd7  1  0.000000  0.000000  0.000000  1
  Pd  Pd8  1  0.848239  0.416643  0.138789  1
  Pd  Pd9  1  0.709450  0.861211  0.277853  1
  Pd  Pd10  1  0.568404  0.277853  0.416643  1
  Pd  Pd11  1  0.431598  0.722147  0.583358  1
  Pd  Pd12  1  0.290550  0.138789  0.722148  1
  Pd  Pd13  1  0.151761  0.583357  0.861211  1
