# generated using pymatgen
data_Sr5(SbAs)2
_symmetry_space_group_name_H-M   'P 1'
_cell_length_a   8.41045300
_cell_length_b   8.47864200
_cell_length_c   16.67669400
_cell_angle_alpha   90.00000000
_cell_angle_beta   90.00000000
_cell_angle_gamma   90.00000000
_symmetry_Int_Tables_number   1
_chemical_formula_structural   Sr5(SbAs)2
_chemical_formula_sum   'Sr20 Sb8 As8'
_cell_volume   1189.20204207
_cell_formula_units_Z   4
loop_
 _symmetry_equiv_pos_site_id
 _symmetry_equiv_pos_as_xyz
  1  'x, y, z'
loop_
 _atom_site_type_symbol
 _atom_site_label
 _atom_site_symmetry_multiplicity
 _atom_site_fract_x
 _atom_site_fract_y
 _atom_site_fract_z
 _atom_site_occupancy
  Sr  Sr0  1  0.425623  0.663940  0.597689  1
  Sr  Sr1  1  0.925623  0.836060  0.902311  1
  Sr  Sr2  1  0.074377  0.163940  0.402311  1
  Sr  Sr3  1  0.574377  0.336060  0.097689  1
  Sr  Sr4  1  0.425623  0.663940  0.902311  1
  Sr  Sr5  1  0.925623  0.836060  0.597689  1
  Sr  Sr6  1  0.074377  0.163940  0.097689  1
  Sr  Sr7  1  0.574377  0.336060  0.402311  1
  Sr  Sr8  1  0.415453  0.839278  0.401394  1
  Sr  Sr9  1  0.915453  0.660722  0.098606  1
  Sr  Sr10  1  0.084547  0.339278  0.598606  1
  Sr  Sr11  1  0.584547  0.160722  0.901394  1
  Sr  Sr12  1  0.584547  0.160722  0.598606  1
  Sr  Sr13  1  0.084547  0.339278  0.901394  1
  Sr  Sr14  1  0.915453  0.660722  0.401394  1
  Sr  Sr15  1  0.415453  0.839278  0.098606  1
  Sr  Sr16  1  0.254347  0.001945  0.750000  1
  Sr  Sr17  1  0.754347  0.498055  0.750000  1
  Sr  Sr18  1  0.245653  0.501945  0.250000  1
  Sr  Sr19  1  0.745653  0.998055  0.250000  1
  Sb  Sb20  1  0.374278  0.381635  0.750000  1
  Sb  Sb21  1  0.874278  0.118365  0.750000  1
  Sb  Sb22  1  0.125722  0.881635  0.250000  1
  Sb  Sb23  1  0.625722  0.618365  0.250000  1
  Sb  Sb24  1  0.133617  0.623495  0.750000  1
  Sb  Sb25  1  0.633617  0.876505  0.750000  1
  Sb  Sb26  1  0.366383  0.123495  0.250000  1
  Sb  Sb27  1  0.866383  0.376505  0.250000  1
  As  As28  1  0.747591  0.996190  0.052799  1
  As  As29  1  0.247591  0.503810  0.447201  1
  As  As30  1  0.752409  0.496190  0.947201  1
  As  As31  1  0.252409  0.003810  0.552799  1
  As  As32  1  0.252409  0.003810  0.947201  1
  As  As33  1  0.752409  0.496190  0.552799  1
  As  As34  1  0.247591  0.503810  0.052799  1
  As  As35  1  0.747591  0.996190  0.447201  1
