# generated using pymatgen
data_La8Y12Ga5Si11
_symmetry_space_group_name_H-M   'P 1'
_cell_length_a   7.60074879
_cell_length_b   7.91486031
_cell_length_c   15.13925300
_cell_angle_alpha   90.00342405
_cell_angle_beta   90.09195071
_cell_angle_gamma   89.91216363
_symmetry_Int_Tables_number   1
_chemical_formula_structural   La8Y12Ga5Si11
_chemical_formula_sum   'La8 Y12 Ga5 Si11'
_cell_volume   910.75803190
_cell_formula_units_Z   1
loop_
 _symmetry_equiv_pos_site_id
 _symmetry_equiv_pos_as_xyz
  1  'x, y, z'
loop_
 _atom_site_type_symbol
 _atom_site_label
 _atom_site_symmetry_multiplicity
 _atom_site_fract_x
 _atom_site_fract_y
 _atom_site_fract_z
 _atom_site_occupancy
  La  La0  1  0.019796  0.177669  0.400145  1
  La  La1  1  0.519533  0.322788  0.400424  1
  La  La2  1  0.482967  0.679363  0.899074  1
  La  La3  1  0.480538  0.681567  0.599592  1
  La  La4  1  0.980347  0.818428  0.599394  1
  La  La5  1  0.980541  0.825421  0.899694  1
  La  La6  1  0.518208  0.319811  0.101287  1
  La  La7  1  0.017730  0.179394  0.101773  1
  Y  Y8  1  0.324942  0.173772  0.623694  1
  Y  Y9  1  0.675466  0.821292  0.376111  1
  Y  Y10  1  0.661057  0.992626  0.751417  1
  Y  Y11  1  0.174619  0.678514  0.376149  1
  Y  Y12  1  0.823963  0.323336  0.876195  1
  Y  Y13  1  0.824813  0.325260  0.623349  1
  Y  Y14  1  0.839933  0.492879  0.250720  1
  Y  Y15  1  0.340992  0.005532  0.251788  1
  Y  Y16  1  0.327426  0.176283  0.874335  1
  Y  Y17  1  0.173914  0.673506  0.125516  1
  Y  Y18  1  0.673772  0.826138  0.124739  1
  Y  Y19  1  0.159425  0.506693  0.750720  1
  Ga  Ga20  1  0.153136  0.463487  0.537107  1
  Ga  Ga21  1  0.845276  0.536980  0.038467  1
  Ga  Ga22  1  0.345467  0.963456  0.037519  1
  Ga  Ga23  1  0.153833  0.463922  0.960797  1
  Ga  Ga24  1  0.652987  0.036226  0.537227  1
  Si  Si25  1  0.275353  0.881134  0.749386  1
  Si  Si26  1  0.468437  0.613384  0.251455  1
  Si  Si27  1  0.031315  0.113557  0.749022  1
  Si  Si28  1  0.532037  0.388055  0.749110  1
  Si  Si29  1  0.968581  0.887448  0.250831  1
  Si  Si30  1  0.722648  0.119086  0.251275  1
  Si  Si31  1  0.351876  0.966930  0.460091  1
  Si  Si32  1  0.851537  0.533328  0.460259  1
  Si  Si33  1  0.776564  0.618876  0.749031  1
  Si  Si34  1  0.222927  0.379690  0.251267  1
  Si  Si35  1  0.648044  0.034169  0.961041  1
