# generated using pymatgen
data_Y20Cd5InFe2
_symmetry_space_group_name_H-M   'P 1'
_cell_length_a   9.64815302
_cell_length_b   9.64815406
_cell_length_c   9.80208300
_cell_angle_alpha   90.00000000
_cell_angle_beta   90.00000000
_cell_angle_gamma   120.09372095
_symmetry_Int_Tables_number   1
_chemical_formula_structural   Y20Cd5InFe2
_chemical_formula_sum   'Y20 Cd5 In1 Fe2'
_cell_volume   789.45339976
_cell_formula_units_Z   1
loop_
 _symmetry_equiv_pos_site_id
 _symmetry_equiv_pos_as_xyz
  1  'x, y, z'
loop_
 _atom_site_type_symbol
 _atom_site_label
 _atom_site_symmetry_multiplicity
 _atom_site_fract_x
 _atom_site_fract_y
 _atom_site_fract_z
 _atom_site_occupancy
  Y  Y0  1  0.002162  0.997838  0.502712  1
  Y  Y1  1  0.002162  0.997838  0.997288  1
  Y  Y2  1  0.539464  0.460536  0.250000  1
  Y  Y3  1  0.537709  0.083687  0.250000  1
  Y  Y4  1  0.916313  0.462291  0.250000  1
  Y  Y5  1  0.457528  0.542472  0.750000  1
  Y  Y6  1  0.459722  0.918341  0.750000  1
  Y  Y7  1  0.081659  0.540278  0.750000  1
  Y  Y8  1  0.212315  0.787685  0.436730  1
  Y  Y9  1  0.210167  0.422516  0.435506  1
  Y  Y10  1  0.577484  0.789833  0.435506  1
  Y  Y11  1  0.788552  0.211448  0.562984  1
  Y  Y12  1  0.787039  0.575380  0.564861  1
  Y  Y13  1  0.424620  0.212961  0.564861  1
  Y  Y14  1  0.788552  0.211448  0.937016  1
  Y  Y15  1  0.787039  0.575380  0.935139  1
  Y  Y16  1  0.424620  0.212961  0.935139  1
  Y  Y17  1  0.212315  0.787685  0.063270  1
  Y  Y18  1  0.210167  0.422516  0.064494  1
  Y  Y19  1  0.577484  0.789833  0.064494  1
  Cd  Cd20  1  0.886460  0.771273  0.250000  1
  Cd  Cd21  1  0.228727  0.113540  0.250000  1
  Cd  Cd22  1  0.116068  0.883932  0.750000  1
  Cd  Cd23  1  0.114311  0.229418  0.750000  1
  Cd  Cd24  1  0.770582  0.885689  0.750000  1
  In  In25  1  0.884635  0.115365  0.250000  1
  Fe  Fe26  1  0.334219  0.665781  0.250000  1
  Fe  Fe27  1  0.667927  0.332073  0.750000  1
