# generated using pymatgen
data_Er5Mn3(Co4P3)4
_symmetry_space_group_name_H-M   'P 1'
_cell_length_a   12.02156300
_cell_length_b   12.02156243
_cell_length_c   3.65014600
_cell_angle_alpha   90.00000000
_cell_angle_beta   90.00000000
_cell_angle_gamma   120.00000433
_symmetry_Int_Tables_number   1
_chemical_formula_structural   Er5Mn3(Co4P3)4
_chemical_formula_sum   'Er5 Mn3 Co16 P12'
_cell_volume   456.83850471
_cell_formula_units_Z   1
loop_
 _symmetry_equiv_pos_site_id
 _symmetry_equiv_pos_as_xyz
  1  'x, y, z'
loop_
 _atom_site_type_symbol
 _atom_site_label
 _atom_site_symmetry_multiplicity
 _atom_site_fract_x
 _atom_site_fract_y
 _atom_site_fract_z
 _atom_site_occupancy
  Er  Er0  1  0.186381  0.186381  0.500000  1
  Er  Er1  1  0.813619  0.000000  0.500000  1
  Er  Er2  1  0.000000  0.813619  0.500000  1
  Er  Er3  1  0.333333  0.666667  0.000000  1
  Er  Er4  1  0.666667  0.333333  0.000000  1
  Mn  Mn5  1  0.557171  0.557171  0.000000  1
  Mn  Mn6  1  0.442829  0.000000  0.000000  1
  Mn  Mn7  1  0.000000  0.442829  0.000000  1
  Co  Co8  1  0.716543  0.716543  0.500000  1
  Co  Co9  1  0.283457  0.000000  0.500000  1
  Co  Co10  1  0.000000  0.283457  0.500000  1
  Co  Co11  1  0.178492  0.376693  0.000000  1
  Co  Co12  1  0.623307  0.801798  0.000000  1
  Co  Co13  1  0.198202  0.821508  0.000000  1
  Co  Co14  1  0.801798  0.623307  0.000000  1
  Co  Co15  1  0.821508  0.198202  0.000000  1
  Co  Co16  1  0.376693  0.178492  0.000000  1
  Co  Co17  1  0.357894  0.483434  0.500000  1
  Co  Co18  1  0.516566  0.874461  0.500000  1
  Co  Co19  1  0.125539  0.642106  0.500000  1
  Co  Co20  1  0.874461  0.516566  0.500000  1
  Co  Co21  1  0.642106  0.125539  0.500000  1
  Co  Co22  1  0.483434  0.357894  0.500000  1
  Co  Co23  1  0.000000  0.000000  0.000000  1
  P  P24  1  0.820168  0.820168  0.000000  1
  P  P25  1  0.179832  0.000000  0.000000  1
  P  P26  1  0.000000  0.179832  0.000000  1
  P  P27  1  0.166529  0.480216  0.500000  1
  P  P28  1  0.519784  0.686314  0.500000  1
  P  P29  1  0.313686  0.833471  0.500000  1
  P  P30  1  0.686314  0.519784  0.500000  1
  P  P31  1  0.833471  0.313686  0.500000  1
  P  P32  1  0.480216  0.166529  0.500000  1
  P  P33  1  0.364051  0.364051  0.000000  1
  P  P34  1  0.635949  0.000000  0.000000  1
  P  P35  1  0.000000  0.635949  0.000000  1
