# generated using pymatgen
data_Rb5AgAu5
_symmetry_space_group_name_H-M   'P 1'
_cell_length_a   15.76136442
_cell_length_b   15.76136436
_cell_length_c   5.29540500
_cell_angle_alpha   90.00000000
_cell_angle_beta   90.00000000
_cell_angle_gamma   161.52219566
_symmetry_Int_Tables_number   1
_chemical_formula_structural   Rb5AgAu5
_chemical_formula_sum   'Rb5 Ag1 Au5'
_cell_volume   416.92708094
_cell_formula_units_Z   1
loop_
 _symmetry_equiv_pos_site_id
 _symmetry_equiv_pos_as_xyz
  1  'x, y, z'
loop_
 _atom_site_type_symbol
 _atom_site_label
 _atom_site_symmetry_multiplicity
 _atom_site_fract_x
 _atom_site_fract_y
 _atom_site_fract_z
 _atom_site_occupancy
  Rb  Rb0  1  0.998742  0.001258  0.000000  1
  Rb  Rb1  1  0.616192  0.383806  0.000000  1
  Rb  Rb2  1  0.383888  0.616110  0.000000  1
  Rb  Rb3  1  0.807547  0.192451  0.500001  1
  Rb  Rb4  1  0.194328  0.805670  0.500001  1
  Ag  Ag5  1  0.076337  0.923662  0.500001  1
  Au  Au6  1  0.736696  0.263302  0.000000  1
  Au  Au7  1  0.263888  0.736110  0.000000  1
  Au  Au8  1  0.924120  0.075879  0.500001  1
  Au  Au9  1  0.545209  0.454789  0.500001  1
  Au  Au10  1  0.453046  0.546952  0.500001  1
