# generated using pymatgen
data_Hf2Ti(NbSi2)2
_symmetry_space_group_name_H-M   'P 1'
_cell_length_a   6.85078200
_cell_length_b   6.85078200
_cell_length_c   12.63265400
_cell_angle_alpha   90.00000000
_cell_angle_beta   90.00000000
_cell_angle_gamma   90.00000000
_symmetry_Int_Tables_number   1
_chemical_formula_structural   Hf2Ti(NbSi2)2
_chemical_formula_sum   'Hf8 Ti4 Nb8 Si16'
_cell_volume   592.89105372
_cell_formula_units_Z   4
loop_
 _symmetry_equiv_pos_site_id
 _symmetry_equiv_pos_as_xyz
  1  'x, y, z'
loop_
 _atom_site_type_symbol
 _atom_site_label
 _atom_site_symmetry_multiplicity
 _atom_site_fract_x
 _atom_site_fract_y
 _atom_site_fract_z
 _atom_site_occupancy
  Hf  Hf0  1  0.344005  0.002001  0.468326  1
  Hf  Hf1  1  0.498000  0.844005  0.718326  1
  Hf  Hf2  1  0.502000  0.155995  0.218326  1
  Hf  Hf3  1  0.844005  0.498000  0.281674  1
  Hf  Hf4  1  0.155995  0.502000  0.781674  1
  Hf  Hf5  1  0.655995  0.998000  0.968326  1
  Hf  Hf6  1  0.002001  0.344005  0.531674  1
  Hf  Hf7  1  0.998000  0.655995  0.031674  1
  Ti  Ti8  1  0.328957  0.328957  0.000000  1
  Ti  Ti9  1  0.171043  0.828957  0.250000  1
  Ti  Ti10  1  0.828957  0.171043  0.750000  1
  Ti  Ti11  1  0.671043  0.671043  0.500000  1
  Nb  Nb12  1  0.150909  0.002950  0.874109  1
  Nb  Nb13  1  0.497050  0.650909  0.124109  1
  Nb  Nb14  1  0.502950  0.349091  0.624109  1
  Nb  Nb15  1  0.650909  0.497050  0.875891  1
  Nb  Nb16  1  0.349091  0.502950  0.375891  1
  Nb  Nb17  1  0.849091  0.997050  0.374109  1
  Nb  Nb18  1  0.002950  0.150909  0.125891  1
  Nb  Nb19  1  0.997050  0.849091  0.625891  1
  Si  Si20  1  0.203993  0.139359  0.678774  1
  Si  Si21  1  0.360641  0.703993  0.928774  1
  Si  Si22  1  0.639359  0.296007  0.428774  1
  Si  Si23  1  0.703993  0.360641  0.071226  1
  Si  Si24  1  0.296007  0.639359  0.571226  1
  Si  Si25  1  0.796007  0.860641  0.178774  1
  Si  Si26  1  0.139359  0.203993  0.321226  1
  Si  Si27  1  0.860641  0.796007  0.821226  1
  Si  Si28  1  0.298210  0.955101  0.064517  1
  Si  Si29  1  0.544899  0.798210  0.314517  1
  Si  Si30  1  0.455101  0.201790  0.814517  1
  Si  Si31  1  0.798210  0.544899  0.685483  1
  Si  Si32  1  0.201790  0.455101  0.185483  1
  Si  Si33  1  0.701790  0.044899  0.564517  1
  Si  Si34  1  0.955101  0.298210  0.935483  1
  Si  Si35  1  0.044899  0.701790  0.435483  1
