# generated using pymatgen
data_Tb7YCu3Si12Pd
_symmetry_space_group_name_H-M   'P 1'
_cell_length_a   8.04565400
_cell_length_b   8.04602871
_cell_length_c   8.14892800
_cell_angle_alpha   89.99812229
_cell_angle_beta   90.00000000
_cell_angle_gamma   119.99844413
_symmetry_Int_Tables_number   1
_chemical_formula_structural   Tb7YCu3Si12Pd
_chemical_formula_sum   'Tb7 Y1 Cu3 Si12 Pd1'
_cell_volume   456.85759621
_cell_formula_units_Z   1
loop_
 _symmetry_equiv_pos_site_id
 _symmetry_equiv_pos_as_xyz
  1  'x, y, z'
loop_
 _atom_site_type_symbol
 _atom_site_label
 _atom_site_symmetry_multiplicity
 _atom_site_fract_x
 _atom_site_fract_y
 _atom_site_fract_z
 _atom_site_occupancy
  Tb  Tb0  1  0.500860  0.001721  0.750719  1
  Tb  Tb1  1  0.998778  0.499385  0.249407  1
  Tb  Tb2  1  0.998260  0.499121  0.750726  1
  Tb  Tb3  1  0.500608  0.499385  0.249407  1
  Tb  Tb4  1  0.500861  0.499121  0.750726  1
  Tb  Tb5  1  0.000003  0.000007  0.249112  1
  Tb  Tb6  1  0.999999  0.999997  0.750726  1
  Y  Y7  1  0.500599  0.001198  0.249404  1
  Cu  Cu8  1  0.333328  0.666659  0.000354  1
  Cu  Cu9  1  0.666649  0.333300  0.999932  1
  Cu  Cu10  1  0.666693  0.333385  0.499040  1
  Si  Si11  1  0.169431  0.338861  0.999348  1
  Si  Si12  1  0.831056  0.662111  0.000816  1
  Si  Si13  1  0.661116  0.830560  0.999259  1
  Si  Si14  1  0.831232  0.662464  0.500432  1
  Si  Si15  1  0.337893  0.168930  0.000721  1
  Si  Si16  1  0.165978  0.331954  0.499196  1
  Si  Si17  1  0.169444  0.830560  0.999260  1
  Si  Si18  1  0.337535  0.168754  0.500534  1
  Si  Si19  1  0.831037  0.168930  0.000722  1
  Si  Si20  1  0.668063  0.834046  0.499284  1
  Si  Si21  1  0.831220  0.168754  0.500534  1
  Si  Si22  1  0.165984  0.834045  0.499285  1
  Pd  Pd23  1  0.333376  0.666751  0.501056  1
