# generated using pymatgen
data_HoEr7B24MoOs3
_symmetry_space_group_name_H-M   'P 1'
_cell_length_a   3.63555200
_cell_length_b   9.13425093
_cell_length_c   11.51730500
_cell_angle_alpha   89.90815090
_cell_angle_beta   90.00000000
_cell_angle_gamma   90.00000000
_symmetry_Int_Tables_number   1
_chemical_formula_structural   HoEr7B24MoOs3
_chemical_formula_sum   'Ho1 Er7 B24 Mo1 Os3'
_cell_volume   382.46668240
_cell_formula_units_Z   1
loop_
 _symmetry_equiv_pos_site_id
 _symmetry_equiv_pos_as_xyz
  1  'x, y, z'
loop_
 _atom_site_type_symbol
 _atom_site_label
 _atom_site_symmetry_multiplicity
 _atom_site_fract_x
 _atom_site_fract_y
 _atom_site_fract_z
 _atom_site_occupancy
  Ho  Ho0  1  0.000000  0.322256  0.413130  1
  Er  Er1  1  0.000000  0.677152  0.584837  1
  Er  Er2  1  0.000000  0.820603  0.087555  1
  Er  Er3  1  0.000000  0.177530  0.914541  1
  Er  Er4  1  0.000000  0.945092  0.372857  1
  Er  Er5  1  0.000000  0.057265  0.628371  1
  Er  Er6  1  0.000000  0.443590  0.126709  1
  Er  Er7  1  0.000000  0.556627  0.871421  1
  B  B8  1  0.500000  0.551182  0.435597  1
  B  B9  1  0.500000  0.446247  0.568023  1
  B  B10  1  0.500000  0.053419  0.066770  1
  B  B11  1  0.500000  0.946413  0.933336  1
  B  B12  1  0.500000  0.750649  0.421885  1
  B  B13  1  0.500000  0.252011  0.581047  1
  B  B14  1  0.500000  0.248375  0.080015  1
  B  B15  1  0.500000  0.751458  0.919219  1
  B  B16  1  0.500000  0.794610  0.264689  1
  B  B17  1  0.500000  0.208371  0.734358  1
  B  B18  1  0.500000  0.291017  0.232731  1
  B  B19  1  0.500000  0.709055  0.765875  1
  B  B20  1  0.500000  0.631997  0.183153  1
  B  B21  1  0.500000  0.367910  0.814981  1
  B  B22  1  0.500000  0.131506  0.313731  1
  B  B23  1  0.500000  0.869114  0.685653  1
  B  B24  1  0.500000  0.983090  0.212658  1
  B  B25  1  0.500000  0.017385  0.787983  1
  B  B26  1  0.500000  0.478645  0.286500  1
  B  B27  1  0.500000  0.516599  0.713073  1
  B  B28  1  0.500000  0.605941  0.027897  1
  B  B29  1  0.500000  0.393524  0.969811  1
  B  B30  1  0.500000  0.106754  0.471006  1
  B  B31  1  0.500000  0.895824  0.530434  1
  Mo  Mo32  1  0.000000  0.637754  0.321265  1
  Os  Os33  1  0.000000  0.361010  0.680422  1
  Os  Os34  1  0.000000  0.137507  0.177265  1
  Os  Os35  1  0.000000  0.862519  0.821203  1
