# generated using pymatgen
data_Er5Ir2Rh
_symmetry_space_group_name_H-M   'P 1'
_cell_length_a   10.77254400
_cell_length_b   10.77254400
_cell_length_c   6.33894900
_cell_angle_alpha   90.00000000
_cell_angle_beta   90.00000000
_cell_angle_gamma   90.00000000
_symmetry_Int_Tables_number   1
_chemical_formula_structural   Er5Ir2Rh
_chemical_formula_sum   'Er20 Ir8 Rh4'
_cell_volume   735.62047869
_cell_formula_units_Z   4
loop_
 _symmetry_equiv_pos_site_id
 _symmetry_equiv_pos_as_xyz
  1  'x, y, z'
loop_
 _atom_site_type_symbol
 _atom_site_label
 _atom_site_symmetry_multiplicity
 _atom_site_fract_x
 _atom_site_fract_y
 _atom_site_fract_z
 _atom_site_occupancy
  Er  Er0  1  0.290545  0.088536  0.378670  1
  Er  Er1  1  0.290545  0.911464  0.878670  1
  Er  Er2  1  0.709455  0.088536  0.878670  1
  Er  Er3  1  0.709455  0.911464  0.378670  1
  Er  Er4  1  0.588536  0.790545  0.878670  1
  Er  Er5  1  0.588536  0.209455  0.378670  1
  Er  Er6  1  0.411464  0.790545  0.378670  1
  Er  Er7  1  0.411464  0.209455  0.878670  1
  Er  Er8  1  0.209455  0.411464  0.621330  1
  Er  Er9  1  0.209455  0.588536  0.121330  1
  Er  Er10  1  0.790545  0.411464  0.121330  1
  Er  Er11  1  0.790545  0.588536  0.621330  1
  Er  Er12  1  0.911464  0.709455  0.121330  1
  Er  Er13  1  0.911464  0.290545  0.621330  1
  Er  Er14  1  0.088536  0.709455  0.621330  1
  Er  Er15  1  0.088536  0.290545  0.121330  1
  Er  Er16  1  0.000000  0.000000  0.500000  1
  Er  Er17  1  0.000000  0.000000  0.000000  1
  Er  Er18  1  0.500000  0.500000  0.000000  1
  Er  Er19  1  0.500000  0.500000  0.500000  1
  Ir  Ir20  1  0.845957  0.154043  0.250000  1
  Ir  Ir21  1  0.845957  0.845957  0.750000  1
  Ir  Ir22  1  0.154043  0.154043  0.750000  1
  Ir  Ir23  1  0.154043  0.845957  0.250000  1
  Ir  Ir24  1  0.654043  0.345957  0.750000  1
  Ir  Ir25  1  0.654043  0.654043  0.250000  1
  Ir  Ir26  1  0.345957  0.345957  0.250000  1
  Ir  Ir27  1  0.345957  0.654043  0.750000  1
  Rh  Rh28  1  0.500000  0.000000  0.122401  1
  Rh  Rh29  1  0.500000  0.000000  0.622401  1
  Rh  Rh30  1  0.000000  0.500000  0.877599  1
  Rh  Rh31  1  0.000000  0.500000  0.377599  1
