# generated using pymatgen
data_Hf8Ti12Si15Pt
_symmetry_space_group_name_H-M   'P 1'
_cell_length_a   6.84322037
_cell_length_b   6.82598487
_cell_length_c   12.52285116
_cell_angle_alpha   89.88796849
_cell_angle_beta   89.90467034
_cell_angle_gamma   90.18287133
_symmetry_Int_Tables_number   1
_chemical_formula_structural   Hf8Ti12Si15Pt
_chemical_formula_sum   'Hf8 Ti12 Si15 Pt1'
_cell_volume   584.95898692
_cell_formula_units_Z   1
loop_
 _symmetry_equiv_pos_site_id
 _symmetry_equiv_pos_as_xyz
  1  'x, y, z'
loop_
 _atom_site_type_symbol
 _atom_site_label
 _atom_site_symmetry_multiplicity
 _atom_site_fract_x
 _atom_site_fract_y
 _atom_site_fract_z
 _atom_site_occupancy
  Hf  Hf0  1  0.344867  0.995591  0.464745  1
  Hf  Hf1  1  0.507842  0.836757  0.718542  1
  Hf  Hf2  1  0.498565  0.157022  0.218006  1
  Hf  Hf3  1  0.842914  0.500624  0.281244  1
  Hf  Hf4  1  0.153359  0.502341  0.784154  1
  Hf  Hf5  1  0.658440  0.000737  0.969030  1
  Hf  Hf6  1  0.996267  0.343145  0.530535  1
  Hf  Hf7  1  0.001328  0.657883  0.032233  1
  Ti  Ti8  1  0.328645  0.330804  0.001218  1
  Ti  Ti9  1  0.171142  0.829792  0.249790  1
  Ti  Ti10  1  0.826476  0.172032  0.750901  1
  Ti  Ti11  1  0.670596  0.670786  0.499733  1
  Ti  Ti12  1  0.152915  0.006303  0.877203  1
  Ti  Ti13  1  0.496907  0.653267  0.122715  1
  Ti  Ti14  1  0.502476  0.347542  0.621927  1
  Ti  Ti15  1  0.653272  0.497132  0.878338  1
  Ti  Ti16  1  0.346878  0.503643  0.375892  1
  Ti  Ti17  1  0.847434  0.995500  0.372607  1
  Ti  Ti18  1  0.003573  0.152468  0.126957  1
  Ti  Ti19  1  0.993286  0.846629  0.622750  1
  Si  Si20  1  0.365858  0.707776  0.926954  1
  Si  Si21  1  0.633796  0.293340  0.425900  1
  Si  Si22  1  0.705554  0.364521  0.073667  1
  Si  Si23  1  0.294887  0.636362  0.571798  1
  Si  Si24  1  0.794493  0.864080  0.177408  1
  Si  Si25  1  0.135492  0.205758  0.322311  1
  Si  Si26  1  0.865090  0.796466  0.822868  1
  Si  Si27  1  0.295348  0.955849  0.065615  1
  Si  Si28  1  0.545735  0.793239  0.313202  1
  Si  Si29  1  0.458153  0.203934  0.816722  1
  Si  Si30  1  0.795132  0.543859  0.686665  1
  Si  Si31  1  0.205193  0.456322  0.185839  1
  Si  Si32  1  0.702497  0.044707  0.563013  1
  Si  Si33  1  0.954328  0.295742  0.937342  1
  Si  Si34  1  0.044969  0.704898  0.434486  1
  Pt  Pt35  1  0.206296  0.133147  0.677691  1
