# generated using pymatgen
data_Na2CoSi3O8
_symmetry_space_group_name_H-M   'P 1'
_cell_length_a   8.74755500
_cell_length_b   6.48231705
_cell_length_c   6.76827171
_cell_angle_alpha   76.34902563
_cell_angle_beta   90.00000000
_cell_angle_gamma   90.00000000
_symmetry_Int_Tables_number   1
_chemical_formula_structural   Na2CoSi3O8
_chemical_formula_sum   'Na4 Co2 Si6 O16'
_cell_volume   372.94940479
_cell_formula_units_Z   2
loop_
 _symmetry_equiv_pos_site_id
 _symmetry_equiv_pos_as_xyz
  1  'x, y, z'
loop_
 _atom_site_type_symbol
 _atom_site_label
 _atom_site_symmetry_multiplicity
 _atom_site_fract_x
 _atom_site_fract_y
 _atom_site_fract_z
 _atom_site_occupancy
  Na  Na0  1  0.633467  0.408244  0.470909  1
  Na  Na1  1  0.133467  0.591756  0.529091  1
  Na  Na2  1  0.190490  0.168820  0.220573  1
  Na  Na3  1  0.690490  0.831180  0.779427  1
  Co  Co4  1  0.502019  0.963539  0.389020  1
  Co  Co5  1  0.002019  0.036461  0.610980  1
  Si  Si6  1  0.313995  0.750130  0.099919  1
  Si  Si7  1  0.813995  0.249870  0.900081  1
  Si  Si8  1  0.996442  0.594175  0.011299  1
  Si  Si9  1  0.496442  0.405825  0.988701  1
  Si  Si10  1  0.832434  0.855284  0.267666  1
  Si  Si11  1  0.332434  0.144716  0.732334  1
  O  O12  1  0.171087  0.579321  0.108932  1
  O  O13  1  0.671087  0.420679  0.891068  1
  O  O14  1  0.337661  0.782485  0.326163  1
  O  O15  1  0.837661  0.217515  0.673837  1
  O  O16  1  0.768954  0.024290  0.057379  1
  O  O17  1  0.268954  0.975710  0.942621  1
  O  O18  1  0.985463  0.940842  0.355300  1
  O  O19  1  0.485463  0.059158  0.644700  1
  O  O20  1  0.690986  0.791730  0.425659  1
  O  O21  1  0.190986  0.208270  0.574341  1
  O  O22  1  0.480177  0.249252  0.208271  1
  O  O23  1  0.980177  0.750748  0.791729  1
  O  O24  1  0.377482  0.361838  0.813935  1
  O  O25  1  0.877482  0.638162  0.186065  1
  O  O26  1  0.464634  0.653144  0.004834  1
  O  O27  1  0.964634  0.346856  0.995166  1
