# generated using pymatgen
data_Nb9Re(B2P)2
_symmetry_space_group_name_H-M   'P 1'
_cell_length_a   7.27499798
_cell_length_b   7.27499687
_cell_length_c   7.27499701
_cell_angle_alpha   129.86293527
_cell_angle_beta   129.86294240
_cell_angle_gamma   73.62598241
_symmetry_Int_Tables_number   1
_chemical_formula_structural   Nb9Re(B2P)2
_chemical_formula_sum   'Nb9 Re1 B4 P2'
_cell_volume   221.35668624
_cell_formula_units_Z   1
loop_
 _symmetry_equiv_pos_site_id
 _symmetry_equiv_pos_as_xyz
  1  'x, y, z'
loop_
 _atom_site_type_symbol
 _atom_site_label
 _atom_site_symmetry_multiplicity
 _atom_site_fract_x
 _atom_site_fract_y
 _atom_site_fract_z
 _atom_site_occupancy
  Nb  Nb0  1  0.000000  0.000000  0.000000  1
  Nb  Nb1  1  0.806683  0.311492  0.837626  1
  Nb  Nb2  1  0.193317  0.688508  0.162374  1
  Nb  Nb3  1  0.473865  0.969056  0.162374  1
  Nb  Nb4  1  0.311492  0.473865  0.504809  1
  Nb  Nb5  1  0.030944  0.193317  0.504809  1
  Nb  Nb6  1  0.526135  0.030944  0.837626  1
  Nb  Nb7  1  0.688508  0.526135  0.495191  1
  Nb  Nb8  1  0.969056  0.806683  0.495191  1
  Re  Re9  1  0.500000  0.500000  0.000000  1
  B  B10  1  0.118875  0.612990  0.731863  1
  B  B11  1  0.881125  0.387010  0.268137  1
  B  B12  1  0.612990  0.881125  0.494115  1
  B  B13  1  0.387010  0.118875  0.505885  1
  P  P14  1  0.243839  0.243839  0.000000  1
  P  P15  1  0.756161  0.756161  0.000000  1
