# generated using pymatgen
data_Re4TcIr2Ru
_symmetry_space_group_name_H-M   'P 1'
_cell_length_a   5.56567116
_cell_length_b   5.56367485
_cell_length_c   4.38568100
_cell_angle_alpha   90.00000000
_cell_angle_beta   90.00000000
_cell_angle_gamma   120.07862097
_symmetry_Int_Tables_number   1
_chemical_formula_structural   Re4TcIr2Ru
_chemical_formula_sum   'Re4 Tc1 Ir2 Ru1'
_cell_volume   117.51744651
_cell_formula_units_Z   1
loop_
 _symmetry_equiv_pos_site_id
 _symmetry_equiv_pos_as_xyz
  1  'x, y, z'
loop_
 _atom_site_type_symbol
 _atom_site_label
 _atom_site_symmetry_multiplicity
 _atom_site_fract_x
 _atom_site_fract_y
 _atom_site_fract_z
 _atom_site_occupancy
  Re  Re0  1  0.159499  0.323929  0.250000  1
  Re  Re1  1  0.675920  0.841411  0.250000  1
  Re  Re2  1  0.162866  0.838596  0.250000  1
  Re  Re3  1  0.837106  0.674214  0.750000  1
  Tc  Tc4  1  0.324675  0.163433  0.750000  1
  Ir  Ir5  1  0.334290  0.663623  0.750000  1
  Ir  Ir6  1  0.667350  0.331408  0.250000  1
  Ru  Ru7  1  0.838295  0.163385  0.750000  1
