# generated using pymatgen
data_Tb2Y3Er3(CdNi)2
_symmetry_space_group_name_H-M   'P 1'
_cell_length_a   9.54366806
_cell_length_b   9.54366868
_cell_length_c   9.54366800
_cell_angle_alpha   60.00000236
_cell_angle_beta   60.00000020
_cell_angle_gamma   60.00000029
_symmetry_Int_Tables_number   1
_chemical_formula_structural   Tb2Y3Er3(CdNi)2
_chemical_formula_sum   'Tb4 Y6 Er6 Cd4 Ni4'
_cell_volume   614.65442698
_cell_formula_units_Z   2
loop_
 _symmetry_equiv_pos_site_id
 _symmetry_equiv_pos_as_xyz
  1  'x, y, z'
loop_
 _atom_site_type_symbol
 _atom_site_label
 _atom_site_symmetry_multiplicity
 _atom_site_fract_x
 _atom_site_fract_y
 _atom_site_fract_z
 _atom_site_occupancy
  Tb  Tb0  1  0.599195  0.599195  0.599195  1
  Tb  Tb1  1  0.599195  0.599195  0.202415  1
  Tb  Tb2  1  0.599195  0.202415  0.599195  1
  Tb  Tb3  1  0.202415  0.599195  0.599195  1
  Y  Y4  1  0.186908  0.813092  0.813092  1
  Y  Y5  1  0.813092  0.186908  0.186908  1
  Y  Y6  1  0.813092  0.186908  0.813092  1
  Y  Y7  1  0.186908  0.813092  0.186908  1
  Y  Y8  1  0.813092  0.813092  0.186908  1
  Y  Y9  1  0.186908  0.186908  0.813092  1
  Er  Er10  1  0.062577  0.437423  0.437423  1
  Er  Er11  1  0.437423  0.062577  0.062577  1
  Er  Er12  1  0.437423  0.062577  0.437423  1
  Er  Er13  1  0.062577  0.437423  0.062577  1
  Er  Er14  1  0.437423  0.437423  0.062577  1
  Er  Er15  1  0.062577  0.062577  0.437423  1
  Cd  Cd16  1  0.831137  0.831137  0.831137  1
  Cd  Cd17  1  0.831137  0.831137  0.506589  1
  Cd  Cd18  1  0.831137  0.506589  0.831137  1
  Cd  Cd19  1  0.506589  0.831137  0.831137  1
  Ni  Ni20  1  0.392116  0.392116  0.392116  1
  Ni  Ni21  1  0.392116  0.392116  0.823654  1
  Ni  Ni22  1  0.392116  0.823654  0.392116  1
  Ni  Ni23  1  0.823654  0.392116  0.392116  1
