# generated using pymatgen
data_Tm2U(SnRu)3
_symmetry_space_group_name_H-M   'P 1'
_cell_length_a   7.79607900
_cell_length_b   7.42420671
_cell_length_c   3.79873900
_cell_angle_alpha   90.00000000
_cell_angle_beta   90.00000000
_cell_angle_gamma   121.67123991
_symmetry_Int_Tables_number   1
_chemical_formula_structural   Tm2U(SnRu)3
_chemical_formula_sum   'Tm2 U1 Sn3 Ru3'
_cell_volume   187.12570819
_cell_formula_units_Z   1
loop_
 _symmetry_equiv_pos_site_id
 _symmetry_equiv_pos_as_xyz
  1  'x, y, z'
loop_
 _atom_site_type_symbol
 _atom_site_label
 _atom_site_symmetry_multiplicity
 _atom_site_fract_x
 _atom_site_fract_y
 _atom_site_fract_z
 _atom_site_occupancy
  Tm  Tm0  1  0.003270  0.404345  0.500000  1
  Tm  Tm1  1  0.598926  0.595655  0.500000  1
  U  U2  1  0.415267  0.000000  0.500000  1
  Sn  Sn3  1  0.984124  0.721820  0.000000  1
  Sn  Sn4  1  0.262304  0.278180  0.000000  1
  Sn  Sn5  1  0.757978  0.000000  0.000000  1
  Ru  Ru6  1  0.340068  0.715512  0.000000  1
  Ru  Ru7  1  0.624557  0.284488  0.000000  1
  Ru  Ru8  1  0.013506  0.000000  0.500000  1
