# generated using pymatgen
data_Ho4GaNi13
_symmetry_space_group_name_H-M   'P 1'
_cell_length_a   4.92404712
_cell_length_b   4.92404756
_cell_length_c   12.43612215
_cell_angle_alpha   78.63979243
_cell_angle_beta   78.63979303
_cell_angle_gamma   60.66198937
_symmetry_Int_Tables_number   1
_chemical_formula_structural   Ho4GaNi13
_chemical_formula_sum   'Ho4 Ga1 Ni13'
_cell_volume   255.91991524
_cell_formula_units_Z   1
loop_
 _symmetry_equiv_pos_site_id
 _symmetry_equiv_pos_as_xyz
  1  'x, y, z'
loop_
 _atom_site_type_symbol
 _atom_site_label
 _atom_site_symmetry_multiplicity
 _atom_site_fract_x
 _atom_site_fract_y
 _atom_site_fract_z
 _atom_site_occupancy
  Ho  Ho0  1  0.947141  0.947141  0.158516  1
  Ho  Ho1  1  0.052859  0.052859  0.841484  1
  Ho  Ho2  1  0.852420  0.852420  0.442308  1
  Ho  Ho3  1  0.147580  0.147580  0.557692  1
  Ga  Ga4  1  0.500000  0.500000  0.000000  1
  Ni  Ni5  1  0.500000  0.500000  0.500000  1
  Ni  Ni6  1  0.723668  0.723668  0.833053  1
  Ni  Ni7  1  0.276332  0.276332  0.166947  1
  Ni  Ni8  1  0.612217  0.612217  0.166796  1
  Ni  Ni9  1  0.387783  0.387783  0.833204  1
  Ni  Ni10  1  0.000000  0.500000  0.000000  1
  Ni  Ni11  1  0.500000  0.000000  0.000000  1
  Ni  Ni12  1  0.389161  0.389161  0.330567  1
  Ni  Ni13  1  0.890744  0.389444  0.330336  1
  Ni  Ni14  1  0.389444  0.890744  0.330336  1
  Ni  Ni15  1  0.610839  0.610839  0.669433  1
  Ni  Ni16  1  0.109256  0.610556  0.669664  1
  Ni  Ni17  1  0.610556  0.109256  0.669664  1
