# generated using pymatgen
data_Ho2LuFe8Co3B4
_symmetry_space_group_name_H-M   'P 1'
_cell_length_a   5.03079600
_cell_length_b   5.03083952
_cell_length_c   9.97806400
_cell_angle_alpha   89.99980576
_cell_angle_beta   90.00018796
_cell_angle_gamma   119.99509874
_symmetry_Int_Tables_number   1
_chemical_formula_structural   Ho2LuFe8Co3B4
_chemical_formula_sum   'Ho2 Lu1 Fe8 Co3 B4'
_cell_volume   218.71347215
_cell_formula_units_Z   1
loop_
 _symmetry_equiv_pos_site_id
 _symmetry_equiv_pos_as_xyz
  1  'x, y, z'
loop_
 _atom_site_type_symbol
 _atom_site_label
 _atom_site_symmetry_multiplicity
 _atom_site_fract_x
 _atom_site_fract_y
 _atom_site_fract_z
 _atom_site_occupancy
  Ho  Ho0  1  0.999985  0.000000  0.999606  1
  Ho  Ho1  1  0.999994  0.000001  0.348101  1
  Lu  Lu2  1  0.999997  0.000002  0.652414  1
  Fe  Fe3  1  0.333360  0.666719  0.999974  1
  Fe  Fe4  1  0.666614  0.333282  0.999974  1
  Fe  Fe5  1  0.499989  0.999997  0.202042  1
  Fe  Fe6  1  0.499989  0.500001  0.202019  1
  Fe  Fe7  1  0.999995  0.500001  0.202016  1
  Fe  Fe8  1  0.499997  0.999998  0.797448  1
  Fe  Fe9  1  0.499996  0.500000  0.797445  1
  Fe  Fe10  1  0.000000  0.500001  0.797451  1
  Co  Co11  1  0.499997  0.000000  0.500458  1
  Co  Co12  1  0.499998  0.500000  0.500480  1
  Co  Co13  1  0.999999  0.500001  0.500477  1
  B  B14  1  0.333307  0.666604  0.352811  1
  B  B15  1  0.666682  0.333394  0.352810  1
  B  B16  1  0.666661  0.333321  0.647238  1
  B  B17  1  0.333339  0.666679  0.647237  1
