# generated using pymatgen
data_Tb4B3(PdRh)6
_symmetry_space_group_name_H-M   'P 1'
_cell_length_a   4.21848300
_cell_length_b   4.21848300
_cell_length_c   16.76725000
_cell_angle_alpha   90.00000000
_cell_angle_beta   90.00000000
_cell_angle_gamma   90.00000000
_symmetry_Int_Tables_number   1
_chemical_formula_structural   Tb4B3(PdRh)6
_chemical_formula_sum   'Tb4 B3 Pd6 Rh6'
_cell_volume   298.38325434
_cell_formula_units_Z   1
loop_
 _symmetry_equiv_pos_site_id
 _symmetry_equiv_pos_as_xyz
  1  'x, y, z'
loop_
 _atom_site_type_symbol
 _atom_site_label
 _atom_site_symmetry_multiplicity
 _atom_site_fract_x
 _atom_site_fract_y
 _atom_site_fract_z
 _atom_site_occupancy
  Tb  Tb0  1  0.000000  0.000000  0.875199  1
  Tb  Tb1  1  0.000000  0.000000  0.124801  1
  Tb  Tb2  1  0.000000  0.000000  0.374425  1
  Tb  Tb3  1  0.000000  0.000000  0.625575  1
  B  B4  1  0.500000  0.500000  0.237532  1
  B  B5  1  0.500000  0.500000  0.500000  1
  B  B6  1  0.500000  0.500000  0.762468  1
  Pd  Pd7  1  0.500000  0.500000  0.886390  1
  Pd  Pd8  1  0.500000  0.500000  0.113610  1
  Pd  Pd9  1  0.500000  0.500000  0.371626  1
  Pd  Pd10  1  0.500000  0.500000  0.628374  1
  Pd  Pd11  1  0.500000  0.000000  0.000000  1
  Pd  Pd12  1  0.000000  0.500000  0.000000  1
  Rh  Rh13  1  0.500000  0.000000  0.250015  1
  Rh  Rh14  1  0.500000  0.000000  0.500000  1
  Rh  Rh15  1  0.500000  0.000000  0.749985  1
  Rh  Rh16  1  0.000000  0.500000  0.250015  1
  Rh  Rh17  1  0.000000  0.500000  0.500000  1
  Rh  Rh18  1  0.000000  0.500000  0.749985  1
