# generated using pymatgen
data_Cs2Ti7BCl18
_symmetry_space_group_name_H-M   'P 1'
_cell_length_a   10.18035867
_cell_length_b   10.11197980
_cell_length_c   10.12012100
_cell_angle_alpha   55.67192198
_cell_angle_beta   55.47596919
_cell_angle_gamma   55.44229343
_symmetry_Int_Tables_number   1
_chemical_formula_structural   Cs2Ti7BCl18
_chemical_formula_sum   'Cs2 Ti7 B1 Cl18'
_cell_volume   660.21368664
_cell_formula_units_Z   1
loop_
 _symmetry_equiv_pos_site_id
 _symmetry_equiv_pos_as_xyz
  1  'x, y, z'
loop_
 _atom_site_type_symbol
 _atom_site_label
 _atom_site_symmetry_multiplicity
 _atom_site_fract_x
 _atom_site_fract_y
 _atom_site_fract_z
 _atom_site_occupancy
  Cs  Cs0  1  0.774706  0.774374  0.775359  1
  Cs  Cs1  1  0.225294  0.225626  0.224641  1
  Ti  Ti2  1  0.159831  0.897976  0.796239  1
  Ti  Ti3  1  0.840169  0.102024  0.203761  1
  Ti  Ti4  1  0.101368  0.203684  0.840601  1
  Ti  Ti5  1  0.202289  0.840716  0.101345  1
  Ti  Ti6  1  0.898632  0.796316  0.159399  1
  Ti  Ti7  1  0.797711  0.159284  0.898655  1
  Ti  Ti8  1  0.500000  0.500000  0.500000  1
  B  B9  1  0.000000  0.000000  0.000000  1
  Cl  Cl10  1  0.224241  0.457880  0.649529  1
  Cl  Cl11  1  0.775759  0.542120  0.350471  1
  Cl  Cl12  1  0.337329  0.049752  0.936039  1
  Cl  Cl13  1  0.662671  0.950248  0.063961  1
  Cl  Cl14  1  0.934488  0.339262  0.050814  1
  Cl  Cl15  1  0.713904  0.885107  0.402937  1
  Cl  Cl16  1  0.350833  0.774976  0.541880  1
  Cl  Cl17  1  0.597558  0.286647  0.115856  1
  Cl  Cl18  1  0.286096  0.114893  0.597063  1
  Cl  Cl19  1  0.115186  0.597414  0.285941  1
  Cl  Cl20  1  0.951323  0.063838  0.660911  1
  Cl  Cl21  1  0.402442  0.713353  0.884144  1
  Cl  Cl22  1  0.884814  0.402586  0.714059  1
  Cl  Cl23  1  0.065512  0.660738  0.949186  1
  Cl  Cl24  1  0.458753  0.649468  0.225125  1
  Cl  Cl25  1  0.649167  0.225024  0.458120  1
  Cl  Cl26  1  0.541247  0.350532  0.774875  1
  Cl  Cl27  1  0.048677  0.936162  0.339089  1
