# generated using pymatgen
data_TbSmTm2(NiP)4
_symmetry_space_group_name_H-M   'P 1'
_cell_length_a   3.88974100
_cell_length_b   3.88974030
_cell_length_c   15.50538200
_cell_angle_alpha   90.00000000
_cell_angle_beta   90.00000000
_cell_angle_gamma   119.99999745
_symmetry_Int_Tables_number   1
_chemical_formula_structural   TbSmTm2(NiP)4
_chemical_formula_sum   'Tb1 Sm1 Tm2 Ni4 P4'
_cell_volume   203.16757837
_cell_formula_units_Z   1
loop_
 _symmetry_equiv_pos_site_id
 _symmetry_equiv_pos_as_xyz
  1  'x, y, z'
loop_
 _atom_site_type_symbol
 _atom_site_label
 _atom_site_symmetry_multiplicity
 _atom_site_fract_x
 _atom_site_fract_y
 _atom_site_fract_z
 _atom_site_occupancy
  Tb  Tb0  1  0.000000  0.000000  0.500000  1
  Sm  Sm1  1  0.000000  0.000000  0.000000  1
  Tm  Tm2  1  0.000000  0.000000  0.251579  1
  Tm  Tm3  1  0.000000  0.000000  0.748421  1
  Ni  Ni4  1  0.333333  0.666667  0.134464  1
  Ni  Ni5  1  0.666667  0.333333  0.865536  1
  Ni  Ni6  1  0.666667  0.333333  0.631634  1
  Ni  Ni7  1  0.333333  0.666667  0.368366  1
  P  P8  1  0.333333  0.666667  0.623320  1
  P  P9  1  0.666667  0.333333  0.376680  1
  P  P10  1  0.666667  0.333333  0.127361  1
  P  P11  1  0.333333  0.666667  0.872639  1
