# generated using pymatgen
data_Pt(SeBr6)2
_symmetry_space_group_name_H-M   'P 1'
_cell_length_a   9.45780955
_cell_length_b   9.45780950
_cell_length_c   7.03083398
_cell_angle_alpha   72.31764147
_cell_angle_beta   72.31764176
_cell_angle_gamma   79.07386580
_symmetry_Int_Tables_number   1
_chemical_formula_structural   Pt(SeBr6)2
_chemical_formula_sum   'Pt1 Se2 Br12'
_cell_volume   567.59934512
_cell_formula_units_Z   1
loop_
 _symmetry_equiv_pos_site_id
 _symmetry_equiv_pos_as_xyz
  1  'x, y, z'
loop_
 _atom_site_type_symbol
 _atom_site_label
 _atom_site_symmetry_multiplicity
 _atom_site_fract_x
 _atom_site_fract_y
 _atom_site_fract_z
 _atom_site_occupancy
  Pt  Pt0  1  0.000000  0.000000  0.000000  1
  Se  Se1  1  0.271666  0.271666  0.736761  1
  Se  Se2  1  0.728334  0.728334  0.263239  1
  Br  Br3  1  0.959098  0.249055  0.755070  1
  Br  Br4  1  0.249055  0.959098  0.755070  1
  Br  Br5  1  0.040902  0.750945  0.244930  1
  Br  Br6  1  0.750945  0.040902  0.244930  1
  Br  Br7  1  0.213793  0.515133  0.796002  1
  Br  Br8  1  0.515133  0.213793  0.796002  1
  Br  Br9  1  0.786207  0.484867  0.203998  1
  Br  Br10  1  0.484867  0.786207  0.203998  1
  Br  Br11  1  0.123720  0.123720  0.165340  1
  Br  Br12  1  0.876280  0.876280  0.834660  1
  Br  Br13  1  0.653999  0.653999  0.636474  1
  Br  Br14  1  0.346001  0.346001  0.363526  1
