# generated using pymatgen
data_V(GaO2)4
_symmetry_space_group_name_H-M   'P 1'
_cell_length_a   6.39563940
_cell_length_b   6.39563968
_cell_length_c   9.55026511
_cell_angle_alpha   56.35965495
_cell_angle_beta   56.35965241
_cell_angle_gamma   27.76360934
_symmetry_Int_Tables_number   1
_chemical_formula_structural   V(GaO2)4
_chemical_formula_sum   'V1 Ga4 O8'
_cell_volume   149.43530813
_cell_formula_units_Z   1
loop_
 _symmetry_equiv_pos_site_id
 _symmetry_equiv_pos_as_xyz
  1  'x, y, z'
loop_
 _atom_site_type_symbol
 _atom_site_label
 _atom_site_symmetry_multiplicity
 _atom_site_fract_x
 _atom_site_fract_y
 _atom_site_fract_z
 _atom_site_occupancy
  V  V0  1  0.000000  0.000000  0.000000  1
  Ga  Ga1  1  0.462466  0.462466  0.714935  1
  Ga  Ga2  1  0.240346  0.240346  0.362497  1
  Ga  Ga3  1  0.759654  0.759654  0.637503  1
  Ga  Ga4  1  0.537534  0.537534  0.285065  1
  O  O5  1  0.107868  0.107868  0.310201  1
  O  O6  1  0.445125  0.445125  0.920355  1
  O  O7  1  0.554875  0.554875  0.079645  1
  O  O8  1  0.164954  0.164954  0.784619  1
  O  O9  1  0.892132  0.892132  0.689799  1
  O  O10  1  0.354002  0.354002  0.459720  1
  O  O11  1  0.645998  0.645998  0.540280  1
  O  O12  1  0.835046  0.835046  0.215381  1
