# generated using pymatgen
data_Tb2Zn14Co3
_symmetry_space_group_name_H-M   'P 1'
_cell_length_a   6.66886335
_cell_length_b   6.66886305
_cell_length_c   6.66886323
_cell_angle_alpha   82.64009572
_cell_angle_beta   97.35979184
_cell_angle_gamma   97.35984112
_symmetry_Int_Tables_number   1
_chemical_formula_structural   Tb2Zn14Co3
_chemical_formula_sum   'Tb2 Zn14 Co3'
_cell_volume   289.83538912
_cell_formula_units_Z   1
loop_
 _symmetry_equiv_pos_site_id
 _symmetry_equiv_pos_as_xyz
  1  'x, y, z'
loop_
 _atom_site_type_symbol
 _atom_site_label
 _atom_site_symmetry_multiplicity
 _atom_site_fract_x
 _atom_site_fract_y
 _atom_site_fract_z
 _atom_site_occupancy
  Tb  Tb0  1  0.665437  0.334562  0.334563  1
  Tb  Tb1  1  0.334562  0.665437  0.665437  1
  Zn  Zn2  1  0.292856  0.292856  0.000000  1
  Zn  Zn3  1  0.707144  0.707144  0.000000  1
  Zn  Zn4  1  0.894435  0.105563  0.105564  1
  Zn  Zn5  1  0.347033  0.652968  0.148028  1
  Zn  Zn6  1  0.000000  0.707144  0.292855  1
  Zn  Zn7  1  0.292856  0.000000  0.292856  1
  Zn  Zn8  1  0.652968  0.851972  0.347031  1
  Zn  Zn9  1  0.148028  0.347032  0.347033  1
  Zn  Zn10  1  0.851972  0.652968  0.652967  1
  Zn  Zn11  1  0.347032  0.148027  0.652968  1
  Zn  Zn12  1  0.000000  0.292856  0.707143  1
  Zn  Zn13  1  0.707144  0.000000  0.707144  1
  Zn  Zn14  1  0.652968  0.347032  0.851972  1
  Zn  Zn15  1  0.105563  0.894437  0.894436  1
  Co  Co16  1  0.500000  0.000000  0.000000  1
  Co  Co17  1  0.000000  0.499999  0.000000  1
  Co  Co18  1  0.000000  0.000000  0.500000  1
