# generated using pymatgen
data_Er3Hf(Co5As3)4
_symmetry_space_group_name_H-M   'P 1'
_cell_length_a   3.75958400
_cell_length_b   12.12843707
_cell_length_c   10.63987502
_cell_angle_alpha   89.91360517
_cell_angle_beta   90.00000000
_cell_angle_gamma   90.00000000
_symmetry_Int_Tables_number   1
_chemical_formula_structural   Er3Hf(Co5As3)4
_chemical_formula_sum   'Er3 Hf1 Co20 As12'
_cell_volume   485.15517119
_cell_formula_units_Z   1
loop_
 _symmetry_equiv_pos_site_id
 _symmetry_equiv_pos_as_xyz
  1  'x, y, z'
loop_
 _atom_site_type_symbol
 _atom_site_label
 _atom_site_symmetry_multiplicity
 _atom_site_fract_x
 _atom_site_fract_y
 _atom_site_fract_z
 _atom_site_occupancy
  Er  Er0  1  0.250000  0.297682  0.918433  1
  Er  Er1  1  0.250000  0.798470  0.582264  1
  Er  Er2  1  0.750000  0.201857  0.418133  1
  Hf  Hf3  1  0.750000  0.698198  0.077990  1
  Co  Co4  1  0.750000  0.697780  0.381991  1
  Co  Co5  1  0.250000  0.303731  0.615708  1
  Co  Co6  1  0.250000  0.800060  0.888864  1
  Co  Co7  1  0.750000  0.196490  0.114596  1
  Co  Co8  1  0.750000  0.992595  0.214018  1
  Co  Co9  1  0.250000  0.006750  0.786580  1
  Co  Co10  1  0.250000  0.509909  0.713770  1
  Co  Co11  1  0.750000  0.493086  0.284463  1
  Co  Co12  1  0.750000  0.678983  0.784696  1
  Co  Co13  1  0.250000  0.322752  0.214728  1
  Co  Co14  1  0.250000  0.821281  0.282881  1
  Co  Co15  1  0.750000  0.178691  0.717015  1
  Co  Co16  1  0.750000  0.926479  0.972878  1
  Co  Co17  1  0.250000  0.064981  0.031067  1
  Co  Co18  1  0.250000  0.569366  0.467359  1
  Co  Co19  1  0.750000  0.432569  0.529888  1
  Co  Co20  1  0.750000  0.988048  0.592940  1
  Co  Co21  1  0.250000  0.012325  0.407514  1
  Co  Co22  1  0.250000  0.517786  0.092808  1
  Co  Co23  1  0.750000  0.490491  0.910165  1
  As  As24  1  0.750000  0.614982  0.584383  1
  As  As25  1  0.250000  0.386385  0.414166  1
  As  As26  1  0.250000  0.881282  0.086420  1
  As  As27  1  0.750000  0.111294  0.915006  1
  As  As28  1  0.750000  0.890458  0.400293  1
  As  As29  1  0.250000  0.110391  0.600553  1
  As  As30  1  0.250000  0.610653  0.900733  1
  As  As31  1  0.750000  0.390007  0.099740  1
  As  As32  1  0.750000  0.871037  0.769457  1
  As  As33  1  0.250000  0.129441  0.230873  1
  As  As34  1  0.250000  0.631667  0.265626  1
  As  As35  1  0.750000  0.372045  0.731998  1
