# generated using pymatgen
data_La3TlIn2PtAu2
_symmetry_space_group_name_H-M   'P 1'
_cell_length_a   7.97073017
_cell_length_b   8.04594178
_cell_length_c   4.15835700
_cell_angle_alpha   90.00000000
_cell_angle_beta   90.00000000
_cell_angle_gamma   120.33701507
_symmetry_Int_Tables_number   1
_chemical_formula_structural   La3TlIn2PtAu2
_chemical_formula_sum   'La3 Tl1 In2 Pt1 Au2'
_cell_volume   230.16670336
_cell_formula_units_Z   1
loop_
 _symmetry_equiv_pos_site_id
 _symmetry_equiv_pos_as_xyz
  1  'x, y, z'
loop_
 _atom_site_type_symbol
 _atom_site_label
 _atom_site_symmetry_multiplicity
 _atom_site_fract_x
 _atom_site_fract_y
 _atom_site_fract_z
 _atom_site_occupancy
  La  La0  1  0.592330  0.011167  0.500000  1
  La  La1  1  0.418887  0.407668  0.500000  1
  La  La2  1  0.989439  0.578866  0.500000  1
  Tl  Tl3  1  0.999964  0.255512  0.000000  1
  In  In4  1  0.748024  0.746025  0.000000  1
  In  In5  1  0.253046  0.999361  0.000000  1
  Pt  Pt6  1  0.657385  0.336651  0.000000  1
  Au  Au7  1  0.340803  0.676504  0.000000  1
  Au  Au8  1  0.000123  0.988244  0.500000  1
