# generated using pymatgen
data_Hf6GaPbC4
_symmetry_space_group_name_H-M   'P 1'
_cell_length_a   3.33133100
_cell_length_b   3.33133188
_cell_length_c   19.70664400
_cell_angle_alpha   90.00000000
_cell_angle_beta   90.00000000
_cell_angle_gamma   120.00000121
_symmetry_Int_Tables_number   1
_chemical_formula_structural   Hf6GaPbC4
_chemical_formula_sum   'Hf6 Ga1 Pb1 C4'
_cell_volume   189.39956816
_cell_formula_units_Z   1
loop_
 _symmetry_equiv_pos_site_id
 _symmetry_equiv_pos_as_xyz
  1  'x, y, z'
loop_
 _atom_site_type_symbol
 _atom_site_label
 _atom_site_symmetry_multiplicity
 _atom_site_fract_x
 _atom_site_fract_y
 _atom_site_fract_z
 _atom_site_occupancy
  Hf  Hf0  1  0.000000  0.000000  0.993539  1
  Hf  Hf1  1  0.333334  0.666668  0.121658  1
  Hf  Hf2  1  0.333334  0.666668  0.378342  1
  Hf  Hf3  1  0.000000  0.000000  0.506461  1
  Hf  Hf4  1  0.666667  0.333332  0.635529  1
  Hf  Hf5  1  0.666667  0.333332  0.864471  1
  Ga  Ga6  1  0.000000  0.000000  0.750000  1
  Pb  Pb7  1  0.000000  0.000000  0.250000  1
  C  C8  1  0.666667  0.333332  0.064145  1
  C  C9  1  0.666667  0.333332  0.435855  1
  C  C10  1  0.333334  0.666668  0.576336  1
  C  C11  1  0.333334  0.666668  0.923664  1
