# generated using pymatgen
data_TbHoFe2Cl
_symmetry_space_group_name_H-M   'P 1'
_cell_length_a   3.87924400
_cell_length_b   3.87924413
_cell_length_c   16.10460900
_cell_angle_alpha   90.00000000
_cell_angle_beta   90.00000000
_cell_angle_gamma   119.99999890
_symmetry_Int_Tables_number   1
_chemical_formula_structural   TbHoFe2Cl
_chemical_formula_sum   'Tb2 Ho2 Fe4 Cl2'
_cell_volume   209.88192084
_cell_formula_units_Z   2
loop_
 _symmetry_equiv_pos_site_id
 _symmetry_equiv_pos_as_xyz
  1  'x, y, z'
loop_
 _atom_site_type_symbol
 _atom_site_label
 _atom_site_symmetry_multiplicity
 _atom_site_fract_x
 _atom_site_fract_y
 _atom_site_fract_z
 _atom_site_occupancy
  Tb  Tb0  1  0.000000  0.000000  0.386645  1
  Tb  Tb1  1  0.000000  0.000000  0.113355  1
  Ho  Ho2  1  0.000000  0.000000  0.612797  1
  Ho  Ho3  1  0.000000  0.000000  0.887203  1
  Fe  Fe4  1  0.666667  0.333333  0.992222  1
  Fe  Fe5  1  0.333333  0.666667  0.494023  1
  Fe  Fe6  1  0.666667  0.333333  0.507778  1
  Fe  Fe7  1  0.333333  0.666667  0.005977  1
  Cl  Cl8  1  0.666667  0.333333  0.250000  1
  Cl  Cl9  1  0.333333  0.666667  0.750000  1
