# generated using pymatgen
data_TbSm5HoCoI12
_symmetry_space_group_name_H-M   'P 1'
_cell_length_a   9.86224125
_cell_length_b   9.86952979
_cell_length_c   9.87457523
_cell_angle_alpha   106.98538539
_cell_angle_beta   106.82924461
_cell_angle_gamma   106.87976138
_symmetry_Int_Tables_number   1
_chemical_formula_structural   TbSm5HoCoI12
_chemical_formula_sum   'Tb1 Sm5 Ho1 Co1 I12'
_cell_volume   802.66647641
_cell_formula_units_Z   1
loop_
 _symmetry_equiv_pos_site_id
 _symmetry_equiv_pos_as_xyz
  1  'x, y, z'
loop_
 _atom_site_type_symbol
 _atom_site_label
 _atom_site_symmetry_multiplicity
 _atom_site_fract_x
 _atom_site_fract_y
 _atom_site_fract_z
 _atom_site_occupancy
  Tb  Tb0  1  0.711939  0.977859  0.907419  1
  Sm  Sm1  1  0.021618  0.094246  0.292572  1
  Sm  Sm2  1  0.093209  0.292662  0.022186  1
  Sm  Sm3  1  0.292940  0.022291  0.093935  1
  Sm  Sm4  1  0.977824  0.905821  0.707250  1
  Sm  Sm5  1  0.905030  0.707042  0.977414  1
  Ho  Ho6  1  0.499600  0.499983  0.499827  1
  Co  Co7  1  0.999889  0.999855  0.999985  1
  I  I8  1  0.165512  0.466521  0.389148  1
  I  I9  1  0.466072  0.389052  0.165643  1
  I  I10  1  0.388861  0.165750  0.466193  1
  I  I11  1  0.833961  0.533468  0.610858  1
  I  I12  1  0.534084  0.614069  0.834546  1
  I  I13  1  0.611101  0.835777  0.537344  1
  I  I14  1  0.676639  0.070689  0.222448  1
  I  I15  1  0.071841  0.226776  0.677413  1
  I  I16  1  0.226222  0.677437  0.071814  1
  I  I17  1  0.324549  0.928686  0.774153  1
  I  I18  1  0.928081  0.773254  0.322578  1
  I  I19  1  0.771025  0.318760  0.927275  1
