# generated using pymatgen
data_Er3Tm7Tl7Cd
_symmetry_space_group_name_H-M   'P 1'
_cell_length_a   9.15723607
_cell_length_b   9.16261968
_cell_length_c   6.63697900
_cell_angle_alpha   90.00132568
_cell_angle_beta   89.99307363
_cell_angle_gamma   119.94275114
_symmetry_Int_Tables_number   1
_chemical_formula_structural   Er3Tm7Tl7Cd
_chemical_formula_sum   'Er3 Tm7 Tl7 Cd1'
_cell_volume   482.54229788
_cell_formula_units_Z   1
loop_
 _symmetry_equiv_pos_site_id
 _symmetry_equiv_pos_as_xyz
  1  'x, y, z'
loop_
 _atom_site_type_symbol
 _atom_site_label
 _atom_site_symmetry_multiplicity
 _atom_site_fract_x
 _atom_site_fract_y
 _atom_site_fract_z
 _atom_site_occupancy
  Er  Er0  1  0.290048  0.000308  0.749262  1
  Er  Er1  1  0.710113  0.000022  0.250684  1
  Er  Er2  1  0.000276  0.289381  0.749329  1
  Tm  Tm3  1  0.333345  0.666217  0.499962  1
  Tm  Tm4  1  0.666674  0.334214  0.499962  1
  Tm  Tm5  1  0.666677  0.334130  0.000081  1
  Tm  Tm6  1  0.333327  0.666161  0.000079  1
  Tm  Tm7  1  0.999735  0.709941  0.250734  1
  Tm  Tm8  1  0.710706  0.710707  0.749291  1
  Tm  Tm9  1  0.289134  0.289445  0.250700  1
  Tl  Tl10  1  0.999986  0.999541  0.000323  1
  Tl  Tl11  1  0.628053  0.999623  0.749117  1
  Tl  Tl12  1  0.371246  0.999966  0.250828  1
  Tl  Tl13  1  0.999696  0.628113  0.749059  1
  Tl  Tl14  1  0.000327  0.372442  0.250928  1
  Tl  Tl15  1  0.372668  0.372651  0.749066  1
  Tl  Tl16  1  0.627975  0.627607  0.250953  1
  Cd  Cd17  1  0.000013  0.999528  0.499643  1
