# generated using pymatgen
data_Ce4Hf5Si8Ag
_symmetry_space_group_name_H-M   'P 1'
_cell_length_a   7.36648095
_cell_length_b   7.36648101
_cell_length_c   13.32599800
_cell_angle_alpha   90.00000000
_cell_angle_beta   90.00000000
_cell_angle_gamma   89.72732029
_symmetry_Int_Tables_number   1
_chemical_formula_structural   Ce4Hf5Si8Ag
_chemical_formula_sum   'Ce8 Hf10 Si16 Ag2'
_cell_volume   723.12765151
_cell_formula_units_Z   2
loop_
 _symmetry_equiv_pos_site_id
 _symmetry_equiv_pos_as_xyz
  1  'x, y, z'
loop_
 _atom_site_type_symbol
 _atom_site_label
 _atom_site_symmetry_multiplicity
 _atom_site_fract_x
 _atom_site_fract_y
 _atom_site_fract_z
 _atom_site_occupancy
  Ce  Ce0  1  0.993592  0.347017  0.212231  1
  Ce  Ce1  1  0.006408  0.652983  0.712231  1
  Ce  Ce2  1  0.152537  0.502213  0.465895  1
  Ce  Ce3  1  0.497787  0.847463  0.034105  1
  Ce  Ce4  1  0.847463  0.497787  0.965895  1
  Ce  Ce5  1  0.502213  0.152537  0.534105  1
  Ce  Ce6  1  0.347017  0.993592  0.787769  1
  Ce  Ce7  1  0.652983  0.006408  0.287769  1
  Hf  Hf8  1  0.321272  0.678728  0.250000  1
  Hf  Hf9  1  0.678728  0.321272  0.750000  1
  Hf  Hf10  1  0.142514  0.003498  0.380298  1
  Hf  Hf11  1  0.857486  0.996502  0.880298  1
  Hf  Hf12  1  0.510852  0.645252  0.623546  1
  Hf  Hf13  1  0.354748  0.489148  0.876454  1
  Hf  Hf14  1  0.489148  0.354748  0.123546  1
  Hf  Hf15  1  0.645252  0.510852  0.376454  1
  Hf  Hf16  1  0.003498  0.142514  0.619702  1
  Hf  Hf17  1  0.996502  0.857486  0.119702  1
  Si  Si18  1  0.358881  0.299805  0.316286  1
  Si  Si19  1  0.641119  0.700195  0.816286  1
  Si  Si20  1  0.226665  0.865926  0.572488  1
  Si  Si21  1  0.134074  0.773335  0.927512  1
  Si  Si22  1  0.773335  0.134074  0.072488  1
  Si  Si23  1  0.865926  0.226665  0.427512  1
  Si  Si24  1  0.299805  0.358881  0.683714  1
  Si  Si25  1  0.700195  0.641119  0.183714  1
  Si  Si26  1  0.289577  0.048944  0.190972  1
  Si  Si27  1  0.710423  0.951056  0.690972  1
  Si  Si28  1  0.434263  0.791214  0.435016  1
  Si  Si29  1  0.208786  0.565737  0.064984  1
  Si  Si30  1  0.565737  0.208786  0.935016  1
  Si  Si31  1  0.791214  0.434263  0.564984  1
  Si  Si32  1  0.048944  0.289577  0.809028  1
  Si  Si33  1  0.951056  0.710423  0.309028  1
  Ag  Ag34  1  0.178109  0.178109  0.000000  1
  Ag  Ag35  1  0.821891  0.821891  0.500000  1
