# generated using pymatgen
data_Ca9DySi6F
_symmetry_space_group_name_H-M   'P 1'
_cell_length_a   9.06634239
_cell_length_b   9.04792980
_cell_length_c   9.06805072
_cell_angle_alpha   130.17311348
_cell_angle_beta   130.22699493
_cell_angle_gamma   72.99397546
_symmetry_Int_Tables_number   1
_chemical_formula_structural   Ca9DySi6F
_chemical_formula_sum   'Ca9 Dy1 Si6 F1'
_cell_volume   424.01998558
_cell_formula_units_Z   1
loop_
 _symmetry_equiv_pos_site_id
 _symmetry_equiv_pos_as_xyz
  1  'x, y, z'
loop_
 _atom_site_type_symbol
 _atom_site_label
 _atom_site_symmetry_multiplicity
 _atom_site_fract_x
 _atom_site_fract_y
 _atom_site_fract_z
 _atom_site_occupancy
  Ca  Ca0  1  0.432542  0.773764  0.000000  1
  Ca  Ca1  1  0.931357  0.931793  0.644742  1
  Ca  Ca2  1  0.286616  0.287051  0.355258  1
  Ca  Ca3  1  0.711682  0.066474  0.000000  1
  Ca  Ca4  1  0.067675  0.712643  0.000000  1
  Ca  Ca5  1  0.566120  0.565529  0.337465  1
  Ca  Ca6  1  0.228653  0.228062  0.662535  1
  Ca  Ca7  1  0.252262  0.751910  0.503856  1
  Ca  Ca8  1  0.748406  0.248054  0.496144  1
  Dy  Dy9  1  0.776876  0.435486  0.000000  1
  Si  Si10  1  0.994377  0.497887  0.486707  1
  Si  Si11  1  0.507670  0.011179  0.513293  1
  Si  Si12  1  0.128206  0.363319  0.000000  1
  Si  Si13  1  0.358293  0.135762  0.000000  1
  Si  Si14  1  0.865400  0.858479  0.225828  1
  Si  Si15  1  0.639572  0.632651  0.774172  1
  F  F16  1  0.504291  0.499957  0.000000  1
