# generated using pymatgen
data_TiCu6MoSe8
_symmetry_space_group_name_H-M   'P 1'
_cell_length_a   8.04476000
_cell_length_b   8.04476000
_cell_length_c   5.66604300
_cell_angle_alpha   90.00000000
_cell_angle_beta   90.00000000
_cell_angle_gamma   90.00000000
_symmetry_Int_Tables_number   1
_chemical_formula_structural   TiCu6MoSe8
_chemical_formula_sum   'Ti1 Cu6 Mo1 Se8'
_cell_volume   366.69589703
_cell_formula_units_Z   1
loop_
 _symmetry_equiv_pos_site_id
 _symmetry_equiv_pos_as_xyz
  1  'x, y, z'
loop_
 _atom_site_type_symbol
 _atom_site_label
 _atom_site_symmetry_multiplicity
 _atom_site_fract_x
 _atom_site_fract_y
 _atom_site_fract_z
 _atom_site_occupancy
  Ti  Ti0  1  0.000000  0.000000  0.000000  1
  Cu  Cu1  1  0.250737  0.749263  0.000000  1
  Cu  Cu2  1  0.749263  0.250737  0.000000  1
  Cu  Cu3  1  0.250737  0.250737  0.000000  1
  Cu  Cu4  1  0.749263  0.749263  0.000000  1
  Cu  Cu5  1  0.000000  0.000000  0.500000  1
  Cu  Cu6  1  0.500000  0.500000  0.500000  1
  Mo  Mo7  1  0.500000  0.500000  0.000000  1
  Se  Se8  1  0.500000  0.254457  0.754932  1
  Se  Se9  1  0.000000  0.751525  0.751986  1
  Se  Se10  1  0.500000  0.745543  0.754932  1
  Se  Se11  1  0.000000  0.248475  0.751986  1
  Se  Se12  1  0.751525  0.000000  0.248014  1
  Se  Se13  1  0.254457  0.500000  0.245068  1
  Se  Se14  1  0.248475  0.000000  0.248014  1
  Se  Se15  1  0.745543  0.500000  0.245068  1
