# generated using pymatgen
data_Li2TbY(SiO4)2
_symmetry_space_group_name_H-M   'P 1'
_cell_length_a   5.45683334
_cell_length_b   10.95941786
_cell_length_c   6.25355500
_cell_angle_alpha   90.00004244
_cell_angle_beta   90.00000914
_cell_angle_gamma   113.60166260
_symmetry_Int_Tables_number   1
_chemical_formula_structural   Li2TbY(SiO4)2
_chemical_formula_sum   'Li4 Tb2 Y2 Si4 O16'
_cell_volume   342.70233317
_cell_formula_units_Z   2
loop_
 _symmetry_equiv_pos_site_id
 _symmetry_equiv_pos_as_xyz
  1  'x, y, z'
loop_
 _atom_site_type_symbol
 _atom_site_label
 _atom_site_symmetry_multiplicity
 _atom_site_fract_x
 _atom_site_fract_y
 _atom_site_fract_z
 _atom_site_occupancy
  Li  Li0  1  0.919096  0.570045  0.134030  1
  Li  Li1  1  0.919095  0.070044  0.365971  1
  Li  Li2  1  0.080668  0.929720  0.634264  1
  Li  Li3  1  0.080668  0.429719  0.865737  1
  Tb  Tb4  1  0.444990  0.152271  0.116495  1
  Tb  Tb5  1  0.444990  0.652271  0.383505  1
  Y  Y6  1  0.554637  0.347988  0.616558  1
  Y  Y7  1  0.554636  0.847988  0.883442  1
  Si  Si8  1  0.095528  0.859053  0.151744  1
  Si  Si9  1  0.095528  0.359054  0.348256  1
  Si  Si10  1  0.904345  0.640960  0.652723  1
  Si  Si11  1  0.904343  0.140960  0.847276  1
  O  O12  1  0.775314  0.055472  0.070096  1
  O  O13  1  0.769675  0.776199  0.140750  1
  O  O14  1  0.184306  0.474728  0.163100  1
  O  O15  1  0.241021  0.752537  0.161447  1
  O  O16  1  0.241022  0.252538  0.338552  1
  O  O17  1  0.184306  0.974728  0.336900  1
  O  O18  1  0.769673  0.276199  0.359248  1
  O  O19  1  0.775314  0.555473  0.429904  1
  O  O20  1  0.226189  0.444823  0.570426  1
  O  O21  1  0.230367  0.724067  0.642113  1
  O  O22  1  0.815035  0.024683  0.662963  1
  O  O23  1  0.758833  0.747454  0.662698  1
  O  O24  1  0.758834  0.247454  0.837301  1
  O  O25  1  0.815034  0.524683  0.837037  1
  O  O26  1  0.230365  0.224066  0.857888  1
  O  O27  1  0.226189  0.944823  0.929574  1
