# generated using pymatgen
data_Ce6Tm3LuIr6
_symmetry_space_group_name_H-M   'P 1'
_cell_length_a   8.19373100
_cell_length_b   8.19373021
_cell_length_c   6.44606500
_cell_angle_alpha   90.00000000
_cell_angle_beta   90.00000000
_cell_angle_gamma   120.00000722
_symmetry_Int_Tables_number   1
_chemical_formula_structural   Ce6Tm3LuIr6
_chemical_formula_sum   'Ce6 Tm3 Lu1 Ir6'
_cell_volume   374.79055932
_cell_formula_units_Z   1
loop_
 _symmetry_equiv_pos_site_id
 _symmetry_equiv_pos_as_xyz
  1  'x, y, z'
loop_
 _atom_site_type_symbol
 _atom_site_label
 _atom_site_symmetry_multiplicity
 _atom_site_fract_x
 _atom_site_fract_y
 _atom_site_fract_z
 _atom_site_occupancy
  Ce  Ce0  1  0.744930  0.744724  0.249481  1
  Ce  Ce1  1  0.255276  0.000205  0.249481  1
  Ce  Ce2  1  0.999795  0.255070  0.249481  1
  Ce  Ce3  1  0.255276  0.255070  0.750519  1
  Ce  Ce4  1  0.744930  0.000205  0.750519  1
  Ce  Ce5  1  0.999795  0.744724  0.750519  1
  Tm  Tm6  1  0.666667  0.333333  0.500000  1
  Tm  Tm7  1  0.333333  0.666667  0.500000  1
  Tm  Tm8  1  0.333333  0.666667  0.000000  1
  Lu  Lu9  1  0.666667  0.333333  0.000000  1
  Ir  Ir10  1  0.385403  0.384597  0.251463  1
  Ir  Ir11  1  0.615403  0.000805  0.251463  1
  Ir  Ir12  1  0.999195  0.614597  0.251463  1
  Ir  Ir13  1  0.615403  0.614597  0.748537  1
  Ir  Ir14  1  0.385403  0.000805  0.748537  1
  Ir  Ir15  1  0.999195  0.384597  0.748537  1
