# generated using pymatgen
data_TmMg2Ni7B2
_symmetry_space_group_name_H-M   'P 1'
_cell_length_a   4.92566524
_cell_length_b   4.92566593
_cell_length_c   13.94994000
_cell_angle_alpha   90.00000000
_cell_angle_beta   90.00000000
_cell_angle_gamma   120.02998141
_symmetry_Int_Tables_number   1
_chemical_formula_structural   TmMg2Ni7B2
_chemical_formula_sum   'Tm2 Mg4 Ni14 B4'
_cell_volume   293.02288064
_cell_formula_units_Z   2
loop_
 _symmetry_equiv_pos_site_id
 _symmetry_equiv_pos_as_xyz
  1  'x, y, z'
loop_
 _atom_site_type_symbol
 _atom_site_label
 _atom_site_symmetry_multiplicity
 _atom_site_fract_x
 _atom_site_fract_y
 _atom_site_fract_z
 _atom_site_occupancy
  Tm  Tm0  1  0.666675  0.333325  0.250000  1
  Tm  Tm1  1  0.333325  0.666675  0.750000  1
  Mg  Mg2  1  0.666658  0.333342  0.028069  1
  Mg  Mg3  1  0.333342  0.666658  0.971931  1
  Mg  Mg4  1  0.333342  0.666658  0.528069  1
  Mg  Mg5  1  0.666658  0.333342  0.471931  1
  Ni  Ni6  1  0.833576  0.667156  0.644916  1
  Ni  Ni7  1  0.833586  0.166414  0.644951  1
  Ni  Ni8  1  0.332844  0.166424  0.644916  1
  Ni  Ni9  1  0.166424  0.332844  0.355084  1
  Ni  Ni10  1  0.166414  0.833586  0.355049  1
  Ni  Ni11  1  0.667156  0.833576  0.355084  1
  Ni  Ni12  1  0.166424  0.332844  0.144916  1
  Ni  Ni13  1  0.166414  0.833586  0.144951  1
  Ni  Ni14  1  0.667156  0.833576  0.144916  1
  Ni  Ni15  1  0.833576  0.667156  0.855084  1
  Ni  Ni16  1  0.833586  0.166414  0.855049  1
  Ni  Ni17  1  0.332844  0.166424  0.855084  1
  Ni  Ni18  1  0.000000  0.000000  0.500000  1
  Ni  Ni19  1  0.000000  0.000000  0.000000  1
  B  B20  1  0.666667  0.333333  0.750000  1
  B  B21  1  0.333333  0.666667  0.250000  1
  B  B22  1  0.999995  0.000005  0.750000  1
  B  B23  1  0.000005  0.999995  0.250000  1
