# generated using pymatgen
data_La4Ho5TmGe8
_symmetry_space_group_name_H-M   'P 1'
_cell_length_a   7.93927707
_cell_length_b   7.93913000
_cell_length_c   14.61500900
_cell_angle_alpha   90.00000000
_cell_angle_beta   90.08662269
_cell_angle_gamma   90.00000000
_symmetry_Int_Tables_number   1
_chemical_formula_structural   La4Ho5TmGe8
_chemical_formula_sum   'La8 Ho10 Tm2 Ge16'
_cell_volume   921.19688954
_cell_formula_units_Z   2
loop_
 _symmetry_equiv_pos_site_id
 _symmetry_equiv_pos_as_xyz
  1  'x, y, z'
loop_
 _atom_site_type_symbol
 _atom_site_label
 _atom_site_symmetry_multiplicity
 _atom_site_fract_x
 _atom_site_fract_y
 _atom_site_fract_z
 _atom_site_occupancy
  La  La0  1  0.644039  0.994214  0.460324  1
  La  La1  1  0.356125  0.006195  0.960613  1
  La  La2  1  0.994086  0.643797  0.539489  1
  La  La3  1  0.494020  0.856049  0.210392  1
  La  La4  1  0.505914  0.143797  0.710511  1
  La  La5  1  0.855961  0.494214  0.789676  1
  La  La6  1  0.143875  0.506195  0.289387  1
  La  La7  1  0.005980  0.356049  0.039608  1
  Ho  Ho8  1  0.493188  0.353736  0.123978  1
  Ho  Ho9  1  0.992923  0.146402  0.625748  1
  Ho  Ho10  1  0.853774  0.006941  0.874363  1
  Ho  Ho11  1  0.146296  0.993154  0.373761  1
  Ho  Ho12  1  0.507077  0.646402  0.624252  1
  Ho  Ho13  1  0.353704  0.493154  0.876239  1
  Ho  Ho14  1  0.646226  0.506941  0.375637  1
  Ho  Ho15  1  0.006812  0.853736  0.126022  1
  Ho  Ho16  1  0.319223  0.318804  0.500054  1
  Ho  Ho17  1  0.180777  0.818804  0.749946  1
  Tm  Tm18  1  0.818855  0.180898  0.249929  1
  Tm  Tm19  1  0.681145  0.680898  0.000071  1
  Ge  Ge20  1  0.288401  0.947031  0.565893  1
  Ge  Ge21  1  0.711544  0.052500  0.066695  1
  Ge  Ge22  1  0.946928  0.288338  0.433126  1
  Ge  Ge23  1  0.447647  0.211374  0.315893  1
  Ge  Ge24  1  0.553072  0.788338  0.816874  1
  Ge  Ge25  1  0.211599  0.447031  0.684107  1
  Ge  Ge26  1  0.788456  0.552500  0.183305  1
  Ge  Ge27  1  0.052353  0.711374  0.934107  1
  Ge  Ge28  1  0.802700  0.852588  0.684416  1
  Ge  Ge29  1  0.197554  0.147434  0.184481  1
  Ge  Ge30  1  0.852302  0.802815  0.315437  1
  Ge  Ge31  1  0.352714  0.697730  0.434394  1
  Ge  Ge32  1  0.647698  0.302815  0.934563  1
  Ge  Ge33  1  0.697300  0.352588  0.565584  1
  Ge  Ge34  1  0.302446  0.647434  0.065519  1
  Ge  Ge35  1  0.147286  0.197730  0.815606  1
