# generated using pymatgen
data_DyY4CdAu4
_symmetry_space_group_name_H-M   'P 1'
_cell_length_a   8.01877500
_cell_length_b   8.01877500
_cell_length_c   3.84195400
_cell_angle_alpha   90.00000000
_cell_angle_beta   90.00000000
_cell_angle_gamma   90.00000000
_symmetry_Int_Tables_number   1
_chemical_formula_structural   DyY4CdAu4
_chemical_formula_sum   'Dy1 Y4 Cd1 Au4'
_cell_volume   247.04053327
_cell_formula_units_Z   1
loop_
 _symmetry_equiv_pos_site_id
 _symmetry_equiv_pos_as_xyz
  1  'x, y, z'
loop_
 _atom_site_type_symbol
 _atom_site_label
 _atom_site_symmetry_multiplicity
 _atom_site_fract_x
 _atom_site_fract_y
 _atom_site_fract_z
 _atom_site_occupancy
  Dy  Dy0  1  0.500000  0.500000  0.000000  1
  Y  Y1  1  0.688034  0.138987  0.500000  1
  Y  Y2  1  0.311966  0.861013  0.500000  1
  Y  Y3  1  0.138987  0.311966  0.500000  1
  Y  Y4  1  0.861013  0.688034  0.500000  1
  Cd  Cd5  1  0.000000  0.000000  0.000000  1
  Au  Au6  1  0.145639  0.618096  0.000000  1
  Au  Au7  1  0.854361  0.381904  0.000000  1
  Au  Au8  1  0.618096  0.854361  0.000000  1
  Au  Au9  1  0.381904  0.145639  0.000000  1
