# generated using pymatgen
data_Sr4CeErO8
_symmetry_space_group_name_H-M   'P 1'
_cell_length_a   3.60925500
_cell_length_b   6.16671204
_cell_length_c   10.41207338
_cell_angle_alpha   89.25826065
_cell_angle_beta   90.00000000
_cell_angle_gamma   90.00000000
_symmetry_Int_Tables_number   1
_chemical_formula_structural   Sr4CeErO8
_chemical_formula_sum   'Sr4 Ce1 Er1 O8'
_cell_volume   231.72455792
_cell_formula_units_Z   1
loop_
 _symmetry_equiv_pos_site_id
 _symmetry_equiv_pos_as_xyz
  1  'x, y, z'
loop_
 _atom_site_type_symbol
 _atom_site_label
 _atom_site_symmetry_multiplicity
 _atom_site_fract_x
 _atom_site_fract_y
 _atom_site_fract_z
 _atom_site_occupancy
  Sr  Sr0  1  0.500000  0.436423  0.183089  1
  Sr  Sr1  1  0.500000  0.563577  0.816911  1
  Sr  Sr2  1  0.500000  0.934201  0.326176  1
  Sr  Sr3  1  0.500000  0.065799  0.673824  1
  Ce  Ce4  1  0.000000  0.000000  0.000000  1
  Er  Er5  1  0.000000  0.500000  0.500000  1
  O  O6  1  0.500000  0.275314  0.455511  1
  O  O7  1  0.500000  0.724686  0.544489  1
  O  O8  1  0.500000  0.772878  0.042273  1
  O  O9  1  0.500000  0.227122  0.957727  1
  O  O10  1  0.000000  0.645044  0.303832  1
  O  O11  1  0.000000  0.354956  0.696168  1
  O  O12  1  0.000000  0.859362  0.806345  1
  O  O13  1  0.000000  0.140638  0.193655  1
