# generated using pymatgen
data_Sc5MnWC7
_symmetry_space_group_name_H-M   'P 1'
_cell_length_a   7.84282523
_cell_length_b   7.84282634
_cell_length_c   3.22612600
_cell_angle_alpha   90.00000000
_cell_angle_beta   90.00000000
_cell_angle_gamma   121.24818416
_symmetry_Int_Tables_number   1
_chemical_formula_structural   Sc5MnWC7
_chemical_formula_sum   'Sc5 Mn1 W1 C7'
_cell_volume   169.65089712
_cell_formula_units_Z   1
loop_
 _symmetry_equiv_pos_site_id
 _symmetry_equiv_pos_as_xyz
  1  'x, y, z'
loop_
 _atom_site_type_symbol
 _atom_site_label
 _atom_site_symmetry_multiplicity
 _atom_site_fract_x
 _atom_site_fract_y
 _atom_site_fract_z
 _atom_site_occupancy
  Sc  Sc0  1  0.078158  0.335204  0.500000  1
  Sc  Sc1  1  0.342827  0.085110  0.500000  1
  Sc  Sc2  1  0.502479  0.497521  0.000000  1
  Sc  Sc3  1  0.914890  0.657173  0.500000  1
  Sc  Sc4  1  0.664796  0.921842  0.500000  1
  Mn  Mn5  1  0.709015  0.290985  0.000000  1
  W  W6  1  0.284128  0.715872  0.000000  1
  C  C7  1  0.998966  0.001034  0.000000  1
  C  C8  1  0.988361  0.490347  0.000000  1
  C  C9  1  0.509653  0.011639  0.000000  1
  C  C10  1  0.174953  0.176343  0.000000  1
  C  C11  1  0.823657  0.825047  0.000000  1
  C  C12  1  0.625666  0.374334  0.500000  1
  C  C13  1  0.382450  0.617550  0.500000  1
