# generated using pymatgen
data_Y6Er6Co4OsPb
_symmetry_space_group_name_H-M   'P 1'
_cell_length_a   8.30282922
_cell_length_b   8.28380625
_cell_length_c   8.28380615
_cell_angle_alpha   110.48393099
_cell_angle_beta   111.39923101
_cell_angle_gamma   106.48125830
_symmetry_Int_Tables_number   1
_chemical_formula_structural   Y6Er6Co4OsPb
_chemical_formula_sum   'Y6 Er6 Co4 Os1 Pb1'
_cell_volume   438.18301304
_cell_formula_units_Z   1
loop_
 _symmetry_equiv_pos_site_id
 _symmetry_equiv_pos_as_xyz
  1  'x, y, z'
loop_
 _atom_site_type_symbol
 _atom_site_label
 _atom_site_symmetry_multiplicity
 _atom_site_fract_x
 _atom_site_fract_y
 _atom_site_fract_z
 _atom_site_occupancy
  Y  Y0  1  0.281603  0.182479  0.466460  1
  Y  Y1  1  0.718397  0.817521  0.533540  1
  Y  Y2  1  0.281603  0.815141  0.099124  1
  Y  Y3  1  0.718397  0.184859  0.900876  1
  Y  Y4  1  0.618012  0.311933  0.306079  1
  Y  Y5  1  0.381988  0.688067  0.693921  1
  Er  Er6  1  0.003350  0.312244  0.691104  1
  Er  Er7  1  0.996650  0.687756  0.308896  1
  Er  Er8  1  0.213780  0.409050  0.193377  1
  Er  Er9  1  0.786220  0.590950  0.806623  1
  Er  Er10  1  0.213780  0.020403  0.804731  1
  Er  Er11  1  0.786220  0.979597  0.195269  1
  Co  Co12  1  0.000000  0.379103  0.379103  1
  Co  Co13  1  0.000000  0.620897  0.620897  1
  Co  Co14  1  0.387797  0.889242  0.498556  1
  Co  Co15  1  0.612203  0.110758  0.501444  1
  Os  Os16  1  0.000000  0.000000  0.000000  1
  Pb  Pb17  1  0.500000  0.500000  0.000000  1
