# generated using pymatgen
data_La2Pr2NdRu2
_symmetry_space_group_name_H-M   'P 1'
_cell_length_a   9.09711107
_cell_length_b   9.09711157
_cell_length_c   7.34500148
_cell_angle_alpha   84.44611366
_cell_angle_beta   84.44610758
_cell_angle_gamma   43.12192551
_symmetry_Int_Tables_number   1
_chemical_formula_structural   La2Pr2NdRu2
_chemical_formula_sum   'La4 Pr4 Nd2 Ru4'
_cell_volume   413.24425528
_cell_formula_units_Z   2
loop_
 _symmetry_equiv_pos_site_id
 _symmetry_equiv_pos_as_xyz
  1  'x, y, z'
loop_
 _atom_site_type_symbol
 _atom_site_label
 _atom_site_symmetry_multiplicity
 _atom_site_fract_x
 _atom_site_fract_y
 _atom_site_fract_z
 _atom_site_occupancy
  La  La0  1  0.017294  0.794781  0.904858  1
  La  La1  1  0.205219  0.982706  0.595142  1
  La  La2  1  0.982706  0.205219  0.095142  1
  La  La3  1  0.794781  0.017294  0.404858  1
  Pr  Pr4  1  0.361880  0.208062  0.815885  1
  Pr  Pr5  1  0.791938  0.638120  0.684115  1
  Pr  Pr6  1  0.638120  0.791938  0.184115  1
  Pr  Pr7  1  0.208062  0.361880  0.315885  1
  Nd  Nd8  1  0.574531  0.425469  0.750000  1
  Nd  Nd9  1  0.425469  0.574531  0.250000  1
  Ru  Ru10  1  0.165808  0.611685  0.585790  1
  Ru  Ru11  1  0.388315  0.834192  0.914210  1
  Ru  Ru12  1  0.834192  0.388315  0.414210  1
  Ru  Ru13  1  0.611685  0.165808  0.085790  1
