# generated using pymatgen
data_CeTmReB6
_symmetry_space_group_name_H-M   'P 1'
_cell_length_a   3.70716500
_cell_length_b   9.16762000
_cell_length_c   11.56228100
_cell_angle_alpha   90.00000000
_cell_angle_beta   90.00000000
_cell_angle_gamma   90.00000000
_symmetry_Int_Tables_number   1
_chemical_formula_structural   CeTmReB6
_chemical_formula_sum   'Ce4 Tm4 Re4 B24'
_cell_volume   392.95429456
_cell_formula_units_Z   4
loop_
 _symmetry_equiv_pos_site_id
 _symmetry_equiv_pos_as_xyz
  1  'x, y, z'
loop_
 _atom_site_type_symbol
 _atom_site_label
 _atom_site_symmetry_multiplicity
 _atom_site_fract_x
 _atom_site_fract_y
 _atom_site_fract_z
 _atom_site_occupancy
  Ce  Ce0  1  0.000000  0.322344  0.414217  1
  Ce  Ce1  1  0.000000  0.677656  0.585783  1
  Ce  Ce2  1  0.000000  0.822344  0.085783  1
  Ce  Ce3  1  0.000000  0.177656  0.914217  1
  Tm  Tm4  1  0.000000  0.944520  0.372430  1
  Tm  Tm5  1  0.000000  0.055480  0.627570  1
  Tm  Tm6  1  0.000000  0.444520  0.127570  1
  Tm  Tm7  1  0.000000  0.555480  0.872430  1
  Re  Re8  1  0.000000  0.638946  0.320549  1
  Re  Re9  1  0.000000  0.361054  0.679451  1
  Re  Re10  1  0.000000  0.138946  0.179451  1
  Re  Re11  1  0.000000  0.861054  0.820549  1
  B  B12  1  0.500000  0.554910  0.431703  1
  B  B13  1  0.500000  0.445090  0.568297  1
  B  B14  1  0.500000  0.054910  0.068297  1
  B  B15  1  0.500000  0.945090  0.931703  1
  B  B16  1  0.500000  0.750056  0.418493  1
  B  B17  1  0.500000  0.249944  0.581507  1
  B  B18  1  0.500000  0.250056  0.081507  1
  B  B19  1  0.500000  0.749944  0.918493  1
  B  B20  1  0.500000  0.792020  0.265808  1
  B  B21  1  0.500000  0.207980  0.734192  1
  B  B22  1  0.500000  0.292020  0.234192  1
  B  B23  1  0.500000  0.707980  0.765808  1
  B  B24  1  0.500000  0.630858  0.185545  1
  B  B25  1  0.500000  0.369142  0.814455  1
  B  B26  1  0.500000  0.130858  0.314455  1
  B  B27  1  0.500000  0.869142  0.685545  1
  B  B28  1  0.500000  0.983378  0.213121  1
  B  B29  1  0.500000  0.016622  0.786879  1
  B  B30  1  0.500000  0.483378  0.286879  1
  B  B31  1  0.500000  0.516622  0.713121  1
  B  B32  1  0.500000  0.603111  0.028502  1
  B  B33  1  0.500000  0.396889  0.971498  1
  B  B34  1  0.500000  0.103111  0.471498  1
  B  B35  1  0.500000  0.896889  0.528502  1
