# generated using pymatgen
data_CaLa7Pr4(GaRh)8
_symmetry_space_group_name_H-M   'P 1'
_cell_length_a   5.74635907
_cell_length_b   8.34062030
_cell_length_c   13.73370562
_cell_angle_alpha   90.02831442
_cell_angle_beta   90.06473937
_cell_angle_gamma   90.09856718
_symmetry_Int_Tables_number   1
_chemical_formula_structural   CaLa7Pr4(GaRh)8
_chemical_formula_sum   'Ca1 La7 Pr4 Ga8 Rh8'
_cell_volume   658.23030217
_cell_formula_units_Z   1
loop_
 _symmetry_equiv_pos_site_id
 _symmetry_equiv_pos_as_xyz
  1  'x, y, z'
loop_
 _atom_site_type_symbol
 _atom_site_label
 _atom_site_symmetry_multiplicity
 _atom_site_fract_x
 _atom_site_fract_y
 _atom_site_fract_z
 _atom_site_occupancy
  Ca  Ca0  1  0.149475  0.400102  0.101115  1
  La  La1  1  0.850652  0.593547  0.907184  1
  La  La2  1  0.847125  0.598050  0.596336  1
  La  La3  1  0.848048  0.901883  0.402753  1
  La  La4  1  0.151044  0.402368  0.404272  1
  La  La5  1  0.152589  0.096747  0.596362  1
  La  La6  1  0.152693  0.100442  0.905561  1
  La  La7  1  0.844899  0.901756  0.096522  1
  Pr  Pr8  1  0.636772  0.262392  0.247458  1
  Pr  Pr9  1  0.361737  0.739478  0.749490  1
  Pr  Pr10  1  0.360657  0.757905  0.248498  1
  Pr  Pr11  1  0.636753  0.240586  0.749704  1
  Ga  Ga12  1  0.141622  0.111552  0.248909  1
  Ga  Ga13  1  0.857860  0.888076  0.750792  1
  Ga  Ga14  1  0.858858  0.609802  0.248613  1
  Ga  Ga15  1  0.143548  0.389559  0.750018  1
  Ga  Ga16  1  0.623056  0.252934  0.001795  1
  Ga  Ga17  1  0.370340  0.748035  0.999861  1
  Ga  Ga18  1  0.369530  0.750686  0.499630  1
  Ga  Ga19  1  0.631010  0.249609  0.499666  1
  Rh  Rh20  1  0.357929  0.026621  0.091263  1
  Rh  Rh21  1  0.644935  0.973739  0.909886  1
  Rh  Rh22  1  0.643485  0.971543  0.590335  1
  Rh  Rh23  1  0.642986  0.527591  0.409064  1
  Rh  Rh24  1  0.357735  0.029373  0.408837  1
  Rh  Rh25  1  0.357275  0.471475  0.589477  1
  Rh  Rh26  1  0.363522  0.470955  0.907850  1
  Rh  Rh27  1  0.643865  0.533193  0.088750  1
