# generated using pymatgen
data_Y10Hg3Pd
_symmetry_space_group_name_H-M   'P 1'
_cell_length_a   9.78142800
_cell_length_b   9.78142788
_cell_length_c   9.62903600
_cell_angle_alpha   90.00000000
_cell_angle_beta   90.00000000
_cell_angle_gamma   120.00000039
_symmetry_Int_Tables_number   1
_chemical_formula_structural   Y10Hg3Pd
_chemical_formula_sum   'Y20 Hg6 Pd2'
_cell_volume   797.84395747
_cell_formula_units_Z   2
loop_
 _symmetry_equiv_pos_site_id
 _symmetry_equiv_pos_as_xyz
  1  'x, y, z'
loop_
 _atom_site_type_symbol
 _atom_site_label
 _atom_site_symmetry_multiplicity
 _atom_site_fract_x
 _atom_site_fract_y
 _atom_site_fract_z
 _atom_site_occupancy
  Y  Y0  1  0.206523  0.793477  0.940548  1
  Y  Y1  1  0.206523  0.413045  0.940548  1
  Y  Y2  1  0.586955  0.793477  0.940548  1
  Y  Y3  1  0.793477  0.206523  0.059452  1
  Y  Y4  1  0.793477  0.586955  0.059452  1
  Y  Y5  1  0.413045  0.206523  0.059452  1
  Y  Y6  1  0.793477  0.206523  0.440548  1
  Y  Y7  1  0.793477  0.586955  0.440548  1
  Y  Y8  1  0.413045  0.206523  0.440548  1
  Y  Y9  1  0.206523  0.793477  0.559452  1
  Y  Y10  1  0.206523  0.413045  0.559452  1
  Y  Y11  1  0.586955  0.793477  0.559452  1
  Y  Y12  1  0.542829  0.457171  0.750000  1
  Y  Y13  1  0.542829  0.085658  0.750000  1
  Y  Y14  1  0.914342  0.457171  0.750000  1
  Y  Y15  1  0.457171  0.542829  0.250000  1
  Y  Y16  1  0.457171  0.914342  0.250000  1
  Y  Y17  1  0.085658  0.542829  0.250000  1
  Y  Y18  1  0.000000  0.000000  0.000000  1
  Y  Y19  1  0.000000  0.000000  0.500000  1
  Hg  Hg20  1  0.879785  0.120215  0.750000  1
  Hg  Hg21  1  0.879785  0.759570  0.750000  1
  Hg  Hg22  1  0.240430  0.120215  0.750000  1
  Hg  Hg23  1  0.120215  0.879785  0.250000  1
  Hg  Hg24  1  0.120215  0.240430  0.250000  1
  Hg  Hg25  1  0.759570  0.879785  0.250000  1
  Pd  Pd26  1  0.333333  0.666667  0.750000  1
  Pd  Pd27  1  0.666667  0.333333  0.250000  1
