# generated using pymatgen
data_Ho7Er9(Ga3Co)2
_symmetry_space_group_name_H-M   'P 1'
_cell_length_a   9.96088502
_cell_length_b   9.96088513
_cell_length_c   6.87715500
_cell_angle_alpha   89.99913554
_cell_angle_beta   90.00086462
_cell_angle_gamma   119.99361578
_symmetry_Int_Tables_number   1
_chemical_formula_structural   Ho7Er9(Ga3Co)2
_chemical_formula_sum   'Ho7 Er9 Ga6 Co2'
_cell_volume   590.96701076
_cell_formula_units_Z   1
loop_
 _symmetry_equiv_pos_site_id
 _symmetry_equiv_pos_as_xyz
  1  'x, y, z'
loop_
 _atom_site_type_symbol
 _atom_site_label
 _atom_site_symmetry_multiplicity
 _atom_site_fract_x
 _atom_site_fract_y
 _atom_site_fract_z
 _atom_site_occupancy
  Ho  Ho0  1  0.072086  0.535983  0.207930  1
  Ho  Ho1  1  0.464017  0.927914  0.207930  1
  Ho  Ho2  1  0.535904  0.464096  0.707903  1
  Ho  Ho3  1  0.928018  0.464003  0.707958  1
  Ho  Ho4  1  0.535997  0.071982  0.707958  1
  Ho  Ho5  1  0.999995  0.000005  0.229994  1
  Ho  Ho6  1  0.000016  0.999984  0.730012  1
  Er  Er7  1  0.173005  0.826995  0.509648  1
  Er  Er8  1  0.653847  0.826838  0.509570  1
  Er  Er9  1  0.173162  0.346153  0.509570  1
  Er  Er10  1  0.826990  0.173010  0.009770  1
  Er  Er11  1  0.346153  0.173244  0.009864  1
  Er  Er12  1  0.826756  0.653847  0.009864  1
  Er  Er13  1  0.333440  0.666560  0.828031  1
  Er  Er14  1  0.666596  0.333404  0.327807  1
  Er  Er15  1  0.463872  0.536128  0.207903  1
  Ga  Ga16  1  0.163475  0.836525  0.960709  1
  Ga  Ga17  1  0.672903  0.836365  0.960878  1
  Ga  Ga18  1  0.163635  0.327097  0.960878  1
  Ga  Ga19  1  0.836522  0.163478  0.460796  1
  Ga  Ga20  1  0.326973  0.163511  0.460650  1
  Ga  Ga21  1  0.836489  0.673027  0.460650  1
  Co  Co22  1  0.333487  0.666513  0.443813  1
  Co  Co23  1  0.666663  0.333337  0.943956  1
