# generated using pymatgen
data_Er12Ir2OsRh
_symmetry_space_group_name_H-M   'P 1'
_cell_length_a   6.36662037
_cell_length_b   7.23347273
_cell_length_c   9.04213500
_cell_angle_alpha   90.00000000
_cell_angle_beta   90.00000000
_cell_angle_gamma   90.02794146
_symmetry_Int_Tables_number   1
_chemical_formula_structural   Er12Ir2OsRh
_chemical_formula_sum   'Er12 Ir2 Os1 Rh1'
_cell_volume   416.41535746
_cell_formula_units_Z   1
loop_
 _symmetry_equiv_pos_site_id
 _symmetry_equiv_pos_as_xyz
  1  'x, y, z'
loop_
 _atom_site_type_symbol
 _atom_site_label
 _atom_site_symmetry_multiplicity
 _atom_site_fract_x
 _atom_site_fract_y
 _atom_site_fract_z
 _atom_site_occupancy
  Er  Er0  1  0.330827  0.677254  0.059443  1
  Er  Er1  1  0.173109  0.178132  0.436655  1
  Er  Er2  1  0.670340  0.324663  0.562185  1
  Er  Er3  1  0.826149  0.820257  0.936587  1
  Er  Er4  1  0.670340  0.324663  0.937815  1
  Er  Er5  1  0.826149  0.820257  0.563413  1
  Er  Er6  1  0.330827  0.677254  0.440557  1
  Er  Er7  1  0.173109  0.178132  0.063345  1
  Er  Er8  1  0.873790  0.535861  0.250000  1
  Er  Er9  1  0.628923  0.034525  0.250000  1
  Er  Er10  1  0.126956  0.464486  0.750000  1
  Er  Er11  1  0.373357  0.965363  0.750000  1
  Ir  Ir12  1  0.042815  0.885208  0.250000  1
  Ir  Ir13  1  0.459598  0.384621  0.250000  1
  Os  Os14  1  0.535573  0.614848  0.750000  1
  Rh  Rh15  1  0.958139  0.114474  0.750000  1
