# generated using pymatgen
data_K4MgW3N8
_symmetry_space_group_name_H-M   'P 1'
_cell_length_a   5.82869000
_cell_length_b   8.67773800
_cell_length_c   11.67855400
_cell_angle_alpha   90.00000000
_cell_angle_beta   90.00000000
_cell_angle_gamma   90.00000000
_symmetry_Int_Tables_number   1
_chemical_formula_structural   K4MgW3N8
_chemical_formula_sum   'K8 Mg2 W6 N16'
_cell_volume   590.69944768
_cell_formula_units_Z   2
loop_
 _symmetry_equiv_pos_site_id
 _symmetry_equiv_pos_as_xyz
  1  'x, y, z'
loop_
 _atom_site_type_symbol
 _atom_site_label
 _atom_site_symmetry_multiplicity
 _atom_site_fract_x
 _atom_site_fract_y
 _atom_site_fract_z
 _atom_site_occupancy
  K  K0  1  0.250000  0.189267  0.000000  1
  K  K1  1  0.750000  0.810733  0.500000  1
  K  K2  1  0.750000  0.905039  0.000000  1
  K  K3  1  0.250000  0.094961  0.500000  1
  K  K4  1  0.267648  0.383172  0.737402  1
  K  K5  1  0.767648  0.616828  0.762598  1
  K  K6  1  0.732352  0.616828  0.237402  1
  K  K7  1  0.232352  0.383172  0.262598  1
  Mg  Mg8  1  0.750000  0.369870  0.000000  1
  Mg  Mg9  1  0.250000  0.630130  0.500000  1
  W  W10  1  0.250000  0.622559  0.000000  1
  W  W11  1  0.750000  0.377441  0.500000  1
  W  W12  1  0.782401  0.119892  0.746157  1
  W  W13  1  0.282401  0.880108  0.753843  1
  W  W14  1  0.217599  0.880108  0.246157  1
  W  W15  1  0.717599  0.119892  0.253843  1
  N  N16  1  0.058327  0.026227  0.805303  1
  N  N17  1  0.558327  0.973773  0.694697  1
  N  N18  1  0.941673  0.973773  0.305303  1
  N  N19  1  0.441673  0.026227  0.194697  1
  N  N20  1  0.869030  0.250353  0.623975  1
  N  N21  1  0.369030  0.749647  0.876025  1
  N  N22  1  0.130970  0.749647  0.123975  1
  N  N23  1  0.630970  0.250353  0.376025  1
  N  N24  1  0.340116  0.769813  0.361232  1
  N  N25  1  0.840116  0.230187  0.138768  1
  N  N26  1  0.659884  0.230187  0.861232  1
  N  N27  1  0.159884  0.769813  0.638768  1
  N  N28  1  0.521140  0.499357  0.554425  1
  N  N29  1  0.021140  0.500643  0.945575  1
  N  N30  1  0.478860  0.500643  0.054425  1
  N  N31  1  0.978860  0.499357  0.445575  1
