# generated using pymatgen
data_TbEr15(AgPt)4
_symmetry_space_group_name_H-M   'P 1'
_cell_length_a   9.51142999
_cell_length_b   9.51143030
_cell_length_c   9.46491500
_cell_angle_alpha   60.16164030
_cell_angle_beta   60.16163925
_cell_angle_gamma   60.25813023
_symmetry_Int_Tables_number   1
_chemical_formula_structural   TbEr15(AgPt)4
_chemical_formula_sum   'Tb1 Er15 Ag4 Pt4'
_cell_volume   608.12705513
_cell_formula_units_Z   1
loop_
 _symmetry_equiv_pos_site_id
 _symmetry_equiv_pos_as_xyz
  1  'x, y, z'
loop_
 _atom_site_type_symbol
 _atom_site_label
 _atom_site_symmetry_multiplicity
 _atom_site_fract_x
 _atom_site_fract_y
 _atom_site_fract_z
 _atom_site_occupancy
  Tb  Tb0  1  0.935279  0.935279  0.564721  1
  Er  Er1  1  0.355742  0.355742  0.351943  1
  Er  Er2  1  0.355742  0.355742  0.936574  1
  Er  Er3  1  0.360242  0.927166  0.356295  1
  Er  Er4  1  0.927166  0.360242  0.356295  1
  Er  Er5  1  0.811930  0.189064  0.188070  1
  Er  Er6  1  0.189064  0.811930  0.810937  1
  Er  Er7  1  0.189064  0.811930  0.188070  1
  Er  Er8  1  0.811930  0.189064  0.810937  1
  Er  Er9  1  0.188918  0.188918  0.811082  1
  Er  Er10  1  0.811797  0.811797  0.188203  1
  Er  Er11  1  0.934982  0.564642  0.564575  1
  Er  Er12  1  0.564642  0.934982  0.935801  1
  Er  Er13  1  0.564642  0.934982  0.564575  1
  Er  Er14  1  0.934982  0.564642  0.935801  1
  Er  Er15  1  0.566445  0.566445  0.933555  1
  Ag  Ag16  1  0.583234  0.583234  0.584515  1
  Ag  Ag17  1  0.583234  0.583234  0.249016  1
  Ag  Ag18  1  0.579967  0.251884  0.584074  1
  Ag  Ag19  1  0.251884  0.579967  0.584074  1
  Pt  Pt20  1  0.144618  0.144618  0.147021  1
  Pt  Pt21  1  0.144618  0.144618  0.563745  1
  Pt  Pt22  1  0.142007  0.567873  0.145060  1
  Pt  Pt23  1  0.567873  0.142007  0.145060  1
