# generated using pymatgen
data_Lu(Zr3Pb2)3
_symmetry_space_group_name_H-M   'P 1'
_cell_length_a   8.72864690
_cell_length_b   8.72864657
_cell_length_c   5.90964700
_cell_angle_alpha   90.00000000
_cell_angle_beta   90.00000000
_cell_angle_gamma   120.71497426
_symmetry_Int_Tables_number   1
_chemical_formula_structural   Lu(Zr3Pb2)3
_chemical_formula_sum   'Lu1 Zr9 Pb6'
_cell_volume   387.08986800
_cell_formula_units_Z   1
loop_
 _symmetry_equiv_pos_site_id
 _symmetry_equiv_pos_as_xyz
  1  'x, y, z'
loop_
 _atom_site_type_symbol
 _atom_site_label
 _atom_site_symmetry_multiplicity
 _atom_site_fract_x
 _atom_site_fract_y
 _atom_site_fract_z
 _atom_site_occupancy
  Lu  Lu0  1  0.766354  0.766354  0.250000  1
  Zr  Zr1  1  0.001970  0.251284  0.250000  1
  Zr  Zr2  1  0.751831  0.999063  0.750000  1
  Zr  Zr3  1  0.331961  0.665303  0.500531  1
  Zr  Zr4  1  0.251284  0.001970  0.250000  1
  Zr  Zr5  1  0.665303  0.331961  0.500531  1
  Zr  Zr6  1  0.999063  0.751831  0.750000  1
  Zr  Zr7  1  0.331961  0.665303  0.999469  1
  Zr  Zr8  1  0.238310  0.238310  0.750000  1
  Zr  Zr9  1  0.665303  0.331961  0.999469  1
  Pb  Pb10  1  0.606898  0.606898  0.750000  1
  Pb  Pb11  1  0.389384  0.999095  0.750000  1
  Pb  Pb12  1  0.608758  0.000755  0.250000  1
  Pb  Pb13  1  0.999095  0.389384  0.750000  1
  Pb  Pb14  1  0.391770  0.391770  0.250000  1
  Pb  Pb15  1  0.000755  0.608758  0.250000  1
