# generated using pymatgen
data_TmGaPRu2
_symmetry_space_group_name_H-M   'P 1'
_cell_length_a   5.64868789
_cell_length_b   5.64868668
_cell_length_c   5.64868555
_cell_angle_alpha   136.64843078
_cell_angle_beta   136.64841711
_cell_angle_gamma   62.97944522
_symmetry_Int_Tables_number   1
_chemical_formula_structural   TmGaPRu2
_chemical_formula_sum   'Tm1 Ga1 P1 Ru2'
_cell_volume   83.86906522
_cell_formula_units_Z   1
loop_
 _symmetry_equiv_pos_site_id
 _symmetry_equiv_pos_as_xyz
  1  'x, y, z'
loop_
 _atom_site_type_symbol
 _atom_site_label
 _atom_site_symmetry_multiplicity
 _atom_site_fract_x
 _atom_site_fract_y
 _atom_site_fract_z
 _atom_site_occupancy
  Tm  Tm0  1  0.000981  0.000981  0.000000  1
  Ga  Ga1  1  0.381154  0.381154  0.000000  1
  P  P2  1  0.637114  0.637114  0.000000  1
  Ru  Ru3  1  0.240376  0.740376  0.500000  1
  Ru  Ru4  1  0.740376  0.240376  0.500000  1
