# generated using pymatgen
data_Tm8Ti9Si16Tc3
_symmetry_space_group_name_H-M   'P 1'
_cell_length_a   6.93876290
_cell_length_b   6.93876251
_cell_length_c   12.73604365
_cell_angle_alpha   90.04756897
_cell_angle_beta   89.95242866
_cell_angle_gamma   90.01888232
_symmetry_Int_Tables_number   1
_chemical_formula_structural   Tm8Ti9Si16Tc3
_chemical_formula_sum   'Tm8 Ti9 Si16 Tc3'
_cell_volume   613.19455105
_cell_formula_units_Z   1
loop_
 _symmetry_equiv_pos_site_id
 _symmetry_equiv_pos_as_xyz
  1  'x, y, z'
loop_
 _atom_site_type_symbol
 _atom_site_label
 _atom_site_symmetry_multiplicity
 _atom_site_fract_x
 _atom_site_fract_y
 _atom_site_fract_z
 _atom_site_occupancy
  Tm  Tm0  1  0.340702  0.001285  0.467330  1
  Tm  Tm1  1  0.499071  0.841721  0.719452  1
  Tm  Tm2  1  0.500034  0.158637  0.217845  1
  Tm  Tm3  1  0.841721  0.499071  0.280548  1
  Tm  Tm4  1  0.158637  0.500034  0.782155  1
  Tm  Tm5  1  0.658838  0.999497  0.968449  1
  Tm  Tm6  1  0.001285  0.340702  0.532670  1
  Tm  Tm7  1  0.999497  0.658838  0.031551  1
  Ti  Ti8  1  0.673736  0.673736  0.500000  1
  Ti  Ti9  1  0.151617  0.004990  0.876743  1
  Ti  Ti10  1  0.494992  0.652982  0.124248  1
  Ti  Ti11  1  0.504547  0.348344  0.627217  1
  Ti  Ti12  1  0.652982  0.494992  0.875752  1
  Ti  Ti13  1  0.348344  0.504547  0.372783  1
  Ti  Ti14  1  0.847672  0.992826  0.375644  1
  Ti  Ti15  1  0.004990  0.151617  0.123257  1
  Ti  Ti16  1  0.992826  0.847672  0.624356  1
  Si  Si17  1  0.201095  0.130289  0.683074  1
  Si  Si18  1  0.369395  0.701426  0.932273  1
  Si  Si19  1  0.632238  0.296631  0.433487  1
  Si  Si20  1  0.701426  0.369395  0.067727  1
  Si  Si21  1  0.296631  0.632238  0.566513  1
  Si  Si22  1  0.798235  0.869173  0.182869  1
  Si  Si23  1  0.130289  0.201095  0.316926  1
  Si  Si24  1  0.869173  0.798235  0.817131  1
  Si  Si25  1  0.291419  0.952255  0.066599  1
  Si  Si26  1  0.547013  0.791161  0.315796  1
  Si  Si27  1  0.452373  0.209571  0.816571  1
  Si  Si28  1  0.791161  0.547013  0.684204  1
  Si  Si29  1  0.209571  0.452373  0.183429  1
  Si  Si30  1  0.707188  0.048950  0.567309  1
  Si  Si31  1  0.952255  0.291419  0.933401  1
  Si  Si32  1  0.048950  0.707188  0.432691  1
  Tc  Tc33  1  0.328027  0.328027  0.000000  1
  Tc  Tc34  1  0.173872  0.828195  0.248712  1
  Tc  Tc35  1  0.828195  0.173872  0.751288  1
