# generated using pymatgen
data_Y3Sn2Pt2RhPb
_symmetry_space_group_name_H-M   'P 1'
_cell_length_a   7.76228300
_cell_length_b   7.70783221
_cell_length_c   3.83598600
_cell_angle_alpha   90.00000000
_cell_angle_beta   90.00000000
_cell_angle_gamma   120.23395881
_symmetry_Int_Tables_number   1
_chemical_formula_structural   Y3Sn2Pt2RhPb
_chemical_formula_sum   'Y3 Sn2 Pt2 Rh1 Pb1'
_cell_volume   198.28993691
_cell_formula_units_Z   1
loop_
 _symmetry_equiv_pos_site_id
 _symmetry_equiv_pos_as_xyz
  1  'x, y, z'
loop_
 _atom_site_type_symbol
 _atom_site_label
 _atom_site_symmetry_multiplicity
 _atom_site_fract_x
 _atom_site_fract_y
 _atom_site_fract_z
 _atom_site_occupancy
  Y  Y0  1  0.400736  0.000000  0.500000  1
  Y  Y1  1  0.002380  0.405079  0.500000  1
  Y  Y2  1  0.597302  0.594921  0.500000  1
  Sn  Sn3  1  0.001262  0.740923  0.000000  1
  Sn  Sn4  1  0.260339  0.259077  0.000000  1
  Pt  Pt5  1  0.324548  0.660310  0.000000  1
  Pt  Pt6  1  0.664239  0.339690  0.000000  1
  Rh  Rh7  1  0.009641  0.000000  0.500000  1
  Pb  Pb8  1  0.739554  0.000000  0.000000  1
