# generated using pymatgen
data_Pr3TmZn2Ir3
_symmetry_space_group_name_H-M   'P 1'
_cell_length_a   7.49390200
_cell_length_b   7.50479620
_cell_length_c   4.11828300
_cell_angle_alpha   90.00000000
_cell_angle_beta   90.00000000
_cell_angle_gamma   119.95199202
_symmetry_Int_Tables_number   1
_chemical_formula_structural   Pr3TmZn2Ir3
_chemical_formula_sum   'Pr3 Tm1 Zn2 Ir3'
_cell_volume   200.67978282
_cell_formula_units_Z   1
loop_
 _symmetry_equiv_pos_site_id
 _symmetry_equiv_pos_as_xyz
  1  'x, y, z'
loop_
 _atom_site_type_symbol
 _atom_site_label
 _atom_site_symmetry_multiplicity
 _atom_site_fract_x
 _atom_site_fract_y
 _atom_site_fract_z
 _atom_site_occupancy
  Pr  Pr0  1  0.388075  0.000000  0.499999  1
  Pr  Pr1  1  0.017884  0.439117  0.499999  1
  Pr  Pr2  1  0.578767  0.560882  0.499999  1
  Tm  Tm3  1  0.762144  0.000000  0.000000  1
  Zn  Zn4  1  0.240802  0.245739  0.000000  1
  Zn  Zn5  1  0.995063  0.754261  0.000000  1
  Ir  Ir6  1  0.670218  0.327805  0.000000  1
  Ir  Ir7  1  0.342414  0.672195  0.000000  1
  Ir  Ir8  1  0.004633  0.000000  0.499999  1
