# generated using pymatgen
data_Nd4HoIn3Br
_symmetry_space_group_name_H-M   'P 1'
_cell_length_a   9.50371300
_cell_length_b   9.50371248
_cell_length_c   6.83249700
_cell_angle_alpha   90.00000000
_cell_angle_beta   90.00000000
_cell_angle_gamma   120.00000529
_symmetry_Int_Tables_number   1
_chemical_formula_structural   Nd4HoIn3Br
_chemical_formula_sum   'Nd8 Ho2 In6 Br2'
_cell_volume   534.43717527
_cell_formula_units_Z   2
loop_
 _symmetry_equiv_pos_site_id
 _symmetry_equiv_pos_as_xyz
  1  'x, y, z'
loop_
 _atom_site_type_symbol
 _atom_site_label
 _atom_site_symmetry_multiplicity
 _atom_site_fract_x
 _atom_site_fract_y
 _atom_site_fract_z
 _atom_site_occupancy
  Nd  Nd0  1  0.733826  0.733826  0.251671  1
  Nd  Nd1  1  0.000000  0.733826  0.748329  1
  Nd  Nd2  1  0.733826  0.000000  0.748329  1
  Nd  Nd3  1  0.266174  0.266174  0.748329  1
  Nd  Nd4  1  0.000000  0.266174  0.251671  1
  Nd  Nd5  1  0.266174  0.000000  0.251671  1
  Nd  Nd6  1  0.333333  0.666667  0.000000  1
  Nd  Nd7  1  0.666667  0.333333  0.000000  1
  Ho  Ho8  1  0.333333  0.666667  0.500000  1
  Ho  Ho9  1  0.666667  0.333333  0.500000  1
  In  In10  1  0.394027  0.000000  0.745309  1
  In  In11  1  0.000000  0.605973  0.254691  1
  In  In12  1  0.605973  0.000000  0.254691  1
  In  In13  1  0.000000  0.394027  0.745309  1
  In  In14  1  0.394027  0.394027  0.254691  1
  In  In15  1  0.605973  0.605973  0.745309  1
  Br  Br16  1  0.000000  0.000000  0.500000  1
  Br  Br17  1  0.000000  0.000000  0.000000  1
