# generated using pymatgen
data_Pr2Nd10Ir3Au
_symmetry_space_group_name_H-M   'P 1'
_cell_length_a   6.62150042
_cell_length_b   7.38822993
_cell_length_c   9.94859300
_cell_angle_alpha   90.00000000
_cell_angle_beta   90.00000000
_cell_angle_gamma   90.16471464
_symmetry_Int_Tables_number   1
_chemical_formula_structural   Pr2Nd10Ir3Au
_chemical_formula_sum   'Pr2 Nd10 Ir3 Au1'
_cell_volume   486.69477450
_cell_formula_units_Z   1
loop_
 _symmetry_equiv_pos_site_id
 _symmetry_equiv_pos_as_xyz
  1  'x, y, z'
loop_
 _atom_site_type_symbol
 _atom_site_label
 _atom_site_symmetry_multiplicity
 _atom_site_fract_x
 _atom_site_fract_y
 _atom_site_fract_z
 _atom_site_occupancy
  Pr  Pr0  1  0.853813  0.517713  0.250000  1
  Pr  Pr1  1  0.621462  0.038106  0.250000  1
  Nd  Nd2  1  0.338827  0.670155  0.060000  1
  Nd  Nd3  1  0.172097  0.187385  0.442884  1
  Nd  Nd4  1  0.674299  0.322974  0.566367  1
  Nd  Nd5  1  0.829865  0.824497  0.931923  1
  Nd  Nd6  1  0.674299  0.322974  0.933633  1
  Nd  Nd7  1  0.829865  0.824497  0.568077  1
  Nd  Nd8  1  0.338827  0.670155  0.440000  1
  Nd  Nd9  1  0.172097  0.187385  0.057116  1
  Nd  Nd10  1  0.141448  0.463721  0.750000  1
  Nd  Nd11  1  0.360692  0.962461  0.750000  1
  Ir  Ir12  1  0.429198  0.382786  0.250000  1
  Ir  Ir13  1  0.939778  0.118963  0.750000  1
  Ir  Ir14  1  0.560456  0.618736  0.750000  1
  Au  Au15  1  0.062977  0.887495  0.250000  1
