# generated using pymatgen
data_Dy14Ho6(Bi3Sb)3
_symmetry_space_group_name_H-M   'P 1'
_cell_length_a   8.19534269
_cell_length_b   9.47645700
_cell_length_c   12.01923382
_cell_angle_alpha   89.99928998
_cell_angle_beta   90.05790015
_cell_angle_gamma   90.00294459
_symmetry_Int_Tables_number   1
_chemical_formula_structural   Dy14Ho6(Bi3Sb)3
_chemical_formula_sum   'Dy14 Ho6 Bi9 Sb3'
_cell_volume   933.44702583
_cell_formula_units_Z   1
loop_
 _symmetry_equiv_pos_site_id
 _symmetry_equiv_pos_as_xyz
  1  'x, y, z'
loop_
 _atom_site_type_symbol
 _atom_site_label
 _atom_site_symmetry_multiplicity
 _atom_site_fract_x
 _atom_site_fract_y
 _atom_site_fract_z
 _atom_site_occupancy
  Dy  Dy0  1  0.352593  0.750015  0.213006  1
  Dy  Dy1  1  0.853032  0.749994  0.286470  1
  Dy  Dy2  1  0.647328  0.249997  0.786682  1
  Dy  Dy3  1  0.148177  0.250005  0.716422  1
  Dy  Dy4  1  0.689021  0.937191  0.057404  1
  Dy  Dy5  1  0.190387  0.566025  0.442539  1
  Dy  Dy6  1  0.475667  0.249941  0.487989  1
  Dy  Dy7  1  0.973009  0.250069  0.011810  1
  Dy  Dy8  1  0.528632  0.750084  0.512732  1
  Dy  Dy9  1  0.027807  0.749925  0.987914  1
  Dy  Dy10  1  0.318080  0.249995  0.216235  1
  Dy  Dy11  1  0.811537  0.250013  0.278992  1
  Dy  Dy12  1  0.683265  0.749921  0.782112  1
  Dy  Dy13  1  0.183793  0.750073  0.717968  1
  Ho  Ho14  1  0.688831  0.562872  0.057390  1
  Ho  Ho15  1  0.190207  0.933830  0.442527  1
  Ho  Ho16  1  0.311300  0.062588  0.942800  1
  Ho  Ho17  1  0.808534  0.439680  0.558970  1
  Ho  Ho18  1  0.311301  0.437479  0.942786  1
  Ho  Ho19  1  0.808538  0.060263  0.558997  1
  Bi  Bi20  1  0.091887  0.249477  0.456662  1
  Bi  Bi21  1  0.565474  0.995129  0.325626  1
  Bi  Bi22  1  0.065822  0.504064  0.174352  1
  Bi  Bi23  1  0.433893  0.495518  0.674711  1
  Bi  Bi24  1  0.933999  0.004010  0.825732  1
  Bi  Bi25  1  0.433885  0.004497  0.674630  1
  Bi  Bi26  1  0.933976  0.495980  0.825812  1
  Bi  Bi27  1  0.565616  0.504851  0.325526  1
  Bi  Bi28  1  0.065957  0.995958  0.174447  1
  Sb  Sb29  1  0.407243  0.749779  0.958044  1
  Sb  Sb30  1  0.908048  0.750234  0.541591  1
  Sb  Sb31  1  0.593162  0.250543  0.041122  1
