# generated using pymatgen
data_Hf6Al16Fe3Au4
_symmetry_space_group_name_H-M   'P 1'
_cell_length_a   8.75156209
_cell_length_b   8.67459540
_cell_length_c   8.75146396
_cell_angle_alpha   60.29092538
_cell_angle_beta   59.42148670
_cell_angle_gamma   60.28973636
_symmetry_Int_Tables_number   1
_chemical_formula_structural   Hf6Al16Fe3Au4
_chemical_formula_sum   'Hf6 Al16 Fe3 Au4'
_cell_volume   469.72250842
_cell_formula_units_Z   1
loop_
 _symmetry_equiv_pos_site_id
 _symmetry_equiv_pos_as_xyz
  1  'x, y, z'
loop_
 _atom_site_type_symbol
 _atom_site_label
 _atom_site_symmetry_multiplicity
 _atom_site_fract_x
 _atom_site_fract_y
 _atom_site_fract_z
 _atom_site_occupancy
  Hf  Hf0  1  0.183409  0.816597  0.816591  1
  Hf  Hf1  1  0.816591  0.183403  0.183409  1
  Hf  Hf2  1  0.809075  0.190924  0.809076  1
  Hf  Hf3  1  0.816602  0.816607  0.183398  1
  Hf  Hf4  1  0.190925  0.809076  0.190924  1
  Hf  Hf5  1  0.183398  0.183393  0.816602  1
  Al  Al6  1  0.843409  0.818908  0.843432  1
  Al  Al7  1  0.818979  0.843351  0.494293  1
  Al  Al8  1  0.494293  0.843377  0.818978  1
  Al  Al9  1  0.843432  0.494251  0.843409  1
  Al  Al10  1  0.156591  0.181092  0.156568  1
  Al  Al11  1  0.181021  0.156649  0.505707  1
  Al  Al12  1  0.156568  0.505749  0.156591  1
  Al  Al13  1  0.505707  0.156623  0.181022  1
  Al  Al14  1  0.607453  0.630767  0.607497  1
  Al  Al15  1  0.630849  0.607416  0.154275  1
  Al  Al16  1  0.154275  0.607460  0.630848  1
  Al  Al17  1  0.607497  0.154283  0.607453  1
  Al  Al18  1  0.392547  0.369233  0.392503  1
  Al  Al19  1  0.369151  0.392584  0.845725  1
  Al  Al20  1  0.392503  0.845717  0.392547  1
  Al  Al21  1  0.845725  0.392540  0.369152  1
  Fe  Fe22  1  0.500000  0.500000  0.500000  1
  Fe  Fe23  1  0.500000  0.000000  0.500000  1
  Fe  Fe24  1  0.000000  0.500000  0.000000  1
  Au  Au25  1  0.000000  0.500000  0.500000  1
  Au  Au26  1  0.500000  0.000000  0.000000  1
  Au  Au27  1  0.500000  0.500000  0.000000  1
  Au  Au28  1  0.000000  0.000000  0.500000  1
