# generated using pymatgen
data_Cs2Nb2P2S11
_symmetry_space_group_name_H-M   'P 1'
_cell_length_a   7.19443100
_cell_length_b   7.50136998
_cell_length_c   19.14954753
_cell_angle_alpha   81.73800785
_cell_angle_beta   90.00000000
_cell_angle_gamma   90.00000000
_symmetry_Int_Tables_number   1
_chemical_formula_structural   Cs2Nb2P2S11
_chemical_formula_sum   'Cs4 Nb4 P4 S22'
_cell_volume   1022.73849606
_cell_formula_units_Z   2
loop_
 _symmetry_equiv_pos_site_id
 _symmetry_equiv_pos_as_xyz
  1  'x, y, z'
loop_
 _atom_site_type_symbol
 _atom_site_label
 _atom_site_symmetry_multiplicity
 _atom_site_fract_x
 _atom_site_fract_y
 _atom_site_fract_z
 _atom_site_occupancy
  Cs  Cs0  1  0.250000  0.751726  0.992686  1
  Cs  Cs1  1  0.750000  0.248274  0.007314  1
  Cs  Cs2  1  0.250000  0.772707  0.510369  1
  Cs  Cs3  1  0.750000  0.227293  0.489631  1
  Nb  Nb4  1  0.950274  0.303339  0.755072  1
  Nb  Nb5  1  0.450274  0.696661  0.244928  1
  Nb  Nb6  1  0.049726  0.696661  0.244928  1
  Nb  Nb7  1  0.549726  0.303339  0.755072  1
  P  P8  1  0.250000  0.313268  0.890100  1
  P  P9  1  0.250000  0.213203  0.628291  1
  P  P10  1  0.750000  0.686732  0.109900  1
  P  P11  1  0.750000  0.786797  0.371709  1
  S  S12  1  0.750000  0.585631  0.733951  1
  S  S13  1  0.750000  0.735131  0.477408  1
  S  S14  1  0.523043  0.528064  0.144208  1
  S  S15  1  0.250000  0.922770  0.188532  1
  S  S16  1  0.750000  0.766325  0.006252  1
  S  S17  1  0.750000  0.435133  0.655198  1
  S  S18  1  0.250000  0.564867  0.344802  1
  S  S19  1  0.250000  0.233675  0.993748  1
  S  S20  1  0.250000  0.446655  0.677646  1
  S  S21  1  0.750000  0.880347  0.176717  1
  S  S22  1  0.750000  0.077230  0.811468  1
  S  S23  1  0.017449  0.074069  0.668020  1
  S  S24  1  0.976957  0.528064  0.144208  1
  S  S25  1  0.250000  0.414369  0.266049  1
  S  S26  1  0.250000  0.264869  0.522592  1
  S  S27  1  0.482551  0.074069  0.668020  1
  S  S28  1  0.023043  0.471936  0.855792  1
  S  S29  1  0.476957  0.471936  0.855792  1
  S  S30  1  0.982551  0.925931  0.331980  1
  S  S31  1  0.250000  0.119653  0.823283  1
  S  S32  1  0.750000  0.553345  0.322354  1
  S  S33  1  0.517449  0.925931  0.331980  1
