# generated using pymatgen
data_Lu3Sc3Sb2Mo
_symmetry_space_group_name_H-M   'P 1'
_cell_length_a   7.78610700
_cell_length_b   7.78610722
_cell_length_c   4.22070600
_cell_angle_alpha   90.00000000
_cell_angle_beta   90.00000000
_cell_angle_gamma   119.99999482
_symmetry_Int_Tables_number   1
_chemical_formula_structural   Lu3Sc3Sb2Mo
_chemical_formula_sum   'Lu3 Sc3 Sb2 Mo1'
_cell_volume   221.59323803
_cell_formula_units_Z   1
loop_
 _symmetry_equiv_pos_site_id
 _symmetry_equiv_pos_as_xyz
  1  'x, y, z'
loop_
 _atom_site_type_symbol
 _atom_site_label
 _atom_site_symmetry_multiplicity
 _atom_site_fract_x
 _atom_site_fract_y
 _atom_site_fract_z
 _atom_site_occupancy
  Lu  Lu0  1  0.606366  0.000000  0.500000  1
  Lu  Lu1  1  0.393634  0.393634  0.500000  1
  Lu  Lu2  1  0.000000  0.606366  0.500000  1
  Sc  Sc3  1  0.000000  0.233783  0.000000  1
  Sc  Sc4  1  0.766217  0.766217  0.000000  1
  Sc  Sc5  1  0.233783  0.000000  0.000000  1
  Sb  Sb6  1  0.666667  0.333333  0.000000  1
  Sb  Sb7  1  0.333333  0.666667  0.000000  1
  Mo  Mo8  1  0.000000  0.000000  0.500000  1
