# generated using pymatgen
data_Cs4Zr6GeI18
_symmetry_space_group_name_H-M   'P 1'
_cell_length_a   11.70034250
_cell_length_b   11.97658131
_cell_length_c   12.08829534
_cell_angle_alpha   118.24709585
_cell_angle_beta   100.32414258
_cell_angle_gamma   104.41826800
_symmetry_Int_Tables_number   1
_chemical_formula_structural   Cs4Zr6GeI18
_chemical_formula_sum   'Cs4 Zr6 Ge1 I18'
_cell_volume   1354.77899436
_cell_formula_units_Z   1
loop_
 _symmetry_equiv_pos_site_id
 _symmetry_equiv_pos_as_xyz
  1  'x, y, z'
loop_
 _atom_site_type_symbol
 _atom_site_label
 _atom_site_symmetry_multiplicity
 _atom_site_fract_x
 _atom_site_fract_y
 _atom_site_fract_z
 _atom_site_occupancy
  Cs  Cs0  1  0.660779  0.539077  0.231553  1
  Cs  Cs1  1  0.339221  0.460923  0.768447  1
  Cs  Cs2  1  0.692276  0.227666  0.566375  1
  Cs  Cs3  1  0.307724  0.772334  0.433625  1
  Zr  Zr4  1  0.148860  0.052461  0.221835  1
  Zr  Zr5  1  0.851140  0.947539  0.778165  1
  Zr  Zr6  1  0.865085  0.119132  0.128566  1
  Zr  Zr7  1  0.134915  0.880868  0.871434  1
  Zr  Zr8  1  0.142969  0.234807  0.047312  1
  Zr  Zr9  1  0.857031  0.765193  0.952688  1
  Ge  Ge10  1  0.000000  0.000000  0.000000  1
  I  I11  1  0.008460  0.395487  0.194542  1
  I  I12  1  0.991540  0.604513  0.805458  1
  I  I13  1  0.324226  0.322891  0.302522  1
  I  I14  1  0.675774  0.677109  0.697478  1
  I  I15  1  0.312592  0.508084  0.097340  1
  I  I16  1  0.687408  0.491916  0.902660  1
  I  I17  1  0.005506  0.797300  0.196811  1
  I  I18  1  0.994494  0.202700  0.803189  1
  I  I19  1  0.708503  0.259664  0.275109  1
  I  I20  1  0.291497  0.740336  0.724891  1
  I  I21  1  0.309666  0.129445  0.909890  1
  I  I22  1  0.690334  0.870555  0.090110  1
  I  I23  1  0.015929  0.192157  0.393052  1
  I  I24  1  0.984071  0.807843  0.606948  1
  I  I25  1  0.314840  0.926744  0.104955  1
  I  I26  1  0.685160  0.073256  0.895045  1
  I  I27  1  0.325004  0.118200  0.485636  1
  I  I28  1  0.674996  0.881800  0.514364  1
