# generated using pymatgen
data_LiYb5(SiNi2)8
_symmetry_space_group_name_H-M   'P 1'
_cell_length_a   13.07879365
_cell_length_b   13.03256788
_cell_length_c   3.94357900
_cell_angle_alpha   90.00000000
_cell_angle_beta   90.00000000
_cell_angle_gamma   141.27041956
_symmetry_Int_Tables_number   1
_chemical_formula_structural   LiYb5(SiNi2)8
_chemical_formula_sum   'Li1 Yb5 Si8 Ni16'
_cell_volume   420.54894438
_cell_formula_units_Z   1
loop_
 _symmetry_equiv_pos_site_id
 _symmetry_equiv_pos_as_xyz
  1  'x, y, z'
loop_
 _atom_site_type_symbol
 _atom_site_label
 _atom_site_symmetry_multiplicity
 _atom_site_fract_x
 _atom_site_fract_y
 _atom_site_fract_z
 _atom_site_occupancy
  Li  Li0  1  0.387480  0.059234  0.000000  1
  Yb  Yb1  1  0.818212  0.605264  0.000000  1
  Yb  Yb2  1  0.607600  0.819635  0.000000  1
  Yb  Yb3  1  0.182348  0.787293  0.500000  1
  Yb  Yb4  1  0.795640  0.185434  0.500000  1
  Yb  Yb5  1  0.219642  0.220808  0.500000  1
  Si  Si6  1  0.153261  0.993872  0.000000  1
  Si  Si7  1  0.988783  0.155807  0.000000  1
  Si  Si8  1  0.490815  0.965209  0.000000  1
  Si  Si9  1  0.958618  0.477719  0.000000  1
  Si  Si10  1  0.581644  0.304781  0.500000  1
  Si  Si11  1  0.309633  0.585915  0.500000  1
  Si  Si12  1  0.495131  0.495568  0.000000  1
  Si  Si13  1  0.757764  0.757508  0.500000  1
  Ni  Ni14  1  0.041338  0.374220  0.000000  1
  Ni  Ni15  1  0.673404  0.277208  0.000000  1
  Ni  Ni16  1  0.278444  0.675287  0.000000  1
  Ni  Ni17  1  0.446600  0.282231  0.000000  1
  Ni  Ni18  1  0.283755  0.450339  0.000000  1
  Ni  Ni19  1  0.005272  0.874235  0.500000  1
  Ni  Ni20  1  0.876041  0.006796  0.500000  1
  Ni  Ni21  1  0.300107  0.079416  0.500000  1
  Ni  Ni22  1  0.084779  0.305788  0.500000  1
  Ni  Ni23  1  0.517730  0.083141  0.500000  1
  Ni  Ni24  1  0.085848  0.517348  0.500000  1
  Ni  Ni25  1  0.846733  0.450129  0.500000  1
  Ni  Ni26  1  0.452616  0.847970  0.500000  1
  Ni  Ni27  1  0.576669  0.476857  0.500000  1
  Ni  Ni28  1  0.477665  0.577253  0.500000  1
  Ni  Ni29  1  0.922666  0.923975  0.000000  1
