# generated using pymatgen
data_Tb2Mn4Fe8P7
_symmetry_space_group_name_H-M   'P 1'
_cell_length_a   9.17508117
_cell_length_b   9.06614419
_cell_length_c   3.60610300
_cell_angle_alpha   90.00000000
_cell_angle_beta   90.00000000
_cell_angle_gamma   120.16137936
_symmetry_Int_Tables_number   1
_chemical_formula_structural   Tb2Mn4Fe8P7
_chemical_formula_sum   'Tb2 Mn4 Fe8 P7'
_cell_volume   259.35388741
_cell_formula_units_Z   1
loop_
 _symmetry_equiv_pos_site_id
 _symmetry_equiv_pos_as_xyz
  1  'x, y, z'
loop_
 _atom_site_type_symbol
 _atom_site_label
 _atom_site_symmetry_multiplicity
 _atom_site_fract_x
 _atom_site_fract_y
 _atom_site_fract_z
 _atom_site_occupancy
  Tb  Tb0  1  0.660440  0.330884  0.000000  1
  Tb  Tb1  1  0.338297  0.668431  0.500000  1
  Mn  Mn2  1  0.952246  0.389390  0.500000  1
  Mn  Mn3  1  0.107592  0.877020  0.500000  1
  Mn  Mn4  1  0.775878  0.896181  0.500000  1
  Mn  Mn5  1  0.123185  0.227267  0.500000  1
  Fe  Fe6  1  0.052266  0.623225  0.000000  1
  Fe  Fe7  1  0.573679  0.942676  0.000000  1
  Fe  Fe8  1  0.372275  0.425872  0.000000  1
  Fe  Fe9  1  0.270915  0.118037  0.000000  1
  Fe  Fe10  1  0.846914  0.728569  0.000000  1
  Fe  Fe11  1  0.880845  0.158349  0.000000  1
  Fe  Fe12  1  0.432793  0.049090  0.500000  1
  Fe  Fe13  1  0.613305  0.564934  0.500000  1
  P  P14  1  0.303257  0.891047  0.000000  1
  P  P15  1  0.589730  0.698381  0.000000  1
  P  P16  1  0.122627  0.411126  0.000000  1
  P  P17  1  0.404534  0.287741  0.500000  1
  P  P18  1  0.874275  0.597099  0.500000  1
  P  P19  1  0.704775  0.112333  0.500000  1
  P  P20  1  0.000172  0.002352  0.000000  1
