# generated using pymatgen
data_NaVIrSe4
_symmetry_space_group_name_H-M   'P 1'
_cell_length_a   3.70534900
_cell_length_b   5.89234036
_cell_length_c   7.94618793
_cell_angle_alpha   66.40772662
_cell_angle_beta   90.00000000
_cell_angle_gamma   90.00000000
_symmetry_Int_Tables_number   1
_chemical_formula_structural   NaVIrSe4
_chemical_formula_sum   'Na1 V1 Ir1 Se4'
_cell_volume   158.98962184
_cell_formula_units_Z   1
loop_
 _symmetry_equiv_pos_site_id
 _symmetry_equiv_pos_as_xyz
  1  'x, y, z'
loop_
 _atom_site_type_symbol
 _atom_site_label
 _atom_site_symmetry_multiplicity
 _atom_site_fract_x
 _atom_site_fract_y
 _atom_site_fract_z
 _atom_site_occupancy
  Na  Na0  1  0.500000  0.617049  0.513060  1
  V  V1  1  0.500000  0.562220  0.006710  1
  Ir  Ir2  1  0.000000  0.971696  0.992169  1
  Se  Se3  1  0.000000  0.535418  0.227628  1
  Se  Se4  1  0.500000  0.071196  0.166325  1
  Se  Se5  1  0.000000  0.439569  0.826833  1
  Se  Se6  1  0.500000  0.967952  0.771974  1
