# generated using pymatgen
data_Sr8Mg6Cd2Si15Ge
_symmetry_space_group_name_H-M   'P 1'
_cell_length_a   4.41726600
_cell_length_b   11.49006752
_cell_length_c   14.46034100
_cell_angle_alpha   89.92333378
_cell_angle_beta   90.00000000
_cell_angle_gamma   90.00000000
_symmetry_Int_Tables_number   1
_chemical_formula_structural   Sr8Mg6Cd2Si15Ge
_chemical_formula_sum   'Sr8 Mg6 Cd2 Si15 Ge1'
_cell_volume   733.92938986
_cell_formula_units_Z   1
loop_
 _symmetry_equiv_pos_site_id
 _symmetry_equiv_pos_as_xyz
  1  'x, y, z'
loop_
 _atom_site_type_symbol
 _atom_site_label
 _atom_site_symmetry_multiplicity
 _atom_site_fract_x
 _atom_site_fract_y
 _atom_site_fract_z
 _atom_site_occupancy
  Sr  Sr0  1  0.250000  0.524447  0.196756  1
  Sr  Sr1  1  0.250000  0.740882  0.939301  1
  Sr  Sr2  1  0.750000  0.259003  0.061083  1
  Sr  Sr3  1  0.750000  0.241387  0.560787  1
  Sr  Sr4  1  0.250000  0.758519  0.439232  1
  Sr  Sr5  1  0.250000  0.975291  0.695917  1
  Sr  Sr6  1  0.750000  0.023326  0.303202  1
  Sr  Sr7  1  0.750000  0.476910  0.802763  1
  Mg  Mg8  1  0.250000  0.442140  0.440609  1
  Mg  Mg9  1  0.250000  0.059280  0.941753  1
  Mg  Mg10  1  0.250000  0.679093  0.689587  1
  Mg  Mg11  1  0.750000  0.319710  0.310093  1
  Mg  Mg12  1  0.750000  0.182163  0.809642  1
  Mg  Mg13  1  0.250000  0.820294  0.190069  1
  Cd  Cd14  1  0.750000  0.557665  0.558597  1
  Cd  Cd15  1  0.750000  0.942031  0.060892  1
  Si  Si16  1  0.250000  0.451524  0.633641  1
  Si  Si17  1  0.750000  0.546768  0.365280  1
  Si  Si18  1  0.250000  0.029124  0.465536  1
  Si  Si19  1  0.250000  0.048683  0.134328  1
  Si  Si20  1  0.250000  0.273581  0.722014  1
  Si  Si21  1  0.750000  0.726008  0.277982  1
  Si  Si22  1  0.750000  0.770155  0.776698  1
  Si  Si23  1  0.250000  0.213155  0.393740  1
  Si  Si24  1  0.750000  0.971085  0.534181  1
  Si  Si25  1  0.750000  0.529152  0.034092  1
  Si  Si26  1  0.250000  0.470786  0.965893  1
  Si  Si27  1  0.250000  0.287294  0.893850  1
  Si  Si28  1  0.750000  0.788335  0.607077  1
  Si  Si29  1  0.750000  0.710977  0.107648  1
  Si  Si30  1  0.250000  0.226654  0.222400  1
  Ge  Ge31  1  0.750000  0.954583  0.865356  1
