# generated using pymatgen
data_Mn6CrCoPbO16
_symmetry_space_group_name_H-M   'P 1'
_cell_length_a   5.84078392
_cell_length_b   7.09223885
_cell_length_c   7.18496334
_cell_angle_alpha   88.83102391
_cell_angle_beta   78.25559022
_cell_angle_gamma   78.15709385
_symmetry_Int_Tables_number   1
_chemical_formula_structural   Mn6CrCoPbO16
_chemical_formula_sum   'Mn6 Cr1 Co1 Pb1 O16'
_cell_volume   285.12707648
_cell_formula_units_Z   1
loop_
 _symmetry_equiv_pos_site_id
 _symmetry_equiv_pos_as_xyz
  1  'x, y, z'
loop_
 _atom_site_type_symbol
 _atom_site_label
 _atom_site_symmetry_multiplicity
 _atom_site_fract_x
 _atom_site_fract_y
 _atom_site_fract_z
 _atom_site_occupancy
  Mn  Mn0  1  0.169212  0.819667  0.517316  1
  Mn  Mn1  1  0.668665  0.819566  0.524592  1
  Mn  Mn2  1  0.337334  0.188475  0.474364  1
  Mn  Mn3  1  0.838073  0.189180  0.479641  1
  Mn  Mn4  1  0.426504  0.487227  0.821057  1
  Mn  Mn5  1  0.927060  0.490142  0.821234  1
  Cr  Cr6  1  0.579455  0.515596  0.185868  1
  Co  Co7  1  0.081424  0.507761  0.180791  1
  Pb  Pb8  1  0.019252  0.942417  0.008048  1
  O  O9  1  0.841756  0.649605  0.049762  1
  O  O10  1  0.317384  0.648646  0.049710  1
  O  O11  1  0.980915  0.705724  0.380989  1
  O  O12  1  0.481295  0.707935  0.390733  1
  O  O13  1  0.856146  0.960134  0.647639  1
  O  O14  1  0.347908  0.962317  0.646464  1
  O  O15  1  0.337365  0.365101  0.280762  1
  O  O16  1  0.848994  0.361376  0.279206  1
  O  O17  1  0.164309  0.639854  0.721823  1
  O  O18  1  0.665314  0.634192  0.719945  1
  O  O19  1  0.151830  0.041381  0.353522  1
  O  O20  1  0.658102  0.042058  0.356995  1
  O  O21  1  0.027124  0.302730  0.613408  1
  O  O22  1  0.523512  0.305965  0.609376  1
  O  O23  1  0.177020  0.355341  0.946114  1
  O  O24  1  0.681147  0.357611  0.940637  1
