# generated using pymatgen
data_SiTe19
_symmetry_space_group_name_H-M   'P 1'
_cell_length_a   7.96740280
_cell_length_b   8.94102754
_cell_length_c   10.12016500
_cell_angle_alpha   103.09486428
_cell_angle_beta   96.93454965
_cell_angle_gamma   107.31739481
_symmetry_Int_Tables_number   1
_chemical_formula_structural   SiTe19
_chemical_formula_sum   'Si1 Te19'
_cell_volume   656.48094483
_cell_formula_units_Z   1
loop_
 _symmetry_equiv_pos_site_id
 _symmetry_equiv_pos_as_xyz
  1  'x, y, z'
loop_
 _atom_site_type_symbol
 _atom_site_label
 _atom_site_symmetry_multiplicity
 _atom_site_fract_x
 _atom_site_fract_y
 _atom_site_fract_z
 _atom_site_occupancy
  Si  Si0  1  0.000000  0.500000  0.000000  1
  Te  Te1  1  0.796994  0.583763  0.611537  1
  Te  Te2  1  0.624848  0.204042  0.199427  1
  Te  Te3  1  0.375152  0.795958  0.800573  1
  Te  Te4  1  0.599792  0.688270  0.193396  1
  Te  Te5  1  0.203006  0.416237  0.388463  1
  Te  Te6  1  0.400208  0.311730  0.806604  1
  Te  Te7  1  0.000000  0.000000  0.000000  1
  Te  Te8  1  0.190601  0.906489  0.392313  1
  Te  Te9  1  0.809399  0.093511  0.607687  1
  Te  Te10  1  0.712249  0.630367  0.912448  1
  Te  Te11  1  0.511532  0.256124  0.498299  1
  Te  Te12  1  0.727731  0.164303  0.913853  1
  Te  Te13  1  0.272269  0.835697  0.086147  1
  Te  Te14  1  0.488468  0.743876  0.501701  1
  Te  Te15  1  0.090790  0.461376  0.718898  1
  Te  Te16  1  0.287751  0.369633  0.087552  1
  Te  Te17  1  0.911352  0.041605  0.300592  1
  Te  Te18  1  0.088648  0.958395  0.699408  1
  Te  Te19  1  0.909210  0.538624  0.281102  1
