# generated using pymatgen
data_Ho5Co9(As6Ru5)2
_symmetry_space_group_name_H-M   'P 1'
_cell_length_a   12.78148391
_cell_length_b   12.73575585
_cell_length_c   3.86570400
_cell_angle_alpha   90.00000000
_cell_angle_beta   90.00000000
_cell_angle_gamma   119.78106461
_symmetry_Int_Tables_number   1
_chemical_formula_structural   Ho5Co9(As6Ru5)2
_chemical_formula_sum   'Ho5 Co9 As12 Ru10'
_cell_volume   546.15903578
_cell_formula_units_Z   1
loop_
 _symmetry_equiv_pos_site_id
 _symmetry_equiv_pos_as_xyz
  1  'x, y, z'
loop_
 _atom_site_type_symbol
 _atom_site_label
 _atom_site_symmetry_multiplicity
 _atom_site_fract_x
 _atom_site_fract_y
 _atom_site_fract_z
 _atom_site_occupancy
  Ho  Ho0  1  0.663423  0.332730  0.000000  1
  Ho  Ho1  1  0.333051  0.667003  0.000000  1
  Ho  Ho2  1  0.183880  0.182431  0.500000  1
  Ho  Ho3  1  0.818395  0.999756  0.500000  1
  Ho  Ho4  1  0.999576  0.818712  0.500000  1
  Co  Co5  1  0.803003  0.630093  0.000000  1
  Co  Co6  1  0.368322  0.171961  0.000000  1
  Co  Co7  1  0.195119  0.827207  0.000000  1
  Co  Co8  1  0.628917  0.800915  0.000000  1
  Co  Co9  1  0.176893  0.370996  0.000000  1
  Co  Co10  1  0.719230  0.719019  0.500000  1
  Co  Co11  1  0.278987  0.999723  0.500000  1
  Co  Co12  1  0.006168  0.284455  0.500000  1
  Co  Co13  1  0.999111  0.998546  0.000000  1
  As  As14  1  0.360585  0.360118  0.000000  1
  As  As15  1  0.636078  0.996596  0.000000  1
  As  As16  1  0.000434  0.640662  0.000000  1
  As  As17  1  0.838694  0.318279  0.500000  1
  As  As18  1  0.683380  0.522475  0.500000  1
  As  As19  1  0.474736  0.159271  0.500000  1
  As  As20  1  0.316951  0.840237  0.500000  1
  As  As21  1  0.522795  0.681941  0.500000  1
  As  As22  1  0.162234  0.479534  0.500000  1
  As  As23  1  0.821534  0.822069  0.000000  1
  As  As24  1  0.176559  0.999860  0.000000  1
  As  As25  1  0.006230  0.179594  0.000000  1
  Ru  Ru26  1  0.556618  0.555036  0.000000  1
  Ru  Ru27  1  0.439441  0.996271  0.000000  1
  Ru  Ru28  1  0.007077  0.448268  0.000000  1
  Ru  Ru29  1  0.826582  0.196233  0.000000  1
  Ru  Ru30  1  0.641961  0.124952  0.500000  1
  Ru  Ru31  1  0.873795  0.521545  0.500000  1
  Ru  Ru32  1  0.479709  0.352270  0.500000  1
  Ru  Ru33  1  0.128622  0.650155  0.500000  1
  Ru  Ru34  1  0.519017  0.870815  0.500000  1
  Ru  Ru35  1  0.352892  0.480269  0.500000  1
