# generated using pymatgen
data_Tb16InAg2HgRh4
_symmetry_space_group_name_H-M   'P 1'
_cell_length_a   9.59735988
_cell_length_b   9.61582459
_cell_length_c   9.62332800
_cell_angle_alpha   59.97417700
_cell_angle_beta   59.91044695
_cell_angle_gamma   59.88947514
_symmetry_Int_Tables_number   1
_chemical_formula_structural   Tb16InAg2HgRh4
_chemical_formula_sum   'Tb16 In1 Ag2 Hg1 Rh4'
_cell_volume   626.91065979
_cell_formula_units_Z   1
loop_
 _symmetry_equiv_pos_site_id
 _symmetry_equiv_pos_as_xyz
  1  'x, y, z'
loop_
 _atom_site_type_symbol
 _atom_site_label
 _atom_site_symmetry_multiplicity
 _atom_site_fract_x
 _atom_site_fract_y
 _atom_site_fract_z
 _atom_site_occupancy
  Tb  Tb0  1  0.810582  0.808090  0.190664  1
  Tb  Tb1  1  0.811183  0.190286  0.808379  1
  Tb  Tb2  1  0.187848  0.188717  0.811716  1
  Tb  Tb3  1  0.648626  0.053311  0.649032  1
  Tb  Tb4  1  0.065797  0.061603  0.436300  1
  Tb  Tb5  1  0.438863  0.436662  0.062238  1
  Tb  Tb6  1  0.649193  0.649200  0.650388  1
  Tb  Tb7  1  0.811183  0.190286  0.190152  1
  Tb  Tb8  1  0.188738  0.811634  0.810334  1
  Tb  Tb9  1  0.055922  0.647453  0.648312  1
  Tb  Tb10  1  0.438648  0.064137  0.061201  1
  Tb  Tb11  1  0.438648  0.064137  0.436014  1
  Tb  Tb12  1  0.066592  0.436301  0.061228  1
  Tb  Tb13  1  0.649193  0.649200  0.051220  1
  Tb  Tb14  1  0.188738  0.811634  0.189293  1
  Tb  Tb15  1  0.066592  0.436301  0.435881  1
  In  In16  1  0.739496  0.418990  0.420756  1
  Ag  Ag17  1  0.416408  0.415776  0.418057  1
  Ag  Ag18  1  0.416408  0.415776  0.749758  1
  Hg  Hg19  1  0.413176  0.753231  0.416796  1
  Rh  Rh20  1  0.856882  0.426435  0.858342  1
  Rh  Rh21  1  0.856845  0.857059  0.858857  1
  Rh  Rh22  1  0.856845  0.857059  0.427240  1
  Rh  Rh23  1  0.427594  0.856722  0.857843  1
