# generated using pymatgen
data_CsKDy2(SbAu)4
_symmetry_space_group_name_H-M   'P 1'
_cell_length_a   4.62694100
_cell_length_b   4.62694000
_cell_length_c   19.61098000
_cell_angle_alpha   90.00000000
_cell_angle_beta   90.00000000
_cell_angle_gamma   120.00001433
_symmetry_Int_Tables_number   1
_chemical_formula_structural   CsKDy2(SbAu)4
_chemical_formula_sum   'Cs1 K1 Dy2 Sb4 Au4'
_cell_volume   363.59482631
_cell_formula_units_Z   1
loop_
 _symmetry_equiv_pos_site_id
 _symmetry_equiv_pos_as_xyz
  1  'x, y, z'
loop_
 _atom_site_type_symbol
 _atom_site_label
 _atom_site_symmetry_multiplicity
 _atom_site_fract_x
 _atom_site_fract_y
 _atom_site_fract_z
 _atom_site_occupancy
  Cs  Cs0  1  0.000000  0.000000  0.000000  1
  K  K1  1  0.000000  0.000000  0.500000  1
  Dy  Dy2  1  0.000000  0.000000  0.253793  1
  Dy  Dy3  1  0.000000  0.000000  0.746207  1
  Sb  Sb4  1  0.333333  0.666667  0.366710  1
  Sb  Sb5  1  0.666667  0.333333  0.633290  1
  Sb  Sb6  1  0.666667  0.333333  0.857590  1
  Sb  Sb7  1  0.333333  0.666667  0.142410  1
  Au  Au8  1  0.666667  0.333333  0.334839  1
  Au  Au9  1  0.333333  0.666667  0.665161  1
  Au  Au10  1  0.333333  0.666667  0.827067  1
  Au  Au11  1  0.666667  0.333333  0.172933  1
