# generated using pymatgen
data_Ho3Bi(AuO5)2
_symmetry_space_group_name_H-M   'P 1'
_cell_length_a   8.52180101
_cell_length_b   8.52180101
_cell_length_c   5.69816522
_cell_angle_alpha   88.94806631
_cell_angle_beta   91.05193369
_cell_angle_gamma   89.90109604
_symmetry_Int_Tables_number   1
_chemical_formula_structural   Ho3Bi(AuO5)2
_chemical_formula_sum   'Ho6 Bi2 Au4 O20'
_cell_volume   413.66663255
_cell_formula_units_Z   2
loop_
 _symmetry_equiv_pos_site_id
 _symmetry_equiv_pos_as_xyz
  1  'x, y, z'
loop_
 _atom_site_type_symbol
 _atom_site_label
 _atom_site_symmetry_multiplicity
 _atom_site_fract_x
 _atom_site_fract_y
 _atom_site_fract_z
 _atom_site_occupancy
  Ho  Ho0  1  0.354738  0.656486  0.247426  1
  Ho  Ho1  1  0.843514  0.145262  0.747426  1
  Ho  Ho2  1  0.651887  0.651887  0.750000  1
  Ho  Ho3  1  0.656486  0.354738  0.252574  1
  Ho  Ho4  1  0.848113  0.848113  0.250000  1
  Ho  Ho5  1  0.145262  0.843514  0.752574  1
  Bi  Bi6  1  0.358937  0.358937  0.750000  1
  Bi  Bi7  1  0.141063  0.141063  0.250000  1
  Au  Au8  1  0.497401  0.000364  0.408259  1
  Au  Au9  1  0.499636  0.002599  0.908259  1
  Au  Au10  1  0.000364  0.497401  0.091741  1
  Au  Au11  1  0.002599  0.499636  0.591741  1
  O  O12  1  0.105785  0.288184  0.599875  1
  O  O13  1  0.910258  0.280082  0.109351  1
  O  O14  1  0.907569  0.716807  0.609785  1
  O  O15  1  0.716807  0.907569  0.890215  1
  O  O16  1  0.219918  0.589742  0.609351  1
  O  O17  1  0.404579  0.786856  0.892905  1
  O  O18  1  0.394215  0.211816  0.400125  1
  O  O19  1  0.783193  0.592431  0.109785  1
  O  O20  1  0.280082  0.910258  0.390649  1
  O  O21  1  0.589742  0.219918  0.890649  1
  O  O22  1  0.495115  0.499507  0.998979  1
  O  O23  1  0.499507  0.495115  0.501021  1
  O  O24  1  0.786856  0.404579  0.607095  1
  O  O25  1  0.095421  0.713144  0.107095  1
  O  O26  1  0.288184  0.105785  0.900125  1
  O  O27  1  0.592431  0.783193  0.390215  1
  O  O28  1  0.211816  0.394215  0.099875  1
  O  O29  1  0.004885  0.000493  0.001021  1
  O  O30  1  0.000493  0.004885  0.498979  1
  O  O31  1  0.713144  0.095421  0.392905  1
