# generated using pymatgen
data_YbPrEr2(B6Os)2
_symmetry_space_group_name_H-M   'P 1'
_cell_length_a   3.66626200
_cell_length_b   9.18697477
_cell_length_c   11.61438052
_cell_angle_alpha   90.13897190
_cell_angle_beta   90.00000000
_cell_angle_gamma   90.00000000
_symmetry_Int_Tables_number   1
_chemical_formula_structural   YbPrEr2(B6Os)2
_chemical_formula_sum   'Yb2 Pr2 Er4 B24 Os4'
_cell_volume   391.19274734
_cell_formula_units_Z   2
loop_
 _symmetry_equiv_pos_site_id
 _symmetry_equiv_pos_as_xyz
  1  'x, y, z'
loop_
 _atom_site_type_symbol
 _atom_site_label
 _atom_site_symmetry_multiplicity
 _atom_site_fract_x
 _atom_site_fract_y
 _atom_site_fract_z
 _atom_site_occupancy
  Yb  Yb0  1  0.000000  0.824692  0.084596  1
  Yb  Yb1  1  0.000000  0.175308  0.915404  1
  Pr  Pr2  1  0.000000  0.321550  0.413392  1
  Pr  Pr3  1  0.000000  0.678450  0.586608  1
  Er  Er4  1  0.000000  0.943071  0.368020  1
  Er  Er5  1  0.000000  0.056929  0.631980  1
  Er  Er6  1  0.000000  0.441878  0.128284  1
  Er  Er7  1  0.000000  0.558122  0.871716  1
  B  B8  1  0.500000  0.556286  0.429162  1
  B  B9  1  0.500000  0.443714  0.570838  1
  B  B10  1  0.500000  0.053759  0.066893  1
  B  B11  1  0.500000  0.946241  0.933107  1
  B  B12  1  0.500000  0.750081  0.414564  1
  B  B13  1  0.500000  0.249919  0.585436  1
  B  B14  1  0.500000  0.247800  0.081283  1
  B  B15  1  0.500000  0.752200  0.918717  1
  B  B16  1  0.500000  0.791211  0.263176  1
  B  B17  1  0.500000  0.208789  0.736824  1
  B  B18  1  0.500000  0.289303  0.231997  1
  B  B19  1  0.500000  0.710697  0.768003  1
  B  B20  1  0.500000  0.631309  0.183847  1
  B  B21  1  0.500000  0.368691  0.816153  1
  B  B22  1  0.500000  0.129012  0.311966  1
  B  B23  1  0.500000  0.870988  0.688034  1
  B  B24  1  0.500000  0.983124  0.210263  1
  B  B25  1  0.500000  0.016876  0.789737  1
  B  B26  1  0.500000  0.485734  0.285210  1
  B  B27  1  0.500000  0.514266  0.714790  1
  B  B28  1  0.500000  0.599399  0.027228  1
  B  B29  1  0.500000  0.400601  0.972772  1
  B  B30  1  0.500000  0.097773  0.473148  1
  B  B31  1  0.500000  0.902227  0.526852  1
  Os  Os32  1  0.000000  0.639575  0.318201  1
  Os  Os33  1  0.000000  0.360425  0.681799  1
  Os  Os34  1  0.000000  0.138568  0.179289  1
  Os  Os35  1  0.000000  0.861432  0.820711  1
