# generated using pymatgen
data_V12Ga4CoIr3N4
_symmetry_space_group_name_H-M   'P 1'
_cell_length_a   6.59685213
_cell_length_b   6.59685213
_cell_length_c   6.59685213
_cell_angle_alpha   90.09060415
_cell_angle_beta   89.90939585
_cell_angle_gamma   89.90939585
_symmetry_Int_Tables_number   1
_chemical_formula_structural   V12Ga4CoIr3N4
_chemical_formula_sum   'V12 Ga4 Co1 Ir3 N4'
_cell_volume   287.08375419
_cell_formula_units_Z   1
loop_
 _symmetry_equiv_pos_site_id
 _symmetry_equiv_pos_as_xyz
  1  'x, y, z'
loop_
 _atom_site_type_symbol
 _atom_site_label
 _atom_site_symmetry_multiplicity
 _atom_site_fract_x
 _atom_site_fract_y
 _atom_site_fract_z
 _atom_site_occupancy
  V  V0  1  0.795707  0.957316  0.377901  1
  V  V1  1  0.704940  0.041072  0.878345  1
  V  V2  1  0.205269  0.459635  0.124790  1
  V  V3  1  0.295637  0.541614  0.621505  1
  V  V4  1  0.958928  0.378345  0.795060  1
  V  V5  1  0.042684  0.877901  0.704293  1
  V  V6  1  0.458386  0.121505  0.204363  1
  V  V7  1  0.540365  0.624790  0.294731  1
  V  V8  1  0.375210  0.794731  0.959635  1
  V  V9  1  0.878495  0.704363  0.041614  1
  V  V10  1  0.122099  0.204293  0.457316  1
  V  V11  1  0.621655  0.295060  0.541072  1
  Ga  Ga12  1  0.564629  0.435371  0.935371  1
  Ga  Ga13  1  0.424910  0.930842  0.556356  1
  Ga  Ga14  1  0.943644  0.575090  0.430842  1
  Ga  Ga15  1  0.069158  0.056356  0.075090  1
  Co  Co16  1  0.178440  0.821560  0.321560  1
  Ir  Ir17  1  0.319706  0.178094  0.821122  1
  Ir  Ir18  1  0.821906  0.321122  0.180294  1
  Ir  Ir19  1  0.678878  0.680294  0.678094  1
  N  N20  1  0.872307  0.127693  0.627693  1
  N  N21  1  0.626464  0.872050  0.127366  1
  N  N22  1  0.127950  0.627366  0.873536  1
  N  N23  1  0.372634  0.373536  0.372050  1
