# generated using pymatgen
data_Tb8HfRe10Si16W
_symmetry_space_group_name_H-M   'P 1'
_cell_length_a   6.79126740
_cell_length_b   6.79126684
_cell_length_c   13.03047998
_cell_angle_alpha   90.03870096
_cell_angle_beta   90.03870056
_cell_angle_gamma   89.50007203
_symmetry_Int_Tables_number   1
_chemical_formula_structural   Tb8HfRe10Si16W
_chemical_formula_sum   'Tb8 Hf1 Re10 Si16 W1'
_cell_volume   600.95964672
_cell_formula_units_Z   1
loop_
 _symmetry_equiv_pos_site_id
 _symmetry_equiv_pos_as_xyz
  1  'x, y, z'
loop_
 _atom_site_type_symbol
 _atom_site_label
 _atom_site_symmetry_multiplicity
 _atom_site_fract_x
 _atom_site_fract_y
 _atom_site_fract_z
 _atom_site_occupancy
  Tb  Tb0  1  0.016020  0.321312  0.217025  1
  Tb  Tb1  1  0.986287  0.684309  0.717374  1
  Tb  Tb2  1  0.163500  0.503457  0.470793  1
  Tb  Tb3  1  0.496543  0.836500  0.029207  1
  Tb  Tb4  1  0.836739  0.501515  0.975239  1
  Tb  Tb5  1  0.498485  0.163261  0.524761  1
  Tb  Tb6  1  0.315691  0.013713  0.782626  1
  Tb  Tb7  1  0.678688  0.983980  0.282975  1
  Hf  Hf8  1  0.652700  0.347300  0.750000  1
  Re  Re9  1  0.165363  0.164707  0.000789  1
  Re  Re10  1  0.835293  0.834637  0.499211  1
  Re  Re11  1  0.194437  0.978000  0.368440  1
  Re  Re12  1  0.806923  0.026133  0.866046  1
  Re  Re13  1  0.477305  0.685345  0.632623  1
  Re  Re14  1  0.314655  0.522695  0.867377  1
  Re  Re15  1  0.527507  0.307932  0.132999  1
  Re  Re16  1  0.692068  0.472493  0.367001  1
  Re  Re17  1  0.973867  0.193077  0.633954  1
  Re  Re18  1  0.022000  0.805563  0.131560  1
  Si  Si19  1  0.388131  0.290651  0.317171  1
  Si  Si20  1  0.614584  0.720319  0.819178  1
  Si  Si21  1  0.181359  0.902073  0.560041  1
  Si  Si22  1  0.097927  0.818641  0.939959  1
  Si  Si23  1  0.818371  0.096157  0.059716  1
  Si  Si24  1  0.903843  0.181629  0.440284  1
  Si  Si25  1  0.279681  0.385416  0.680822  1
  Si  Si26  1  0.709349  0.611869  0.182829  1
  Si  Si27  1  0.302827  0.023134  0.185903  1
  Si  Si28  1  0.692887  0.970101  0.681032  1
  Si  Si29  1  0.487278  0.759846  0.441196  1
  Si  Si30  1  0.240154  0.512722  0.058804  1
  Si  Si31  1  0.512295  0.236566  0.945389  1
  Si  Si32  1  0.763434  0.487705  0.554611  1
  Si  Si33  1  0.029899  0.307113  0.818968  1
  Si  Si34  1  0.976866  0.697173  0.314097  1
  W  W35  1  0.347046  0.652954  0.250000  1
