# generated using pymatgen
data_CsHf6SiCl15
_symmetry_space_group_name_H-M   'P 1'
_cell_length_a   10.11059900
_cell_length_b   14.47852800
_cell_length_c   19.21542600
_cell_angle_alpha   90.00000000
_cell_angle_beta   90.00000000
_cell_angle_gamma   90.00000000
_symmetry_Int_Tables_number   1
_chemical_formula_structural   CsHf6SiCl15
_chemical_formula_sum   'Cs4 Hf24 Si4 Cl60'
_cell_volume   2812.88070134
_cell_formula_units_Z   4
loop_
 _symmetry_equiv_pos_site_id
 _symmetry_equiv_pos_as_xyz
  1  'x, y, z'
loop_
 _atom_site_type_symbol
 _atom_site_label
 _atom_site_symmetry_multiplicity
 _atom_site_fract_x
 _atom_site_fract_y
 _atom_site_fract_z
 _atom_site_occupancy
  Cs  Cs0  1  0.828648  0.247996  0.750000  1
  Cs  Cs1  1  0.171352  0.752004  0.250000  1
  Cs  Cs2  1  0.828648  0.752004  0.750000  1
  Cs  Cs3  1  0.171352  0.247996  0.250000  1
  Hf  Hf4  1  0.104123  0.500000  0.750000  1
  Hf  Hf5  1  0.895877  0.500000  0.250000  1
  Hf  Hf6  1  0.082471  0.000000  0.117698  1
  Hf  Hf7  1  0.917529  0.000000  0.882302  1
  Hf  Hf8  1  0.082471  0.000000  0.382302  1
  Hf  Hf9  1  0.917529  0.000000  0.617698  1
  Hf  Hf10  1  0.339737  0.381100  0.660379  1
  Hf  Hf11  1  0.660263  0.618900  0.339621  1
  Hf  Hf12  1  0.339737  0.618900  0.839621  1
  Hf  Hf13  1  0.660263  0.381100  0.339621  1
  Hf  Hf14  1  0.660263  0.381100  0.160379  1
  Hf  Hf15  1  0.339737  0.618900  0.660379  1
  Hf  Hf16  1  0.660263  0.618900  0.160379  1
  Hf  Hf17  1  0.339737  0.381100  0.839621  1
  Hf  Hf18  1  0.579561  0.500000  0.750000  1
  Hf  Hf19  1  0.420439  0.500000  0.250000  1
  Hf  Hf20  1  0.159866  0.118683  0.531209  1
  Hf  Hf21  1  0.840134  0.881317  0.468791  1
  Hf  Hf22  1  0.159866  0.881317  0.968791  1
  Hf  Hf23  1  0.840134  0.118683  0.468791  1
  Hf  Hf24  1  0.840134  0.118683  0.031209  1
  Hf  Hf25  1  0.159866  0.881317  0.531209  1
  Hf  Hf26  1  0.840134  0.881317  0.031209  1
  Hf  Hf27  1  0.159866  0.118683  0.968791  1
  Si  Si28  1  0.000000  0.000000  0.500000  1
  Si  Si29  1  0.000000  0.000000  0.000000  1
  Si  Si30  1  0.342335  0.500000  0.750000  1
  Si  Si31  1  0.657665  0.500000  0.250000  1
  Cl  Cl32  1  0.823915  0.000000  0.750000  1
  Cl  Cl33  1  0.176085  0.000000  0.250000  1
  Cl  Cl34  1  0.841382  0.500000  0.750000  1
  Cl  Cl35  1  0.158618  0.500000  0.250000  1
  Cl  Cl36  1  0.340863  0.500000  0.562113  1
  Cl  Cl37  1  0.659137  0.500000  0.437887  1
  Cl  Cl38  1  0.340863  0.500000  0.937887  1
  Cl  Cl39  1  0.659137  0.500000  0.062113  1
  Cl  Cl40  1  0.000000  0.248873  0.500000  1
  Cl  Cl41  1  0.000000  0.751127  0.500000  1
  Cl  Cl42  1  0.000000  0.751127  0.000000  1
  Cl  Cl43  1  0.000000  0.248873  0.000000  1
  Cl  Cl44  1  0.348354  0.250661  0.750000  1
  Cl  Cl45  1  0.651646  0.749339  0.250000  1
  Cl  Cl46  1  0.348354  0.749339  0.750000  1
  Cl  Cl47  1  0.651646  0.250661  0.250000  1
  Cl  Cl48  1  0.331707  0.249161  0.565321  1
  Cl  Cl49  1  0.668293  0.750839  0.434679  1
  Cl  Cl50  1  0.331707  0.750839  0.934679  1
  Cl  Cl51  1  0.668293  0.249161  0.434679  1
  Cl  Cl52  1  0.668293  0.249161  0.065321  1
  Cl  Cl53  1  0.331707  0.750839  0.565321  1
  Cl  Cl54  1  0.668293  0.750839  0.065321  1
  Cl  Cl55  1  0.331707  0.249161  0.934679  1
  Cl  Cl56  1  0.081053  0.122649  0.657608  1
  Cl  Cl57  1  0.918947  0.877351  0.342392  1
  Cl  Cl58  1  0.081053  0.877351  0.842392  1
  Cl  Cl59  1  0.918947  0.122649  0.342392  1
  Cl  Cl60  1  0.918947  0.122649  0.157608  1
  Cl  Cl61  1  0.081053  0.877351  0.657608  1
  Cl  Cl62  1  0.918947  0.877351  0.157608  1
  Cl  Cl63  1  0.081053  0.122649  0.842392  1
  Cl  Cl64  1  0.086836  0.376760  0.656025  1
  Cl  Cl65  1  0.913164  0.623240  0.343975  1
  Cl  Cl66  1  0.086836  0.623240  0.843975  1
  Cl  Cl67  1  0.913164  0.376760  0.343975  1
  Cl  Cl68  1  0.913164  0.376760  0.156025  1
  Cl  Cl69  1  0.086836  0.623240  0.656025  1
  Cl  Cl70  1  0.913164  0.623240  0.156025  1
  Cl  Cl71  1  0.086836  0.376760  0.843975  1
  Cl  Cl72  1  0.335719  0.000000  0.564707  1
  Cl  Cl73  1  0.664281  0.000000  0.435293  1
  Cl  Cl74  1  0.335719  0.000000  0.935293  1
  Cl  Cl75  1  0.664281  0.000000  0.064707  1
  Cl  Cl76  1  0.594468  0.377014  0.654087  1
  Cl  Cl77  1  0.405532  0.622986  0.345913  1
  Cl  Cl78  1  0.594468  0.622986  0.845913  1
  Cl  Cl79  1  0.405532  0.377014  0.345913  1
  Cl  Cl80  1  0.405532  0.377014  0.154087  1
  Cl  Cl81  1  0.594468  0.622986  0.654087  1
  Cl  Cl82  1  0.405532  0.622986  0.154087  1
  Cl  Cl83  1  0.594468  0.377014  0.845913  1
  Cl  Cl84  1  0.257401  0.123992  0.092823  1
  Cl  Cl85  1  0.742599  0.876008  0.907177  1
  Cl  Cl86  1  0.257401  0.876008  0.407177  1
  Cl  Cl87  1  0.742599  0.123992  0.907177  1
  Cl  Cl88  1  0.742599  0.123992  0.592823  1
  Cl  Cl89  1  0.257401  0.876008  0.092823  1
  Cl  Cl90  1  0.742599  0.876008  0.592823  1
  Cl  Cl91  1  0.257401  0.123992  0.407177  1
