# generated using pymatgen
data_Ce3Y5(Si3Ni)4
_symmetry_space_group_name_H-M   'P 1'
_cell_length_a   8.00713300
_cell_length_b   7.98234594
_cell_length_c   8.29670400
_cell_angle_alpha   90.00000000
_cell_angle_beta   90.00000000
_cell_angle_gamma   120.10276117
_symmetry_Int_Tables_number   1
_chemical_formula_structural   Ce3Y5(Si3Ni)4
_chemical_formula_sum   'Ce3 Y5 Si12 Ni4'
_cell_volume   458.76806200
_cell_formula_units_Z   1
loop_
 _symmetry_equiv_pos_site_id
 _symmetry_equiv_pos_as_xyz
  1  'x, y, z'
loop_
 _atom_site_type_symbol
 _atom_site_label
 _atom_site_symmetry_multiplicity
 _atom_site_fract_x
 _atom_site_fract_y
 _atom_site_fract_z
 _atom_site_occupancy
  Ce  Ce0  1  0.500185  0.000371  0.250000  1
  Ce  Ce1  1  0.999987  0.999975  0.750000  1
  Ce  Ce2  1  0.000005  0.000009  0.250000  1
  Y  Y3  1  0.499873  0.500142  0.750000  1
  Y  Y4  1  0.500088  0.499884  0.250000  1
  Y  Y5  1  0.000269  0.500142  0.750000  1
  Y  Y6  1  0.999795  0.499884  0.250000  1
  Y  Y7  1  0.499853  0.999705  0.750000  1
  Si  Si8  1  0.830020  0.171648  0.999111  1
  Si  Si9  1  0.169982  0.828356  0.999415  1
  Si  Si10  1  0.341628  0.171648  0.999111  1
  Si  Si11  1  0.169982  0.828356  0.500585  1
  Si  Si12  1  0.658375  0.828356  0.999415  1
  Si  Si13  1  0.830020  0.171648  0.500889  1
  Si  Si14  1  0.828552  0.657103  0.999387  1
  Si  Si15  1  0.658375  0.828356  0.500585  1
  Si  Si16  1  0.171437  0.342875  0.999586  1
  Si  Si17  1  0.341628  0.171648  0.500889  1
  Si  Si18  1  0.171437  0.342875  0.500414  1
  Si  Si19  1  0.828552  0.657103  0.500613  1
  Ni  Ni20  1  0.666198  0.332395  0.998285  1
  Ni  Ni21  1  0.333782  0.667565  0.999280  1
  Ni  Ni22  1  0.333782  0.667565  0.500720  1
  Ni  Ni23  1  0.666198  0.332395  0.501715  1
