# generated using pymatgen
data_Cs4Li2TmInP4
_symmetry_space_group_name_H-M   'P 1'
_cell_length_a   9.81921788
_cell_length_b   9.81921587
_cell_length_c   9.81921634
_cell_angle_alpha   140.67562550
_cell_angle_beta   56.70715891
_cell_angle_gamma   140.83656418
_symmetry_Int_Tables_number   1
_chemical_formula_structural   Cs4Li2TmInP4
_chemical_formula_sum   'Cs4 Li2 Tm1 In1 P4'
_cell_volume   375.82146694
_cell_formula_units_Z   1
loop_
 _symmetry_equiv_pos_site_id
 _symmetry_equiv_pos_as_xyz
  1  'x, y, z'
loop_
 _atom_site_type_symbol
 _atom_site_label
 _atom_site_symmetry_multiplicity
 _atom_site_fract_x
 _atom_site_fract_y
 _atom_site_fract_z
 _atom_site_occupancy
  Cs  Cs0  1  0.332191  0.777350  0.100583  1
  Cs  Cs1  1  0.167810  0.268394  0.445159  1
  Cs  Cs2  1  0.823236  0.722651  0.554840  1
  Cs  Cs3  1  0.676765  0.231605  0.899416  1
  Li  Li4  1  0.750000  0.250000  0.500000  1
  Li  Li5  1  0.250000  0.749999  0.500000  1
  Tm  Tm6  1  0.250000  0.250000  0.000000  1
  In  In7  1  0.750000  0.750000  0.000000  1
  P  P8  1  0.916015  0.236771  0.157230  1
  P  P9  1  0.583986  0.741216  0.320756  1
  P  P10  1  0.420460  0.263230  0.679244  1
  P  P11  1  0.079540  0.758784  0.842770  1
