# generated using pymatgen
data_Nd4HgRu
_symmetry_space_group_name_H-M   'P 1'
_cell_length_a   9.89065706
_cell_length_b   9.89065734
_cell_length_c   9.89065700
_cell_angle_alpha   59.99999780
_cell_angle_beta   59.99999685
_cell_angle_gamma   60.00000272
_symmetry_Int_Tables_number   1
_chemical_formula_structural   Nd4HgRu
_chemical_formula_sum   'Nd16 Hg4 Ru4'
_cell_volume   684.16434066
_cell_formula_units_Z   4
loop_
 _symmetry_equiv_pos_site_id
 _symmetry_equiv_pos_as_xyz
  1  'x, y, z'
loop_
 _atom_site_type_symbol
 _atom_site_label
 _atom_site_symmetry_multiplicity
 _atom_site_fract_x
 _atom_site_fract_y
 _atom_site_fract_z
 _atom_site_occupancy
  Nd  Nd0  1  0.347104  0.347104  0.347104  1
  Nd  Nd1  1  0.347104  0.347104  0.958689  1
  Nd  Nd2  1  0.347104  0.958689  0.347104  1
  Nd  Nd3  1  0.958689  0.347104  0.347104  1
  Nd  Nd4  1  0.809431  0.190569  0.190569  1
  Nd  Nd5  1  0.190569  0.809431  0.809431  1
  Nd  Nd6  1  0.190569  0.809431  0.190569  1
  Nd  Nd7  1  0.809431  0.190569  0.809431  1
  Nd  Nd8  1  0.190569  0.190569  0.809431  1
  Nd  Nd9  1  0.809431  0.809431  0.190569  1
  Nd  Nd10  1  0.939029  0.560971  0.560971  1
  Nd  Nd11  1  0.560971  0.939029  0.939029  1
  Nd  Nd12  1  0.560971  0.939029  0.560971  1
  Nd  Nd13  1  0.939029  0.560971  0.939029  1
  Nd  Nd14  1  0.560971  0.560971  0.939029  1
  Nd  Nd15  1  0.939029  0.939029  0.560971  1
  Hg  Hg16  1  0.582825  0.582825  0.582825  1
  Hg  Hg17  1  0.582825  0.582825  0.251524  1
  Hg  Hg18  1  0.582825  0.251524  0.582825  1
  Hg  Hg19  1  0.251524  0.582825  0.582825  1
  Ru  Ru20  1  0.138110  0.138110  0.138110  1
  Ru  Ru21  1  0.138110  0.138110  0.585668  1
  Ru  Ru22  1  0.138110  0.585668  0.138110  1
  Ru  Ru23  1  0.585668  0.138110  0.138110  1
