# generated using pymatgen
data_Y3Sc7(Si5Pt2)4
_symmetry_space_group_name_H-M   'P 1'
_cell_length_a   12.49502455
_cell_length_b   12.49502439
_cell_length_c   4.18545700
_cell_angle_alpha   90.00000000
_cell_angle_beta   90.00000000
_cell_angle_gamma   90.06690229
_symmetry_Int_Tables_number   1
_chemical_formula_structural   Y3Sc7(Si5Pt2)4
_chemical_formula_sum   'Y3 Sc7 Si20 Pt8'
_cell_volume   653.45669241
_cell_formula_units_Z   1
loop_
 _symmetry_equiv_pos_site_id
 _symmetry_equiv_pos_as_xyz
  1  'x, y, z'
loop_
 _atom_site_type_symbol
 _atom_site_label
 _atom_site_symmetry_multiplicity
 _atom_site_fract_x
 _atom_site_fract_y
 _atom_site_fract_z
 _atom_site_occupancy
  Y  Y0  1  0.113609  0.613568  0.500000  1
  Y  Y1  1  0.886432  0.386391  0.500000  1
  Y  Y2  1  0.612984  0.887016  0.500000  1
  Sc  Sc3  1  0.387408  0.112592  0.500000  1
  Sc  Sc4  1  0.673908  0.174887  0.500000  1
  Sc  Sc5  1  0.325113  0.826092  0.500000  1
  Sc  Sc6  1  0.175902  0.324098  0.500000  1
  Sc  Sc7  1  0.824903  0.675097  0.500000  1
  Sc  Sc8  1  0.000540  0.000054  0.000000  1
  Sc  Sc9  1  0.499946  0.499460  0.000000  1
  Si  Si10  1  0.564890  0.066836  0.000000  1
  Si  Si11  1  0.433164  0.935110  0.000000  1
  Si  Si12  1  0.066757  0.433243  0.000000  1
  Si  Si13  1  0.933586  0.566414  0.000000  1
  Si  Si14  1  0.203404  0.165839  0.000000  1
  Si  Si15  1  0.797923  0.833922  0.000000  1
  Si  Si16  1  0.166734  0.798775  0.000000  1
  Si  Si17  1  0.701225  0.333266  0.000000  1
  Si  Si18  1  0.833617  0.202192  0.000000  1
  Si  Si19  1  0.297808  0.666383  0.000000  1
  Si  Si20  1  0.666078  0.702077  0.000000  1
  Si  Si21  1  0.334161  0.296596  0.000000  1
  Si  Si22  1  0.007871  0.147593  0.500000  1
  Si  Si23  1  0.992850  0.852776  0.500000  1
  Si  Si24  1  0.149149  0.994395  0.500000  1
  Si  Si25  1  0.505605  0.350851  0.500000  1
  Si  Si26  1  0.852430  0.007969  0.500000  1
  Si  Si27  1  0.492031  0.647570  0.500000  1
  Si  Si28  1  0.647224  0.507150  0.500000  1
  Si  Si29  1  0.352407  0.492129  0.500000  1
  Pt  Pt30  1  0.022072  0.241260  0.000000  1
  Pt  Pt31  1  0.978690  0.758683  0.000000  1
  Pt  Pt32  1  0.243400  0.979825  0.000000  1
  Pt  Pt33  1  0.520175  0.256600  0.000000  1
  Pt  Pt34  1  0.757769  0.021824  0.000000  1
  Pt  Pt35  1  0.478176  0.742231  0.000000  1
  Pt  Pt36  1  0.741317  0.521310  0.000000  1
  Pt  Pt37  1  0.258740  0.477928  0.000000  1
