# generated using pymatgen
data_Ti8ReTc4Rh3
_symmetry_space_group_name_H-M   'P 1'
_cell_length_a   6.19248500
_cell_length_b   4.40078800
_cell_length_c   8.79455100
_cell_angle_alpha   90.00000000
_cell_angle_beta   89.99952490
_cell_angle_gamma   90.00000000
_symmetry_Int_Tables_number   1
_chemical_formula_structural   Ti8ReTc4Rh3
_chemical_formula_sum   'Ti8 Re1 Tc4 Rh3'
_cell_volume   239.66746523
_cell_formula_units_Z   1
loop_
 _symmetry_equiv_pos_site_id
 _symmetry_equiv_pos_as_xyz
  1  'x, y, z'
loop_
 _atom_site_type_symbol
 _atom_site_label
 _atom_site_symmetry_multiplicity
 _atom_site_fract_x
 _atom_site_fract_y
 _atom_site_fract_z
 _atom_site_occupancy
  Ti  Ti0  1  0.003093  0.750000  0.125000  1
  Ti  Ti1  1  0.496998  0.750000  0.125007  1
  Ti  Ti2  1  0.001670  0.249999  0.372882  1
  Ti  Ti3  1  0.498403  0.249999  0.372892  1
  Ti  Ti4  1  0.499549  0.750000  0.624997  1
  Ti  Ti5  1  0.000384  0.750000  0.625010  1
  Ti  Ti6  1  0.498321  0.249999  0.877101  1
  Ti  Ti7  1  0.001583  0.249999  0.877113  1
  Re  Re8  1  0.250043  0.249999  0.124988  1
  Tc  Tc9  1  0.750029  0.249999  0.124998  1
  Tc  Tc10  1  0.250027  0.750000  0.377442  1
  Tc  Tc11  1  0.749976  0.249999  0.624997  1
  Tc  Tc12  1  0.249959  0.750000  0.872560  1
  Rh  Rh13  1  0.750023  0.750000  0.375909  1
  Rh  Rh14  1  0.249982  0.249999  0.624989  1
  Rh  Rh15  1  0.749956  0.750000  0.874114  1
