# generated using pymatgen
data_Sm3Mg2ZrIr3
_symmetry_space_group_name_H-M   'P 1'
_cell_length_a   7.48207100
_cell_length_b   7.48207119
_cell_length_c   4.28848100
_cell_angle_alpha   90.00000000
_cell_angle_beta   90.00000000
_cell_angle_gamma   121.19200599
_symmetry_Int_Tables_number   1
_chemical_formula_structural   Sm3Mg2ZrIr3
_chemical_formula_sum   'Sm3 Mg2 Zr1 Ir3'
_cell_volume   205.36902557
_cell_formula_units_Z   1
loop_
 _symmetry_equiv_pos_site_id
 _symmetry_equiv_pos_as_xyz
  1  'x, y, z'
loop_
 _atom_site_type_symbol
 _atom_site_label
 _atom_site_symmetry_multiplicity
 _atom_site_fract_x
 _atom_site_fract_y
 _atom_site_fract_z
 _atom_site_occupancy
  Sm  Sm0  1  0.398886  0.398886  0.500000  1
  Sm  Sm1  1  0.586556  0.006218  0.500000  1
  Sm  Sm2  1  0.006218  0.586556  0.500000  1
  Mg  Mg3  1  0.246152  0.999853  0.000000  1
  Mg  Mg4  1  0.999853  0.246152  0.000000  1
  Zr  Zr5  1  0.753144  0.753144  0.000000  1
  Ir  Ir6  1  0.677483  0.356785  0.000000  1
  Ir  Ir7  1  0.356785  0.677483  0.000000  1
  Ir  Ir8  1  0.974922  0.974922  0.500000  1
