# generated using pymatgen
data_BaNd6IrI12
_symmetry_space_group_name_H-M   'P 1'
_cell_length_a   10.09710400
_cell_length_b   10.09710286
_cell_length_c   10.09710200
_cell_angle_alpha   105.78068931
_cell_angle_beta   105.78069336
_cell_angle_gamma   105.78068366
_symmetry_Int_Tables_number   1
_chemical_formula_structural   BaNd6IrI12
_chemical_formula_sum   'Ba1 Nd6 Ir1 I12'
_cell_volume   884.27391222
_cell_formula_units_Z   1
loop_
 _symmetry_equiv_pos_site_id
 _symmetry_equiv_pos_as_xyz
  1  'x, y, z'
loop_
 _atom_site_type_symbol
 _atom_site_label
 _atom_site_symmetry_multiplicity
 _atom_site_fract_x
 _atom_site_fract_y
 _atom_site_fract_z
 _atom_site_occupancy
  Ba  Ba0  1  0.500000  0.500000  0.500000  1
  Nd  Nd1  1  0.908117  0.703335  0.984893  1
  Nd  Nd2  1  0.984893  0.908117  0.703335  1
  Nd  Nd3  1  0.703335  0.984893  0.908117  1
  Nd  Nd4  1  0.091883  0.296665  0.015107  1
  Nd  Nd5  1  0.015107  0.091883  0.296665  1
  Nd  Nd6  1  0.296665  0.015107  0.091883  1
  Ir  Ir7  1  0.000000  0.000000  0.000000  1
  I  I8  1  0.639673  0.871625  0.556724  1
  I  I9  1  0.556724  0.639673  0.871625  1
  I  I10  1  0.871625  0.556724  0.639673  1
  I  I11  1  0.360327  0.128375  0.443276  1
  I  I12  1  0.443276  0.360327  0.128375  1
  I  I13  1  0.128375  0.443276  0.360327  1
  I  I14  1  0.676477  0.074528  0.224548  1
  I  I15  1  0.224548  0.676477  0.074528  1
  I  I16  1  0.074528  0.224548  0.676477  1
  I  I17  1  0.323523  0.925472  0.775452  1
  I  I18  1  0.775452  0.323523  0.925472  1
  I  I19  1  0.925472  0.775452  0.323523  1
