# generated using pymatgen
data_TbSm(Co3Si2)2
_symmetry_space_group_name_H-M   'P 1'
_cell_length_a   6.29116436
_cell_length_b   6.29116407
_cell_length_c   6.29116478
_cell_angle_alpha   130.46993677
_cell_angle_beta   113.59191591
_cell_angle_gamma   87.17595977
_symmetry_Int_Tables_number   1
_chemical_formula_structural   TbSm(Co3Si2)2
_chemical_formula_sum   'Tb1 Sm1 Co6 Si4'
_cell_volume   165.48964903
_cell_formula_units_Z   1
loop_
 _symmetry_equiv_pos_site_id
 _symmetry_equiv_pos_as_xyz
  1  'x, y, z'
loop_
 _atom_site_type_symbol
 _atom_site_label
 _atom_site_symmetry_multiplicity
 _atom_site_fract_x
 _atom_site_fract_y
 _atom_site_fract_z
 _atom_site_occupancy
  Tb  Tb0  1  0.750000  0.466475  0.716475  1
  Sm  Sm1  1  0.250000  0.529544  0.279544  1
  Co  Co2  1  0.001826  0.000813  0.502639  1
  Co  Co3  1  0.498174  0.000813  0.998987  1
  Co  Co4  1  0.723930  0.001579  0.723868  1
  Co  Co5  1  0.222289  0.499938  0.723868  1
  Co  Co6  1  0.277711  0.001579  0.277650  1
  Co  Co7  1  0.776070  0.499938  0.277650  1
  Si  Si8  1  0.078575  0.872601  0.794026  1
  Si  Si9  1  0.917281  0.122915  0.205634  1
  Si  Si10  1  0.582719  0.788355  0.205634  1
  Si  Si11  1  0.421425  0.215449  0.794026  1
