# generated using pymatgen
data_Pr4Y11Tm5Bi12
_symmetry_space_group_name_H-M   'P 1'
_cell_length_a   8.31381284
_cell_length_b   9.53737105
_cell_length_c   12.16129400
_cell_angle_alpha   90.00486608
_cell_angle_beta   90.04733866
_cell_angle_gamma   89.99628334
_symmetry_Int_Tables_number   1
_chemical_formula_structural   Pr4Y11Tm5Bi12
_chemical_formula_sum   'Pr4 Y11 Tm5 Bi12'
_cell_volume   964.29199089
_cell_formula_units_Z   1
loop_
 _symmetry_equiv_pos_site_id
 _symmetry_equiv_pos_as_xyz
  1  'x, y, z'
loop_
 _atom_site_type_symbol
 _atom_site_label
 _atom_site_symmetry_multiplicity
 _atom_site_fract_x
 _atom_site_fract_y
 _atom_site_fract_z
 _atom_site_occupancy
  Pr  Pr0  1  0.183245  0.749966  0.720779  1
  Pr  Pr1  1  0.683399  0.750214  0.779446  1
  Pr  Pr2  1  0.816859  0.250246  0.279253  1
  Pr  Pr3  1  0.316753  0.250388  0.220190  1
  Y  Y4  1  0.807258  0.062367  0.560789  1
  Y  Y5  1  0.691810  0.937176  0.059982  1
  Y  Y6  1  0.192831  0.562264  0.439437  1
  Y  Y7  1  0.692834  0.561999  0.060475  1
  Y  Y8  1  0.192692  0.937898  0.439255  1
  Y  Y9  1  0.307354  0.061836  0.939739  1
  Y  Y10  1  0.807233  0.438031  0.560724  1
  Y  Y11  1  0.353640  0.750632  0.216995  1
  Y  Y12  1  0.853177  0.750405  0.282754  1
  Y  Y13  1  0.646001  0.250676  0.783070  1
  Y  Y14  1  0.147625  0.250986  0.717695  1
  Tm  Tm15  1  0.024241  0.750041  0.988038  1
  Tm  Tm16  1  0.524272  0.750207  0.512182  1
  Tm  Tm17  1  0.976600  0.250527  0.011865  1
  Tm  Tm18  1  0.475832  0.250254  0.488008  1
  Tm  Tm19  1  0.306985  0.434277  0.939594  1
  Bi  Bi20  1  0.433747  0.008744  0.670016  1
  Bi  Bi21  1  0.934446  0.491842  0.830234  1
  Bi  Bi22  1  0.566078  0.508777  0.329983  1
  Bi  Bi23  1  0.066120  0.991713  0.169838  1
  Bi  Bi24  1  0.566219  0.991859  0.330144  1
  Bi  Bi25  1  0.066227  0.508868  0.169708  1
  Bi  Bi26  1  0.433557  0.491870  0.670008  1
  Bi  Bi27  1  0.933918  0.008965  0.830191  1
  Bi  Bi28  1  0.404988  0.746610  0.962743  1
  Bi  Bi29  1  0.906462  0.750169  0.536597  1
  Bi  Bi30  1  0.593921  0.250149  0.036659  1
  Bi  Bi31  1  0.093677  0.250045  0.463609  1
