# generated using pymatgen
data_Tb3EuAl17CuPd6
_symmetry_space_group_name_H-M   'P 1'
_cell_length_a   7.63390970
_cell_length_b   7.63644020
_cell_length_c   9.50631600
_cell_angle_alpha   90.00000000
_cell_angle_beta   90.00000000
_cell_angle_gamma   119.06949435
_symmetry_Int_Tables_number   1
_chemical_formula_structural   Tb3EuAl17CuPd6
_chemical_formula_sum   'Tb3 Eu1 Al17 Cu1 Pd6'
_cell_volume   484.36981901
_cell_formula_units_Z   1
loop_
 _symmetry_equiv_pos_site_id
 _symmetry_equiv_pos_as_xyz
  1  'x, y, z'
loop_
 _atom_site_type_symbol
 _atom_site_label
 _atom_site_symmetry_multiplicity
 _atom_site_fract_x
 _atom_site_fract_y
 _atom_site_fract_z
 _atom_site_occupancy
  Tb  Tb0  1  0.992085  0.670225  0.250000  1
  Tb  Tb1  1  0.670784  0.992099  0.250000  1
  Tb  Tb2  1  0.328801  0.005532  0.750000  1
  Eu  Eu3  1  0.005608  0.329229  0.750000  1
  Al  Al4  1  0.866678  0.865976  0.750000  1
  Al  Al5  1  0.004302  0.327298  0.083671  1
  Al  Al6  1  0.999508  0.664183  0.924075  1
  Al  Al7  1  0.999508  0.664183  0.575925  1
  Al  Al8  1  0.327209  0.004102  0.416337  1
  Al  Al9  1  0.004302  0.327298  0.416329  1
  Al  Al10  1  0.663649  0.999354  0.575954  1
  Al  Al11  1  0.663649  0.999354  0.924046  1
  Al  Al12  1  0.327209  0.004102  0.083663  1
  Al  Al13  1  0.333454  0.333231  0.550342  1
  Al  Al14  1  0.666556  0.666491  0.442694  1
  Al  Al15  1  0.666556  0.666491  0.057306  1
  Al  Al16  1  0.333454  0.333231  0.949658  1
  Al  Al17  1  0.337655  0.542738  0.250000  1
  Al  Al18  1  0.659148  0.451552  0.750000  1
  Al  Al19  1  0.542380  0.337610  0.250000  1
  Al  Al20  1  0.452328  0.660694  0.750000  1
  Cu  Cu21  1  0.155324  0.155250  0.250000  1
  Pd  Pd22  1  0.674012  0.328048  0.001456  1
  Pd  Pd23  1  0.328838  0.675682  0.001306  1
  Pd  Pd24  1  0.328838  0.675682  0.498694  1
  Pd  Pd25  1  0.674012  0.328048  0.498544  1
  Pd  Pd26  1  0.997074  0.996159  0.994785  1
  Pd  Pd27  1  0.997074  0.996159  0.505215  1
