# generated using pymatgen
data_Tm4ScBi3S
_symmetry_space_group_name_H-M   'P 1'
_cell_length_a   8.94819300
_cell_length_b   8.94819422
_cell_length_c   6.53730400
_cell_angle_alpha   90.00000000
_cell_angle_beta   90.00000000
_cell_angle_gamma   120.00000658
_symmetry_Int_Tables_number   1
_chemical_formula_structural   Tm4ScBi3S
_chemical_formula_sum   'Tm8 Sc2 Bi6 S2'
_cell_volume   453.31493603
_cell_formula_units_Z   2
loop_
 _symmetry_equiv_pos_site_id
 _symmetry_equiv_pos_as_xyz
  1  'x, y, z'
loop_
 _atom_site_type_symbol
 _atom_site_label
 _atom_site_symmetry_multiplicity
 _atom_site_fract_x
 _atom_site_fract_y
 _atom_site_fract_z
 _atom_site_occupancy
  Tm  Tm0  1  0.666667  0.333333  0.000000  1
  Tm  Tm1  1  0.333333  0.666667  0.000000  1
  Tm  Tm2  1  0.752077  0.752077  0.749196  1
  Tm  Tm3  1  0.247923  0.000000  0.749196  1
  Tm  Tm4  1  0.000000  0.247923  0.749196  1
  Tm  Tm5  1  0.247923  0.247923  0.250804  1
  Tm  Tm6  1  0.752077  0.000000  0.250804  1
  Tm  Tm7  1  0.000000  0.752077  0.250804  1
  Sc  Sc8  1  0.333333  0.666667  0.500000  1
  Sc  Sc9  1  0.666667  0.333333  0.500000  1
  Bi  Bi10  1  0.398818  0.398818  0.744293  1
  Bi  Bi11  1  0.601182  0.000000  0.744293  1
  Bi  Bi12  1  0.000000  0.601182  0.744293  1
  Bi  Bi13  1  0.601182  0.601182  0.255707  1
  Bi  Bi14  1  0.398818  0.000000  0.255707  1
  Bi  Bi15  1  0.000000  0.398818  0.255707  1
  S  S16  1  0.000000  0.000000  0.000000  1
  S  S17  1  0.000000  0.000000  0.500000  1
