# generated using pymatgen
data_Sn14IrOs2Ru2Rh
_symmetry_space_group_name_H-M   'P 1'
_cell_length_a   9.48600059
_cell_length_b   8.23238257
_cell_length_c   8.23016818
_cell_angle_alpha   70.58124266
_cell_angle_beta   54.80588777
_cell_angle_gamma   54.78420006
_symmetry_Int_Tables_number   1
_chemical_formula_structural   Sn14IrOs2Ru2Rh
_chemical_formula_sum   'Sn14 Ir1 Os2 Ru2 Rh1'
_cell_volume   429.10395205
_cell_formula_units_Z   1
loop_
 _symmetry_equiv_pos_site_id
 _symmetry_equiv_pos_as_xyz
  1  'x, y, z'
loop_
 _atom_site_type_symbol
 _atom_site_label
 _atom_site_symmetry_multiplicity
 _atom_site_fract_x
 _atom_site_fract_y
 _atom_site_fract_z
 _atom_site_occupancy
  Sn  Sn0  1  0.675174  0.324888  0.000640  1
  Sn  Sn1  1  0.000153  0.002478  0.323807  1
  Sn  Sn2  1  0.324968  0.002155  0.676065  1
  Sn  Sn3  1  0.997711  0.674683  0.000568  1
  Sn  Sn4  1  0.326692  0.676203  0.000583  1
  Sn  Sn5  1  0.997646  0.002369  0.674851  1
  Sn  Sn6  1  0.673288  0.002689  0.324898  1
  Sn  Sn7  1  0.000099  0.323866  0.000698  1
  Sn  Sn8  1  0.252492  0.495228  0.500124  1
  Sn  Sn9  1  0.502658  0.247169  0.747722  1
  Sn  Sn10  1  0.749446  0.748060  0.753358  1
  Sn  Sn11  1  0.502610  0.748273  0.247010  1
  Sn  Sn12  1  0.751515  0.495296  0.499739  1
  Sn  Sn13  1  0.251365  0.245960  0.251406  1
  Ir  Ir14  1  0.341225  0.658810  0.657934  1
  Os  Os15  1  0.655968  0.000365  0.999504  1
  Os  Os16  1  0.999792  0.346289  0.653496  1
  Ru  Ru17  1  0.653146  0.346964  0.346118  1
  Ru  Ru18  1  0.344389  0.000393  0.999460  1
  Rh  Rh19  1  0.999660  0.657861  0.342018  1
