# generated using pymatgen
data_Tb3Pr17Si15Bi
_symmetry_space_group_name_H-M   'P 1'
_cell_length_a   7.94104733
_cell_length_b   7.91964353
_cell_length_c   15.31945900
_cell_angle_alpha   90.16479088
_cell_angle_beta   89.70489220
_cell_angle_gamma   89.78970809
_symmetry_Int_Tables_number   1
_chemical_formula_structural   Tb3Pr17Si15Bi
_chemical_formula_sum   'Tb3 Pr17 Si15 Bi1'
_cell_volume   963.42151693
_cell_formula_units_Z   1
loop_
 _symmetry_equiv_pos_site_id
 _symmetry_equiv_pos_as_xyz
  1  'x, y, z'
loop_
 _atom_site_type_symbol
 _atom_site_label
 _atom_site_symmetry_multiplicity
 _atom_site_fract_x
 _atom_site_fract_y
 _atom_site_fract_z
 _atom_site_occupancy
  Tb  Tb0  1  0.310866  0.309637  0.000943  1
  Tb  Tb1  1  0.190086  0.811080  0.249255  1
  Tb  Tb2  1  0.796740  0.188461  0.753803  1
  Pr  Pr3  1  0.687207  0.694185  0.494482  1
  Pr  Pr4  1  0.376902  0.013748  0.446973  1
  Pr  Pr5  1  0.497151  0.871503  0.697435  1
  Pr  Pr6  1  0.510040  0.121524  0.195983  1
  Pr  Pr7  1  0.878238  0.487970  0.300494  1
  Pr  Pr8  1  0.120267  0.517137  0.809159  1
  Pr  Pr9  1  0.624490  0.985110  0.949306  1
  Pr  Pr10  1  0.001045  0.386823  0.544641  1
  Pr  Pr11  1  0.988452  0.620017  0.055537  1
  Pr  Pr12  1  0.130232  0.980116  0.880906  1
  Pr  Pr13  1  0.520677  0.626397  0.127683  1
  Pr  Pr14  1  0.490402  0.385649  0.627699  1
  Pr  Pr15  1  0.628948  0.523549  0.876419  1
  Pr  Pr16  1  0.374023  0.478849  0.370701  1
  Pr  Pr17  1  0.872965  0.022065  0.376617  1
  Pr  Pr18  1  0.979675  0.127050  0.123616  1
  Pr  Pr19  1  0.007177  0.853552  0.619150  1
  Si  Si20  1  0.327611  0.689663  0.957393  1
  Si  Si21  1  0.666448  0.306284  0.453426  1
  Si  Si22  1  0.693153  0.328796  0.046667  1
  Si  Si23  1  0.305987  0.671739  0.543719  1
  Si  Si24  1  0.808835  0.829702  0.204408  1
  Si  Si25  1  0.169654  0.191959  0.295046  1
  Si  Si26  1  0.835159  0.808546  0.797041  1
  Si  Si27  1  0.286206  0.921701  0.063567  1
  Si  Si28  1  0.574251  0.791060  0.308342  1
  Si  Si29  1  0.441114  0.211387  0.821587  1
  Si  Si30  1  0.791417  0.572053  0.692623  1
  Si  Si31  1  0.212692  0.421932  0.187815  1
  Si  Si32  1  0.708643  0.081402  0.563323  1
  Si  Si33  1  0.925381  0.287149  0.939108  1
  Si  Si34  1  0.081829  0.715616  0.434008  1
  Bi  Bi35  1  0.186040  0.166594  0.691133  1
