# generated using pymatgen
data_Dy2Y6Er8MgCd3Pt4
_symmetry_space_group_name_H-M   'P 1'
_cell_length_a   9.65309451
_cell_length_b   9.65309365
_cell_length_c   9.65302000
_cell_angle_alpha   60.00024552
_cell_angle_beta   60.00024847
_cell_angle_gamma   60.01344148
_symmetry_Int_Tables_number   1
_chemical_formula_structural   Dy2Y6Er8MgCd3Pt4
_chemical_formula_sum   'Dy2 Y6 Er8 Mg1 Cd3 Pt4'
_cell_volume   636.10235774
_cell_formula_units_Z   1
loop_
 _symmetry_equiv_pos_site_id
 _symmetry_equiv_pos_as_xyz
  1  'x, y, z'
loop_
 _atom_site_type_symbol
 _atom_site_label
 _atom_site_symmetry_multiplicity
 _atom_site_fract_x
 _atom_site_fract_y
 _atom_site_fract_z
 _atom_site_occupancy
  Dy  Dy0  1  0.350971  0.350971  0.350918  1
  Dy  Dy1  1  0.353038  0.353038  0.942868  1
  Y  Y2  1  0.936839  0.564794  0.564605  1
  Y  Y3  1  0.562750  0.936898  0.936931  1
  Y  Y4  1  0.564794  0.936839  0.564605  1
  Y  Y5  1  0.936898  0.562750  0.936931  1
  Y  Y6  1  0.565000  0.565000  0.936271  1
  Y  Y7  1  0.937302  0.937302  0.562342  1
  Er  Er8  1  0.352937  0.943541  0.352682  1
  Er  Er9  1  0.943541  0.352937  0.352682  1
  Er  Er10  1  0.811120  0.189556  0.189605  1
  Er  Er11  1  0.187159  0.812822  0.812486  1
  Er  Er12  1  0.189556  0.811120  0.189605  1
  Er  Er13  1  0.812822  0.187159  0.812486  1
  Er  Er14  1  0.189193  0.189193  0.811513  1
  Er  Er15  1  0.812270  0.812270  0.187442  1
  Mg  Mg16  1  0.577555  0.577555  0.576880  1
  Cd  Cd17  1  0.581836  0.581836  0.254850  1
  Cd  Cd18  1  0.582023  0.254578  0.581758  1
  Cd  Cd19  1  0.254578  0.582023  0.581758  1
  Pt  Pt20  1  0.143066  0.143066  0.144751  1
  Pt  Pt21  1  0.141886  0.141886  0.570636  1
  Pt  Pt22  1  0.141082  0.571788  0.142697  1
  Pt  Pt23  1  0.571788  0.141082  0.142697  1
