# generated using pymatgen
data_Cs3TcO5
_symmetry_space_group_name_H-M   'P 1'
_cell_length_a   8.89163200
_cell_length_b   9.27841700
_cell_length_c   9.76808900
_cell_angle_alpha   90.00000000
_cell_angle_beta   90.00000000
_cell_angle_gamma   90.00000000
_symmetry_Int_Tables_number   1
_chemical_formula_structural   Cs3TcO5
_chemical_formula_sum   'Cs12 Tc4 O20'
_cell_volume   805.86997506
_cell_formula_units_Z   4
loop_
 _symmetry_equiv_pos_site_id
 _symmetry_equiv_pos_as_xyz
  1  'x, y, z'
loop_
 _atom_site_type_symbol
 _atom_site_label
 _atom_site_symmetry_multiplicity
 _atom_site_fract_x
 _atom_site_fract_y
 _atom_site_fract_z
 _atom_site_occupancy
  Cs  Cs0  1  0.250000  0.000000  0.483340  1
  Cs  Cs1  1  0.750000  0.000000  0.516660  1
  Cs  Cs2  1  0.250000  0.500000  0.016660  1
  Cs  Cs3  1  0.750000  0.500000  0.983340  1
  Cs  Cs4  1  0.250000  0.000000  0.017990  1
  Cs  Cs5  1  0.750000  0.000000  0.982010  1
  Cs  Cs6  1  0.250000  0.500000  0.482010  1
  Cs  Cs7  1  0.750000  0.500000  0.517990  1
  Cs  Cs8  1  0.548032  0.250000  0.250000  1
  Cs  Cs9  1  0.451968  0.750000  0.750000  1
  Cs  Cs10  1  0.951968  0.750000  0.250000  1
  Cs  Cs11  1  0.048032  0.250000  0.750000  1
  Tc  Tc12  1  0.009402  0.250000  0.250000  1
  Tc  Tc13  1  0.990598  0.750000  0.750000  1
  Tc  Tc14  1  0.490598  0.750000  0.250000  1
  Tc  Tc15  1  0.509402  0.250000  0.750000  1
  O  O16  1  0.212028  0.250000  0.250000  1
  O  O17  1  0.787972  0.750000  0.750000  1
  O  O18  1  0.287972  0.750000  0.250000  1
  O  O19  1  0.712028  0.250000  0.750000  1
  O  O20  1  0.577649  0.571901  0.251243  1
  O  O21  1  0.422351  0.428099  0.748757  1
  O  O22  1  0.922351  0.428099  0.251243  1
  O  O23  1  0.922351  0.071901  0.248757  1
  O  O24  1  0.077649  0.571901  0.748757  1
  O  O25  1  0.077649  0.928099  0.751243  1
  O  O26  1  0.577649  0.928099  0.248757  1
  O  O27  1  0.422351  0.071901  0.751243  1
  O  O28  1  0.490817  0.248567  0.558766  1
  O  O29  1  0.509183  0.751433  0.441234  1
  O  O30  1  0.009183  0.751433  0.558766  1
  O  O31  1  0.009183  0.748567  0.941234  1
  O  O32  1  0.990817  0.248567  0.441234  1
  O  O33  1  0.990817  0.251433  0.058766  1
  O  O34  1  0.490817  0.251433  0.941234  1
  O  O35  1  0.509183  0.748567  0.058766  1
