# generated using pymatgen
data_Ca4TbY3(BO4)4
_symmetry_space_group_name_H-M   'P 1'
_cell_length_a   10.52280108
_cell_length_b   9.73650007
_cell_length_c   3.61920300
_cell_angle_alpha   90.00000000
_cell_angle_beta   90.00000000
_cell_angle_gamma   89.98631867
_symmetry_Int_Tables_number   1
_chemical_formula_structural   Ca4TbY3(BO4)4
_chemical_formula_sum   'Ca4 Tb1 Y3 B4 O16'
_cell_volume   370.80634989
_cell_formula_units_Z   1
loop_
 _symmetry_equiv_pos_site_id
 _symmetry_equiv_pos_as_xyz
  1  'x, y, z'
loop_
 _atom_site_type_symbol
 _atom_site_label
 _atom_site_symmetry_multiplicity
 _atom_site_fract_x
 _atom_site_fract_y
 _atom_site_fract_z
 _atom_site_occupancy
  Ca  Ca0  1  0.083153  0.673591  0.249999  1
  Ca  Ca1  1  0.583061  0.826863  0.249999  1
  Ca  Ca2  1  0.417194  0.173090  0.750000  1
  Ca  Ca3  1  0.916619  0.327115  0.750000  1
  Tb  Tb4  1  0.113222  0.087588  0.249999  1
  Y  Y5  1  0.613119  0.413300  0.249999  1
  Y  Y6  1  0.386624  0.586748  0.750000  1
  Y  Y7  1  0.886220  0.913171  0.750000  1
  B  B8  1  0.698155  0.132194  0.249999  1
  B  B9  1  0.198772  0.367749  0.249999  1
  B  B10  1  0.801864  0.631806  0.750000  1
  B  B11  1  0.301983  0.868006  0.750000  1
  O  O12  1  0.566327  0.151564  0.249999  1
  O  O13  1  0.276898  0.251433  0.249999  1
  O  O14  1  0.775423  0.249247  0.249999  1
  O  O15  1  0.066959  0.346970  0.249999  1
  O  O16  1  0.247909  0.499993  0.249999  1
  O  O17  1  0.505063  0.613298  0.249999  1
  O  O18  1  0.004663  0.886711  0.249999  1
  O  O19  1  0.748226  0.000334  0.249999  1
  O  O20  1  0.251718  0.999745  0.750000  1
  O  O21  1  0.993777  0.113222  0.750000  1
  O  O22  1  0.494740  0.386911  0.750000  1
  O  O23  1  0.751395  0.500067  0.750000  1
  O  O24  1  0.933784  0.650702  0.750000  1
  O  O25  1  0.224645  0.751010  0.750000  1
  O  O26  1  0.724656  0.748948  0.750000  1
  O  O27  1  0.433831  0.848623  0.750000  1
