# generated using pymatgen
data_CsRb3(Co3Se4)2
_symmetry_space_group_name_H-M   'P 1'
_cell_length_a   6.00967000
_cell_length_b   6.00966873
_cell_length_c   15.53970800
_cell_angle_alpha   90.00000000
_cell_angle_beta   90.00000000
_cell_angle_gamma   119.99999598
_symmetry_Int_Tables_number   1
_chemical_formula_structural   CsRb3(Co3Se4)2
_chemical_formula_sum   'Cs1 Rb3 Co6 Se8'
_cell_volume   486.04296470
_cell_formula_units_Z   1
loop_
 _symmetry_equiv_pos_site_id
 _symmetry_equiv_pos_as_xyz
  1  'x, y, z'
loop_
 _atom_site_type_symbol
 _atom_site_label
 _atom_site_symmetry_multiplicity
 _atom_site_fract_x
 _atom_site_fract_y
 _atom_site_fract_z
 _atom_site_occupancy
  Cs  Cs0  1  0.333333  0.666667  0.593631  1
  Rb  Rb1  1  0.333333  0.666667  0.896896  1
  Rb  Rb2  1  0.666667  0.333333  0.394375  1
  Rb  Rb3  1  0.666667  0.333333  0.102345  1
  Co  Co4  1  0.166216  0.833784  0.248458  1
  Co  Co5  1  0.833532  0.667064  0.753207  1
  Co  Co6  1  0.833532  0.166468  0.753207  1
  Co  Co7  1  0.166216  0.332433  0.248458  1
  Co  Co8  1  0.332936  0.166468  0.753207  1
  Co  Co9  1  0.667567  0.833784  0.248458  1
  Se  Se10  1  0.333333  0.666667  0.349711  1
  Se  Se11  1  0.666667  0.333333  0.855000  1
  Se  Se12  1  0.666667  0.333333  0.651924  1
  Se  Se13  1  0.333333  0.666667  0.146972  1
  Se  Se14  1  0.000000  0.000000  0.652520  1
  Se  Se15  1  0.000000  0.000000  0.147309  1
  Se  Se16  1  0.000000  0.000000  0.854366  1
  Se  Se17  1  0.000000  0.000000  0.349958  1
