# generated using pymatgen
data_NdMnSe2F
_symmetry_space_group_name_H-M   'P 1'
_cell_length_a   3.95755400
_cell_length_b   3.95755400
_cell_length_c   13.44909000
_cell_angle_alpha   90.00000000
_cell_angle_beta   90.00000000
_cell_angle_gamma   90.00000000
_symmetry_Int_Tables_number   1
_chemical_formula_structural   NdMnSe2F
_chemical_formula_sum   'Nd2 Mn2 Se4 F2'
_cell_volume   210.64279013
_cell_formula_units_Z   2
loop_
 _symmetry_equiv_pos_site_id
 _symmetry_equiv_pos_as_xyz
  1  'x, y, z'
loop_
 _atom_site_type_symbol
 _atom_site_label
 _atom_site_symmetry_multiplicity
 _atom_site_fract_x
 _atom_site_fract_y
 _atom_site_fract_z
 _atom_site_occupancy
  Nd  Nd0  1  0.000000  0.500001  0.378598  1
  Nd  Nd1  1  0.500001  0.000000  0.621402  1
  Mn  Mn2  1  0.500001  0.000000  0.093790  1
  Mn  Mn3  1  0.000000  0.500001  0.906210  1
  Se  Se4  1  0.000000  0.500001  0.109382  1
  Se  Se5  1  0.500001  0.000000  0.300421  1
  Se  Se6  1  0.000000  0.500001  0.699579  1
  Se  Se7  1  0.500001  0.000000  0.890618  1
  F  F8  1  0.000000  0.000000  0.500000  1
  F  F9  1  0.500001  0.500001  0.500000  1
