# generated using pymatgen
data_EuHoErSbO7
_symmetry_space_group_name_H-M   'P 1'
_cell_length_a   6.47718198
_cell_length_b   6.47718129
_cell_length_c   7.55154700
_cell_angle_alpha   90.00000000
_cell_angle_beta   90.00000000
_cell_angle_gamma   108.72633336
_symmetry_Int_Tables_number   1
_chemical_formula_structural   EuHoErSbO7
_chemical_formula_sum   'Eu2 Ho2 Er2 Sb2 O14'
_cell_volume   300.04532895
_cell_formula_units_Z   2
loop_
 _symmetry_equiv_pos_site_id
 _symmetry_equiv_pos_as_xyz
  1  'x, y, z'
loop_
 _atom_site_type_symbol
 _atom_site_label
 _atom_site_symmetry_multiplicity
 _atom_site_fract_x
 _atom_site_fract_y
 _atom_site_fract_z
 _atom_site_occupancy
  Eu  Eu0  1  0.499486  0.499486  0.500000  1
  Eu  Eu1  1  0.499486  0.499486  0.000000  1
  Ho  Ho2  1  0.531570  0.000371  0.750000  1
  Ho  Ho3  1  0.000371  0.531570  0.250000  1
  Er  Er4  1  0.468930  0.999184  0.250000  1
  Er  Er5  1  0.999184  0.468930  0.750000  1
  Sb  Sb6  1  0.000150  0.000150  0.500000  1
  Sb  Sb7  1  0.000150  0.000150  0.000000  1
  O  O8  1  0.679406  0.933859  0.468589  1
  O  O9  1  0.933859  0.679406  0.531411  1
  O  O10  1  0.679406  0.933859  0.031411  1
  O  O11  1  0.933859  0.679406  0.968589  1
  O  O12  1  0.321038  0.066421  0.529763  1
  O  O13  1  0.066421  0.321038  0.470237  1
  O  O14  1  0.321038  0.066421  0.970237  1
  O  O15  1  0.066421  0.321038  0.029763  1
  O  O16  1  0.929154  0.071103  0.750000  1
  O  O17  1  0.071103  0.929154  0.250000  1
  O  O18  1  0.363799  0.634186  0.750000  1
  O  O19  1  0.634186  0.363799  0.250000  1
  O  O20  1  0.640975  0.360008  0.750000  1
  O  O21  1  0.360008  0.640975  0.250000  1
