# generated using pymatgen
data_Nd10Co2BiSb3
_symmetry_space_group_name_H-M   'P 1'
_cell_length_a   8.23971100
_cell_length_b   9.00935902
_cell_length_c   12.66106103
_cell_angle_alpha   89.99274937
_cell_angle_beta   90.00000000
_cell_angle_gamma   90.00000000
_symmetry_Int_Tables_number   1
_chemical_formula_structural   Nd10Co2BiSb3
_chemical_formula_sum   'Nd20 Co4 Bi2 Sb6'
_cell_volume   939.88771206
_cell_formula_units_Z   2
loop_
 _symmetry_equiv_pos_site_id
 _symmetry_equiv_pos_as_xyz
  1  'x, y, z'
loop_
 _atom_site_type_symbol
 _atom_site_label
 _atom_site_symmetry_multiplicity
 _atom_site_fract_x
 _atom_site_fract_y
 _atom_site_fract_z
 _atom_site_occupancy
  Nd  Nd0  1  0.152188  0.743985  0.202501  1
  Nd  Nd1  1  0.652188  0.256015  0.297499  1
  Nd  Nd2  1  0.847433  0.249859  0.796046  1
  Nd  Nd3  1  0.347433  0.750141  0.703954  1
  Nd  Nd4  1  0.454899  0.747688  0.996117  1
  Nd  Nd5  1  0.954899  0.252312  0.503883  1
  Nd  Nd6  1  0.546643  0.252131  0.000348  1
  Nd  Nd7  1  0.046643  0.747869  0.499652  1
  Nd  Nd8  1  0.623691  0.744450  0.305799  1
  Nd  Nd9  1  0.123691  0.255550  0.194201  1
  Nd  Nd10  1  0.375228  0.250164  0.695616  1
  Nd  Nd11  1  0.875228  0.749836  0.804384  1
  Nd  Nd12  1  0.819565  0.965657  0.061664  1
  Nd  Nd13  1  0.319565  0.034343  0.438336  1
  Nd  Nd14  1  0.180632  0.466199  0.934791  1
  Nd  Nd15  1  0.680632  0.533801  0.565209  1
  Nd  Nd16  1  0.181354  0.033589  0.933889  1
  Nd  Nd17  1  0.681354  0.966411  0.566111  1
  Nd  Nd18  1  0.818474  0.533699  0.064554  1
  Nd  Nd19  1  0.318474  0.466301  0.435446  1
  Co  Co20  1  0.429170  0.749147  0.490800  1
  Co  Co21  1  0.929170  0.250853  0.009200  1
  Co  Co22  1  0.570599  0.250384  0.510540  1
  Co  Co23  1  0.070599  0.749616  0.989460  1
  Bi  Bi24  1  0.926474  0.992711  0.325332  1
  Bi  Bi25  1  0.426474  0.007289  0.174668  1
  Sb  Sb26  1  0.073184  0.493208  0.674766  1
  Sb  Sb27  1  0.573184  0.506792  0.825234  1
  Sb  Sb28  1  0.072931  0.006783  0.673533  1
  Sb  Sb29  1  0.572931  0.993217  0.826467  1
  Sb  Sb30  1  0.927533  0.507107  0.326988  1
  Sb  Sb31  1  0.427533  0.492893  0.173012  1
