# generated using pymatgen
data_Lu6Al24Ir5Ru3
_symmetry_space_group_name_H-M   'P 1'
_cell_length_a   8.75901793
_cell_length_b   8.76884758
_cell_length_c   9.47976001
_cell_angle_alpha   89.99999876
_cell_angle_beta   89.87258072
_cell_angle_gamma   120.03714597
_symmetry_Int_Tables_number   1
_chemical_formula_structural   Lu6Al24Ir5Ru3
_chemical_formula_sum   'Lu6 Al24 Ir5 Ru3'
_cell_volume   630.32103024
_cell_formula_units_Z   1
loop_
 _symmetry_equiv_pos_site_id
 _symmetry_equiv_pos_as_xyz
  1  'x, y, z'
loop_
 _atom_site_type_symbol
 _atom_site_label
 _atom_site_symmetry_multiplicity
 _atom_site_fract_x
 _atom_site_fract_y
 _atom_site_fract_z
 _atom_site_occupancy
  Lu  Lu0  1  0.805857  0.195342  0.751210  1
  Lu  Lu1  1  0.194143  0.804658  0.248790  1
  Lu  Lu2  1  0.388257  0.194129  0.751232  1
  Lu  Lu3  1  0.611743  0.805871  0.248768  1
  Lu  Lu4  1  0.805857  0.610515  0.751210  1
  Lu  Lu5  1  0.194143  0.389485  0.248790  1
  Al  Al6  1  0.666620  0.333310  0.970857  1
  Al  Al7  1  0.333380  0.666690  0.029143  1
  Al  Al8  1  0.331698  0.665850  0.471895  1
  Al  Al9  1  0.668302  0.334150  0.528105  1
  Al  Al10  1  0.839079  0.164442  0.421055  1
  Al  Al11  1  0.160921  0.835558  0.578945  1
  Al  Al12  1  0.325875  0.162937  0.422021  1
  Al  Al13  1  0.163568  0.837173  0.921965  1
  Al  Al14  1  0.674125  0.837063  0.577979  1
  Al  Al15  1  0.836432  0.162827  0.078035  1
  Al  Al16  1  0.839079  0.674638  0.421055  1
  Al  Al17  1  0.673983  0.836992  0.921285  1
  Al  Al18  1  0.160921  0.325362  0.578945  1
  Al  Al19  1  0.326017  0.163008  0.078715  1
  Al  Al20  1  0.163568  0.326394  0.921965  1
  Al  Al21  1  0.836432  0.673606  0.078035  1
  Al  Al22  1  0.437530  0.562294  0.750928  1
  Al  Al23  1  0.562470  0.437706  0.249072  1
  Al  Al24  1  0.123690  0.561846  0.749575  1
  Al  Al25  1  0.876310  0.438154  0.250425  1
  Al  Al26  1  0.437530  0.875236  0.750928  1
  Al  Al27  1  0.562470  0.124764  0.249072  1
  Al  Al28  1  0.000379  0.000190  0.750184  1
  Al  Al29  1  0.999621  0.999810  0.249816  1
  Ir  Ir30  1  0.500000  0.500000  0.000000  1
  Ir  Ir31  1  0.000000  0.500000  0.000000  1
  Ir  Ir32  1  0.500000  0.500000  0.500000  1
  Ir  Ir33  1  0.500000  0.000000  0.000000  1
  Ir  Ir34  1  0.500000  0.000000  0.500000  1
  Ru  Ru35  1  0.000000  0.500000  0.500000  1
  Ru  Ru36  1  0.000000  0.000000  0.000000  1
  Ru  Ru37  1  0.000000  0.000000  0.500000  1
