# generated using pymatgen
data_HoLu(SiRh2)4
_symmetry_space_group_name_H-M   'P 1'
_cell_length_a   4.11273200
_cell_length_b   9.06770300
_cell_length_c   11.26221200
_cell_angle_alpha   90.00000000
_cell_angle_beta   90.00000000
_cell_angle_gamma   90.00000000
_symmetry_Int_Tables_number   1
_chemical_formula_structural   HoLu(SiRh2)4
_chemical_formula_sum   'Ho2 Lu2 Si8 Rh16'
_cell_volume   420.00203582
_cell_formula_units_Z   2
loop_
 _symmetry_equiv_pos_site_id
 _symmetry_equiv_pos_as_xyz
  1  'x, y, z'
loop_
 _atom_site_type_symbol
 _atom_site_label
 _atom_site_symmetry_multiplicity
 _atom_site_fract_x
 _atom_site_fract_y
 _atom_site_fract_z
 _atom_site_occupancy
  Ho  Ho0  1  0.250000  0.146822  0.825030  1
  Ho  Ho1  1  0.250000  0.353178  0.325030  1
  Lu  Lu2  1  0.750000  0.852493  0.174947  1
  Lu  Lu3  1  0.750000  0.647507  0.674947  1
  Si  Si4  1  0.250000  0.413898  0.636911  1
  Si  Si5  1  0.250000  0.086102  0.136911  1
  Si  Si6  1  0.750000  0.589890  0.362664  1
  Si  Si7  1  0.750000  0.910110  0.862664  1
  Si  Si8  1  0.250000  0.615562  0.058816  1
  Si  Si9  1  0.250000  0.884438  0.558816  1
  Si  Si10  1  0.750000  0.382472  0.941833  1
  Si  Si11  1  0.750000  0.117528  0.441833  1
  Rh  Rh12  1  0.250000  0.617828  0.502081  1
  Rh  Rh13  1  0.250000  0.882172  0.002081  1
  Rh  Rh14  1  0.750000  0.387051  0.499722  1
  Rh  Rh15  1  0.750000  0.112949  0.999722  1
  Rh  Rh16  1  0.250000  0.687937  0.268058  1
  Rh  Rh17  1  0.250000  0.812063  0.768058  1
  Rh  Rh18  1  0.750000  0.316148  0.730881  1
  Rh  Rh19  1  0.750000  0.183852  0.230881  1
  Rh  Rh20  1  0.250000  0.173593  0.559105  1
  Rh  Rh21  1  0.250000  0.326407  0.059105  1
  Rh  Rh22  1  0.750000  0.828593  0.440331  1
  Rh  Rh23  1  0.750000  0.671407  0.940331  1
  Rh  Rh24  1  0.250000  0.006893  0.343596  1
  Rh  Rh25  1  0.250000  0.493107  0.843596  1
  Rh  Rh26  1  0.750000  0.992645  0.656024  1
  Rh  Rh27  1  0.750000  0.507355  0.156024  1
