# generated using pymatgen
data_Dy4ErHgBiAu
_symmetry_space_group_name_H-M   'P 1'
_cell_length_a   8.73143054
_cell_length_b   8.73143107
_cell_length_c   8.78022716
_cell_angle_alpha   123.66601779
_cell_angle_beta   123.66602310
_cell_angle_gamma   83.40225270
_symmetry_Int_Tables_number   1
_chemical_formula_structural   Dy4ErHgBiAu
_chemical_formula_sum   'Dy8 Er2 Hg2 Bi2 Au2'
_cell_volume   445.43397845
_cell_formula_units_Z   2
loop_
 _symmetry_equiv_pos_site_id
 _symmetry_equiv_pos_as_xyz
  1  'x, y, z'
loop_
 _atom_site_type_symbol
 _atom_site_label
 _atom_site_symmetry_multiplicity
 _atom_site_fract_x
 _atom_site_fract_y
 _atom_site_fract_z
 _atom_site_occupancy
  Dy  Dy0  1  0.506441  0.006441  0.797417  1
  Dy  Dy1  1  0.209023  0.709023  0.202583  1
  Dy  Dy2  1  0.016980  0.198658  0.500000  1
  Dy  Dy3  1  0.698658  0.516980  0.500000  1
  Dy  Dy4  1  0.493559  0.993559  0.202583  1
  Dy  Dy5  1  0.790977  0.290977  0.797417  1
  Dy  Dy6  1  0.983020  0.801342  0.500000  1
  Dy  Dy7  1  0.301342  0.483020  0.500000  1
  Er  Er8  1  0.500000  0.500000  0.000000  1
  Er  Er9  1  0.000000  0.000000  0.000000  1
  Hg  Hg10  1  0.140948  0.640948  0.781895  1
  Hg  Hg11  1  0.859052  0.359052  0.218105  1
  Bi  Bi12  1  0.250000  0.250000  0.000000  1
  Bi  Bi13  1  0.750000  0.750000  0.000000  1
  Au  Au14  1  0.637934  0.862066  0.500000  1
  Au  Au15  1  0.362066  0.137934  0.500000  1
