# generated using pymatgen
data_Y10TlBi2Pb3
_symmetry_space_group_name_H-M   'P 1'
_cell_length_a   9.11150100
_cell_length_b   9.10601308
_cell_length_c   6.59426400
_cell_angle_alpha   90.00000000
_cell_angle_beta   90.00000000
_cell_angle_gamma   119.98006890
_symmetry_Int_Tables_number   1
_chemical_formula_structural   Y10TlBi2Pb3
_chemical_formula_sum   'Y10 Tl1 Bi2 Pb3'
_cell_volume   473.91706461
_cell_formula_units_Z   1
loop_
 _symmetry_equiv_pos_site_id
 _symmetry_equiv_pos_as_xyz
  1  'x, y, z'
loop_
 _atom_site_type_symbol
 _atom_site_label
 _atom_site_symmetry_multiplicity
 _atom_site_fract_x
 _atom_site_fract_y
 _atom_site_fract_z
 _atom_site_occupancy
  Y  Y0  1  0.671461  0.337605  0.000829  1
  Y  Y1  1  0.328539  0.666143  0.000829  1
  Y  Y2  1  0.328539  0.666143  0.499171  1
  Y  Y3  1  0.671461  0.337605  0.499171  1
  Y  Y4  1  0.766457  0.758800  0.750000  1
  Y  Y5  1  0.233543  0.992344  0.750000  1
  Y  Y6  1  0.000000  0.240693  0.750000  1
  Y  Y7  1  0.238269  0.239542  0.250000  1
  Y  Y8  1  0.761731  0.001272  0.250000  1
  Y  Y9  1  0.000000  0.760953  0.250000  1
  Tl  Tl10  1  0.000000  0.603125  0.750000  1
  Bi  Bi11  1  0.392870  0.392365  0.750000  1
  Bi  Bi12  1  0.607130  0.999496  0.750000  1
  Pb  Pb13  1  0.605151  0.607750  0.250000  1
  Pb  Pb14  1  0.394849  0.002599  0.250000  1
  Pb  Pb15  1  0.000000  0.393562  0.250000  1
