# generated using pymatgen
data_Lu8Ti3Si16W9
_symmetry_space_group_name_H-M   'P 1'
_cell_length_a   6.66948394
_cell_length_b   6.87896369
_cell_length_c   12.97484303
_cell_angle_alpha   90.07188831
_cell_angle_beta   89.94117884
_cell_angle_gamma   90.01299630
_symmetry_Int_Tables_number   1
_chemical_formula_structural   Lu8Ti3Si16W9
_chemical_formula_sum   'Lu8 Ti3 Si16 W9'
_cell_volume   595.27381455
_cell_formula_units_Z   1
loop_
 _symmetry_equiv_pos_site_id
 _symmetry_equiv_pos_as_xyz
  1  'x, y, z'
loop_
 _atom_site_type_symbol
 _atom_site_label
 _atom_site_symmetry_multiplicity
 _atom_site_fract_x
 _atom_site_fract_y
 _atom_site_fract_z
 _atom_site_occupancy
  Lu  Lu0  1  0.498807  0.327249  0.093691  1
  Lu  Lu1  1  0.997324  0.171306  0.406906  1
  Lu  Lu2  1  0.500277  0.673323  0.593403  1
  Lu  Lu3  1  0.999564  0.826897  0.905826  1
  Lu  Lu4  1  0.500562  0.669075  0.906250  1
  Lu  Lu5  1  0.002220  0.829872  0.593976  1
  Lu  Lu6  1  0.497829  0.330472  0.407015  1
  Lu  Lu7  1  0.997579  0.168175  0.093085  1
  Ti  Ti8  1  0.834052  0.332855  0.624425  1
  Ti  Ti9  1  0.333245  0.166893  0.874443  1
  Ti  Ti10  1  0.165931  0.667570  0.126479  1
  Si  Si11  1  0.665001  0.042656  0.542920  1
  Si  Si12  1  0.162584  0.460025  0.957161  1
  Si  Si13  1  0.337825  0.960010  0.043876  1
  Si  Si14  1  0.835620  0.542301  0.456118  1
  Si  Si15  1  0.335767  0.959487  0.456940  1
  Si  Si16  1  0.834779  0.539726  0.042811  1
  Si  Si17  1  0.664445  0.040779  0.957876  1
  Si  Si18  1  0.165626  0.458719  0.542689  1
  Si  Si19  1  0.534239  0.376026  0.748611  1
  Si  Si20  1  0.034541  0.122972  0.750064  1
  Si  Si21  1  0.467253  0.623825  0.249677  1
  Si  Si22  1  0.966624  0.876596  0.250820  1
  Si  Si23  1  0.797111  0.633893  0.748649  1
  Si  Si24  1  0.298118  0.865466  0.751839  1
  Si  Si25  1  0.202312  0.364894  0.249147  1
  Si  Si26  1  0.700724  0.136531  0.250086  1
  W  W27  1  0.666805  0.836817  0.374127  1
  W  W28  1  0.169429  0.665955  0.376284  1
  W  W29  1  0.672865  0.834625  0.124865  1
  W  W30  1  0.830180  0.331720  0.874950  1
  W  W31  1  0.330043  0.164892  0.623539  1
  W  W32  1  0.661333  0.005442  0.750247  1
  W  W33  1  0.161367  0.493451  0.750153  1
  W  W34  1  0.338188  0.994376  0.250769  1
  W  W35  1  0.839829  0.505128  0.250281  1
