# generated using pymatgen
data_Tb16Dy4Si15Pt
_symmetry_space_group_name_H-M   'P 1'
_cell_length_a   7.42150300
_cell_length_b   7.78257055
_cell_length_c   14.65762700
_cell_angle_alpha   90.00000000
_cell_angle_beta   90.00000000
_cell_angle_gamma   90.06845248
_symmetry_Int_Tables_number   1
_chemical_formula_structural   Tb16Dy4Si15Pt
_chemical_formula_sum   'Tb16 Dy4 Si15 Pt1'
_cell_volume   846.60004988
_cell_formula_units_Z   1
loop_
 _symmetry_equiv_pos_site_id
 _symmetry_equiv_pos_as_xyz
  1  'x, y, z'
loop_
 _atom_site_type_symbol
 _atom_site_label
 _atom_site_symmetry_multiplicity
 _atom_site_fract_x
 _atom_site_fract_y
 _atom_site_fract_z
 _atom_site_occupancy
  Tb  Tb0  1  0.677378  0.181597  0.623638  1
  Tb  Tb1  1  0.187458  0.323167  0.875643  1
  Tb  Tb2  1  0.318332  0.819276  0.123300  1
  Tb  Tb3  1  0.817407  0.678561  0.376861  1
  Tb  Tb4  1  0.318332  0.819276  0.376700  1
  Tb  Tb5  1  0.817407  0.678561  0.123139  1
  Tb  Tb6  1  0.677378  0.181597  0.876362  1
  Tb  Tb7  1  0.187458  0.323167  0.624357  1
  Tb  Tb8  1  0.523378  0.679201  0.594819  1
  Tb  Tb9  1  0.026624  0.816950  0.904100  1
  Tb  Tb10  1  0.473213  0.314732  0.097730  1
  Tb  Tb11  1  0.973000  0.182930  0.402627  1
  Tb  Tb12  1  0.473213  0.314732  0.402270  1
  Tb  Tb13  1  0.973000  0.182930  0.097373  1
  Tb  Tb14  1  0.523378  0.679201  0.905181  1
  Tb  Tb15  1  0.026624  0.816950  0.595900  1
  Dy  Dy16  1  0.845007  0.512945  0.750000  1
  Dy  Dy17  1  0.354755  0.982151  0.750000  1
  Dy  Dy18  1  0.149502  0.484704  0.250000  1
  Dy  Dy19  1  0.649032  0.014483  0.250000  1
  Si  Si20  1  0.645843  0.971282  0.460200  1
  Si  Si21  1  0.147875  0.528172  0.039513  1
  Si  Si22  1  0.350664  0.026306  0.960469  1
  Si  Si23  1  0.855505  0.471241  0.539841  1
  Si  Si24  1  0.350664  0.026306  0.539531  1
  Si  Si25  1  0.855505  0.471241  0.960159  1
  Si  Si26  1  0.645843  0.971282  0.039800  1
  Si  Si27  1  0.147875  0.528172  0.460487  1
  Si  Si28  1  0.978969  0.101319  0.750000  1
  Si  Si29  1  0.522551  0.602307  0.250000  1
  Si  Si30  1  0.020786  0.896015  0.250000  1
  Si  Si31  1  0.740430  0.877123  0.750000  1
  Si  Si32  1  0.227853  0.632854  0.750000  1
  Si  Si33  1  0.266800  0.127233  0.250000  1
  Si  Si34  1  0.768361  0.372543  0.250000  1
  Pt  Pt35  1  0.482597  0.409498  0.750000  1
