# generated using pymatgen
data_Tb3Nd4Dy(B6Ru)4
_symmetry_space_group_name_H-M   'P 1'
_cell_length_a   3.72913700
_cell_length_b   9.24563402
_cell_length_c   11.65664403
_cell_angle_alpha   90.00831656
_cell_angle_beta   90.00000000
_cell_angle_gamma   90.00000000
_symmetry_Int_Tables_number   1
_chemical_formula_structural   Tb3Nd4Dy(B6Ru)4
_chemical_formula_sum   'Tb3 Nd4 Dy1 B24 Ru4'
_cell_volume   401.90051879
_cell_formula_units_Z   1
loop_
 _symmetry_equiv_pos_site_id
 _symmetry_equiv_pos_as_xyz
  1  'x, y, z'
loop_
 _atom_site_type_symbol
 _atom_site_label
 _atom_site_symmetry_multiplicity
 _atom_site_fract_x
 _atom_site_fract_y
 _atom_site_fract_z
 _atom_site_occupancy
  Tb  Tb0  1  0.000000  0.943942  0.371429  1
  Tb  Tb1  1  0.000000  0.056067  0.628611  1
  Tb  Tb2  1  0.000000  0.444000  0.128385  1
  Nd  Nd3  1  0.000000  0.323409  0.414258  1
  Nd  Nd4  1  0.000000  0.676607  0.585841  1
  Nd  Nd5  1  0.000000  0.823291  0.085694  1
  Nd  Nd6  1  0.000000  0.176726  0.914205  1
  Dy  Dy7  1  0.000000  0.556038  0.871437  1
  B  B8  1  0.500000  0.556336  0.430494  1
  B  B9  1  0.500000  0.443690  0.569610  1
  B  B10  1  0.500000  0.056309  0.069498  1
  B  B11  1  0.500000  0.943553  0.930457  1
  B  B12  1  0.500000  0.748928  0.417515  1
  B  B13  1  0.500000  0.251150  0.582524  1
  B  B14  1  0.500000  0.248936  0.082480  1
  B  B15  1  0.500000  0.750695  0.917508  1
  B  B16  1  0.500000  0.789870  0.266910  1
  B  B17  1  0.500000  0.210284  0.733133  1
  B  B18  1  0.500000  0.289898  0.233064  1
  B  B19  1  0.500000  0.709742  0.766988  1
  B  B20  1  0.500000  0.631318  0.185416  1
  B  B21  1  0.500000  0.368928  0.814694  1
  B  B22  1  0.500000  0.131362  0.314550  1
  B  B23  1  0.500000  0.868563  0.685519  1
  B  B24  1  0.500000  0.986654  0.213489  1
  B  B25  1  0.500000  0.013292  0.786527  1
  B  B26  1  0.500000  0.486622  0.286484  1
  B  B27  1  0.500000  0.513613  0.713765  1
  B  B28  1  0.500000  0.604633  0.028291  1
  B  B29  1  0.500000  0.395641  0.971090  1
  B  B30  1  0.500000  0.104846  0.471316  1
  B  B31  1  0.500000  0.895156  0.528694  1
  Ru  Ru32  1  0.000000  0.639348  0.319860  1
  Ru  Ru33  1  0.000000  0.360889  0.680288  1
  Ru  Ru34  1  0.000000  0.139409  0.180047  1
  Ru  Ru35  1  0.000000  0.860256  0.819927  1
