# generated using pymatgen
data_Tm20CoRu2Pt9
_symmetry_space_group_name_H-M   'P 1'
_cell_length_a   10.90081200
_cell_length_b   10.90081200
_cell_length_c   6.27280300
_cell_angle_alpha   90.00000000
_cell_angle_beta   90.00000000
_cell_angle_gamma   90.00000000
_symmetry_Int_Tables_number   1
_chemical_formula_structural   Tm20CoRu2Pt9
_chemical_formula_sum   'Tm20 Co1 Ru2 Pt9'
_cell_volume   745.38276722
_cell_formula_units_Z   1
loop_
 _symmetry_equiv_pos_site_id
 _symmetry_equiv_pos_as_xyz
  1  'x, y, z'
loop_
 _atom_site_type_symbol
 _atom_site_label
 _atom_site_symmetry_multiplicity
 _atom_site_fract_x
 _atom_site_fract_y
 _atom_site_fract_z
 _atom_site_occupancy
  Tm  Tm0  1  0.292924  0.087742  0.367339  1
  Tm  Tm1  1  0.294401  0.912084  0.876552  1
  Tm  Tm2  1  0.705599  0.087916  0.876552  1
  Tm  Tm3  1  0.707076  0.912258  0.367339  1
  Tm  Tm4  1  0.587916  0.794401  0.876552  1
  Tm  Tm5  1  0.587742  0.207076  0.367339  1
  Tm  Tm6  1  0.412258  0.792924  0.367339  1
  Tm  Tm7  1  0.412084  0.205599  0.876552  1
  Tm  Tm8  1  0.201815  0.414056  0.626206  1
  Tm  Tm9  1  0.201474  0.584934  0.127878  1
  Tm  Tm10  1  0.798526  0.415066  0.127878  1
  Tm  Tm11  1  0.798185  0.585944  0.626206  1
  Tm  Tm12  1  0.915066  0.701474  0.127878  1
  Tm  Tm13  1  0.914056  0.298185  0.626206  1
  Tm  Tm14  1  0.085944  0.701815  0.626206  1
  Tm  Tm15  1  0.084934  0.298526  0.127878  1
  Tm  Tm16  1  0.000000  0.000000  0.501674  1
  Tm  Tm17  1  0.000000  0.000000  0.001478  1
  Tm  Tm18  1  0.500000  0.500000  0.001478  1
  Tm  Tm19  1  0.500000  0.500000  0.501674  1
  Co  Co20  1  0.000000  0.500000  0.378836  1
  Ru  Ru21  1  0.500000  0.000000  0.122325  1
  Ru  Ru22  1  0.000000  0.500000  0.875999  1
  Pt  Pt23  1  0.846360  0.154410  0.250807  1
  Pt  Pt24  1  0.845146  0.846784  0.750844  1
  Pt  Pt25  1  0.154854  0.153216  0.750844  1
  Pt  Pt26  1  0.153640  0.845590  0.250807  1
  Pt  Pt27  1  0.653216  0.345146  0.750844  1
  Pt  Pt28  1  0.654410  0.653640  0.250807  1
  Pt  Pt29  1  0.345590  0.346360  0.250807  1
  Pt  Pt30  1  0.346784  0.654854  0.750844  1
  Pt  Pt31  1  0.500000  0.000000  0.618029  1
