# generated using pymatgen
data_DyTaCo4As3
_symmetry_space_group_name_H-M   'P 1'
_cell_length_a   3.79917400
_cell_length_b   10.84420700
_cell_length_c   12.35609000
_cell_angle_alpha   90.00000000
_cell_angle_beta   90.00000000
_cell_angle_gamma   90.00000000
_symmetry_Int_Tables_number   1
_chemical_formula_structural   DyTaCo4As3
_chemical_formula_sum   'Dy4 Ta4 Co16 As12'
_cell_volume   509.05891376
_cell_formula_units_Z   4
loop_
 _symmetry_equiv_pos_site_id
 _symmetry_equiv_pos_as_xyz
  1  'x, y, z'
loop_
 _atom_site_type_symbol
 _atom_site_label
 _atom_site_symmetry_multiplicity
 _atom_site_fract_x
 _atom_site_fract_y
 _atom_site_fract_z
 _atom_site_occupancy
  Dy  Dy0  1  0.250000  0.579662  0.705014  1
  Dy  Dy1  1  0.250000  0.920338  0.205014  1
  Dy  Dy2  1  0.750000  0.420338  0.294986  1
  Dy  Dy3  1  0.750000  0.079662  0.794986  1
  Ta  Ta4  1  0.250000  0.702749  0.990547  1
  Ta  Ta5  1  0.250000  0.797251  0.490547  1
  Ta  Ta6  1  0.750000  0.297251  0.009453  1
  Ta  Ta7  1  0.750000  0.202749  0.509453  1
  Co  Co8  1  0.250000  0.402998  0.488187  1
  Co  Co9  1  0.250000  0.097002  0.988187  1
  Co  Co10  1  0.750000  0.597002  0.511813  1
  Co  Co11  1  0.750000  0.902998  0.011813  1
  Co  Co12  1  0.250000  0.218452  0.174008  1
  Co  Co13  1  0.250000  0.281548  0.674008  1
  Co  Co14  1  0.750000  0.781548  0.825992  1
  Co  Co15  1  0.750000  0.718452  0.325992  1
  Co  Co16  1  0.250000  0.885596  0.699012  1
  Co  Co17  1  0.250000  0.614404  0.199012  1
  Co  Co18  1  0.750000  0.114404  0.300988  1
  Co  Co19  1  0.750000  0.385596  0.800988  1
  Co  Co20  1  0.250000  0.465104  0.933992  1
  Co  Co21  1  0.250000  0.034896  0.433992  1
  Co  Co22  1  0.750000  0.534896  0.066008  1
  Co  Co23  1  0.750000  0.965104  0.566008  1
  As  As24  1  0.250000  0.420651  0.119172  1
  As  As25  1  0.250000  0.079349  0.619172  1
  As  As26  1  0.750000  0.579349  0.880828  1
  As  As27  1  0.750000  0.920651  0.380828  1
  As  As28  1  0.250000  0.265996  0.860460  1
  As  As29  1  0.250000  0.234004  0.360460  1
  As  As30  1  0.750000  0.734004  0.139540  1
  As  As31  1  0.750000  0.765996  0.639540  1
  As  As32  1  0.250000  0.591355  0.389933  1
  As  As33  1  0.250000  0.908645  0.889933  1
  As  As34  1  0.750000  0.408645  0.610067  1
  As  As35  1  0.750000  0.091355  0.110067  1
