# generated using pymatgen
data_Tb2Nd4RuBr10
_symmetry_space_group_name_H-M   'P 1'
_cell_length_a   7.53215978
_cell_length_b   9.53609393
_cell_length_c   9.49393798
_cell_angle_alpha   109.03235464
_cell_angle_beta   95.93147254
_cell_angle_gamma   105.91041299
_symmetry_Int_Tables_number   1
_chemical_formula_structural   Tb2Nd4RuBr10
_chemical_formula_sum   'Tb2 Nd4 Ru1 Br10'
_cell_volume   605.85969493
_cell_formula_units_Z   1
loop_
 _symmetry_equiv_pos_site_id
 _symmetry_equiv_pos_as_xyz
  1  'x, y, z'
loop_
 _atom_site_type_symbol
 _atom_site_label
 _atom_site_symmetry_multiplicity
 _atom_site_fract_x
 _atom_site_fract_y
 _atom_site_fract_z
 _atom_site_occupancy
  Tb  Tb0  1  0.365852  0.137852  0.180844  1
  Tb  Tb1  1  0.634148  0.862148  0.819156  1
  Nd  Nd2  1  0.125466  0.043378  0.752325  1
  Nd  Nd3  1  0.874534  0.956622  0.247675  1
  Nd  Nd4  1  0.975619  0.296815  0.095458  1
  Nd  Nd5  1  0.024381  0.703185  0.904542  1
  Ru  Ru6  1  0.000000  0.000000  0.000000  1
  Br  Br7  1  0.549316  0.169729  0.919772  1
  Br  Br8  1  0.450684  0.830271  0.080228  1
  Br  Br9  1  0.365152  0.448745  0.273420  1
  Br  Br10  1  0.634848  0.551255  0.726580  1
  Br  Br11  1  0.260806  0.086876  0.450407  1
  Br  Br12  1  0.739194  0.913124  0.549593  1
  Br  Br13  1  0.781881  0.257840  0.349771  1
  Br  Br14  1  0.218119  0.742160  0.650229  1
  Br  Br15  1  0.088601  0.365120  0.825882  1
  Br  Br16  1  0.911399  0.634880  0.174118  1
