# generated using pymatgen
data_ErTh2(CoSn)3
_symmetry_space_group_name_H-M   'P 1'
_cell_length_a   7.36075970
_cell_length_b   7.26524052
_cell_length_c   4.00811200
_cell_angle_alpha   90.00000000
_cell_angle_beta   90.00000000
_cell_angle_gamma   119.57165072
_symmetry_Int_Tables_number   1
_chemical_formula_structural   ErTh2(CoSn)3
_chemical_formula_sum   'Er1 Th2 Co3 Sn3'
_cell_volume   186.42387857
_cell_formula_units_Z   1
loop_
 _symmetry_equiv_pos_site_id
 _symmetry_equiv_pos_as_xyz
  1  'x, y, z'
loop_
 _atom_site_type_symbol
 _atom_site_label
 _atom_site_symmetry_multiplicity
 _atom_site_fract_x
 _atom_site_fract_y
 _atom_site_fract_z
 _atom_site_occupancy
  Er  Er0  1  0.000000  0.592531  0.500000  1
  Th  Th1  1  0.413685  0.414916  0.500000  1
  Th  Th2  1  0.586315  0.001231  0.500000  1
  Co  Co3  1  0.348300  0.666888  0.000000  1
  Co  Co4  1  0.000000  0.006331  0.500000  1
  Co  Co5  1  0.651700  0.318587  0.000000  1
  Sn  Sn6  1  0.760390  0.748891  0.000000  1
  Sn  Sn7  1  0.000000  0.262126  0.000000  1
  Sn  Sn8  1  0.239610  0.988500  0.000000  1
