# generated using pymatgen
data_Sm3Er(Lu4Bi3)4
_symmetry_space_group_name_H-M   'P 1'
_cell_length_a   8.20066661
_cell_length_b   9.39527000
_cell_length_c   11.89438233
_cell_angle_alpha   90.00000000
_cell_angle_beta   89.92821401
_cell_angle_gamma   90.00000000
_symmetry_Int_Tables_number   1
_chemical_formula_structural   Sm3Er(Lu4Bi3)4
_chemical_formula_sum   'Sm3 Er1 Lu16 Bi12'
_cell_volume   916.43142969
_cell_formula_units_Z   1
loop_
 _symmetry_equiv_pos_site_id
 _symmetry_equiv_pos_as_xyz
  1  'x, y, z'
loop_
 _atom_site_type_symbol
 _atom_site_label
 _atom_site_symmetry_multiplicity
 _atom_site_fract_x
 _atom_site_fract_y
 _atom_site_fract_z
 _atom_site_occupancy
  Sm  Sm0  1  0.314344  0.250000  0.217960  1
  Sm  Sm1  1  0.814282  0.250000  0.281869  1
  Sm  Sm2  1  0.686351  0.750000  0.782249  1
  Er  Er3  1  0.186454  0.750000  0.716946  1
  Lu  Lu4  1  0.351792  0.750000  0.218636  1
  Lu  Lu5  1  0.852540  0.750000  0.281737  1
  Lu  Lu6  1  0.647760  0.250000  0.781266  1
  Lu  Lu7  1  0.147619  0.250000  0.718656  1
  Lu  Lu8  1  0.691167  0.567612  0.060126  1
  Lu  Lu9  1  0.191892  0.932170  0.440098  1
  Lu  Lu10  1  0.308599  0.067651  0.939585  1
  Lu  Lu11  1  0.808066  0.432162  0.560261  1
  Lu  Lu12  1  0.308599  0.432349  0.939585  1
  Lu  Lu13  1  0.808066  0.067838  0.560261  1
  Lu  Lu14  1  0.691167  0.932388  0.060126  1
  Lu  Lu15  1  0.191892  0.567830  0.440098  1
  Lu  Lu16  1  0.477630  0.250000  0.490212  1
  Lu  Lu17  1  0.978057  0.250000  0.009988  1
  Lu  Lu18  1  0.521959  0.750000  0.510779  1
  Lu  Lu19  1  0.022262  0.750000  0.989318  1
  Bi  Bi20  1  0.399636  0.750000  0.960310  1
  Bi  Bi21  1  0.903543  0.750000  0.540623  1
  Bi  Bi22  1  0.599089  0.250000  0.038522  1
  Bi  Bi23  1  0.098576  0.250000  0.461290  1
  Bi  Bi24  1  0.564979  0.991953  0.326874  1
  Bi  Bi25  1  0.064637  0.507641  0.173528  1
  Bi  Bi26  1  0.432631  0.493859  0.673666  1
  Bi  Bi27  1  0.937082  0.006333  0.825683  1
  Bi  Bi28  1  0.432631  0.006141  0.673666  1
  Bi  Bi29  1  0.937082  0.493667  0.825683  1
  Bi  Bi30  1  0.564979  0.508047  0.326874  1
  Bi  Bi31  1  0.064637  0.992359  0.173528  1
