# generated using pymatgen
data_La3Ho(Tm3Pt4)2
_symmetry_space_group_name_H-M   'P 1'
_cell_length_a   7.58988100
_cell_length_b   7.66446902
_cell_length_c   14.64637803
_cell_angle_alpha   90.00761336
_cell_angle_beta   90.00000000
_cell_angle_gamma   90.00000000
_symmetry_Int_Tables_number   1
_chemical_formula_structural   La3Ho(Tm3Pt4)2
_chemical_formula_sum   'La6 Ho2 Tm12 Pt16'
_cell_volume   852.01506768
_cell_formula_units_Z   2
loop_
 _symmetry_equiv_pos_site_id
 _symmetry_equiv_pos_as_xyz
  1  'x, y, z'
loop_
 _atom_site_type_symbol
 _atom_site_label
 _atom_site_symmetry_multiplicity
 _atom_site_fract_x
 _atom_site_fract_y
 _atom_site_fract_z
 _atom_site_occupancy
  La  La0  1  0.500646  0.679113  0.594267  1
  La  La1  1  0.000646  0.820887  0.905733  1
  La  La2  1  0.499482  0.326287  0.093131  1
  La  La3  1  0.999482  0.173713  0.406869  1
  La  La4  1  0.499023  0.322795  0.405340  1
  La  La5  1  0.999023  0.177205  0.094660  1
  Ho  Ho6  1  0.503102  0.679028  0.902478  1
  Ho  Ho7  1  0.003102  0.820972  0.597522  1
  Tm  Tm8  1  0.659643  0.165431  0.624609  1
  Tm  Tm9  1  0.159643  0.334569  0.875391  1
  Tm  Tm10  1  0.346256  0.830684  0.122174  1
  Tm  Tm11  1  0.846256  0.669316  0.377826  1
  Tm  Tm12  1  0.342364  0.834273  0.375937  1
  Tm  Tm13  1  0.842364  0.665727  0.124063  1
  Tm  Tm14  1  0.657045  0.166739  0.874674  1
  Tm  Tm15  1  0.157045  0.333261  0.625326  1
  Tm  Tm16  1  0.819644  0.507453  0.750162  1
  Tm  Tm17  1  0.319644  0.992547  0.749838  1
  Tm  Tm18  1  0.178889  0.494936  0.250176  1
  Tm  Tm19  1  0.678889  0.005064  0.249824  1
  Pt  Pt20  1  0.679447  0.959779  0.458538  1
  Pt  Pt21  1  0.179447  0.540221  0.041462  1
  Pt  Pt22  1  0.326561  0.031744  0.953595  1
  Pt  Pt23  1  0.826561  0.468256  0.546405  1
  Pt  Pt24  1  0.313988  0.032716  0.545624  1
  Pt  Pt25  1  0.813988  0.467284  0.954376  1
  Pt  Pt26  1  0.675732  0.956836  0.041668  1
  Pt  Pt27  1  0.175732  0.543164  0.458332  1
  Pt  Pt28  1  0.454571  0.378577  0.751424  1
  Pt  Pt29  1  0.954571  0.121423  0.748576  1
  Pt  Pt30  1  0.546679  0.628144  0.250741  1
  Pt  Pt31  1  0.046679  0.871856  0.249259  1
  Pt  Pt32  1  0.683403  0.860440  0.751565  1
  Pt  Pt33  1  0.183403  0.639560  0.748435  1
  Pt  Pt34  1  0.313524  0.136023  0.249755  1
  Pt  Pt35  1  0.813524  0.363977  0.250245  1
