# generated using pymatgen
data_Ho4Ga3SnRu4
_symmetry_space_group_name_H-M   'P 1'
_cell_length_a   4.55748600
_cell_length_b   7.21253245
_cell_length_c   7.21982343
_cell_angle_alpha   88.80352876
_cell_angle_beta   90.00000000
_cell_angle_gamma   90.00000000
_symmetry_Int_Tables_number   1
_chemical_formula_structural   Ho4Ga3SnRu4
_chemical_formula_sum   'Ho4 Ga3 Sn1 Ru4'
_cell_volume   237.27118574
_cell_formula_units_Z   1
loop_
 _symmetry_equiv_pos_site_id
 _symmetry_equiv_pos_as_xyz
  1  'x, y, z'
loop_
 _atom_site_type_symbol
 _atom_site_label
 _atom_site_symmetry_multiplicity
 _atom_site_fract_x
 _atom_site_fract_y
 _atom_site_fract_z
 _atom_site_occupancy
  Ho  Ho0  1  0.250000  0.806409  0.478727  1
  Ho  Ho1  1  0.750000  0.192326  0.528326  1
  Ho  Ho2  1  0.750000  0.298774  0.009591  1
  Ho  Ho3  1  0.250000  0.703080  0.975322  1
  Ga  Ga4  1  0.750000  0.608758  0.699669  1
  Ga  Ga5  1  0.750000  0.895853  0.198772  1
  Ga  Ga6  1  0.250000  0.104313  0.799249  1
  Sn  Sn7  1  0.250000  0.390243  0.297906  1
  Ru  Ru8  1  0.750000  0.571588  0.349804  1
  Ru  Ru9  1  0.750000  0.937211  0.842004  1
  Ru  Ru10  1  0.250000  0.052927  0.151929  1
  Ru  Ru11  1  0.250000  0.438517  0.668702  1
