# generated using pymatgen
data_PrHo2Al7Cu2
_symmetry_space_group_name_H-M   'P 1'
_cell_length_a   9.11531021
_cell_length_b   9.11531056
_cell_length_c   9.11531079
_cell_angle_alpha   35.21848746
_cell_angle_beta   35.21848597
_cell_angle_gamma   35.21847993
_symmetry_Int_Tables_number   1
_chemical_formula_structural   PrHo2Al7Cu2
_chemical_formula_sum   'Pr1 Ho2 Al7 Cu2'
_cell_volume   224.99048418
_cell_formula_units_Z   1
loop_
 _symmetry_equiv_pos_site_id
 _symmetry_equiv_pos_as_xyz
  1  'x, y, z'
loop_
 _atom_site_type_symbol
 _atom_site_label
 _atom_site_symmetry_multiplicity
 _atom_site_fract_x
 _atom_site_fract_y
 _atom_site_fract_z
 _atom_site_occupancy
  Pr  Pr0  1  0.000000  0.000000  0.000000  1
  Ho  Ho1  1  0.857649  0.857649  0.857649  1
  Ho  Ho2  1  0.142351  0.142351  0.142351  1
  Al  Al3  1  0.417344  0.417344  0.926131  1
  Al  Al4  1  0.926131  0.417344  0.417344  1
  Al  Al5  1  0.417344  0.926131  0.417344  1
  Al  Al6  1  0.500000  0.500000  0.500000  1
  Al  Al7  1  0.582656  0.073869  0.582656  1
  Al  Al8  1  0.073869  0.582656  0.582656  1
  Al  Al9  1  0.582656  0.582656  0.073869  1
  Cu  Cu10  1  0.665009  0.665009  0.665009  1
  Cu  Cu11  1  0.334991  0.334991  0.334991  1
