# generated using pymatgen
data_Ca12NbSb15(O6F)8
_symmetry_space_group_name_H-M   'P 1'
_cell_length_a   10.47086559
_cell_length_b   10.47086559
_cell_length_c   10.47086559
_cell_angle_alpha   89.87936825
_cell_angle_beta   89.87936825
_cell_angle_gamma   89.87936825
_symmetry_Int_Tables_number   1
_chemical_formula_structural   Ca12NbSb15(O6F)8
_chemical_formula_sum   'Ca12 Nb1 Sb15 O48 F8'
_cell_volume   1148.00788465
_cell_formula_units_Z   1
loop_
 _symmetry_equiv_pos_site_id
 _symmetry_equiv_pos_as_xyz
  1  'x, y, z'
loop_
 _atom_site_type_symbol
 _atom_site_label
 _atom_site_symmetry_multiplicity
 _atom_site_fract_x
 _atom_site_fract_y
 _atom_site_fract_z
 _atom_site_occupancy
  Ca  Ca0  1  0.874946  0.865816  0.615510  1
  Ca  Ca1  1  0.885282  0.125000  0.364718  1
  Ca  Ca2  1  0.634490  0.384184  0.375054  1
  Ca  Ca3  1  0.865816  0.615510  0.874946  1
  Ca  Ca4  1  0.375054  0.634490  0.384184  1
  Ca  Ca5  1  0.125000  0.364718  0.885282  1
  Ca  Ca6  1  0.364718  0.885282  0.125000  1
  Ca  Ca7  1  0.625000  0.134001  0.115999  1
  Ca  Ca8  1  0.115999  0.625000  0.134001  1
  Ca  Ca9  1  0.615510  0.874946  0.865816  1
  Ca  Ca10  1  0.134001  0.115999  0.625000  1
  Ca  Ca11  1  0.384184  0.375054  0.634490  1
  Nb  Nb12  1  0.125000  0.125000  0.125000  1
  Sb  Sb13  1  0.874254  0.123699  0.872724  1
  Sb  Sb14  1  0.872724  0.874254  0.123699  1
  Sb  Sb15  1  0.374016  0.625000  0.875984  1
  Sb  Sb16  1  0.874932  0.625000  0.375068  1
  Sb  Sb17  1  0.626162  0.125000  0.623838  1
  Sb  Sb18  1  0.375746  0.377276  0.126301  1
  Sb  Sb19  1  0.375068  0.874932  0.625000  1
  Sb  Sb20  1  0.126301  0.375746  0.377276  1
  Sb  Sb21  1  0.123699  0.872724  0.874254  1
  Sb  Sb22  1  0.125000  0.623838  0.626162  1
  Sb  Sb23  1  0.625000  0.375068  0.874932  1
  Sb  Sb24  1  0.623838  0.626162  0.125000  1
  Sb  Sb25  1  0.377276  0.126301  0.375746  1
  Sb  Sb26  1  0.875984  0.374016  0.625000  1
  Sb  Sb27  1  0.625000  0.875984  0.374016  1
  O  O28  1  0.002040  0.495954  0.703226  1
  O  O29  1  0.305347  0.010424  0.508978  1
  O  O30  1  0.491021  0.804979  0.489536  1
  O  O31  1  0.251953  0.453724  0.254106  1
  O  O32  1  0.060116  0.241406  0.262105  1
  O  O33  1  0.987895  0.008594  0.189884  1
  O  O34  1  0.046425  0.745732  0.751904  1
  O  O35  1  0.739547  0.555431  0.258992  1
  O  O36  1  0.991008  0.694569  0.510453  1
  O  O37  1  0.741022  0.239576  0.944653  1
  O  O38  1  0.495954  0.703226  0.002040  1
  O  O39  1  0.004105  0.297162  0.502849  1
  O  O40  1  0.502849  0.004105  0.297162  1
  O  O41  1  0.694569  0.510453  0.991008  1
  O  O42  1  0.995894  0.796276  0.998047  1
  O  O43  1  0.498096  0.504268  0.203575  1
  O  O44  1  0.796276  0.998047  0.995894  1
  O  O45  1  0.241406  0.262105  0.060116  1
  O  O46  1  0.758979  0.760464  0.445021  1
  O  O47  1  0.297162  0.502849  0.004105  1
  O  O48  1  0.254106  0.251953  0.453724  1
  O  O49  1  0.944653  0.741022  0.239576  1
  O  O50  1  0.247960  0.546774  0.754046  1
  O  O51  1  0.504268  0.203575  0.498096  1
  O  O52  1  0.445021  0.758979  0.760464  1
  O  O53  1  0.703226  0.002040  0.495954  1
  O  O54  1  0.998047  0.995894  0.796276  1
  O  O55  1  0.239576  0.944653  0.741022  1
  O  O56  1  0.245895  0.747151  0.952838  1
  O  O57  1  0.745732  0.751904  0.046425  1
  O  O58  1  0.203575  0.498096  0.504268  1
  O  O59  1  0.189884  0.987895  0.008594  1
  O  O60  1  0.555431  0.258992  0.739547  1
  O  O61  1  0.258992  0.739547  0.555431  1
  O  O62  1  0.489536  0.491021  0.804979  1
  O  O63  1  0.751904  0.046425  0.745732  1
  O  O64  1  0.453724  0.254106  0.251953  1
  O  O65  1  0.760464  0.445021  0.758979  1
  O  O66  1  0.754046  0.247960  0.546774  1
  O  O67  1  0.010424  0.508978  0.305347  1
  O  O68  1  0.546774  0.754046  0.247960  1
  O  O69  1  0.952838  0.245895  0.747151  1
  O  O70  1  0.262105  0.060116  0.241406  1
  O  O71  1  0.747151  0.952838  0.245895  1
  O  O72  1  0.510453  0.991008  0.694569  1
  O  O73  1  0.508978  0.305347  0.010424  1
  O  O74  1  0.804979  0.489536  0.491021  1
  O  O75  1  0.008594  0.189884  0.987895  1
  F  F76  1  0.510267  0.989358  0.011026  1
  F  F77  1  0.011026  0.510267  0.989358  1
  F  F78  1  0.489102  0.489102  0.489102  1
  F  F79  1  0.260642  0.739733  0.238974  1
  F  F80  1  0.739733  0.238974  0.260642  1
  F  F81  1  0.989358  0.011026  0.510267  1
  F  F82  1  0.238974  0.260642  0.739733  1
  F  F83  1  0.760898  0.760898  0.760898  1
