# generated using pymatgen
data_Ho2Sc2TiOs7
_symmetry_space_group_name_H-M   'P 1'
_cell_length_a   5.34088600
_cell_length_b   5.34088431
_cell_length_c   8.56611100
_cell_angle_alpha   90.00000000
_cell_angle_beta   90.00000000
_cell_angle_gamma   120.00001048
_symmetry_Int_Tables_number   1
_chemical_formula_structural   Ho2Sc2TiOs7
_chemical_formula_sum   'Ho2 Sc2 Ti1 Os7'
_cell_volume   211.61222917
_cell_formula_units_Z   1
loop_
 _symmetry_equiv_pos_site_id
 _symmetry_equiv_pos_as_xyz
  1  'x, y, z'
loop_
 _atom_site_type_symbol
 _atom_site_label
 _atom_site_symmetry_multiplicity
 _atom_site_fract_x
 _atom_site_fract_y
 _atom_site_fract_z
 _atom_site_occupancy
  Ho  Ho0  1  0.333333  0.666667  0.437247  1
  Ho  Ho1  1  0.666667  0.333333  0.562753  1
  Sc  Sc2  1  0.666667  0.333333  0.928927  1
  Sc  Sc3  1  0.333333  0.666667  0.071073  1
  Ti  Ti4  1  0.000000  0.000000  0.000000  1
  Os  Os5  1  0.172784  0.345567  0.755831  1
  Os  Os6  1  0.172784  0.827216  0.755831  1
  Os  Os7  1  0.345567  0.172784  0.244169  1
  Os  Os8  1  0.827216  0.654433  0.244169  1
  Os  Os9  1  0.654433  0.827216  0.755831  1
  Os  Os10  1  0.827216  0.172784  0.244169  1
  Os  Os11  1  0.000000  0.000000  0.500000  1
