# generated using pymatgen
data_Pa3P6(Pd7Rh3)2
_symmetry_space_group_name_H-M   'P 1'
_cell_length_a   8.61659336
_cell_length_b   8.62630181
_cell_length_c   8.62630100
_cell_angle_alpha   59.99999929
_cell_angle_beta   59.96272083
_cell_angle_gamma   59.96271392
_symmetry_Int_Tables_number   1
_chemical_formula_structural   Pa3P6(Pd7Rh3)2
_chemical_formula_sum   'Pa3 P6 Pd14 Rh6'
_cell_volume   453.13216234
_cell_formula_units_Z   1
loop_
 _symmetry_equiv_pos_site_id
 _symmetry_equiv_pos_as_xyz
  1  'x, y, z'
loop_
 _atom_site_type_symbol
 _atom_site_label
 _atom_site_symmetry_multiplicity
 _atom_site_fract_x
 _atom_site_fract_y
 _atom_site_fract_z
 _atom_site_occupancy
  Pa  Pa0  1  0.266601  0.244467  0.244467  1
  Pa  Pa1  1  0.733399  0.755533  0.755533  1
  Pa  Pa2  1  0.000000  0.000000  0.000000  1
  P  P3  1  0.723176  0.273812  0.273812  1
  P  P4  1  0.276824  0.726188  0.726188  1
  P  P5  1  0.276824  0.726188  0.270799  1
  P  P6  1  0.723176  0.273812  0.729201  1
  P  P7  1  0.276824  0.270799  0.726188  1
  P  P8  1  0.723176  0.729201  0.273812  1
  Pd  Pd9  1  0.861664  0.379446  0.379446  1
  Pd  Pd10  1  0.138336  0.620554  0.620554  1
  Pd  Pd11  1  0.341807  0.001173  0.001173  1
  Pd  Pd12  1  0.658193  0.998827  0.998827  1
  Pd  Pd13  1  0.000000  0.342267  0.657733  1
  Pd  Pd14  1  0.000000  0.657733  0.342267  1
  Pd  Pd15  1  0.000000  0.342267  0.000000  1
  Pd  Pd16  1  0.658193  0.998827  0.344153  1
  Pd  Pd17  1  0.000000  0.657733  0.000000  1
  Pd  Pd18  1  0.341807  0.001173  0.655847  1
  Pd  Pd19  1  0.000000  0.000000  0.342267  1
  Pd  Pd20  1  0.000000  0.000000  0.657733  1
  Pd  Pd21  1  0.658193  0.344153  0.998827  1
  Pd  Pd22  1  0.341807  0.655847  0.001173  1
  Rh  Rh23  1  0.379839  0.383117  0.383117  1
  Rh  Rh24  1  0.620161  0.616883  0.616883  1
  Rh  Rh25  1  0.379839  0.383117  0.853927  1
  Rh  Rh26  1  0.379839  0.853927  0.383117  1
  Rh  Rh27  1  0.620161  0.616883  0.146073  1
  Rh  Rh28  1  0.620161  0.146073  0.616883  1
