# generated using pymatgen
data_Tb7Er9Cd2AgHgPt4
_symmetry_space_group_name_H-M   'P 1'
_cell_length_a   9.60163618
_cell_length_b   9.60163582
_cell_length_c   9.58751700
_cell_angle_alpha   60.04863394
_cell_angle_beta   60.04863519
_cell_angle_gamma   60.05809706
_symmetry_Int_Tables_number   1
_chemical_formula_structural   Tb7Er9Cd2AgHgPt4
_chemical_formula_sum   'Tb7 Er9 Cd2 Ag1 Hg1 Pt4'
_cell_volume   625.73592680
_cell_formula_units_Z   1
loop_
 _symmetry_equiv_pos_site_id
 _symmetry_equiv_pos_as_xyz
  1  'x, y, z'
loop_
 _atom_site_type_symbol
 _atom_site_label
 _atom_site_symmetry_multiplicity
 _atom_site_fract_x
 _atom_site_fract_y
 _atom_site_fract_z
 _atom_site_occupancy
  Tb  Tb0  1  0.810815  0.810815  0.189028  1
  Tb  Tb1  1  0.935058  0.562356  0.565168  1
  Tb  Tb2  1  0.562643  0.933810  0.938534  1
  Tb  Tb3  1  0.562356  0.935058  0.565168  1
  Tb  Tb4  1  0.933810  0.562643  0.938534  1
  Tb  Tb5  1  0.563131  0.563131  0.937957  1
  Tb  Tb6  1  0.936144  0.936144  0.563910  1
  Er  Er7  1  0.352571  0.352571  0.351481  1
  Er  Er8  1  0.352636  0.352636  0.943360  1
  Er  Er9  1  0.354306  0.938922  0.353427  1
  Er  Er10  1  0.938922  0.354306  0.353427  1
  Er  Er11  1  0.811202  0.189526  0.189853  1
  Er  Er12  1  0.189582  0.810890  0.809209  1
  Er  Er13  1  0.189526  0.811202  0.189853  1
  Er  Er14  1  0.810890  0.189582  0.809209  1
  Er  Er15  1  0.189844  0.189844  0.809993  1
  Cd  Cd16  1  0.581260  0.257375  0.579795  1
  Cd  Cd17  1  0.257375  0.581260  0.579795  1
  Ag  Ag18  1  0.583383  0.583383  0.248801  1
  Hg  Hg19  1  0.584151  0.584151  0.583509  1
  Pt  Pt20  1  0.143525  0.143525  0.144810  1
  Pt  Pt21  1  0.143572  0.143572  0.568366  1
  Pt  Pt22  1  0.144430  0.568870  0.143407  1
  Pt  Pt23  1  0.568870  0.144430  0.143407  1
