# generated using pymatgen
data_Dy3Er5(B6Ru)4
_symmetry_space_group_name_H-M   'P 1'
_cell_length_a   3.64384400
_cell_length_b   9.11286000
_cell_length_c   11.49184500
_cell_angle_alpha   90.00176900
_cell_angle_beta   90.00000000
_cell_angle_gamma   90.00000000
_symmetry_Int_Tables_number   1
_chemical_formula_structural   Dy3Er5(B6Ru)4
_chemical_formula_sum   'Dy3 Er5 B24 Ru4'
_cell_volume   381.59636897
_cell_formula_units_Z   1
loop_
 _symmetry_equiv_pos_site_id
 _symmetry_equiv_pos_as_xyz
  1  'x, y, z'
loop_
 _atom_site_type_symbol
 _atom_site_label
 _atom_site_symmetry_multiplicity
 _atom_site_fract_x
 _atom_site_fract_y
 _atom_site_fract_z
 _atom_site_occupancy
  Dy  Dy0  1  0.000000  0.322553  0.414118  1
  Dy  Dy1  1  0.000000  0.677450  0.585936  1
  Dy  Dy2  1  0.000000  0.822621  0.085806  1
  Er  Er3  1  0.000000  0.177622  0.914252  1
  Er  Er4  1  0.000000  0.944143  0.372293  1
  Er  Er5  1  0.000000  0.055965  0.627766  1
  Er  Er6  1  0.000000  0.443976  0.127466  1
  Er  Er7  1  0.000000  0.555773  0.872399  1
  B  B8  1  0.500000  0.554371  0.432940  1
  B  B9  1  0.500000  0.445518  0.567180  1
  B  B10  1  0.500000  0.054544  0.066625  1
  B  B11  1  0.500000  0.946085  0.933007  1
  B  B12  1  0.500000  0.748863  0.419632  1
  B  B13  1  0.500000  0.251127  0.580522  1
  B  B14  1  0.500000  0.248681  0.079838  1
  B  B15  1  0.500000  0.751331  0.919611  1
  B  B16  1  0.500000  0.791746  0.266052  1
  B  B17  1  0.500000  0.208014  0.734342  1
  B  B18  1  0.500000  0.291672  0.233689  1
  B  B19  1  0.500000  0.708373  0.766171  1
  B  B20  1  0.500000  0.631890  0.184855  1
  B  B21  1  0.500000  0.367643  0.815390  1
  B  B22  1  0.500000  0.131968  0.314993  1
  B  B23  1  0.500000  0.868218  0.685034  1
  B  B24  1  0.500000  0.983877  0.212924  1
  B  B25  1  0.500000  0.016754  0.787185  1
  B  B26  1  0.500000  0.483726  0.286848  1
  B  B27  1  0.500000  0.516042  0.713217  1
  B  B28  1  0.500000  0.606771  0.029383  1
  B  B29  1  0.500000  0.392459  0.970372  1
  B  B30  1  0.500000  0.106603  0.470664  1
  B  B31  1  0.500000  0.893476  0.529401  1
  Ru  Ru32  1  0.000000  0.638452  0.320779  1
  Ru  Ru33  1  0.000000  0.361299  0.679425  1
  Ru  Ru34  1  0.000000  0.138434  0.178901  1
  Ru  Ru35  1  0.000000  0.861960  0.820985  1
