# generated using pymatgen
data_HoEr11Fe2Sn2Os
_symmetry_space_group_name_H-M   'P 1'
_cell_length_a   8.31897841
_cell_length_b   8.31898361
_cell_length_c   8.32276087
_cell_angle_alpha   108.80278789
_cell_angle_beta   108.80276782
_cell_angle_gamma   110.79836141
_symmetry_Int_Tables_number   1
_chemical_formula_structural   HoEr11Fe2Sn2Os
_chemical_formula_sum   'Ho1 Er11 Fe2 Sn2 Os1'
_cell_volume   443.30798278
_cell_formula_units_Z   1
loop_
 _symmetry_equiv_pos_site_id
 _symmetry_equiv_pos_as_xyz
  1  'x, y, z'
loop_
 _atom_site_type_symbol
 _atom_site_label
 _atom_site_symmetry_multiplicity
 _atom_site_fract_x
 _atom_site_fract_y
 _atom_site_fract_z
 _atom_site_occupancy
  Ho  Ho0  1  0.308000  0.308010  0.616044  1
  Er  Er1  1  0.691687  0.691689  0.383352  1
  Er  Er2  1  0.308397  0.691815  0.000204  1
  Er  Er3  1  0.691826  0.308407  0.000212  1
  Er  Er4  1  0.429781  0.192706  0.236857  1
  Er  Er5  1  0.570447  0.807593  0.763096  1
  Er  Er6  1  0.955536  0.192670  0.763116  1
  Er  Er7  1  0.192674  0.955537  0.763117  1
  Er  Er8  1  0.044197  0.807100  0.236875  1
  Er  Er9  1  0.807094  0.044194  0.236865  1
  Er  Er10  1  0.192699  0.429782  0.236864  1
  Er  Er11  1  0.807593  0.570452  0.763099  1
  Fe  Fe12  1  0.385665  0.385664  0.000444  1
  Fe  Fe13  1  0.614774  0.614773  0.000517  1
  Sn  Sn14  1  0.499781  0.999846  0.499611  1
  Sn  Sn15  1  0.999856  0.499771  0.499715  1
  Os  Os16  1  0.999993  0.999990  0.000011  1
