# generated using pymatgen
data_Mg2Fe9Ni3P7
_symmetry_space_group_name_H-M   'P 1'
_cell_length_a   8.94136207
_cell_length_b   8.99842884
_cell_length_c   3.56639400
_cell_angle_alpha   90.00000000
_cell_angle_beta   90.00000000
_cell_angle_gamma   120.50124753
_symmetry_Int_Tables_number   1
_chemical_formula_structural   Mg2Fe9Ni3P7
_chemical_formula_sum   'Mg2 Fe9 Ni3 P7'
_cell_volume   247.23759302
_cell_formula_units_Z   1
loop_
 _symmetry_equiv_pos_site_id
 _symmetry_equiv_pos_as_xyz
  1  'x, y, z'
loop_
 _atom_site_type_symbol
 _atom_site_label
 _atom_site_symmetry_multiplicity
 _atom_site_fract_x
 _atom_site_fract_y
 _atom_site_fract_z
 _atom_site_occupancy
  Mg  Mg0  1  0.996219  0.001868  0.000000  1
  Mg  Mg1  1  0.337702  0.663373  0.500000  1
  Fe  Fe2  1  0.604472  0.703452  0.000000  1
  Fe  Fe3  1  0.825341  0.612560  0.000000  1
  Fe  Fe4  1  0.783637  0.179513  0.000000  1
  Fe  Fe5  1  0.389767  0.211759  0.000000  1
  Fe  Fe6  1  0.715366  0.945948  0.500000  1
  Fe  Fe7  1  0.226106  0.283163  0.500000  1
  Fe  Fe8  1  0.898565  0.435156  0.500000  1
  Fe  Fe9  1  0.543054  0.114551  0.500000  1
  Fe  Fe10  1  0.571803  0.453926  0.500000  1
  Ni  Ni11  1  0.103129  0.397362  0.000000  1
  Ni  Ni12  1  0.293679  0.893762  0.000000  1
  Ni  Ni13  1  0.054543  0.777072  0.500000  1
  P  P14  1  0.074018  0.623810  0.000000  1
  P  P15  1  0.554749  0.920942  0.000000  1
  P  P16  1  0.375483  0.446339  0.000000  1
  P  P17  1  0.775058  0.735740  0.500000  1
  P  P18  1  0.948273  0.208826  0.500000  1
  P  P19  1  0.260831  0.053853  0.500000  1
  P  P20  1  0.668206  0.337021  0.000000  1
