# generated using pymatgen
data_Y8Si12PtRh3
_symmetry_space_group_name_H-M   'P 1'
_cell_length_a   8.18638100
_cell_length_b   8.18638169
_cell_length_c   7.96209900
_cell_angle_alpha   90.00000000
_cell_angle_beta   90.00000000
_cell_angle_gamma   119.99999316
_symmetry_Int_Tables_number   1
_chemical_formula_structural   Y8Si12PtRh3
_chemical_formula_sum   'Y8 Si12 Pt1 Rh3'
_cell_volume   462.10660705
_cell_formula_units_Z   1
loop_
 _symmetry_equiv_pos_site_id
 _symmetry_equiv_pos_as_xyz
  1  'x, y, z'
loop_
 _atom_site_type_symbol
 _atom_site_label
 _atom_site_symmetry_multiplicity
 _atom_site_fract_x
 _atom_site_fract_y
 _atom_site_fract_z
 _atom_site_occupancy
  Y  Y0  1  0.000000  0.000000  0.248983  1
  Y  Y1  1  0.000000  0.000000  0.751787  1
  Y  Y2  1  0.510115  0.489885  0.247172  1
  Y  Y3  1  0.510115  0.020229  0.247172  1
  Y  Y4  1  0.979771  0.489885  0.247172  1
  Y  Y5  1  0.491709  0.508291  0.752237  1
  Y  Y6  1  0.491709  0.983419  0.752237  1
  Y  Y7  1  0.016581  0.508291  0.752237  1
  Si  Si8  1  0.164560  0.835440  0.500295  1
  Si  Si9  1  0.164560  0.329121  0.500295  1
  Si  Si10  1  0.670879  0.835440  0.500295  1
  Si  Si11  1  0.831783  0.168217  0.499438  1
  Si  Si12  1  0.831783  0.663566  0.499438  1
  Si  Si13  1  0.336434  0.168217  0.499438  1
  Si  Si14  1  0.833224  0.166776  0.999578  1
  Si  Si15  1  0.833224  0.666448  0.999578  1
  Si  Si16  1  0.333552  0.166776  0.999578  1
  Si  Si17  1  0.167080  0.832920  0.000408  1
  Si  Si18  1  0.167080  0.334161  0.000408  1
  Si  Si19  1  0.665839  0.832920  0.000408  1
  Pt  Pt20  1  0.333333  0.666667  0.468433  1
  Rh  Rh21  1  0.666667  0.333333  0.536123  1
  Rh  Rh22  1  0.666667  0.333333  0.964036  1
  Rh  Rh23  1  0.333333  0.666667  0.033250  1
