# generated using pymatgen
data_Zr2P2IrRh
_symmetry_space_group_name_H-M   'P 1'
_cell_length_a   3.83472500
_cell_length_b   6.55424500
_cell_length_c   7.45139400
_cell_angle_alpha   90.00000000
_cell_angle_beta   90.00000000
_cell_angle_gamma   90.00000000
_symmetry_Int_Tables_number   1
_chemical_formula_structural   Zr2P2IrRh
_chemical_formula_sum   'Zr4 P4 Ir2 Rh2'
_cell_volume   187.28130374
_cell_formula_units_Z   2
loop_
 _symmetry_equiv_pos_site_id
 _symmetry_equiv_pos_as_xyz
  1  'x, y, z'
loop_
 _atom_site_type_symbol
 _atom_site_label
 _atom_site_symmetry_multiplicity
 _atom_site_fract_x
 _atom_site_fract_y
 _atom_site_fract_z
 _atom_site_occupancy
  Zr  Zr0  1  0.250000  0.026616  0.821163  1
  Zr  Zr1  1  0.250000  0.526616  0.678837  1
  Zr  Zr2  1  0.750000  0.973290  0.178562  1
  Zr  Zr3  1  0.750000  0.473290  0.321438  1
  P  P4  1  0.250000  0.761801  0.377163  1
  P  P5  1  0.250000  0.261801  0.122837  1
  P  P6  1  0.750000  0.239146  0.622548  1
  P  P7  1  0.750000  0.739146  0.877452  1
  Ir  Ir8  1  0.250000  0.144481  0.437692  1
  Ir  Ir9  1  0.250000  0.644481  0.062308  1
  Rh  Rh10  1  0.750000  0.854666  0.562367  1
  Rh  Rh11  1  0.750000  0.354666  0.937633  1
