# generated using pymatgen
data_HoU2Cu2Se7
_symmetry_space_group_name_H-M   'P 1'
_cell_length_a   10.14547681
_cell_length_b   10.15783967
_cell_length_c   5.96745638
_cell_angle_alpha   89.52139987
_cell_angle_beta   90.34754047
_cell_angle_gamma   120.06153848
_symmetry_Int_Tables_number   1
_chemical_formula_structural   HoU2Cu2Se7
_chemical_formula_sum   'Ho2 U4 Cu4 Se14'
_cell_volume   532.24045548
_cell_formula_units_Z   2
loop_
 _symmetry_equiv_pos_site_id
 _symmetry_equiv_pos_as_xyz
  1  'x, y, z'
loop_
 _atom_site_type_symbol
 _atom_site_label
 _atom_site_symmetry_multiplicity
 _atom_site_fract_x
 _atom_site_fract_y
 _atom_site_fract_z
 _atom_site_occupancy
  Ho  Ho0  1  0.223555  0.847626  0.026932  1
  Ho  Ho1  1  0.153683  0.377109  0.025614  1
  U  U2  1  0.851654  0.620056  0.531907  1
  U  U3  1  0.617089  0.770988  0.026641  1
  U  U4  1  0.773338  0.152607  0.532483  1
  U  U5  1  0.375765  0.225208  0.528691  1
  Cu  Cu6  1  0.666302  0.334074  0.163098  1
  Cu  Cu7  1  0.336037  0.667300  0.652569  1
  Cu  Cu8  1  0.000364  0.001164  0.498117  1
  Cu  Cu9  1  0.998640  0.998576  0.000259  1
  Se  Se10  1  0.665059  0.332288  0.756576  1
  Se  Se11  1  0.565822  0.488590  0.284713  1
  Se  Se12  1  0.153928  0.891441  0.510405  1
  Se  Se13  1  0.513769  0.079527  0.289360  1
  Se  Se14  1  0.440801  0.515017  0.780770  1
  Se  Se15  1  0.490456  0.921554  0.782669  1
  Se  Se16  1  0.842023  0.106883  0.016712  1
  Se  Se17  1  0.077689  0.567349  0.781220  1
  Se  Se18  1  0.737100  0.845770  0.509691  1
  Se  Se19  1  0.337840  0.668958  0.250177  1
  Se  Se20  1  0.921176  0.435850  0.284143  1
  Se  Se21  1  0.265020  0.154434  0.010393  1
  Se  Se22  1  0.110866  0.265231  0.511859  1
  Se  Se23  1  0.882023  0.732399  0.011404  1
