# generated using pymatgen
data_Sm4Dy2Al24ZnOs7
_symmetry_space_group_name_H-M   'P 1'
_cell_length_a   8.90701589
_cell_length_b   8.90701616
_cell_length_c   9.59475815
_cell_angle_alpha   90.07148212
_cell_angle_beta   89.92851779
_cell_angle_gamma   120.11499282
_symmetry_Int_Tables_number   1
_chemical_formula_structural   Sm4Dy2Al24ZnOs7
_chemical_formula_sum   'Sm4 Dy2 Al24 Zn1 Os7'
_cell_volume   658.45223802
_cell_formula_units_Z   1
loop_
 _symmetry_equiv_pos_site_id
 _symmetry_equiv_pos_as_xyz
  1  'x, y, z'
loop_
 _atom_site_type_symbol
 _atom_site_label
 _atom_site_symmetry_multiplicity
 _atom_site_fract_x
 _atom_site_fract_y
 _atom_site_fract_z
 _atom_site_occupancy
  Sm  Sm0  1  0.191029  0.383531  0.247268  1
  Sm  Sm1  1  0.808971  0.616469  0.752732  1
  Sm  Sm2  1  0.616469  0.808971  0.247268  1
  Sm  Sm3  1  0.383531  0.191029  0.752732  1
  Dy  Dy4  1  0.194147  0.805853  0.253877  1
  Dy  Dy5  1  0.805853  0.194147  0.746123  1
  Al  Al6  1  0.328668  0.671332  0.018367  1
  Al  Al7  1  0.671332  0.328668  0.981633  1
  Al  Al8  1  0.666231  0.333769  0.515640  1
  Al  Al9  1  0.333769  0.666231  0.484360  1
  Al  Al10  1  0.161900  0.326111  0.573353  1
  Al  Al11  1  0.838100  0.673889  0.426647  1
  Al  Al12  1  0.673889  0.838100  0.573353  1
  Al  Al13  1  0.850303  0.677482  0.080941  1
  Al  Al14  1  0.326111  0.161900  0.426647  1
  Al  Al15  1  0.149697  0.322518  0.919059  1
  Al  Al16  1  0.162938  0.837062  0.574061  1
  Al  Al17  1  0.322518  0.149697  0.080941  1
  Al  Al18  1  0.837062  0.162938  0.425939  1
  Al  Al19  1  0.677482  0.850303  0.919059  1
  Al  Al20  1  0.836510  0.163490  0.074384  1
  Al  Al21  1  0.163490  0.836510  0.925616  1
  Al  Al22  1  0.560982  0.121650  0.249213  1
  Al  Al23  1  0.439018  0.878350  0.750787  1
  Al  Al24  1  0.878350  0.439018  0.249213  1
  Al  Al25  1  0.121650  0.560982  0.750787  1
  Al  Al26  1  0.564729  0.435271  0.255516  1
  Al  Al27  1  0.435271  0.564729  0.744484  1
  Al  Al28  1  0.000202  0.999798  0.250619  1
  Al  Al29  1  0.999798  0.000202  0.749381  1
  Zn  Zn30  1  0.500000  0.500000  0.000000  1
  Os  Os31  1  0.500000  0.000000  0.000000  1
  Os  Os32  1  0.000000  0.500000  0.000000  1
  Os  Os33  1  0.500000  0.000000  0.500000  1
  Os  Os34  1  0.000000  0.500000  0.500000  1
  Os  Os35  1  0.500000  0.500000  0.500000  1
  Os  Os36  1  0.000000  0.000000  0.000000  1
  Os  Os37  1  0.000000  0.000000  0.500000  1
