# generated using pymatgen
data_NaY3Ir8
_symmetry_space_group_name_H-M   'P 1'
_cell_length_a   5.34214500
_cell_length_b   5.34214451
_cell_length_c   8.70459400
_cell_angle_alpha   90.00000000
_cell_angle_beta   90.00000000
_cell_angle_gamma   119.99999686
_symmetry_Int_Tables_number   1
_chemical_formula_structural   NaY3Ir8
_chemical_formula_sum   'Na1 Y3 Ir8'
_cell_volume   215.13470155
_cell_formula_units_Z   1
loop_
 _symmetry_equiv_pos_site_id
 _symmetry_equiv_pos_as_xyz
  1  'x, y, z'
loop_
 _atom_site_type_symbol
 _atom_site_label
 _atom_site_symmetry_multiplicity
 _atom_site_fract_x
 _atom_site_fract_y
 _atom_site_fract_z
 _atom_site_occupancy
  Na  Na0  1  0.333333  0.666667  0.438825  1
  Y  Y1  1  0.333333  0.666667  0.084294  1
  Y  Y2  1  0.666667  0.333333  0.556062  1
  Y  Y3  1  0.666667  0.333333  0.929844  1
  Ir  Ir4  1  0.000000  0.000000  0.998096  1
  Ir  Ir5  1  0.000000  0.000000  0.498551  1
  Ir  Ir6  1  0.830968  0.661938  0.248129  1
  Ir  Ir7  1  0.170742  0.829258  0.749981  1
  Ir  Ir8  1  0.658517  0.829258  0.749981  1
  Ir  Ir9  1  0.338062  0.169032  0.248129  1
  Ir  Ir10  1  0.830968  0.169032  0.248129  1
  Ir  Ir11  1  0.170742  0.341483  0.749981  1
