# generated using pymatgen
data_Tb4Ga4Ir2RuAu
_symmetry_space_group_name_H-M   'P 1'
_cell_length_a   4.37979400
_cell_length_b   6.92969001
_cell_length_c   7.84641505
_cell_angle_alpha   89.96515092
_cell_angle_beta   90.00000000
_cell_angle_gamma   90.00000000
_symmetry_Int_Tables_number   1
_chemical_formula_structural   Tb4Ga4Ir2RuAu
_chemical_formula_sum   'Tb4 Ga4 Ir2 Ru1 Au1'
_cell_volume   238.14347603
_cell_formula_units_Z   1
loop_
 _symmetry_equiv_pos_site_id
 _symmetry_equiv_pos_as_xyz
  1  'x, y, z'
loop_
 _atom_site_type_symbol
 _atom_site_label
 _atom_site_symmetry_multiplicity
 _atom_site_fract_x
 _atom_site_fract_y
 _atom_site_fract_z
 _atom_site_occupancy
  Tb  Tb0  1  0.250000  0.019042  0.318136  1
  Tb  Tb1  1  0.250000  0.535603  0.189946  1
  Tb  Tb2  1  0.750000  0.976554  0.689821  1
  Tb  Tb3  1  0.750000  0.483346  0.800797  1
  Ga  Ga4  1  0.250000  0.150427  0.923788  1
  Ga  Ga5  1  0.250000  0.658706  0.571929  1
  Ga  Ga6  1  0.750000  0.825602  0.066899  1
  Ga  Ga7  1  0.750000  0.348970  0.437516  1
  Ir  Ir8  1  0.250000  0.271998  0.609514  1
  Ir  Ir9  1  0.750000  0.731446  0.389684  1
  Ru  Ru10  1  0.250000  0.769417  0.892078  1
  Au  Au11  1  0.750000  0.228891  0.109895  1
