# generated using pymatgen
data_Ba8La4FeCo3O20
_symmetry_space_group_name_H-M   'P 1'
_cell_length_a   6.30291684
_cell_length_b   8.08604431
_cell_length_c   12.90663238
_cell_angle_alpha   91.32689465
_cell_angle_beta   90.06476644
_cell_angle_gamma   90.08469179
_symmetry_Int_Tables_number   1
_chemical_formula_structural   Ba8La4FeCo3O20
_chemical_formula_sum   'Ba8 La4 Fe1 Co3 O20'
_cell_volume   657.61754764
_cell_formula_units_Z   1
loop_
 _symmetry_equiv_pos_site_id
 _symmetry_equiv_pos_as_xyz
  1  'x, y, z'
loop_
 _atom_site_type_symbol
 _atom_site_label
 _atom_site_symmetry_multiplicity
 _atom_site_fract_x
 _atom_site_fract_y
 _atom_site_fract_z
 _atom_site_occupancy
  Ba  Ba0  1  0.771527  0.476629  0.340910  1
  Ba  Ba1  1  0.726740  0.977945  0.839186  1
  Ba  Ba2  1  0.228036  0.522823  0.658493  1
  Ba  Ba3  1  0.271847  0.024499  0.161246  1
  Ba  Ba4  1  0.762775  0.989426  0.382357  1
  Ba  Ba5  1  0.736449  0.488826  0.880537  1
  Ba  Ba6  1  0.237516  0.009449  0.618392  1
  Ba  Ba7  1  0.263470  0.507737  0.120975  1
  La  La8  1  0.747840  0.274094  0.621487  1
  La  La9  1  0.752004  0.774988  0.122899  1
  La  La10  1  0.251494  0.725535  0.378322  1
  La  La11  1  0.247926  0.225348  0.877200  1
  Fe  Fe12  1  0.229384  0.755498  0.913814  1
  Co  Co13  1  0.729982  0.744695  0.588117  1
  Co  Co14  1  0.769619  0.245188  0.087922  1
  Co  Co15  1  0.269437  0.254442  0.412175  1
  O  O16  1  0.767990  0.970380  0.624037  1
  O  O17  1  0.728151  0.469757  0.123752  1
  O  O18  1  0.230177  0.029692  0.376039  1
  O  O19  1  0.274700  0.530109  0.871106  1
  O  O20  1  0.724287  0.074439  0.179317  1
  O  O21  1  0.783368  0.574886  0.678840  1
  O  O22  1  0.282032  0.925037  0.817295  1
  O  O23  1  0.221527  0.425767  0.321332  1
  O  O24  1  0.559508  0.743011  0.280140  1
  O  O25  1  0.940376  0.243498  0.779379  1
  O  O26  1  0.441819  0.256988  0.720098  1
  O  O27  1  0.059456  0.755753  0.220732  1
  O  O28  1  0.570289  0.217232  0.977309  1
  O  O29  1  0.929253  0.715511  0.477780  1
  O  O30  1  0.422616  0.786055  0.027267  1
  O  O31  1  0.069560  0.283206  0.521648  1
  O  O32  1  0.056877  0.234629  0.042059  1
  O  O33  1  0.444942  0.737488  0.540944  1
  O  O34  1  0.940771  0.765687  0.959101  1
  O  O35  1  0.556254  0.263756  0.457799  1
