# generated using pymatgen
data_ErZr(TaC2)2
_symmetry_space_group_name_H-M   'P 1'
_cell_length_a   11.05784904
_cell_length_b   11.05784916
_cell_length_c   11.05784862
_cell_angle_alpha   16.95621568
_cell_angle_beta   16.95621655
_cell_angle_gamma   16.95621630
_symmetry_Int_Tables_number   1
_chemical_formula_structural   ErZr(TaC2)2
_chemical_formula_sum   'Er1 Zr1 Ta2 C4'
_cell_volume   100.32218683
_cell_formula_units_Z   1
loop_
 _symmetry_equiv_pos_site_id
 _symmetry_equiv_pos_as_xyz
  1  'x, y, z'
loop_
 _atom_site_type_symbol
 _atom_site_label
 _atom_site_symmetry_multiplicity
 _atom_site_fract_x
 _atom_site_fract_y
 _atom_site_fract_z
 _atom_site_occupancy
  Er  Er0  1  0.500000  0.500000  0.500000  1
  Zr  Zr1  1  0.000000  0.000000  0.000000  1
  Ta  Ta2  1  0.251272  0.251272  0.251272  1
  Ta  Ta3  1  0.748728  0.748728  0.748728  1
  C  C4  1  0.376118  0.376118  0.376118  1
  C  C5  1  0.118916  0.118916  0.118916  1
  C  C6  1  0.623882  0.623882  0.623882  1
  C  C7  1  0.881084  0.881084  0.881084  1
