# generated using pymatgen
data_Tm7Co6Sn22Hg
_symmetry_space_group_name_H-M   'P 1'
_cell_length_a   9.63205600
_cell_length_b   9.63205447
_cell_length_c   9.97574200
_cell_angle_alpha   90.00000000
_cell_angle_beta   90.00000000
_cell_angle_gamma   119.99999838
_symmetry_Int_Tables_number   1
_chemical_formula_structural   Tm7Co6Sn22Hg
_chemical_formula_sum   'Tm7 Co6 Sn22 Hg1'
_cell_volume   801.51891598
_cell_formula_units_Z   1
loop_
 _symmetry_equiv_pos_site_id
 _symmetry_equiv_pos_as_xyz
  1  'x, y, z'
loop_
 _atom_site_type_symbol
 _atom_site_label
 _atom_site_symmetry_multiplicity
 _atom_site_fract_x
 _atom_site_fract_y
 _atom_site_fract_z
 _atom_site_occupancy
  Tm  Tm0  1  0.000000  0.000000  0.000000  1
  Tm  Tm1  1  0.520221  0.479779  0.693435  1
  Tm  Tm2  1  0.520221  0.040441  0.693435  1
  Tm  Tm3  1  0.959559  0.479779  0.693435  1
  Tm  Tm4  1  0.040441  0.520221  0.306565  1
  Tm  Tm5  1  0.479779  0.959559  0.306565  1
  Tm  Tm6  1  0.479779  0.520221  0.306565  1
  Co  Co7  1  0.168397  0.831603  0.802720  1
  Co  Co8  1  0.168397  0.336795  0.802720  1
  Co  Co9  1  0.663205  0.831603  0.802720  1
  Co  Co10  1  0.336795  0.168397  0.197280  1
  Co  Co11  1  0.831603  0.663205  0.197280  1
  Co  Co12  1  0.831603  0.168397  0.197280  1
  Sn  Sn13  1  0.666667  0.333333  0.181696  1
  Sn  Sn14  1  0.666667  0.333333  0.877791  1
  Sn  Sn15  1  0.333333  0.666667  0.122209  1
  Sn  Sn16  1  0.346392  0.346392  0.000000  1
  Sn  Sn17  1  0.000000  0.653608  0.000000  1
  Sn  Sn18  1  0.653608  0.000000  0.000000  1
  Sn  Sn19  1  0.653608  0.653608  0.000000  1
  Sn  Sn20  1  0.333333  0.666667  0.818304  1
  Sn  Sn21  1  0.435249  0.217625  0.453833  1
  Sn  Sn22  1  0.217625  0.782375  0.546167  1
  Sn  Sn23  1  0.217625  0.435249  0.546167  1
  Sn  Sn24  1  0.564751  0.782375  0.546167  1
  Sn  Sn25  1  0.117199  0.882801  0.269772  1
  Sn  Sn26  1  0.782375  0.564751  0.453833  1
  Sn  Sn27  1  0.782375  0.217625  0.453833  1
  Sn  Sn28  1  0.346392  0.000000  0.000000  1
  Sn  Sn29  1  0.117199  0.234397  0.269772  1
  Sn  Sn30  1  0.765603  0.882801  0.269772  1
  Sn  Sn31  1  0.234397  0.117199  0.730228  1
  Sn  Sn32  1  0.882801  0.765603  0.730228  1
  Sn  Sn33  1  0.882801  0.117199  0.730228  1
  Sn  Sn34  1  0.000000  0.346392  0.000000  1
  Hg  Hg35  1  0.000000  0.000000  0.500000  1
