# generated using pymatgen
data_Ho18Tm2Sn3Pb13
_symmetry_space_group_name_H-M   'P 1'
_cell_length_a   8.15595899
_cell_length_b   15.54947300
_cell_length_c   8.20520837
_cell_angle_alpha   90.00000000
_cell_angle_beta   89.86861437
_cell_angle_gamma   90.00000000
_symmetry_Int_Tables_number   1
_chemical_formula_structural   Ho18Tm2Sn3Pb13
_chemical_formula_sum   'Ho18 Tm2 Sn3 Pb13'
_cell_volume   1040.58888021
_cell_formula_units_Z   1
loop_
 _symmetry_equiv_pos_site_id
 _symmetry_equiv_pos_as_xyz
  1  'x, y, z'
loop_
 _atom_site_type_symbol
 _atom_site_label
 _atom_site_symmetry_multiplicity
 _atom_site_fract_x
 _atom_site_fract_y
 _atom_site_fract_z
 _atom_site_occupancy
  Ho  Ho0  1  0.620754  0.623132  0.161448  1
  Ho  Ho1  1  0.121495  0.877069  0.338266  1
  Ho  Ho2  1  0.381174  0.122246  0.838079  1
  Ho  Ho3  1  0.876800  0.378820  0.659386  1
  Ho  Ho4  1  0.381174  0.377754  0.838079  1
  Ho  Ho5  1  0.876800  0.121180  0.659386  1
  Ho  Ho6  1  0.620754  0.876868  0.161448  1
  Ho  Ho7  1  0.121495  0.622931  0.338266  1
  Ho  Ho8  1  0.462764  0.601559  0.672614  1
  Ho  Ho9  1  0.963126  0.898442  0.827734  1
  Ho  Ho10  1  0.536999  0.100783  0.327394  1
  Ho  Ho11  1  0.036693  0.400133  0.175884  1
  Ho  Ho12  1  0.536999  0.399217  0.327394  1
  Ho  Ho13  1  0.036693  0.099867  0.175884  1
  Ho  Ho14  1  0.462764  0.898441  0.672614  1
  Ho  Ho15  1  0.963126  0.601558  0.827734  1
  Ho  Ho16  1  0.788766  0.750000  0.492835  1
  Ho  Ho17  1  0.288479  0.750000  0.007196  1
  Tm  Tm18  1  0.212327  0.250000  0.505516  1
  Tm  Tm19  1  0.709190  0.250000  0.993414  1
  Sn  Sn20  1  0.424928  0.750000  0.376255  1
  Sn  Sn21  1  0.925089  0.750000  0.124382  1
  Sn  Sn22  1  0.575014  0.250000  0.623843  1
  Pb  Pb23  1  0.717990  0.458159  0.967923  1
  Pb  Pb24  1  0.218186  0.041827  0.532853  1
  Pb  Pb25  1  0.282535  0.957974  0.031925  1
  Pb  Pb26  1  0.781969  0.542352  0.466502  1
  Pb  Pb27  1  0.282535  0.542026  0.031925  1
  Pb  Pb28  1  0.781969  0.957648  0.466502  1
  Pb  Pb29  1  0.717990  0.041841  0.967923  1
  Pb  Pb30  1  0.218186  0.458173  0.532853  1
  Pb  Pb31  1  0.073153  0.250000  0.875377  1
  Pb  Pb32  1  0.652147  0.750000  0.847372  1
  Pb  Pb33  1  0.152351  0.750000  0.652774  1
  Pb  Pb34  1  0.349409  0.250000  0.154143  1
  Pb  Pb35  1  0.848183  0.250000  0.346876  1
