# generated using pymatgen
data_Nd4Lu(GaSb)2
_symmetry_space_group_name_H-M   'P 1'
_cell_length_a   8.85890400
_cell_length_b   8.85890546
_cell_length_c   8.09749100
_cell_angle_alpha   90.00000000
_cell_angle_beta   90.00000000
_cell_angle_gamma   125.59660870
_symmetry_Int_Tables_number   1
_chemical_formula_structural   Nd4Lu(GaSb)2
_chemical_formula_sum   'Nd8 Lu2 Ga4 Sb4'
_cell_volume   516.74145827
_cell_formula_units_Z   2
loop_
 _symmetry_equiv_pos_site_id
 _symmetry_equiv_pos_as_xyz
  1  'x, y, z'
loop_
 _atom_site_type_symbol
 _atom_site_label
 _atom_site_symmetry_multiplicity
 _atom_site_fract_x
 _atom_site_fract_y
 _atom_site_fract_z
 _atom_site_occupancy
  Nd  Nd0  1  0.038537  0.304006  0.330351  1
  Nd  Nd1  1  0.961463  0.695994  0.669649  1
  Nd  Nd2  1  0.461463  0.195994  0.830351  1
  Nd  Nd3  1  0.804006  0.538537  0.169649  1
  Nd  Nd4  1  0.538537  0.804006  0.169649  1
  Nd  Nd5  1  0.195994  0.461463  0.830351  1
  Nd  Nd6  1  0.695994  0.961463  0.669649  1
  Nd  Nd7  1  0.304006  0.038537  0.330351  1
  Lu  Lu8  1  0.000000  0.000000  0.000000  1
  Lu  Lu9  1  0.500000  0.500000  0.500000  1
  Ga  Ga10  1  0.376172  0.376172  0.123839  1
  Ga  Ga11  1  0.623828  0.623828  0.876161  1
  Ga  Ga12  1  0.123828  0.123828  0.623839  1
  Ga  Ga13  1  0.876172  0.876172  0.376161  1
  Sb  Sb14  1  0.798203  0.201797  0.000000  1
  Sb  Sb15  1  0.201797  0.798203  0.000000  1
  Sb  Sb16  1  0.701797  0.298203  0.500000  1
  Sb  Sb17  1  0.298203  0.701797  0.500000  1
