# generated using pymatgen
data_Ca2As7Pd12
_symmetry_space_group_name_H-M   'P 1'
_cell_length_a   10.17039500
_cell_length_b   10.17039487
_cell_length_c   4.10659700
_cell_angle_alpha   90.00000000
_cell_angle_beta   90.00000000
_cell_angle_gamma   120.00000367
_symmetry_Int_Tables_number   1
_chemical_formula_structural   Ca2As7Pd12
_chemical_formula_sum   'Ca2 As7 Pd12'
_cell_volume   367.86488752
_cell_formula_units_Z   1
loop_
 _symmetry_equiv_pos_site_id
 _symmetry_equiv_pos_as_xyz
  1  'x, y, z'
loop_
 _atom_site_type_symbol
 _atom_site_label
 _atom_site_symmetry_multiplicity
 _atom_site_fract_x
 _atom_site_fract_y
 _atom_site_fract_z
 _atom_site_occupancy
  Ca  Ca0  1  0.666667  0.333333  0.247328  1
  Ca  Ca1  1  0.000000  0.000000  0.751285  1
  As  As2  1  0.333333  0.666667  0.476285  1
  As  As3  1  0.743050  0.784708  0.251789  1
  As  As4  1  0.041658  0.256950  0.251789  1
  As  As5  1  0.215292  0.958342  0.251789  1
  As  As6  1  0.923170  0.549391  0.745342  1
  As  As7  1  0.626220  0.076830  0.745342  1
  As  As8  1  0.450609  0.373780  0.745342  1
  Pd  Pd9  1  0.770814  0.046376  0.250299  1
  Pd  Pd10  1  0.275561  0.229186  0.250299  1
  Pd  Pd11  1  0.953624  0.724439  0.250299  1
  Pd  Pd12  1  0.897514  0.287011  0.746704  1
  Pd  Pd13  1  0.389496  0.102486  0.746704  1
  Pd  Pd14  1  0.712989  0.610504  0.746704  1
  Pd  Pd15  1  0.479422  0.555463  0.229610  1
  Pd  Pd16  1  0.076040  0.520578  0.229610  1
  Pd  Pd17  1  0.444537  0.923960  0.229610  1
  Pd  Pd18  1  0.190879  0.773953  0.768461  1
  Pd  Pd19  1  0.583074  0.809121  0.768461  1
  Pd  Pd20  1  0.226047  0.416926  0.768461  1
