# generated using pymatgen
data_Tb12Co2Ni2BiRu
_symmetry_space_group_name_H-M   'P 1'
_cell_length_a   8.39402513
_cell_length_b   8.39402581
_cell_length_c   8.39402501
_cell_angle_alpha   111.23176500
_cell_angle_beta   109.69809550
_cell_angle_gamma   107.50533856
_symmetry_Int_Tables_number   1
_chemical_formula_structural   Tb12Co2Ni2BiRu
_chemical_formula_sum   'Tb12 Co2 Ni2 Bi1 Ru1'
_cell_volume   454.80602737
_cell_formula_units_Z   1
loop_
 _symmetry_equiv_pos_site_id
 _symmetry_equiv_pos_as_xyz
  1  'x, y, z'
loop_
 _atom_site_type_symbol
 _atom_site_label
 _atom_site_symmetry_multiplicity
 _atom_site_fract_x
 _atom_site_fract_y
 _atom_site_fract_z
 _atom_site_occupancy
  Tb  Tb0  1  0.818107  0.709438  0.527545  1
  Tb  Tb1  1  0.181893  0.290562  0.472455  1
  Tb  Tb2  1  0.181893  0.709438  0.891332  1
  Tb  Tb3  1  0.818107  0.290562  0.108668  1
  Tb  Tb4  1  0.687894  0.378358  0.690464  1
  Tb  Tb5  1  0.312106  0.621642  0.309536  1
  Tb  Tb6  1  0.687894  0.997430  0.309536  1
  Tb  Tb7  1  0.312106  0.002570  0.690464  1
  Tb  Tb8  1  0.598185  0.790678  0.807508  1
  Tb  Tb9  1  0.401815  0.209322  0.192492  1
  Tb  Tb10  1  0.983172  0.790678  0.192492  1
  Tb  Tb11  1  0.016828  0.209322  0.807508  1
  Co  Co12  1  0.112465  0.612465  0.500000  1
  Co  Co13  1  0.887535  0.387535  0.500000  1
  Ni  Ni14  1  0.630086  0.000000  0.630086  1
  Ni  Ni15  1  0.369914  0.000000  0.369914  1
  Bi  Bi16  1  0.500000  0.500000  0.000000  1
  Ru  Ru17  1  0.000000  0.000000  0.000000  1
