# generated using pymatgen
data_Y8Ti12Si15Ir
_symmetry_space_group_name_H-M   'P 1'
_cell_length_a   7.07697079
_cell_length_b   7.06460467
_cell_length_c   13.02254110
_cell_angle_alpha   89.89450067
_cell_angle_beta   89.78499143
_cell_angle_gamma   90.04605651
_symmetry_Int_Tables_number   1
_chemical_formula_structural   Y8Ti12Si15Ir
_chemical_formula_sum   'Y8 Ti12 Si15 Ir1'
_cell_volume   651.06907402
_cell_formula_units_Z   1
loop_
 _symmetry_equiv_pos_site_id
 _symmetry_equiv_pos_as_xyz
  1  'x, y, z'
loop_
 _atom_site_type_symbol
 _atom_site_label
 _atom_site_symmetry_multiplicity
 _atom_site_fract_x
 _atom_site_fract_y
 _atom_site_fract_z
 _atom_site_occupancy
  Y  Y0  1  0.338583  0.001461  0.466204  1
  Y  Y1  1  0.499706  0.841360  0.716849  1
  Y  Y2  1  0.501470  0.159854  0.216821  1
  Y  Y3  1  0.840808  0.497335  0.283509  1
  Y  Y4  1  0.157695  0.503831  0.783217  1
  Y  Y5  1  0.660919  0.997975  0.967212  1
  Y  Y6  1  0.002599  0.339233  0.534530  1
  Y  Y7  1  0.999192  0.659435  0.033440  1
  Ti  Ti8  1  0.327521  0.326414  0.001209  1
  Ti  Ti9  1  0.172792  0.827655  0.249933  1
  Ti  Ti10  1  0.835275  0.170970  0.746982  1
  Ti  Ti11  1  0.672085  0.671620  0.498800  1
  Ti  Ti12  1  0.158312  0.010557  0.875337  1
  Ti  Ti13  1  0.491651  0.652608  0.126440  1
  Ti  Ti14  1  0.499315  0.341993  0.627149  1
  Ti  Ti15  1  0.656599  0.496059  0.874580  1
  Ti  Ti16  1  0.347884  0.506748  0.373493  1
  Ti  Ti17  1  0.846183  0.991702  0.375044  1
  Ti  Ti18  1  0.008463  0.151972  0.125684  1
  Ti  Ti19  1  0.991582  0.849975  0.619448  1
  Si  Si20  1  0.371586  0.702008  0.935644  1
  Si  Si21  1  0.630577  0.297226  0.434739  1
  Si  Si22  1  0.703556  0.370153  0.065888  1
  Si  Si23  1  0.301318  0.629804  0.563419  1
  Si  Si24  1  0.796347  0.869613  0.183272  1
  Si  Si25  1  0.129945  0.202532  0.315465  1
  Si  Si26  1  0.868462  0.799463  0.814949  1
  Si  Si27  1  0.292052  0.953225  0.065846  1
  Si  Si28  1  0.546316  0.790019  0.314647  1
  Si  Si29  1  0.457469  0.215638  0.816482  1
  Si  Si30  1  0.786526  0.548977  0.685188  1
  Si  Si31  1  0.208977  0.453445  0.185482  1
  Si  Si32  1  0.705432  0.045235  0.561652  1
  Si  Si33  1  0.952662  0.290710  0.937818  1
  Si  Si34  1  0.046564  0.708482  0.433398  1
  Ir  Ir35  1  0.193579  0.124718  0.690228  1
