# generated using pymatgen
data_Pr8Ho12Si15Pt
_symmetry_space_group_name_H-M   'P 1'
_cell_length_a   7.55155495
_cell_length_b   7.80006881
_cell_length_c   14.82070325
_cell_angle_alpha   89.92352350
_cell_angle_beta   89.82711190
_cell_angle_gamma   90.23909619
_symmetry_Int_Tables_number   1
_chemical_formula_structural   Pr8Ho12Si15Pt
_chemical_formula_sum   'Pr8 Ho12 Si15 Pt1'
_cell_volume   872.96630219
_cell_formula_units_Z   1
loop_
 _symmetry_equiv_pos_site_id
 _symmetry_equiv_pos_as_xyz
  1  'x, y, z'
loop_
 _atom_site_type_symbol
 _atom_site_label
 _atom_site_symmetry_multiplicity
 _atom_site_fract_x
 _atom_site_fract_y
 _atom_site_fract_z
 _atom_site_occupancy
  Pr  Pr0  1  0.976616  0.819916  0.098156  1
  Pr  Pr1  1  0.475207  0.678161  0.401882  1
  Pr  Pr2  1  0.525977  0.324297  0.900612  1
  Pr  Pr3  1  0.025490  0.179485  0.598409  1
  Pr  Pr4  1  0.024353  0.178563  0.901680  1
  Pr  Pr5  1  0.525950  0.321411  0.598509  1
  Pr  Pr6  1  0.476072  0.677933  0.099785  1
  Pr  Pr7  1  0.974618  0.820884  0.400987  1
  Ho  Ho8  1  0.650278  0.992975  0.249697  1
  Ho  Ho9  1  0.150092  0.509345  0.248281  1
  Ho  Ho10  1  0.847428  0.492359  0.755365  1
  Ho  Ho11  1  0.348313  0.009494  0.750950  1
  Ho  Ho12  1  0.679724  0.817151  0.879823  1
  Ho  Ho13  1  0.179360  0.680076  0.622342  1
  Ho  Ho14  1  0.821130  0.329457  0.121012  1
  Ho  Ho15  1  0.317747  0.177179  0.376146  1
  Ho  Ho16  1  0.320927  0.177656  0.123741  1
  Ho  Ho17  1  0.819696  0.320777  0.376825  1
  Ho  Ho18  1  0.177067  0.674326  0.878306  1
  Ho  Ho19  1  0.681401  0.821549  0.623009  1
  Si  Si20  1  0.767772  0.621993  0.251255  1
  Si  Si21  1  0.270087  0.878905  0.250761  1
  Si  Si22  1  0.730806  0.118513  0.749581  1
  Si  Si23  1  0.231054  0.380593  0.747619  1
  Si  Si24  1  0.022739  0.114543  0.249199  1
  Si  Si25  1  0.525482  0.386801  0.251194  1
  Si  Si26  1  0.470944  0.614326  0.747220  1
  Si  Si27  1  0.974601  0.886355  0.748808  1
  Si  Si28  1  0.356287  0.969203  0.539362  1
  Si  Si29  1  0.643466  0.031466  0.040793  1
  Si  Si30  1  0.144481  0.467935  0.460263  1
  Si  Si31  1  0.152630  0.466743  0.042163  1
  Si  Si32  1  0.643622  0.031303  0.460058  1
  Si  Si33  1  0.355284  0.967997  0.960803  1
  Si  Si34  1  0.856775  0.531468  0.539075  1
  Pt  Pt35  1  0.856525  0.528864  0.956330  1
