# generated using pymatgen
data_Ba4Li4Si7Sn
_symmetry_space_group_name_H-M   'P 1'
_cell_length_a   4.66129800
_cell_length_b   7.40938102
_cell_length_c   11.88341603
_cell_angle_alpha   90.02829639
_cell_angle_beta   90.00000000
_cell_angle_gamma   90.00000000
_symmetry_Int_Tables_number   1
_chemical_formula_structural   Ba4Li4Si7Sn
_chemical_formula_sum   'Ba4 Li4 Si7 Sn1'
_cell_volume   410.42144610
_cell_formula_units_Z   1
loop_
 _symmetry_equiv_pos_site_id
 _symmetry_equiv_pos_as_xyz
  1  'x, y, z'
loop_
 _atom_site_type_symbol
 _atom_site_label
 _atom_site_symmetry_multiplicity
 _atom_site_fract_x
 _atom_site_fract_y
 _atom_site_fract_z
 _atom_site_occupancy
  Ba  Ba0  1  0.250000  0.131317  0.144956  1
  Ba  Ba1  1  0.750000  0.857466  0.861423  1
  Ba  Ba2  1  0.250000  0.633636  0.362228  1
  Ba  Ba3  1  0.750000  0.365140  0.633362  1
  Li  Li4  1  0.250000  0.114938  0.434795  1
  Li  Li5  1  0.750000  0.886149  0.560433  1
  Li  Li6  1  0.250000  0.615558  0.062988  1
  Li  Li7  1  0.750000  0.396938  0.941659  1
  Si  Si8  1  0.750000  0.471180  0.167188  1
  Si  Si9  1  0.250000  0.550093  0.833744  1
  Si  Si10  1  0.750000  0.969493  0.334852  1
  Si  Si11  1  0.250000  0.020082  0.654577  1
  Si  Si12  1  0.750000  0.291765  0.338976  1
  Si  Si13  1  0.250000  0.703019  0.657054  1
  Si  Si14  1  0.750000  0.791644  0.162766  1
  Sn  Sn15  1  0.250000  0.201582  0.848999  1
