# generated using pymatgen
data_HoTh2(MgIr)3
_symmetry_space_group_name_H-M   'P 1'
_cell_length_a   7.44408377
_cell_length_b   7.28740437
_cell_length_c   4.11070600
_cell_angle_alpha   90.00000000
_cell_angle_beta   90.00000000
_cell_angle_gamma   119.30616218
_symmetry_Int_Tables_number   1
_chemical_formula_structural   HoTh2(MgIr)3
_chemical_formula_sum   'Ho1 Th2 Mg3 Ir3'
_cell_volume   194.45777231
_cell_formula_units_Z   1
loop_
 _symmetry_equiv_pos_site_id
 _symmetry_equiv_pos_as_xyz
  1  'x, y, z'
loop_
 _atom_site_type_symbol
 _atom_site_label
 _atom_site_symmetry_multiplicity
 _atom_site_fract_x
 _atom_site_fract_y
 _atom_site_fract_z
 _atom_site_occupancy
  Ho  Ho0  1  0.000000  0.593589  0.500000  1
  Th  Th1  1  0.412936  0.412888  0.500000  1
  Th  Th2  1  0.587064  0.999951  0.500000  1
  Mg  Mg3  1  0.767774  0.758853  0.000000  1
  Mg  Mg4  1  0.232226  0.991079  0.000000  1
  Mg  Mg5  1  0.000000  0.252128  0.000000  1
  Ir  Ir6  1  0.654023  0.321015  0.000000  1
  Ir  Ir7  1  0.345977  0.666993  0.000000  1
  Ir  Ir8  1  0.000000  0.003503  0.500000  1
