# generated using pymatgen
data_Tb8Cu(Si4Pd)3
_symmetry_space_group_name_H-M   'P 1'
_cell_length_a   8.13753700
_cell_length_b   8.13753659
_cell_length_c   8.17205300
_cell_angle_alpha   90.00000000
_cell_angle_beta   90.00000000
_cell_angle_gamma   120.00000575
_symmetry_Int_Tables_number   1
_chemical_formula_structural   Tb8Cu(Si4Pd)3
_chemical_formula_sum   'Tb8 Cu1 Si12 Pd3'
_cell_volume   468.64901823
_cell_formula_units_Z   1
loop_
 _symmetry_equiv_pos_site_id
 _symmetry_equiv_pos_as_xyz
  1  'x, y, z'
loop_
 _atom_site_type_symbol
 _atom_site_label
 _atom_site_symmetry_multiplicity
 _atom_site_fract_x
 _atom_site_fract_y
 _atom_site_fract_z
 _atom_site_occupancy
  Tb  Tb0  1  0.500419  0.000838  0.249771  1
  Tb  Tb1  1  0.498966  0.997933  0.750040  1
  Tb  Tb2  1  0.999162  0.499581  0.249771  1
  Tb  Tb3  1  0.002067  0.501034  0.750040  1
  Tb  Tb4  1  0.500419  0.499581  0.249771  1
  Tb  Tb5  1  0.498966  0.501034  0.750040  1
  Tb  Tb6  1  0.000000  0.000000  0.249557  1
  Tb  Tb7  1  0.000000  0.000000  0.750514  1
  Cu  Cu8  1  0.333333  0.666667  0.001042  1
  Si  Si9  1  0.169056  0.338111  0.999879  1
  Si  Si10  1  0.834299  0.668599  0.000555  1
  Si  Si11  1  0.661889  0.830944  0.999879  1
  Si  Si12  1  0.833856  0.667713  0.501773  1
  Si  Si13  1  0.331401  0.165701  0.000555  1
  Si  Si14  1  0.165415  0.330831  0.498074  1
  Si  Si15  1  0.169056  0.830944  0.999879  1
  Si  Si16  1  0.332287  0.166144  0.501773  1
  Si  Si17  1  0.834299  0.165701  0.000555  1
  Si  Si18  1  0.669169  0.834585  0.498074  1
  Si  Si19  1  0.833856  0.166144  0.501773  1
  Si  Si20  1  0.165415  0.834585  0.498074  1
  Pd  Pd21  1  0.666667  0.333333  0.998200  1
  Pd  Pd22  1  0.666667  0.333333  0.501947  1
  Pd  Pd23  1  0.333333  0.666667  0.498462  1
