# generated using pymatgen
data_LiIr5O12
_symmetry_space_group_name_H-M   'P 1'
_cell_length_a   4.54336954
_cell_length_b   4.54336954
_cell_length_c   9.45655100
_cell_angle_alpha   90.00000000
_cell_angle_beta   90.00000000
_cell_angle_gamma   91.04991157
_symmetry_Int_Tables_number   1
_chemical_formula_structural   LiIr5O12
_chemical_formula_sum   'Li1 Ir5 O12'
_cell_volume   195.17130878
_cell_formula_units_Z   1
loop_
 _symmetry_equiv_pos_site_id
 _symmetry_equiv_pos_as_xyz
  1  'x, y, z'
loop_
 _atom_site_type_symbol
 _atom_site_label
 _atom_site_symmetry_multiplicity
 _atom_site_fract_x
 _atom_site_fract_y
 _atom_site_fract_z
 _atom_site_occupancy
  Li  Li0  1  0.000000  0.000000  0.000000  1
  Ir  Ir1  1  0.000000  0.000000  0.329266  1
  Ir  Ir2  1  0.000000  0.000000  0.670734  1
  Ir  Ir3  1  0.500000  0.500000  0.163362  1
  Ir  Ir4  1  0.500000  0.500000  0.500000  1
  Ir  Ir5  1  0.500000  0.500000  0.836638  1
  O  O6  1  0.192209  0.192209  0.500000  1
  O  O7  1  0.198358  0.198358  0.169333  1
  O  O8  1  0.198358  0.198358  0.830667  1
  O  O9  1  0.685819  0.314181  0.000000  1
  O  O10  1  0.691864  0.308136  0.333175  1
  O  O11  1  0.691864  0.308136  0.666825  1
  O  O12  1  0.308136  0.691864  0.333175  1
  O  O13  1  0.308136  0.691864  0.666825  1
  O  O14  1  0.314181  0.685819  0.000000  1
  O  O15  1  0.801642  0.801642  0.169333  1
  O  O16  1  0.801642  0.801642  0.830667  1
  O  O17  1  0.807791  0.807791  0.500000  1
