# generated using pymatgen
data_Ca3Tb(GePd14)2
_symmetry_space_group_name_H-M   'P 1'
_cell_length_a   8.95986300
_cell_length_b   8.95986300
_cell_length_c   7.15087900
_cell_angle_alpha   90.00000000
_cell_angle_beta   90.00000000
_cell_angle_gamma   90.00000000
_symmetry_Int_Tables_number   1
_chemical_formula_structural   Ca3Tb(GePd14)2
_chemical_formula_sum   'Ca3 Tb1 Ge2 Pd28'
_cell_volume   574.06645197
_cell_formula_units_Z   1
loop_
 _symmetry_equiv_pos_site_id
 _symmetry_equiv_pos_as_xyz
  1  'x, y, z'
loop_
 _atom_site_type_symbol
 _atom_site_label
 _atom_site_symmetry_multiplicity
 _atom_site_fract_x
 _atom_site_fract_y
 _atom_site_fract_z
 _atom_site_occupancy
  Ca  Ca0  1  0.500000  0.000000  0.939189  1
  Ca  Ca1  1  0.000000  0.500000  0.060811  1
  Ca  Ca2  1  0.500000  0.500000  0.500000  1
  Tb  Tb3  1  0.000000  0.000000  0.500000  1
  Ge  Ge4  1  0.500000  0.000000  0.450212  1
  Ge  Ge5  1  0.000000  0.500000  0.549788  1
  Pd  Pd6  1  0.329155  0.830191  0.622271  1
  Pd  Pd7  1  0.329155  0.169809  0.622271  1
  Pd  Pd8  1  0.670845  0.830191  0.622271  1
  Pd  Pd9  1  0.670845  0.169809  0.622271  1
  Pd  Pd10  1  0.169809  0.670845  0.377729  1
  Pd  Pd11  1  0.169809  0.329155  0.377729  1
  Pd  Pd12  1  0.830191  0.670845  0.377729  1
  Pd  Pd13  1  0.830191  0.329155  0.377729  1
  Pd  Pd14  1  0.500000  0.767003  0.253769  1
  Pd  Pd15  1  0.500000  0.232997  0.253769  1
  Pd  Pd16  1  0.264138  0.000000  0.257298  1
  Pd  Pd17  1  0.735862  0.000000  0.257298  1
  Pd  Pd18  1  0.000000  0.735862  0.742702  1
  Pd  Pd19  1  0.000000  0.264138  0.742702  1
  Pd  Pd20  1  0.232997  0.500000  0.746231  1
  Pd  Pd21  1  0.767003  0.500000  0.746231  1
  Pd  Pd22  1  0.500000  0.348990  0.857239  1
  Pd  Pd23  1  0.500000  0.651010  0.857239  1
  Pd  Pd24  1  0.849815  0.000000  0.854578  1
  Pd  Pd25  1  0.150185  0.000000  0.854578  1
  Pd  Pd26  1  0.000000  0.150185  0.145422  1
  Pd  Pd27  1  0.000000  0.849815  0.145422  1
  Pd  Pd28  1  0.651010  0.500000  0.142761  1
  Pd  Pd29  1  0.348990  0.500000  0.142761  1
  Pd  Pd30  1  0.249665  0.750335  0.000000  1
  Pd  Pd31  1  0.249665  0.249665  0.000000  1
  Pd  Pd32  1  0.750335  0.750335  0.000000  1
  Pd  Pd33  1  0.750335  0.249665  0.000000  1
