# generated using pymatgen
data_Yb2Nb5WS12
_symmetry_space_group_name_H-M   'P 1'
_cell_length_a   5.78696800
_cell_length_b   5.78696911
_cell_length_c   14.26036600
_cell_angle_alpha   90.00000000
_cell_angle_beta   90.00000000
_cell_angle_gamma   120.00000510
_symmetry_Int_Tables_number   1
_chemical_formula_structural   Yb2Nb5WS12
_chemical_formula_sum   'Yb2 Nb5 W1 S12'
_cell_volume   413.58380672
_cell_formula_units_Z   1
loop_
 _symmetry_equiv_pos_site_id
 _symmetry_equiv_pos_as_xyz
  1  'x, y, z'
loop_
 _atom_site_type_symbol
 _atom_site_label
 _atom_site_symmetry_multiplicity
 _atom_site_fract_x
 _atom_site_fract_y
 _atom_site_fract_z
 _atom_site_occupancy
  Yb  Yb0  1  0.000000  0.000000  0.998988  1
  Yb  Yb1  1  0.000000  0.000000  0.501012  1
  Nb  Nb2  1  0.000000  0.000000  0.250000  1
  Nb  Nb3  1  0.000000  0.000000  0.750000  1
  Nb  Nb4  1  0.333333  0.666667  0.750000  1
  Nb  Nb5  1  0.666667  0.333333  0.750000  1
  Nb  Nb6  1  0.666667  0.333333  0.250000  1
  W  W7  1  0.333333  0.666667  0.250000  1
  S  S8  1  0.000050  0.663936  0.639281  1
  S  S9  1  0.000050  0.663936  0.860719  1
  S  S10  1  0.007157  0.343230  0.140789  1
  S  S11  1  0.007157  0.343230  0.359211  1
  S  S12  1  0.336064  0.336114  0.639281  1
  S  S13  1  0.336064  0.336114  0.860719  1
  S  S14  1  0.656770  0.663927  0.140789  1
  S  S15  1  0.656770  0.663927  0.359211  1
  S  S16  1  0.336073  0.992843  0.140789  1
  S  S17  1  0.336073  0.992843  0.359211  1
  S  S18  1  0.663886  0.999950  0.639281  1
  S  S19  1  0.663886  0.999950  0.860719  1
