# generated using pymatgen
data_NaNp(ReH9)2
_symmetry_space_group_name_H-M   'P 1'
_cell_length_a   5.18790475
_cell_length_b   5.18895748
_cell_length_c   8.51197335
_cell_angle_alpha   90.67260602
_cell_angle_beta   89.29249414
_cell_angle_gamma   124.53988679
_symmetry_Int_Tables_number   1
_chemical_formula_structural   NaNp(ReH9)2
_chemical_formula_sum   'Na1 Np1 Re2 H18'
_cell_volume   188.73299649
_cell_formula_units_Z   1
loop_
 _symmetry_equiv_pos_site_id
 _symmetry_equiv_pos_as_xyz
  1  'x, y, z'
loop_
 _atom_site_type_symbol
 _atom_site_label
 _atom_site_symmetry_multiplicity
 _atom_site_fract_x
 _atom_site_fract_y
 _atom_site_fract_z
 _atom_site_occupancy
  Na  Na0  1  0.000000  0.000000  0.000000  1
  Np  Np1  1  0.000000  0.000000  0.500000  1
  Re  Re2  1  0.339172  0.660894  0.732242  1
  Re  Re3  1  0.660828  0.339106  0.267758  1
  H  H4  1  0.388753  0.612069  0.534704  1
  H  H5  1  0.611247  0.387931  0.465296  1
  H  H6  1  0.423146  0.576522  0.903881  1
  H  H7  1  0.576854  0.423478  0.096119  1
  H  H8  1  0.479016  0.949817  0.867322  1
  H  H9  1  0.950209  0.479174  0.132804  1
  H  H10  1  0.582641  0.021135  0.655018  1
  H  H11  1  0.020690  0.581692  0.345113  1
  H  H12  1  0.520984  0.050183  0.132678  1
  H  H13  1  0.049791  0.520826  0.867196  1
  H  H14  1  0.417359  0.978865  0.344982  1
  H  H15  1  0.979310  0.418308  0.654887  1
  H  H16  1  0.709818  0.737258  0.730692  1
  H  H17  1  0.737691  0.709742  0.269352  1
  H  H18  1  0.290182  0.262742  0.269308  1
  H  H19  1  0.262309  0.290258  0.730648  1
  H  H20  1  0.154985  0.845636  0.720526  1
  H  H21  1  0.845015  0.154364  0.279474  1
