# generated using pymatgen
data_CaSm(Re2Si)4
_symmetry_space_group_name_H-M   'P 1'
_cell_length_a   7.41668403
_cell_length_b   7.41668403
_cell_length_c   4.16833900
_cell_angle_alpha   90.00000000
_cell_angle_beta   90.00000000
_cell_angle_gamma   90.58917694
_symmetry_Int_Tables_number   1
_chemical_formula_structural   CaSm(Re2Si)4
_chemical_formula_sum   'Ca1 Sm1 Re8 Si4'
_cell_volume   229.27654289
_cell_formula_units_Z   1
loop_
 _symmetry_equiv_pos_site_id
 _symmetry_equiv_pos_as_xyz
  1  'x, y, z'
loop_
 _atom_site_type_symbol
 _atom_site_label
 _atom_site_symmetry_multiplicity
 _atom_site_fract_x
 _atom_site_fract_y
 _atom_site_fract_z
 _atom_site_occupancy
  Ca  Ca0  1  0.500000  0.500000  0.000000  1
  Sm  Sm1  1  0.000000  0.000000  0.500000  1
  Re  Re2  1  0.593066  0.158232  0.500000  1
  Re  Re3  1  0.406934  0.841768  0.500000  1
  Re  Re4  1  0.095553  0.343058  0.000000  1
  Re  Re5  1  0.904447  0.656942  0.000000  1
  Re  Re6  1  0.158232  0.593066  0.500000  1
  Re  Re7  1  0.841768  0.406934  0.500000  1
  Re  Re8  1  0.343058  0.095553  0.000000  1
  Re  Re9  1  0.656942  0.904447  0.000000  1
  Si  Si10  1  0.706180  0.706180  0.500000  1
  Si  Si11  1  0.293820  0.293820  0.500000  1
  Si  Si12  1  0.211802  0.788198  0.000000  1
  Si  Si13  1  0.788198  0.211802  0.000000  1
