# generated using pymatgen
data_Ca2Si7NiRh11
_symmetry_space_group_name_H-M   'P 1'
_cell_length_a   9.74795137
_cell_length_b   9.69418861
_cell_length_c   3.86215100
_cell_angle_alpha   90.00000000
_cell_angle_beta   90.00000000
_cell_angle_gamma   120.71408033
_symmetry_Int_Tables_number   1
_chemical_formula_structural   Ca2Si7NiRh11
_chemical_formula_sum   'Ca2 Si7 Ni1 Rh11'
_cell_volume   313.77224405
_cell_formula_units_Z   1
loop_
 _symmetry_equiv_pos_site_id
 _symmetry_equiv_pos_as_xyz
  1  'x, y, z'
loop_
 _atom_site_type_symbol
 _atom_site_label
 _atom_site_symmetry_multiplicity
 _atom_site_fract_x
 _atom_site_fract_y
 _atom_site_fract_z
 _atom_site_occupancy
  Ca  Ca0  1  0.996896  0.999971  0.000000  1
  Ca  Ca1  1  0.666001  0.332020  0.500000  1
  Si  Si2  1  0.625335  0.556409  0.000000  1
  Si  Si3  1  0.937434  0.380451  0.000000  1
  Si  Si4  1  0.438542  0.060074  0.000000  1
  Si  Si5  1  0.727881  0.958192  0.500000  1
  Si  Si6  1  0.226590  0.266081  0.500000  1
  Si  Si7  1  0.043069  0.773876  0.500000  1
  Si  Si8  1  0.331250  0.672646  0.000000  1
  Ni  Ni9  1  0.208654  0.819519  0.000000  1
  Rh  Rh10  1  0.398907  0.288575  0.000000  1
  Rh  Rh11  1  0.899787  0.605152  0.000000  1
  Rh  Rh12  1  0.705661  0.108516  0.000000  1
  Rh  Rh13  1  0.607561  0.788759  0.000000  1
  Rh  Rh14  1  0.183992  0.392089  0.000000  1
  Rh  Rh15  1  0.773998  0.721254  0.500000  1
  Rh  Rh16  1  0.948751  0.229662  0.500000  1
  Rh  Rh17  1  0.272861  0.043115  0.500000  1
  Rh  Rh18  1  0.436870  0.540503  0.500000  1
  Rh  Rh19  1  0.118615  0.577063  0.500000  1
  Rh  Rh20  1  0.451345  0.886073  0.500000  1
