# generated using pymatgen
data_Tb13Ho3InAg3PtRh3
_symmetry_space_group_name_H-M   'P 1'
_cell_length_a   9.55043810
_cell_length_b   9.60418026
_cell_length_c   9.59556100
_cell_angle_alpha   60.20706364
_cell_angle_beta   60.03089857
_cell_angle_gamma   60.02909757
_symmetry_Int_Tables_number   1
_chemical_formula_structural   Tb13Ho3InAg3PtRh3
_chemical_formula_sum   'Tb13 Ho3 In1 Ag3 Pt1 Rh3'
_cell_volume   623.60755969
_cell_formula_units_Z   1
loop_
 _symmetry_equiv_pos_site_id
 _symmetry_equiv_pos_as_xyz
  1  'x, y, z'
loop_
 _atom_site_type_symbol
 _atom_site_label
 _atom_site_symmetry_multiplicity
 _atom_site_fract_x
 _atom_site_fract_y
 _atom_site_fract_z
 _atom_site_occupancy
  Tb  Tb0  1  0.648352  0.054559  0.648816  1
  Tb  Tb1  1  0.067583  0.061572  0.435937  1
  Tb  Tb2  1  0.437669  0.435896  0.062580  1
  Tb  Tb3  1  0.647686  0.649637  0.647502  1
  Tb  Tb4  1  0.809939  0.188050  0.192639  1
  Tb  Tb5  1  0.187151  0.812782  0.813020  1
  Tb  Tb6  1  0.057384  0.647938  0.646319  1
  Tb  Tb7  1  0.438067  0.063472  0.062526  1
  Tb  Tb8  1  0.438416  0.062600  0.435408  1
  Tb  Tb9  1  0.068279  0.436100  0.061580  1
  Tb  Tb10  1  0.647700  0.649676  0.054943  1
  Tb  Tb11  1  0.186930  0.813511  0.188466  1
  Tb  Tb12  1  0.068840  0.435022  0.434126  1
  Ho  Ho13  1  0.811581  0.809659  0.189464  1
  Ho  Ho14  1  0.811519  0.187638  0.809027  1
  Ho  Ho15  1  0.190281  0.186594  0.812570  1
  In  In16  1  0.737273  0.421098  0.421493  1
  Ag  Ag17  1  0.416183  0.417956  0.417903  1
  Ag  Ag18  1  0.415989  0.417024  0.748573  1
  Ag  Ag19  1  0.416147  0.748732  0.416989  1
  Pt  Pt20  1  0.856551  0.428040  0.856297  1
  Rh  Rh21  1  0.856763  0.858061  0.858258  1
  Rh  Rh22  1  0.855666  0.856791  0.428426  1
  Rh  Rh23  1  0.428050  0.857591  0.857135  1
