# generated using pymatgen
data_BiSb2O6F
_symmetry_space_group_name_H-M   'P 1'
_cell_length_a   7.41039971
_cell_length_b   7.41040039
_cell_length_c   7.41039958
_cell_angle_alpha   120.02819093
_cell_angle_beta   119.59826403
_cell_angle_gamma   90.32421227
_symmetry_Int_Tables_number   1
_chemical_formula_structural   BiSb2O6F
_chemical_formula_sum   'Bi2 Sb4 O12 F2'
_cell_volume   288.54869106
_cell_formula_units_Z   2
loop_
 _symmetry_equiv_pos_site_id
 _symmetry_equiv_pos_as_xyz
  1  'x, y, z'
loop_
 _atom_site_type_symbol
 _atom_site_label
 _atom_site_symmetry_multiplicity
 _atom_site_fract_x
 _atom_site_fract_y
 _atom_site_fract_z
 _atom_site_occupancy
  Bi  Bi0  1  0.500000  0.500000  0.000000  1
  Bi  Bi1  1  0.000000  0.500000  0.500000  1
  Sb  Sb2  1  0.000000  0.000000  0.000000  1
  Sb  Sb3  1  0.500000  0.000000  0.500000  1
  Sb  Sb4  1  0.500000  0.000000  0.000000  1
  Sb  Sb5  1  0.500000  0.500000  0.500000  1
  O  O6  1  0.184501  0.934501  0.250000  1
  O  O7  1  0.576295  0.326295  0.250000  1
  O  O8  1  0.177434  0.912477  0.848596  1
  O  O9  1  0.563883  0.328838  0.651404  1
  O  O10  1  0.563883  0.912477  0.235044  1
  O  O11  1  0.177434  0.328838  0.264956  1
  O  O12  1  0.815499  0.065499  0.750000  1
  O  O13  1  0.423705  0.673705  0.750000  1
  O  O14  1  0.822566  0.087523  0.151404  1
  O  O15  1  0.436117  0.671162  0.348596  1
  O  O16  1  0.436117  0.087523  0.764956  1
  O  O17  1  0.822566  0.671162  0.735044  1
  F  F18  1  0.870206  0.620206  0.250000  1
  F  F19  1  0.129794  0.379794  0.750000  1
