# generated using pymatgen
data_Co(S8Cl)3
_symmetry_space_group_name_H-M   'P 1'
_cell_length_a   14.93349190
_cell_length_b   14.93349134
_cell_length_c   14.93349173
_cell_angle_alpha   118.83619284
_cell_angle_beta   118.83619360
_cell_angle_gamma   118.83619505
_symmetry_Int_Tables_number   1
_chemical_formula_structural   Co(S8Cl)3
_chemical_formula_sum   'Co1 S24 Cl3'
_cell_volume   928.61626044
_cell_formula_units_Z   1
loop_
 _symmetry_equiv_pos_site_id
 _symmetry_equiv_pos_as_xyz
  1  'x, y, z'
loop_
 _atom_site_type_symbol
 _atom_site_label
 _atom_site_symmetry_multiplicity
 _atom_site_fract_x
 _atom_site_fract_y
 _atom_site_fract_z
 _atom_site_occupancy
  Co  Co0  1  0.077885  0.077885  0.077885  1
  S  S1  1  0.011575  0.609849  0.609849  1
  S  S2  1  0.609849  0.609849  0.011575  1
  S  S3  1  0.609849  0.011575  0.609849  1
  S  S4  1  0.238901  0.851896  0.721712  1
  S  S5  1  0.851896  0.721712  0.238901  1
  S  S6  1  0.721712  0.238901  0.851896  1
  S  S7  1  0.851896  0.238901  0.721712  1
  S  S8  1  0.238901  0.721712  0.851896  1
  S  S9  1  0.721712  0.851896  0.238901  1
  S  S10  1  0.096365  0.626488  0.442175  1
  S  S11  1  0.626488  0.442175  0.096365  1
  S  S12  1  0.442175  0.096365  0.626488  1
  S  S13  1  0.626488  0.096365  0.442175  1
  S  S14  1  0.096365  0.442175  0.626488  1
  S  S15  1  0.442175  0.626488  0.096365  1
  S  S16  1  0.360762  0.748262  0.617505  1
  S  S17  1  0.748262  0.617505  0.360762  1
  S  S18  1  0.617505  0.360762  0.748262  1
  S  S19  1  0.748262  0.360762  0.617505  1
  S  S20  1  0.360762  0.617505  0.748262  1
  S  S21  1  0.617505  0.748262  0.360762  1
  S  S22  1  0.186071  0.463653  0.463653  1
  S  S23  1  0.463653  0.463653  0.186071  1
  S  S24  1  0.463653  0.186071  0.463653  1
  Cl  Cl25  1  0.166328  0.025054  0.025054  1
  Cl  Cl26  1  0.025054  0.025054  0.166328  1
  Cl  Cl27  1  0.025054  0.166328  0.025054  1
