# generated using pymatgen
data_Tb6Zn17Ag6C
_symmetry_space_group_name_H-M   'P 1'
_cell_length_a   9.03312930
_cell_length_b   9.04806134
_cell_length_c   9.04806100
_cell_angle_alpha   59.99999758
_cell_angle_beta   59.94530069
_cell_angle_gamma   59.94529434
_symmetry_Int_Tables_number   1
_chemical_formula_structural   Tb6Zn17Ag6C
_chemical_formula_sum   'Tb6 Zn17 Ag6 C1'
_cell_volume   522.48604446
_cell_formula_units_Z   1
loop_
 _symmetry_equiv_pos_site_id
 _symmetry_equiv_pos_as_xyz
  1  'x, y, z'
loop_
 _atom_site_type_symbol
 _atom_site_label
 _atom_site_symmetry_multiplicity
 _atom_site_fract_x
 _atom_site_fract_y
 _atom_site_fract_z
 _atom_site_occupancy
  Tb  Tb0  1  0.695596  0.304906  0.304906  1
  Tb  Tb1  1  0.304404  0.695094  0.695094  1
  Tb  Tb2  1  0.304404  0.695094  0.305408  1
  Tb  Tb3  1  0.695596  0.304906  0.694592  1
  Tb  Tb4  1  0.304404  0.305408  0.695094  1
  Tb  Tb5  1  0.695596  0.694592  0.304906  1
  Zn  Zn6  1  0.640034  0.119989  0.119989  1
  Zn  Zn7  1  0.359966  0.880011  0.880011  1
  Zn  Zn8  1  0.500000  0.000000  0.000000  1
  Zn  Zn9  1  0.000000  0.500000  0.500000  1
  Zn  Zn10  1  0.000000  0.500000  0.000000  1
  Zn  Zn11  1  0.500000  0.000000  0.500000  1
  Zn  Zn12  1  0.000000  0.000000  0.500000  1
  Zn  Zn13  1  0.500000  0.500000  0.000000  1
  Zn  Zn14  1  0.328642  0.326556  0.326556  1
  Zn  Zn15  1  0.671358  0.673444  0.673444  1
  Zn  Zn16  1  0.328642  0.326556  0.018247  1
  Zn  Zn17  1  0.328642  0.018247  0.326556  1
  Zn  Zn18  1  0.671358  0.673444  0.981753  1
  Zn  Zn19  1  0.671358  0.981753  0.673444  1
  Zn  Zn20  1  0.019776  0.326742  0.326742  1
  Zn  Zn21  1  0.980224  0.673258  0.673258  1
  Zn  Zn22  1  0.000000  0.000000  0.000000  1
  Ag  Ag23  1  0.122146  0.117581  0.117581  1
  Ag  Ag24  1  0.877854  0.882419  0.882419  1
  Ag  Ag25  1  0.122146  0.117581  0.642694  1
  Ag  Ag26  1  0.122146  0.642694  0.117581  1
  Ag  Ag27  1  0.877854  0.882419  0.357306  1
  Ag  Ag28  1  0.877854  0.357306  0.882419  1
  C  C29  1  0.500000  0.500000  0.500000  1
