# generated using pymatgen
data_Ti4Al2Fe5Co5B4
_symmetry_space_group_name_H-M   'P 1'
_cell_length_a   8.63325589
_cell_length_b   8.59611445
_cell_length_c   2.86490000
_cell_angle_alpha   90.00000000
_cell_angle_beta   90.00000000
_cell_angle_gamma   90.14291402
_symmetry_Int_Tables_number   1
_chemical_formula_structural   Ti4Al2Fe5Co5B4
_chemical_formula_sum   'Ti4 Al2 Fe5 Co5 B4'
_cell_volume   212.61060278
_cell_formula_units_Z   1
loop_
 _symmetry_equiv_pos_site_id
 _symmetry_equiv_pos_as_xyz
  1  'x, y, z'
loop_
 _atom_site_type_symbol
 _atom_site_label
 _atom_site_symmetry_multiplicity
 _atom_site_fract_x
 _atom_site_fract_y
 _atom_site_fract_z
 _atom_site_occupancy
  Ti  Ti0  1  0.831121  0.318087  0.000000  1
  Ti  Ti1  1  0.318731  0.169253  0.000000  1
  Ti  Ti2  1  0.675764  0.830824  0.000000  1
  Ti  Ti3  1  0.174261  0.677976  0.000000  1
  Al  Al4  1  0.999804  0.001349  0.000000  1
  Al  Al5  1  0.500742  0.499981  0.000000  1
  Fe  Fe6  1  0.498721  0.000287  0.500000  1
  Fe  Fe7  1  0.000662  0.502128  0.500000  1
  Fe  Fe8  1  0.072414  0.219752  0.500000  1
  Fe  Fe9  1  0.217442  0.925240  0.500000  1
  Fe  Fe10  1  0.780527  0.070648  0.500000  1
  Co  Co11  1  0.927287  0.782183  0.500000  1
  Co  Co12  1  0.432230  0.718351  0.500000  1
  Co  Co13  1  0.569418  0.281876  0.500000  1
  Co  Co14  1  0.719231  0.571674  0.500000  1
  Co  Co15  1  0.282371  0.431462  0.500000  1
  B  B16  1  0.623300  0.121023  0.000000  1
  B  B17  1  0.121914  0.376970  0.000000  1
  B  B18  1  0.878291  0.622137  0.000000  1
  B  B19  1  0.375769  0.878797  0.000000  1
