# generated using pymatgen
data_Ac4C4Br3
_symmetry_space_group_name_H-M   'P 1'
_cell_length_a   4.43134488
_cell_length_b   11.75061755
_cell_length_c   11.95340303
_cell_angle_alpha   102.95497850
_cell_angle_beta   89.87249530
_cell_angle_gamma   95.19137263
_symmetry_Int_Tables_number   1
_chemical_formula_structural   Ac4C4Br3
_chemical_formula_sum   'Ac8 C8 Br6'
_cell_volume   603.99043390
_cell_formula_units_Z   2
loop_
 _symmetry_equiv_pos_site_id
 _symmetry_equiv_pos_as_xyz
  1  'x, y, z'
loop_
 _atom_site_type_symbol
 _atom_site_label
 _atom_site_symmetry_multiplicity
 _atom_site_fract_x
 _atom_site_fract_y
 _atom_site_fract_z
 _atom_site_occupancy
  Ac  Ac0  1  0.620641  0.173375  0.020217  1
  Ac  Ac1  1  0.232916  0.368714  0.830428  1
  Ac  Ac2  1  0.379359  0.826625  0.979783  1
  Ac  Ac3  1  0.623879  0.176722  0.560659  1
  Ac  Ac4  1  0.978818  0.980779  0.245145  1
  Ac  Ac5  1  0.021182  0.019221  0.754855  1
  Ac  Ac6  1  0.767084  0.631286  0.169572  1
  Ac  Ac7  1  0.376121  0.823278  0.439341  1
  C  C8  1  0.507236  0.839778  0.212796  1
  C  C9  1  0.872737  0.965028  0.000529  1
  C  C10  1  0.249613  0.764484  0.194574  1
  C  C11  1  0.127263  0.034972  0.999471  1
  C  C12  1  0.125227  0.034228  0.518470  1
  C  C13  1  0.874773  0.965772  0.481530  1
  C  C14  1  0.750387  0.235516  0.805426  1
  C  C15  1  0.492764  0.160222  0.787204  1
  Br  Br16  1  0.198272  0.387728  0.579976  1
  Br  Br17  1  0.200531  0.403155  0.105513  1
  Br  Br18  1  0.799469  0.596845  0.894487  1
  Br  Br19  1  0.578152  0.204433  0.295534  1
  Br  Br20  1  0.421848  0.795567  0.704466  1
  Br  Br21  1  0.801728  0.612272  0.420024  1
