# generated using pymatgen
data_Tm2NiB8Ir
_symmetry_space_group_name_H-M   'P 1'
_cell_length_a   6.88393490
_cell_length_b   6.88393472
_cell_length_c   6.88393612
_cell_angle_alpha   111.10947744
_cell_angle_beta   113.30927030
_cell_angle_gamma   104.13188856
_symmetry_Int_Tables_number   1
_chemical_formula_structural   Tm2NiB8Ir
_chemical_formula_sum   'Tm4 Ni2 B16 Ir2'
_cell_volume   249.40714395
_cell_formula_units_Z   2
loop_
 _symmetry_equiv_pos_site_id
 _symmetry_equiv_pos_as_xyz
  1  'x, y, z'
loop_
 _atom_site_type_symbol
 _atom_site_label
 _atom_site_symmetry_multiplicity
 _atom_site_fract_x
 _atom_site_fract_y
 _atom_site_fract_z
 _atom_site_occupancy
  Tm  Tm0  1  0.789735  0.789735  0.000000  1
  Tm  Tm1  1  0.210265  0.210265  0.000000  1
  Tm  Tm2  1  0.751191  0.251191  0.500000  1
  Tm  Tm3  1  0.248809  0.748809  0.500000  1
  Ni  Ni4  1  0.500000  0.746476  0.246476  1
  Ni  Ni5  1  0.500000  0.253524  0.753524  1
  B  B6  1  0.272572  0.108066  0.380637  1
  B  B7  1  0.727428  0.891934  0.619363  1
  B  B8  1  0.272572  0.891934  0.164505  1
  B  B9  1  0.727428  0.108066  0.835495  1
  B  B10  1  0.110475  0.731435  0.841911  1
  B  B11  1  0.889525  0.268565  0.158089  1
  B  B12  1  0.110475  0.268565  0.379041  1
  B  B13  1  0.889525  0.731435  0.620959  1
  B  B14  1  0.115457  0.109602  0.529608  1
  B  B15  1  0.579994  0.585850  0.470392  1
  B  B16  1  0.115457  0.585850  0.005856  1
  B  B17  1  0.579994  0.109602  0.994144  1
  B  B18  1  0.884543  0.890398  0.470392  1
  B  B19  1  0.420006  0.414150  0.529608  1
  B  B20  1  0.884544  0.414150  0.994144  1
  B  B21  1  0.420006  0.890399  0.005856  1
  Ir  Ir22  1  0.275892  0.500000  0.775892  1
  Ir  Ir23  1  0.724108  0.500000  0.224108  1
