# generated using pymatgen
data_Sr8P5Br
_symmetry_space_group_name_H-M   'P 1'
_cell_length_a   8.12193515
_cell_length_b   8.12193490
_cell_length_c   8.12193502
_cell_angle_alpha   109.34647557
_cell_angle_beta   109.34648092
_cell_angle_gamma   109.72100180
_symmetry_Int_Tables_number   1
_chemical_formula_structural   Sr8P5Br
_chemical_formula_sum   'Sr8 P5 Br1'
_cell_volume   412.43015242
_cell_formula_units_Z   1
loop_
 _symmetry_equiv_pos_site_id
 _symmetry_equiv_pos_as_xyz
  1  'x, y, z'
loop_
 _atom_site_type_symbol
 _atom_site_label
 _atom_site_symmetry_multiplicity
 _atom_site_fract_x
 _atom_site_fract_y
 _atom_site_fract_z
 _atom_site_occupancy
  Sr  Sr0  1  0.734374  0.365014  0.242361  1
  Sr  Sr1  1  0.982069  0.738958  0.095634  1
  Sr  Sr2  1  0.643325  0.886435  0.904366  1
  Sr  Sr3  1  0.122653  0.492013  0.757639  1
  Sr  Sr4  1  0.634986  0.877347  0.369361  1
  Sr  Sr5  1  0.507987  0.265626  0.630639  1
  Sr  Sr6  1  0.261042  0.356675  0.243110  1
  Sr  Sr7  1  0.113565  0.017931  0.756890  1
  P  P8  1  0.746566  0.631780  0.622252  1
  P  P9  1  0.368220  0.990472  0.114786  1
  P  P10  1  0.009528  0.124314  0.377748  1
  P  P11  1  0.500000  0.500000  0.000000  1
  P  P12  1  0.875686  0.253434  0.885214  1
  Br  Br13  1  0.250000  0.750000  0.500000  1
