# generated using pymatgen
data_DyErCo12GeP6
_symmetry_space_group_name_H-M   'P 1'
_cell_length_a   9.07981700
_cell_length_b   9.07981746
_cell_length_c   3.57845100
_cell_angle_alpha   90.00000000
_cell_angle_beta   90.00000000
_cell_angle_gamma   119.99999469
_symmetry_Int_Tables_number   1
_chemical_formula_structural   DyErCo12GeP6
_chemical_formula_sum   'Dy1 Er1 Co12 Ge1 P6'
_cell_volume   255.49355116
_cell_formula_units_Z   1
loop_
 _symmetry_equiv_pos_site_id
 _symmetry_equiv_pos_as_xyz
  1  'x, y, z'
loop_
 _atom_site_type_symbol
 _atom_site_label
 _atom_site_symmetry_multiplicity
 _atom_site_fract_x
 _atom_site_fract_y
 _atom_site_fract_z
 _atom_site_occupancy
  Dy  Dy0  1  0.666667  0.333333  0.500000  1
  Er  Er1  1  0.333333  0.666667  0.000000  1
  Co  Co2  1  0.126275  0.838860  0.000000  1
  Co  Co3  1  0.385824  0.439250  0.500000  1
  Co  Co4  1  0.712585  0.873725  0.000000  1
  Co  Co5  1  0.560750  0.946574  0.500000  1
  Co  Co6  1  0.249396  0.110428  0.500000  1
  Co  Co7  1  0.861032  0.750604  0.500000  1
  Co  Co8  1  0.889572  0.138968  0.500000  1
  Co  Co9  1  0.939609  0.376373  0.000000  1
  Co  Co10  1  0.623627  0.563234  0.000000  1
  Co  Co11  1  0.436766  0.060391  0.000000  1
  Co  Co12  1  0.053426  0.614176  0.500000  1
  Co  Co13  1  0.161140  0.287415  0.000000  1
  Ge  Ge14  1  0.000000  0.000000  0.000000  1
  P  P15  1  0.596127  0.708411  0.500000  1
  P  P16  1  0.707217  0.112503  0.000000  1
  P  P17  1  0.887497  0.594714  0.000000  1
  P  P18  1  0.405286  0.292783  0.000000  1
  P  P19  1  0.291589  0.887716  0.500000  1
  P  P20  1  0.112284  0.403873  0.500000  1
