# generated using pymatgen
data_Nd4Al18PtRh5
_symmetry_space_group_name_H-M   'P 1'
_cell_length_a   7.63756082
_cell_length_b   7.63756073
_cell_length_c   9.60496896
_cell_angle_alpha   89.99002480
_cell_angle_beta   89.99002106
_cell_angle_gamma   119.47151157
_symmetry_Int_Tables_number   1
_chemical_formula_structural   Nd4Al18PtRh5
_chemical_formula_sum   'Nd4 Al18 Pt1 Rh5'
_cell_volume   487.78020824
_cell_formula_units_Z   1
loop_
 _symmetry_equiv_pos_site_id
 _symmetry_equiv_pos_as_xyz
  1  'x, y, z'
loop_
 _atom_site_type_symbol
 _atom_site_label
 _atom_site_symmetry_multiplicity
 _atom_site_fract_x
 _atom_site_fract_y
 _atom_site_fract_z
 _atom_site_occupancy
  Nd  Nd0  1  0.994978  0.669485  0.249610  1
  Nd  Nd1  1  0.003718  0.329131  0.750777  1
  Nd  Nd2  1  0.670869  0.996282  0.249223  1
  Nd  Nd3  1  0.330515  0.005022  0.750390  1
  Al  Al4  1  0.129130  0.128485  0.250215  1
  Al  Al5  1  0.871515  0.870870  0.749785  1
  Al  Al6  1  0.006472  0.335006  0.075027  1
  Al  Al7  1  0.000875  0.668951  0.925399  1
  Al  Al8  1  0.998353  0.665108  0.573064  1
  Al  Al9  1  0.334892  0.001647  0.426936  1
  Al  Al10  1  0.002907  0.334862  0.426494  1
  Al  Al11  1  0.665138  0.997093  0.573506  1
  Al  Al12  1  0.664994  0.993528  0.924973  1
  Al  Al13  1  0.331049  0.999125  0.074601  1
  Al  Al14  1  0.333482  0.333751  0.546865  1
  Al  Al15  1  0.666249  0.666518  0.453135  1
  Al  Al16  1  0.665316  0.668920  0.049185  1
  Al  Al17  1  0.331080  0.334684  0.950815  1
  Al  Al18  1  0.340308  0.548428  0.250151  1
  Al  Al19  1  0.660177  0.455397  0.746697  1
  Al  Al20  1  0.544603  0.339823  0.253303  1
  Al  Al21  1  0.451572  0.659692  0.749849  1
  Pt  Pt22  1  0.671689  0.328311  0.000000  1
  Rh  Rh23  1  0.328987  0.671013  0.000000  1
  Rh  Rh24  1  0.329167  0.670833  0.500000  1
  Rh  Rh25  1  0.671432  0.328568  0.500000  1
  Rh  Rh26  1  0.000153  0.999847  0.000000  1
  Rh  Rh27  1  0.000379  0.999621  0.500000  1
