# generated using pymatgen
data_NdEuNi2(PH2)2
_symmetry_space_group_name_H-M   'P 1'
_cell_length_a   4.03453700
_cell_length_b   4.03453729
_cell_length_c   8.24115000
_cell_angle_alpha   90.00000000
_cell_angle_beta   90.00000000
_cell_angle_gamma   120.00002224
_symmetry_Int_Tables_number   1
_chemical_formula_structural   NdEuNi2(PH2)2
_chemical_formula_sum   'Nd1 Eu1 Ni2 P2 H4'
_cell_volume   116.17315649
_cell_formula_units_Z   1
loop_
 _symmetry_equiv_pos_site_id
 _symmetry_equiv_pos_as_xyz
  1  'x, y, z'
loop_
 _atom_site_type_symbol
 _atom_site_label
 _atom_site_symmetry_multiplicity
 _atom_site_fract_x
 _atom_site_fract_y
 _atom_site_fract_z
 _atom_site_occupancy
  Nd  Nd0  1  0.000000  0.000000  0.500000  1
  Eu  Eu1  1  0.000000  0.000000  0.000000  1
  Ni  Ni2  1  0.666667  0.333333  0.251062  1
  Ni  Ni3  1  0.333333  0.666667  0.748938  1
  P  P4  1  0.333333  0.666667  0.247273  1
  P  P5  1  0.666667  0.333333  0.752727  1
  H  H6  1  0.333333  0.666667  0.940117  1
  H  H7  1  0.666667  0.333333  0.059883  1
  H  H8  1  0.333333  0.666667  0.556727  1
  H  H9  1  0.666667  0.333333  0.443273  1
