# generated using pymatgen
data_PmNi2Rh3
_symmetry_space_group_name_H-M   'P 1'
_cell_length_a   5.22865804
_cell_length_b   5.22859437
_cell_length_c   4.08632700
_cell_angle_alpha   90.00000000
_cell_angle_beta   90.00000000
_cell_angle_gamma   60.07060887
_symmetry_Int_Tables_number   1
_chemical_formula_structural   PmNi2Rh3
_chemical_formula_sum   'Pm1 Ni2 Rh3'
_cell_volume   96.81608150
_cell_formula_units_Z   1
loop_
 _symmetry_equiv_pos_site_id
 _symmetry_equiv_pos_as_xyz
  1  'x, y, z'
loop_
 _atom_site_type_symbol
 _atom_site_label
 _atom_site_symmetry_multiplicity
 _atom_site_fract_x
 _atom_site_fract_y
 _atom_site_fract_z
 _atom_site_occupancy
  Pm  Pm0  1  0.999997  0.000001  0.000000  1
  Ni  Ni1  1  0.333311  0.333300  0.000000  1
  Ni  Ni2  1  0.666689  0.666698  0.000000  1
  Rh  Rh3  1  0.500420  0.999899  0.499999  1
  Rh  Rh4  1  0.999896  0.499684  0.499999  1
  Rh  Rh5  1  0.499681  0.500420  0.499999  1
