# generated using pymatgen
data_Sc6Co15Si7Os
_symmetry_space_group_name_H-M   'P 1'
_cell_length_a   8.04948803
_cell_length_b   8.04948579
_cell_length_c   8.08327507
_cell_angle_alpha   60.13817799
_cell_angle_beta   60.13818728
_cell_angle_gamma   60.00000512
_symmetry_Int_Tables_number   1
_chemical_formula_structural   Sc6Co15Si7Os
_chemical_formula_sum   'Sc6 Co15 Si7 Os1'
_cell_volume   371.11858508
_cell_formula_units_Z   1
loop_
 _symmetry_equiv_pos_site_id
 _symmetry_equiv_pos_as_xyz
  1  'x, y, z'
loop_
 _atom_site_type_symbol
 _atom_site_label
 _atom_site_symmetry_multiplicity
 _atom_site_fract_x
 _atom_site_fract_y
 _atom_site_fract_z
 _atom_site_occupancy
  Sc  Sc0  1  0.212051  0.789216  0.786680  1
  Sc  Sc1  1  0.791565  0.791565  0.211970  1
  Sc  Sc2  1  0.791565  0.204900  0.211970  1
  Sc  Sc3  1  0.212051  0.212051  0.786680  1
  Sc  Sc4  1  0.789216  0.212051  0.786680  1
  Sc  Sc5  1  0.204900  0.791565  0.211970  1
  Co  Co6  1  0.172921  0.480146  0.174014  1
  Co  Co7  1  0.860423  0.378542  0.382491  1
  Co  Co8  1  0.519307  0.829472  0.821749  1
  Co  Co9  1  0.480146  0.172921  0.174014  1
  Co  Co10  1  0.826063  0.826063  0.521810  1
  Co  Co11  1  0.173642  0.173642  0.479074  1
  Co  Co12  1  0.137947  0.620666  0.620722  1
  Co  Co13  1  0.172921  0.172921  0.174014  1
  Co  Co14  1  0.379466  0.379466  0.861603  1
  Co  Co15  1  0.620666  0.620666  0.620722  1
  Co  Co16  1  0.378542  0.860423  0.382491  1
  Co  Co17  1  0.378542  0.378542  0.382491  1
  Co  Co18  1  0.829472  0.829472  0.821749  1
  Co  Co19  1  0.620666  0.137947  0.620722  1
  Co  Co20  1  0.829472  0.519307  0.821749  1
  Si  Si21  1  0.498968  0.001589  0.497854  1
  Si  Si22  1  0.498839  0.498839  0.999202  1
  Si  Si23  1  0.496247  0.496247  0.511260  1
  Si  Si24  1  0.001589  0.001589  0.497854  1
  Si  Si25  1  0.003119  0.498839  0.999202  1
  Si  Si26  1  0.001589  0.498968  0.497854  1
  Si  Si27  1  0.498839  0.003119  0.999202  1
  Os  Os28  1  0.619265  0.619265  0.142206  1
