# generated using pymatgen
data_Hf2FeNiAsP
_symmetry_space_group_name_H-M   'P 1'
_cell_length_a   3.75438700
_cell_length_b   6.38688996
_cell_length_c   7.23473146
_cell_angle_alpha   91.61000329
_cell_angle_beta   90.00000000
_cell_angle_gamma   90.00000000
_symmetry_Int_Tables_number   1
_chemical_formula_structural   Hf2FeNiAsP
_chemical_formula_sum   'Hf4 Fe2 Ni2 As2 P2'
_cell_volume   173.41210267
_cell_formula_units_Z   2
loop_
 _symmetry_equiv_pos_site_id
 _symmetry_equiv_pos_as_xyz
  1  'x, y, z'
loop_
 _atom_site_type_symbol
 _atom_site_label
 _atom_site_symmetry_multiplicity
 _atom_site_fract_x
 _atom_site_fract_y
 _atom_site_fract_z
 _atom_site_occupancy
  Hf  Hf0  1  0.250000  0.476894  0.195922  1
  Hf  Hf1  1  0.750000  0.523106  0.804078  1
  Hf  Hf2  1  0.750000  0.015295  0.672508  1
  Hf  Hf3  1  0.250000  0.984705  0.327492  1
  Fe  Fe4  1  0.750000  0.635995  0.444458  1
  Fe  Fe5  1  0.250000  0.364005  0.555542  1
  Ni  Ni6  1  0.250000  0.852024  0.925075  1
  Ni  Ni7  1  0.750000  0.147976  0.074925  1
  As  As8  1  0.750000  0.765866  0.123212  1
  As  As9  1  0.250000  0.234134  0.876788  1
  P  P10  1  0.250000  0.722446  0.603381  1
  P  P11  1  0.750000  0.277554  0.396619  1
