# generated using pymatgen
data_Tb2ErCd3CuAu2
_symmetry_space_group_name_H-M   'P 1'
_cell_length_a   7.79988200
_cell_length_b   7.76730072
_cell_length_c   3.83486700
_cell_angle_alpha   90.00000000
_cell_angle_beta   90.00000000
_cell_angle_gamma   120.13885591
_symmetry_Int_Tables_number   1
_chemical_formula_structural   Tb2ErCd3CuAu2
_chemical_formula_sum   'Tb2 Er1 Cd3 Cu1 Au2'
_cell_volume   200.92303130
_cell_formula_units_Z   1
loop_
 _symmetry_equiv_pos_site_id
 _symmetry_equiv_pos_as_xyz
  1  'x, y, z'
loop_
 _atom_site_type_symbol
 _atom_site_label
 _atom_site_symmetry_multiplicity
 _atom_site_fract_x
 _atom_site_fract_y
 _atom_site_fract_z
 _atom_site_occupancy
  Tb  Tb0  1  0.000372  0.592279  0.000000  1
  Tb  Tb1  1  0.408093  0.407721  0.000000  1
  Er  Er2  1  0.591490  0.000000  0.000000  1
  Cd  Cd3  1  0.248408  0.000000  0.500000  1
  Cd  Cd4  1  0.998859  0.246764  0.500000  1
  Cd  Cd5  1  0.752095  0.753236  0.500000  1
  Cu  Cu6  1  0.999154  0.000000  0.000000  1
  Au  Au7  1  0.335364  0.669201  0.500000  1
  Au  Au8  1  0.666164  0.330799  0.500000  1
