# generated using pymatgen
data_Li4Mn2V(NiP)7
_symmetry_space_group_name_H-M   'P 1'
_cell_length_a   9.14926007
_cell_length_b   9.05575672
_cell_length_c   3.54115400
_cell_angle_alpha   90.00000000
_cell_angle_beta   90.00000000
_cell_angle_gamma   119.73223578
_symmetry_Int_Tables_number   1
_chemical_formula_structural   Li4Mn2V(NiP)7
_chemical_formula_sum   'Li4 Mn2 V1 Ni7 P7'
_cell_volume   254.77197464
_cell_formula_units_Z   1
loop_
 _symmetry_equiv_pos_site_id
 _symmetry_equiv_pos_as_xyz
  1  'x, y, z'
loop_
 _atom_site_type_symbol
 _atom_site_label
 _atom_site_symmetry_multiplicity
 _atom_site_fract_x
 _atom_site_fract_y
 _atom_site_fract_z
 _atom_site_occupancy
  Li  Li0  1  0.903203  0.125404  0.500000  1
  Li  Li1  1  0.217342  0.095503  0.500000  1
  Li  Li2  1  0.330852  0.665525  0.000000  1
  Li  Li3  1  0.666082  0.334781  0.500000  1
  Mn  Mn4  1  0.564779  0.952715  0.500000  1
  Mn  Mn5  1  0.389735  0.437904  0.500000  1
  V  V6  1  0.874397  0.778941  0.500000  1
  Ni  Ni7  1  0.718000  0.883320  0.000000  1
  Ni  Ni8  1  0.156703  0.276669  0.000000  1
  Ni  Ni9  1  0.123874  0.835006  0.000000  1
  Ni  Ni10  1  0.630832  0.568749  0.000000  1
  Ni  Ni11  1  0.939393  0.373867  0.000000  1
  Ni  Ni12  1  0.429347  0.060002  0.000000  1
  Ni  Ni13  1  0.052686  0.610936  0.500000  1
  P  P14  1  0.583729  0.710388  0.500000  1
  P  P15  1  0.133680  0.416540  0.500000  1
  P  P16  1  0.294519  0.875062  0.500000  1
  P  P17  1  0.995389  0.989526  0.000000  1
  P  P18  1  0.880844  0.582499  0.000000  1
  P  P19  1  0.698000  0.125201  0.000000  1
  P  P20  1  0.416614  0.301463  0.000000  1
