# generated using pymatgen
data_La9Pr7Mg4(IrOs)2
_symmetry_space_group_name_H-M   'P 1'
_cell_length_a   10.12865257
_cell_length_b   10.12865309
_cell_length_c   10.18743900
_cell_angle_alpha   59.80782463
_cell_angle_beta   59.80782294
_cell_angle_gamma   60.04055137
_symmetry_Int_Tables_number   1
_chemical_formula_structural   La9Pr7Mg4(IrOs)2
_chemical_formula_sum   'La9 Pr7 Mg4 Ir2 Os2'
_cell_volume   737.08554569
_cell_formula_units_Z   1
loop_
 _symmetry_equiv_pos_site_id
 _symmetry_equiv_pos_as_xyz
  1  'x, y, z'
loop_
 _atom_site_type_symbol
 _atom_site_label
 _atom_site_symmetry_multiplicity
 _atom_site_fract_x
 _atom_site_fract_y
 _atom_site_fract_z
 _atom_site_occupancy
  La  La0  1  0.344161  0.344161  0.346430  1
  La  La1  1  0.344161  0.344161  0.965249  1
  La  La2  1  0.344284  0.966614  0.344552  1
  La  La3  1  0.966614  0.344284  0.344552  1
  La  La4  1  0.812845  0.188045  0.188996  1
  La  La5  1  0.188045  0.812845  0.810114  1
  La  La6  1  0.188045  0.812845  0.188996  1
  La  La7  1  0.812845  0.188045  0.810114  1
  La  La8  1  0.188878  0.188878  0.811122  1
  Pr  Pr9  1  0.808700  0.808700  0.191300  1
  Pr  Pr10  1  0.936714  0.560997  0.563579  1
  Pr  Pr11  1  0.560997  0.936714  0.938710  1
  Pr  Pr12  1  0.560997  0.936714  0.563579  1
  Pr  Pr13  1  0.936714  0.560997  0.938710  1
  Pr  Pr14  1  0.563177  0.563177  0.936823  1
  Pr  Pr15  1  0.939606  0.939606  0.560394  1
  Mg  Mg16  1  0.578803  0.578803  0.578896  1
  Mg  Mg17  1  0.578803  0.578803  0.263498  1
  Mg  Mg18  1  0.578433  0.262865  0.579352  1
  Mg  Mg19  1  0.262865  0.578433  0.579352  1
  Ir  Ir20  1  0.145713  0.579957  0.137165  1
  Ir  Ir21  1  0.579957  0.145713  0.137165  1
  Os  Os22  1  0.139322  0.139322  0.137002  1
  Os  Os23  1  0.139322  0.139322  0.584352  1
