# generated using pymatgen
data_ErNb2(SiTc)3
_symmetry_space_group_name_H-M   'P 1'
_cell_length_a   6.90394500
_cell_length_b   6.99361476
_cell_length_c   3.38870800
_cell_angle_alpha   90.00000000
_cell_angle_beta   90.00000000
_cell_angle_gamma   119.57674740
_symmetry_Int_Tables_number   1
_chemical_formula_structural   ErNb2(SiTc)3
_chemical_formula_sum   'Er1 Nb2 Si3 Tc3'
_cell_volume   142.29849529
_cell_formula_units_Z   1
loop_
 _symmetry_equiv_pos_site_id
 _symmetry_equiv_pos_as_xyz
  1  'x, y, z'
loop_
 _atom_site_type_symbol
 _atom_site_label
 _atom_site_symmetry_multiplicity
 _atom_site_fract_x
 _atom_site_fract_y
 _atom_site_fract_z
 _atom_site_occupancy
  Er  Er0  1  0.403667  0.000000  0.500000  1
  Nb  Nb1  1  0.003339  0.404367  0.500000  1
  Nb  Nb2  1  0.598972  0.595633  0.500000  1
  Si  Si3  1  0.332042  0.655985  0.000000  1
  Si  Si4  1  0.676058  0.344015  0.000000  1
  Si  Si5  1  0.995196  0.000000  0.500000  1
  Tc  Tc6  1  0.749638  0.000000  0.000000  1
  Tc  Tc7  1  0.990999  0.740907  0.000000  1
  Tc  Tc8  1  0.250092  0.259093  0.000000  1
