# generated using pymatgen
data_Zr24SnAs3Se8
_symmetry_space_group_name_H-M   'P 1'
_cell_length_a   3.74031100
_cell_length_b   12.72225485
_cell_length_c   15.68506933
_cell_angle_alpha   90.02578615
_cell_angle_beta   90.00000000
_cell_angle_gamma   90.00000000
_symmetry_Int_Tables_number   1
_chemical_formula_structural   Zr24SnAs3Se8
_chemical_formula_sum   'Zr24 Sn1 As3 Se8'
_cell_volume   746.37692473
_cell_formula_units_Z   1
loop_
 _symmetry_equiv_pos_site_id
 _symmetry_equiv_pos_as_xyz
  1  'x, y, z'
loop_
 _atom_site_type_symbol
 _atom_site_label
 _atom_site_symmetry_multiplicity
 _atom_site_fract_x
 _atom_site_fract_y
 _atom_site_fract_z
 _atom_site_occupancy
  Zr  Zr0  1  0.000000  0.345345  0.479115  1
  Zr  Zr1  1  0.000000  0.638923  0.525675  1
  Zr  Zr2  1  0.500000  0.153030  0.979105  1
  Zr  Zr3  1  0.500000  0.848525  0.019799  1
  Zr  Zr4  1  0.000000  0.085204  0.578820  1
  Zr  Zr5  1  0.000000  0.929010  0.425705  1
  Zr  Zr6  1  0.500000  0.414181  0.076050  1
  Zr  Zr7  1  0.500000  0.584733  0.922784  1
  Zr  Zr8  1  0.000000  0.688223  0.286978  1
  Zr  Zr9  1  0.000000  0.307148  0.705800  1
  Zr  Zr10  1  0.500000  0.807370  0.796220  1
  Zr  Zr11  1  0.500000  0.194177  0.203463  1
  Zr  Zr12  1  0.000000  0.031058  0.108233  1
  Zr  Zr13  1  0.000000  0.970269  0.890839  1
  Zr  Zr14  1  0.500000  0.468159  0.610461  1
  Zr  Zr15  1  0.500000  0.525326  0.389183  1
  Zr  Zr16  1  0.000000  0.618515  0.076753  1
  Zr  Zr17  1  0.000000  0.380951  0.922358  1
  Zr  Zr18  1  0.500000  0.883960  0.581780  1
  Zr  Zr19  1  0.500000  0.121987  0.423758  1
  Zr  Zr20  1  0.000000  0.408573  0.241236  1
  Zr  Zr21  1  0.000000  0.588738  0.757882  1
  Zr  Zr22  1  0.500000  0.088082  0.743881  1
  Zr  Zr23  1  0.500000  0.915358  0.254732  1
  Sn  Sn24  1  0.500000  0.758605  0.414759  1
  As  As25  1  0.000000  0.255980  0.084862  1
  As  As26  1  0.000000  0.743875  0.914519  1
  As  As27  1  0.500000  0.244192  0.586891  1
  Se  Se28  1  0.000000  0.815987  0.149883  1
  Se  Se29  1  0.000000  0.185287  0.849596  1
  Se  Se30  1  0.500000  0.685360  0.651962  1
  Se  Se31  1  0.500000  0.313685  0.348563  1
  Se  Se32  1  0.000000  0.072109  0.290411  1
  Se  Se33  1  0.000000  0.931650  0.709761  1
  Se  Se34  1  0.500000  0.431443  0.792810  1
  Se  Se35  1  0.500000  0.564979  0.205376  1
