# generated using pymatgen
data_La3In2AgRh3
_symmetry_space_group_name_H-M   'P 1'
_cell_length_a   7.58141403
_cell_length_b   7.73644620
_cell_length_c   4.14446500
_cell_angle_alpha   90.00000000
_cell_angle_beta   90.00000000
_cell_angle_gamma   120.67878292
_symmetry_Int_Tables_number   1
_chemical_formula_structural   La3In2AgRh3
_chemical_formula_sum   'La3 In2 Ag1 Rh3'
_cell_volume   209.06411416
_cell_formula_units_Z   1
loop_
 _symmetry_equiv_pos_site_id
 _symmetry_equiv_pos_as_xyz
  1  'x, y, z'
loop_
 _atom_site_type_symbol
 _atom_site_label
 _atom_site_symmetry_multiplicity
 _atom_site_fract_x
 _atom_site_fract_y
 _atom_site_fract_z
 _atom_site_occupancy
  La  La0  1  0.000000  0.584299  0.500000  1
  La  La1  1  0.595198  0.003826  0.500000  1
  La  La2  1  0.404802  0.408628  0.500000  1
  In  In3  1  0.250945  0.004547  0.000000  1
  In  In4  1  0.749055  0.753602  0.000000  1
  Ag  Ag5  1  0.000000  0.243907  0.000000  1
  Rh  Rh6  1  0.000000  0.979961  0.500000  1
  Rh  Rh7  1  0.663725  0.342477  0.000000  1
  Rh  Rh8  1  0.336275  0.678753  0.000000  1
