# generated using pymatgen
data_SbI2BrCl8
_symmetry_space_group_name_H-M   'P 1'
_cell_length_a   7.41948371
_cell_length_b   7.64808345
_cell_length_c   8.04481933
_cell_angle_alpha   94.99414481
_cell_angle_beta   94.09776482
_cell_angle_gamma   102.69700207
_symmetry_Int_Tables_number   1
_chemical_formula_structural   SbI2BrCl8
_chemical_formula_sum   'Sb1 I2 Br1 Cl8'
_cell_volume   441.71621066
_cell_formula_units_Z   1
loop_
 _symmetry_equiv_pos_site_id
 _symmetry_equiv_pos_as_xyz
  1  'x, y, z'
loop_
 _atom_site_type_symbol
 _atom_site_label
 _atom_site_symmetry_multiplicity
 _atom_site_fract_x
 _atom_site_fract_y
 _atom_site_fract_z
 _atom_site_occupancy
  Sb  Sb0  1  0.000000  0.500000  0.500000  1
  I  I1  1  0.683510  0.768230  0.842299  1
  I  I2  1  0.316490  0.231770  0.157701  1
  Br  Br3  1  0.000000  0.000000  0.000000  1
  Cl  Cl4  1  0.720005  0.299359  0.556357  1
  Cl  Cl5  1  0.279995  0.700641  0.443643  1
  Cl  Cl6  1  0.517054  0.767094  0.084462  1
  Cl  Cl7  1  0.482946  0.232906  0.915538  1
  Cl  Cl8  1  0.852997  0.763273  0.540980  1
  Cl  Cl9  1  0.147003  0.236727  0.459020  1
  Cl  Cl10  1  0.892642  0.466699  0.210809  1
  Cl  Cl11  1  0.107358  0.533301  0.789191  1
