# generated using pymatgen
data_TbLuPt2F14
_symmetry_space_group_name_H-M   'P 1'
_cell_length_a   5.51724925
_cell_length_b   8.81606310
_cell_length_c   11.92698457
_cell_angle_alpha   62.60590061
_cell_angle_beta   89.80858651
_cell_angle_gamma   90.02333960
_symmetry_Int_Tables_number   1
_chemical_formula_structural   TbLuPt2F14
_chemical_formula_sum   'Tb2 Lu2 Pt4 F28'
_cell_volume   515.07483758
_cell_formula_units_Z   2
loop_
 _symmetry_equiv_pos_site_id
 _symmetry_equiv_pos_as_xyz
  1  'x, y, z'
loop_
 _atom_site_type_symbol
 _atom_site_label
 _atom_site_symmetry_multiplicity
 _atom_site_fract_x
 _atom_site_fract_y
 _atom_site_fract_z
 _atom_site_occupancy
  Tb  Tb0  1  0.260426  0.815849  0.264434  1
  Tb  Tb1  1  0.739574  0.184151  0.735566  1
  Lu  Lu2  1  0.762503  0.187296  0.235620  1
  Lu  Lu3  1  0.237497  0.812704  0.764380  1
  Pt  Pt4  1  0.758824  0.724664  0.041886  1
  Pt  Pt5  1  0.241176  0.275336  0.958114  1
  Pt  Pt6  1  0.259525  0.269222  0.455109  1
  Pt  Pt7  1  0.740475  0.730778  0.544891  1
  F  F8  1  0.937062  0.704630  0.417260  1
  F  F9  1  0.062938  0.295370  0.582740  1
  F  F10  1  0.437992  0.299954  0.085898  1
  F  F11  1  0.562008  0.700046  0.914102  1
  F  F12  1  0.464349  0.723344  0.135056  1
  F  F13  1  0.535651  0.276656  0.864944  1
  F  F14  1  0.965875  0.273782  0.360228  1
  F  F15  1  0.034125  0.726218  0.639772  1
  F  F16  1  0.947185  0.744098  0.174932  1
  F  F17  1  0.052815  0.255902  0.825068  1
  F  F18  1  0.453032  0.250218  0.322789  1
  F  F19  1  0.546968  0.749782  0.677211  1
  F  F20  1  0.775159  0.474092  0.142271  1
  F  F21  1  0.224841  0.525908  0.857729  1
  F  F22  1  0.276401  0.519963  0.357065  1
  F  F23  1  0.723599  0.480037  0.642935  1
  F  F24  1  0.937057  0.278686  0.045295  1
  F  F25  1  0.062943  0.721314  0.954705  1
  F  F26  1  0.439836  0.724784  0.458438  1
  F  F27  1  0.560164  0.275216  0.541562  1
  F  F28  1  0.746047  0.981197  0.449573  1
  F  F29  1  0.253953  0.018803  0.550427  1
  F  F30  1  0.246880  0.025079  0.050832  1
  F  F31  1  0.753120  0.974921  0.949168  1
  F  F32  1  0.587895  0.976703  0.232539  1
  F  F33  1  0.412105  0.023297  0.767461  1
  F  F34  1  0.078262  0.035089  0.266999  1
  F  F35  1  0.921738  0.964911  0.733001  1
