# generated using pymatgen
data_Hf11Nb3P8
_symmetry_space_group_name_H-M   'P 1'
_cell_length_a   8.00591989
_cell_length_b   8.00592051
_cell_length_c   14.32117074
_cell_angle_alpha   75.61197551
_cell_angle_beta   104.38802545
_cell_angle_gamma   154.32754961
_symmetry_Int_Tables_number   1
_chemical_formula_structural   Hf11Nb3P8
_chemical_formula_sum   'Hf11 Nb3 P8'
_cell_volume   384.53183714
_cell_formula_units_Z   1
loop_
 _symmetry_equiv_pos_site_id
 _symmetry_equiv_pos_as_xyz
  1  'x, y, z'
loop_
 _atom_site_type_symbol
 _atom_site_label
 _atom_site_symmetry_multiplicity
 _atom_site_fract_x
 _atom_site_fract_y
 _atom_site_fract_z
 _atom_site_occupancy
  Hf  Hf0  1  0.176658  0.823344  0.540314  1
  Hf  Hf1  1  0.823344  0.176658  0.459687  1
  Hf  Hf2  1  0.427476  0.572527  0.820240  1
  Hf  Hf3  1  0.572527  0.427475  0.179760  1
  Hf  Hf4  1  0.000000  0.000000  0.000000  1
  Hf  Hf5  1  0.004895  0.995107  0.661340  1
  Hf  Hf6  1  0.995107  0.004895  0.338660  1
  Hf  Hf7  1  0.339873  0.660130  0.028440  1
  Hf  Hf8  1  0.660130  0.339872  0.971560  1
  Hf  Hf9  1  0.206686  0.793316  0.794257  1
  Hf  Hf10  1  0.793316  0.206686  0.205743  1
  Nb  Nb11  1  0.500001  0.500001  0.499999  1
  Nb  Nb12  1  0.198813  0.801190  0.316633  1
  Nb  Nb13  1  0.801190  0.198812  0.683367  1
  P  P14  1  0.375491  0.624511  0.606110  1
  P  P15  1  0.624512  0.375491  0.393890  1
  P  P16  1  0.369424  0.630578  0.341881  1
  P  P17  1  0.630578  0.369424  0.658118  1
  P  P18  1  0.061825  0.938177  0.848922  1
  P  P19  1  0.938178  0.061825  0.151078  1
  P  P20  1  0.174406  0.825596  0.113834  1
  P  P21  1  0.825596  0.174406  0.886166  1
