# generated using pymatgen
data_YbY7(TmIr3)2
_symmetry_space_group_name_H-M   'P 1'
_cell_length_a   10.88176865
_cell_length_b   10.90820900
_cell_length_c   6.37008358
_cell_angle_alpha   90.00000000
_cell_angle_beta   90.22815552
_cell_angle_gamma   90.00000000
_symmetry_Int_Tables_number   1
_chemical_formula_structural   YbY7(TmIr3)2
_chemical_formula_sum   'Yb2 Y14 Tm4 Ir12'
_cell_volume   756.12679075
_cell_formula_units_Z   2
loop_
 _symmetry_equiv_pos_site_id
 _symmetry_equiv_pos_as_xyz
  1  'x, y, z'
loop_
 _atom_site_type_symbol
 _atom_site_label
 _atom_site_symmetry_multiplicity
 _atom_site_fract_x
 _atom_site_fract_y
 _atom_site_fract_z
 _atom_site_occupancy
  Yb  Yb0  1  0.289528  0.087383  0.375839  1
  Yb  Yb1  1  0.289528  0.912617  0.875839  1
  Y  Y2  1  0.709353  0.086453  0.878813  1
  Y  Y3  1  0.709353  0.913547  0.378813  1
  Y  Y4  1  0.586435  0.791613  0.877579  1
  Y  Y5  1  0.586435  0.208387  0.377579  1
  Y  Y6  1  0.411646  0.792352  0.378468  1
  Y  Y7  1  0.411646  0.207648  0.878468  1
  Y  Y8  1  0.209967  0.413071  0.623004  1
  Y  Y9  1  0.209967  0.586929  0.123004  1
  Y  Y10  1  0.790720  0.412327  0.121284  1
  Y  Y11  1  0.790720  0.587673  0.621284  1
  Y  Y12  1  0.912554  0.710287  0.123551  1
  Y  Y13  1  0.912554  0.289713  0.623551  1
  Y  Y14  1  0.088169  0.710040  0.621252  1
  Y  Y15  1  0.088169  0.289960  0.121252  1
  Tm  Tm16  1  0.000773  0.999815  0.498865  1
  Tm  Tm17  1  0.000773  0.000185  0.998865  1
  Tm  Tm18  1  0.499944  0.499747  0.999281  1
  Tm  Tm19  1  0.499944  0.500253  0.499281  1
  Ir  Ir20  1  0.850805  0.151194  0.249935  1
  Ir  Ir21  1  0.850805  0.848806  0.749935  1
  Ir  Ir22  1  0.147394  0.155582  0.752394  1
  Ir  Ir23  1  0.147394  0.844418  0.252394  1
  Ir  Ir24  1  0.649734  0.348307  0.750184  1
  Ir  Ir25  1  0.649734  0.651693  0.250184  1
  Ir  Ir26  1  0.349705  0.352129  0.247550  1
  Ir  Ir27  1  0.349705  0.647871  0.747550  1
  Ir  Ir28  1  0.502817  0.000334  0.123440  1
  Ir  Ir29  1  0.502817  0.999666  0.623440  1
  Ir  Ir30  1  0.000457  0.500422  0.878562  1
  Ir  Ir31  1  0.000457  0.499578  0.378562  1
