# generated using pymatgen
data_Ac2ErMg3Tl2Cd
_symmetry_space_group_name_H-M   'P 1'
_cell_length_a   7.78428861
_cell_length_b   7.78428977
_cell_length_c   4.90341000
_cell_angle_alpha   90.00000000
_cell_angle_beta   90.00000000
_cell_angle_gamma   118.79204380
_symmetry_Int_Tables_number   1
_chemical_formula_structural   Ac2ErMg3Tl2Cd
_chemical_formula_sum   'Ac2 Er1 Mg3 Tl2 Cd1'
_cell_volume   260.39066051
_cell_formula_units_Z   1
loop_
 _symmetry_equiv_pos_site_id
 _symmetry_equiv_pos_as_xyz
  1  'x, y, z'
loop_
 _atom_site_type_symbol
 _atom_site_label
 _atom_site_symmetry_multiplicity
 _atom_site_fract_x
 _atom_site_fract_y
 _atom_site_fract_z
 _atom_site_occupancy
  Ac  Ac0  1  0.571358  0.995769  0.000000  1
  Ac  Ac1  1  0.995769  0.571358  0.000000  1
  Er  Er2  1  0.424135  0.424135  0.000000  1
  Mg  Mg3  1  0.235708  0.001924  0.500000  1
  Mg  Mg4  1  0.001924  0.235708  0.500000  1
  Mg  Mg5  1  0.765155  0.765155  0.500000  1
  Tl  Tl6  1  0.337825  0.648745  0.500000  1
  Tl  Tl7  1  0.648745  0.337825  0.500000  1
  Cd  Cd8  1  0.019384  0.019384  0.000000  1
