# generated using pymatgen
data_Tb3Dy12Y(CdPt)4
_symmetry_space_group_name_H-M   'P 1'
_cell_length_a   9.70276795
_cell_length_b   9.70185477
_cell_length_c   9.70295208
_cell_angle_alpha   60.00248850
_cell_angle_beta   59.99314424
_cell_angle_gamma   60.00639627
_symmetry_Int_Tables_number   1
_chemical_formula_structural   Tb3Dy12Y(CdPt)4
_chemical_formula_sum   'Tb3 Dy12 Y1 Cd4 Pt4'
_cell_volume   645.87124574
_cell_formula_units_Z   1
loop_
 _symmetry_equiv_pos_site_id
 _symmetry_equiv_pos_as_xyz
  1  'x, y, z'
loop_
 _atom_site_type_symbol
 _atom_site_label
 _atom_site_symmetry_multiplicity
 _atom_site_fract_x
 _atom_site_fract_y
 _atom_site_fract_z
 _atom_site_occupancy
  Tb  Tb0  1  0.564580  0.935353  0.564678  1
  Tb  Tb1  1  0.935353  0.564580  0.935390  1
  Tb  Tb2  1  0.564694  0.564694  0.935306  1
  Dy  Dy3  1  0.352042  0.352248  0.352325  1
  Dy  Dy4  1  0.352248  0.352042  0.943385  1
  Dy  Dy5  1  0.352310  0.943471  0.352011  1
  Dy  Dy6  1  0.943471  0.352310  0.352208  1
  Dy  Dy7  1  0.810594  0.189439  0.189351  1
  Dy  Dy8  1  0.189439  0.810594  0.810616  1
  Dy  Dy9  1  0.189462  0.810565  0.189376  1
  Dy  Dy10  1  0.810565  0.189462  0.810598  1
  Dy  Dy11  1  0.189416  0.189416  0.810584  1
  Dy  Dy12  1  0.810552  0.810552  0.189448  1
  Dy  Dy13  1  0.935687  0.564228  0.564348  1
  Dy  Dy14  1  0.564228  0.935687  0.935737  1
  Y  Y15  1  0.935371  0.935371  0.564629  1
  Cd  Cd16  1  0.581997  0.581928  0.581923  1
  Cd  Cd17  1  0.581928  0.581997  0.254153  1
  Cd  Cd18  1  0.582012  0.254116  0.581971  1
  Cd  Cd19  1  0.254116  0.582012  0.581902  1
  Pt  Pt20  1  0.143342  0.143267  0.143391  1
  Pt  Pt21  1  0.143267  0.143342  0.570001  1
  Pt  Pt22  1  0.143324  0.570005  0.143373  1
  Pt  Pt23  1  0.570005  0.143324  0.143299  1
