# generated using pymatgen
data_La2MgIn3Ir2
_symmetry_space_group_name_H-M   'P 1'
_cell_length_a   5.55158883
_cell_length_b   5.55158921
_cell_length_c   8.34821553
_cell_angle_alpha   90.10481195
_cell_angle_beta   89.89519036
_cell_angle_gamma   133.02366182
_symmetry_Int_Tables_number   1
_chemical_formula_structural   La2MgIn3Ir2
_chemical_formula_sum   'La2 Mg1 In3 Ir2'
_cell_volume   188.09946076
_cell_formula_units_Z   1
loop_
 _symmetry_equiv_pos_site_id
 _symmetry_equiv_pos_as_xyz
  1  'x, y, z'
loop_
 _atom_site_type_symbol
 _atom_site_label
 _atom_site_symmetry_multiplicity
 _atom_site_fract_x
 _atom_site_fract_y
 _atom_site_fract_z
 _atom_site_occupancy
  La  La0  1  0.062497  0.937503  0.252118  1
  La  La1  1  0.937509  0.062491  0.746958  1
  Mg  Mg2  1  0.656687  0.343313  0.551895  1
  In  In3  1  0.350065  0.649935  0.453462  1
  In  In4  1  0.647853  0.352147  0.945896  1
  In  In5  1  0.348980  0.651020  0.051511  1
  Ir  Ir6  1  0.214528  0.785472  0.748747  1
  Ir  Ir7  1  0.781880  0.218120  0.249415  1
