# generated using pymatgen
data_YErBe2(Re2C)2
_symmetry_space_group_name_H-M   'P 1'
_cell_length_a   5.64142176
_cell_length_b   5.64142090
_cell_length_c   7.28717400
_cell_angle_alpha   90.00000000
_cell_angle_beta   90.00000000
_cell_angle_gamma   140.93952669
_symmetry_Int_Tables_number   1
_chemical_formula_structural   YErBe2(Re2C)2
_chemical_formula_sum   'Y1 Er1 Be2 Re4 C2'
_cell_volume   146.14146545
_cell_formula_units_Z   1
loop_
 _symmetry_equiv_pos_site_id
 _symmetry_equiv_pos_as_xyz
  1  'x, y, z'
loop_
 _atom_site_type_symbol
 _atom_site_label
 _atom_site_symmetry_multiplicity
 _atom_site_fract_x
 _atom_site_fract_y
 _atom_site_fract_z
 _atom_site_occupancy
  Y  Y0  1  0.464774  0.535226  0.750000  1
  Er  Er1  1  0.535117  0.464883  0.250000  1
  Be  Be2  1  0.257126  0.742874  0.250000  1
  Be  Be3  1  0.742646  0.257354  0.750000  1
  Re  Re4  1  0.820369  0.179631  0.063137  1
  Re  Re5  1  0.179582  0.820418  0.937956  1
  Re  Re6  1  0.179582  0.820418  0.562044  1
  Re  Re7  1  0.820369  0.179631  0.436863  1
  C  C8  1  0.000217  0.999783  0.002000  1
  C  C9  1  0.000217  0.999783  0.498000  1
