# generated using pymatgen
data_Co4SiP3
_symmetry_space_group_name_H-M   'P 1'
_cell_length_a   3.27784000
_cell_length_b   5.03460514
_cell_length_c   5.57757757
_cell_angle_alpha   89.82257175
_cell_angle_beta   90.00000000
_cell_angle_gamma   90.00000000
_symmetry_Int_Tables_number   1
_chemical_formula_structural   Co4SiP3
_chemical_formula_sum   'Co4 Si1 P3'
_cell_volume   92.04425823
_cell_formula_units_Z   1
loop_
 _symmetry_equiv_pos_site_id
 _symmetry_equiv_pos_as_xyz
  1  'x, y, z'
loop_
 _atom_site_type_symbol
 _atom_site_label
 _atom_site_symmetry_multiplicity
 _atom_site_fract_x
 _atom_site_fract_y
 _atom_site_fract_z
 _atom_site_occupancy
  Co  Co0  1  0.500000  0.500463  0.306300  1
  Co  Co1  1  0.500000  0.004512  0.204972  1
  Co  Co2  1  0.000000  0.493255  0.690787  1
  Co  Co3  1  0.000000  0.002662  0.800452  1
  Si  Si4  1  0.500000  0.685929  0.918581  1
  P  P5  1  0.500000  0.189671  0.584120  1
  P  P6  1  0.000000  0.316949  0.077286  1
  P  P7  1  0.000000  0.806560  0.417502  1
