# generated using pymatgen
data_Sr4Zn3GaI2
_symmetry_space_group_name_H-M   'P 1'
_cell_length_a   4.53185900
_cell_length_b   4.53185873
_cell_length_c   18.09012700
_cell_angle_alpha   90.00000000
_cell_angle_beta   90.00000000
_cell_angle_gamma   119.99999465
_symmetry_Int_Tables_number   1
_chemical_formula_structural   Sr4Zn3GaI2
_chemical_formula_sum   'Sr4 Zn3 Ga1 I2'
_cell_volume   321.75479190
_cell_formula_units_Z   1
loop_
 _symmetry_equiv_pos_site_id
 _symmetry_equiv_pos_as_xyz
  1  'x, y, z'
loop_
 _atom_site_type_symbol
 _atom_site_label
 _atom_site_symmetry_multiplicity
 _atom_site_fract_x
 _atom_site_fract_y
 _atom_site_fract_z
 _atom_site_occupancy
  Sr  Sr0  1  0.000000  0.000000  0.110675  1
  Sr  Sr1  1  0.000000  0.000000  0.889200  1
  Sr  Sr2  1  0.000000  0.000000  0.612321  1
  Sr  Sr3  1  0.000000  0.000000  0.388235  1
  Zn  Zn4  1  0.666667  0.333333  0.499044  1
  Zn  Zn5  1  0.666667  0.333333  0.000827  1
  Zn  Zn6  1  0.333333  0.666667  0.999211  1
  Ga  Ga7  1  0.333333  0.666667  0.501647  1
  I  I8  1  0.333333  0.666667  0.250234  1
  I  I9  1  0.666667  0.333333  0.748606  1
