# generated using pymatgen
data_Ho2Er9TmZnCo4Sn
_symmetry_space_group_name_H-M   'P 1'
_cell_length_a   8.26408195
_cell_length_b   8.25044726
_cell_length_c   8.24846524
_cell_angle_alpha   112.00212273
_cell_angle_beta   109.32008103
_cell_angle_gamma   107.04208409
_symmetry_Int_Tables_number   1
_chemical_formula_structural   Ho2Er9TmZnCo4Sn
_chemical_formula_sum   'Ho2 Er9 Tm1 Zn1 Co4 Sn1'
_cell_volume   432.58802595
_cell_formula_units_Z   1
loop_
 _symmetry_equiv_pos_site_id
 _symmetry_equiv_pos_as_xyz
  1  'x, y, z'
loop_
 _atom_site_type_symbol
 _atom_site_label
 _atom_site_symmetry_multiplicity
 _atom_site_fract_x
 _atom_site_fract_y
 _atom_site_fract_z
 _atom_site_occupancy
  Ho  Ho0  1  0.429676  0.228965  0.200530  1
  Ho  Ho1  1  0.570769  0.771353  0.799814  1
  Er  Er2  1  0.029441  0.229772  0.799542  1
  Er  Er3  1  0.970442  0.770466  0.200173  1
  Er  Er4  1  0.180866  0.283226  0.464504  1
  Er  Er5  1  0.819091  0.717068  0.535268  1
  Er  Er6  1  0.181570  0.716881  0.898238  1
  Er  Er7  1  0.819103  0.283734  0.102528  1
  Er  Er8  1  0.323518  0.636516  0.311582  1
  Er  Er9  1  0.676383  0.363280  0.688381  1
  Er  Er10  1  0.323150  0.011736  0.686923  1
  Tm  Tm11  1  0.676363  0.988225  0.313498  1
  Zn  Zn12  1  0.000833  0.001282  0.000729  1
  Co  Co13  1  0.344014  0.999419  0.344171  1
  Co  Co14  1  0.656169  0.000374  0.655296  1
  Co  Co15  1  0.113848  0.615248  0.499034  1
  Co  Co16  1  0.885904  0.384794  0.501055  1
  Sn  Sn17  1  0.498860  0.497664  0.998732  1
