# generated using pymatgen
data_Nd5Ge2Os
_symmetry_space_group_name_H-M   'P 1'
_cell_length_a   7.98586700
_cell_length_b   8.94972000
_cell_length_c   12.28822800
_cell_angle_alpha   90.00000000
_cell_angle_beta   90.00000000
_cell_angle_gamma   90.00000000
_symmetry_Int_Tables_number   1
_chemical_formula_structural   Nd5Ge2Os
_chemical_formula_sum   'Nd20 Ge8 Os4'
_cell_volume   878.25530554
_cell_formula_units_Z   4
loop_
 _symmetry_equiv_pos_site_id
 _symmetry_equiv_pos_as_xyz
  1  'x, y, z'
loop_
 _atom_site_type_symbol
 _atom_site_label
 _atom_site_symmetry_multiplicity
 _atom_site_fract_x
 _atom_site_fract_y
 _atom_site_fract_z
 _atom_site_occupancy
  Nd  Nd0  1  0.669376  0.750000  0.715584  1
  Nd  Nd1  1  0.330624  0.250000  0.284416  1
  Nd  Nd2  1  0.169376  0.250000  0.784416  1
  Nd  Nd3  1  0.830624  0.750000  0.215584  1
  Nd  Nd4  1  0.143695  0.750000  0.797017  1
  Nd  Nd5  1  0.856305  0.250000  0.202983  1
  Nd  Nd6  1  0.643695  0.250000  0.702983  1
  Nd  Nd7  1  0.356305  0.750000  0.297017  1
  Nd  Nd8  1  0.538899  0.750000  0.998695  1
  Nd  Nd9  1  0.461101  0.250000  0.001305  1
  Nd  Nd10  1  0.038899  0.250000  0.501305  1
  Nd  Nd11  1  0.961101  0.750000  0.498695  1
  Nd  Nd12  1  0.820587  0.464794  0.926671  1
  Nd  Nd13  1  0.179413  0.535206  0.073329  1
  Nd  Nd14  1  0.320587  0.535206  0.573329  1
  Nd  Nd15  1  0.179413  0.964794  0.073329  1
  Nd  Nd16  1  0.679413  0.464794  0.426671  1
  Nd  Nd17  1  0.820587  0.035206  0.926671  1
  Nd  Nd18  1  0.679413  0.035206  0.426671  1
  Nd  Nd19  1  0.320587  0.964794  0.573329  1
  Ge  Ge20  1  0.938226  0.005236  0.671526  1
  Ge  Ge21  1  0.061774  0.994764  0.328474  1
  Ge  Ge22  1  0.438226  0.994764  0.828474  1
  Ge  Ge23  1  0.061774  0.505236  0.328474  1
  Ge  Ge24  1  0.561774  0.005236  0.171526  1
  Ge  Ge25  1  0.938226  0.494764  0.671526  1
  Ge  Ge26  1  0.561774  0.494764  0.171526  1
  Ge  Ge27  1  0.438226  0.505236  0.828474  1
  Os  Os28  1  0.921100  0.750000  0.983764  1
  Os  Os29  1  0.078900  0.250000  0.016236  1
  Os  Os30  1  0.421100  0.250000  0.516236  1
  Os  Os31  1  0.578900  0.750000  0.483764  1
