# generated using pymatgen
data_Tb3Y3Al24(CoRu3)2
_symmetry_space_group_name_H-M   'P 1'
_cell_length_a   8.76665300
_cell_length_b   8.76665257
_cell_length_c   9.53478000
_cell_angle_alpha   90.00000000
_cell_angle_beta   90.00000000
_cell_angle_gamma   119.99999784
_symmetry_Int_Tables_number   1
_chemical_formula_structural   Tb3Y3Al24(CoRu3)2
_chemical_formula_sum   'Tb3 Y3 Al24 Co2 Ru6'
_cell_volume   634.61295028
_cell_formula_units_Z   1
loop_
 _symmetry_equiv_pos_site_id
 _symmetry_equiv_pos_as_xyz
  1  'x, y, z'
loop_
 _atom_site_type_symbol
 _atom_site_label
 _atom_site_symmetry_multiplicity
 _atom_site_fract_x
 _atom_site_fract_y
 _atom_site_fract_z
 _atom_site_occupancy
  Tb  Tb0  1  0.613465  0.806733  0.750000  1
  Tb  Tb1  1  0.193267  0.806733  0.750000  1
  Tb  Tb2  1  0.193267  0.386535  0.750000  1
  Y  Y3  1  0.387005  0.193503  0.250000  1
  Y  Y4  1  0.806497  0.193503  0.250000  1
  Y  Y5  1  0.806497  0.612995  0.250000  1
  Al  Al6  1  0.438638  0.877277  0.250000  1
  Al  Al7  1  0.122723  0.561362  0.250000  1
  Al  Al8  1  0.438638  0.561362  0.250000  1
  Al  Al9  1  0.561468  0.122935  0.750000  1
  Al  Al10  1  0.877065  0.438532  0.750000  1
  Al  Al11  1  0.561468  0.438532  0.750000  1
  Al  Al12  1  0.159860  0.840140  0.423483  1
  Al  Al13  1  0.159860  0.319723  0.423483  1
  Al  Al14  1  0.680277  0.840140  0.423483  1
  Al  Al15  1  0.840110  0.159890  0.576593  1
  Al  Al16  1  0.840110  0.680218  0.576593  1
  Al  Al17  1  0.319782  0.159890  0.576593  1
  Al  Al18  1  0.840110  0.159890  0.923407  1
  Al  Al19  1  0.840110  0.680218  0.923407  1
  Al  Al20  1  0.319782  0.159890  0.923407  1
  Al  Al21  1  0.159860  0.840140  0.076517  1
  Al  Al22  1  0.159860  0.319723  0.076517  1
  Al  Al23  1  0.680277  0.840140  0.076517  1
  Al  Al24  1  0.333333  0.666667  0.514500  1
  Al  Al25  1  0.666667  0.333333  0.485484  1
  Al  Al26  1  0.666667  0.333333  0.014516  1
  Al  Al27  1  0.333333  0.666667  0.985500  1
  Al  Al28  1  0.000000  0.000000  0.250000  1
  Al  Al29  1  0.000000  0.000000  0.750000  1
  Co  Co30  1  0.000000  0.000000  0.499753  1
  Co  Co31  1  0.000000  0.000000  0.000247  1
  Ru  Ru32  1  0.500072  0.000145  0.499822  1
  Ru  Ru33  1  0.999855  0.499928  0.499822  1
  Ru  Ru34  1  0.500072  0.499928  0.499822  1
  Ru  Ru35  1  0.500072  0.000145  0.000178  1
  Ru  Ru36  1  0.999855  0.499928  0.000178  1
  Ru  Ru37  1  0.500072  0.499928  0.000178  1
