# generated using pymatgen
data_Ta4Mn5SiOs2
_symmetry_space_group_name_H-M   'P 1'
_cell_length_a   4.89819100
_cell_length_b   4.87134592
_cell_length_c   8.13278200
_cell_angle_alpha   90.00000000
_cell_angle_beta   90.00000000
_cell_angle_gamma   120.18247108
_symmetry_Int_Tables_number   1
_chemical_formula_structural   Ta4Mn5SiOs2
_chemical_formula_sum   'Ta4 Mn5 Si1 Os2'
_cell_volume   167.74630875
_cell_formula_units_Z   1
loop_
 _symmetry_equiv_pos_site_id
 _symmetry_equiv_pos_as_xyz
  1  'x, y, z'
loop_
 _atom_site_type_symbol
 _atom_site_label
 _atom_site_symmetry_multiplicity
 _atom_site_fract_x
 _atom_site_fract_y
 _atom_site_fract_z
 _atom_site_occupancy
  Ta  Ta0  1  0.334048  0.668097  0.070786  1
  Ta  Ta1  1  0.667355  0.334709  0.563579  1
  Ta  Ta2  1  0.667355  0.334709  0.936421  1
  Ta  Ta3  1  0.334048  0.668097  0.429214  1
  Mn  Mn4  1  0.177773  0.818273  0.750000  1
  Mn  Mn5  1  0.640500  0.818273  0.750000  1
  Mn  Mn6  1  0.344784  0.173112  0.250000  1
  Mn  Mn7  1  0.828329  0.173112  0.250000  1
  Mn  Mn8  1  0.176761  0.353521  0.750000  1
  Si  Si9  1  0.828476  0.656952  0.250000  1
  Os  Os10  1  0.000286  0.000571  0.995796  1
  Os  Os11  1  0.000286  0.000571  0.504204  1
