# generated using pymatgen
data_K2Ta(NbS3)2
_symmetry_space_group_name_H-M   'P 1'
_cell_length_a   8.68776398
_cell_length_b   8.68776348
_cell_length_c   8.68776400
_cell_angle_alpha   39.43413536
_cell_angle_beta   39.43413931
_cell_angle_gamma   39.43412705
_symmetry_Int_Tables_number   1
_chemical_formula_structural   K2Ta(NbS3)2
_chemical_formula_sum   'K2 Ta1 Nb2 S6'
_cell_volume   238.12268306
_cell_formula_units_Z   1
loop_
 _symmetry_equiv_pos_site_id
 _symmetry_equiv_pos_as_xyz
  1  'x, y, z'
loop_
 _atom_site_type_symbol
 _atom_site_label
 _atom_site_symmetry_multiplicity
 _atom_site_fract_x
 _atom_site_fract_y
 _atom_site_fract_z
 _atom_site_occupancy
  K  K0  1  0.166614  0.166614  0.166614  1
  K  K1  1  0.833386  0.833386  0.833386  1
  Ta  Ta2  1  0.000000  0.000000  0.000000  1
  Nb  Nb3  1  0.333342  0.333342  0.333342  1
  Nb  Nb4  1  0.666658  0.666658  0.666658  1
  S  S5  1  0.395755  0.732501  0.065883  1
  S  S6  1  0.065883  0.395755  0.732501  1
  S  S7  1  0.732501  0.065883  0.395755  1
  S  S8  1  0.267499  0.604245  0.934117  1
  S  S9  1  0.934117  0.267499  0.604245  1
  S  S10  1  0.604245  0.934117  0.267499  1
