# generated using pymatgen
data_BaAsRhF12
_symmetry_space_group_name_H-M   'P 1'
_cell_length_a   11.67014691
_cell_length_b   5.97054205
_cell_length_c   6.00814800
_cell_angle_alpha   57.29036955
_cell_angle_beta   55.91510245
_cell_angle_gamma   56.30552867
_symmetry_Int_Tables_number   1
_chemical_formula_structural   BaAsRhF12
_chemical_formula_sum   'Ba1 As1 Rh1 F12'
_cell_volume   272.00141541
_cell_formula_units_Z   1
loop_
 _symmetry_equiv_pos_site_id
 _symmetry_equiv_pos_as_xyz
  1  'x, y, z'
loop_
 _atom_site_type_symbol
 _atom_site_label
 _atom_site_symmetry_multiplicity
 _atom_site_fract_x
 _atom_site_fract_y
 _atom_site_fract_z
 _atom_site_occupancy
  Ba  Ba0  1  0.730520  0.507968  0.520527  1
  As  As1  1  0.479080  0.008143  0.017883  1
  Rh  Rh2  1  0.021438  0.993077  0.979109  1
  F  F3  1  0.195778  0.068891  0.777473  1
  F  F4  1  0.664092  0.024556  0.851256  1
  F  F5  1  0.051394  0.802477  0.323626  1
  F  F6  1  0.501403  0.843882  0.351382  1
  F  F7  1  0.119705  0.658790  0.890653  1
  F  F8  1  0.577700  0.652825  0.992554  1
  F  F9  1  0.482428  0.143130  0.672422  1
  F  F10  1  0.969601  0.207082  0.645513  1
  F  F11  1  0.310062  0.969829  0.186861  1
  F  F12  1  0.834638  0.926180  0.187656  1
  F  F13  1  0.405122  0.348363  0.033604  1
  F  F14  1  0.907038  0.344808  0.069482  1
