# generated using pymatgen
data_Ti3Re2Si2GeRh
_symmetry_space_group_name_H-M   'P 1'
_cell_length_a   6.79766517
_cell_length_b   6.78271999
_cell_length_c   3.34054100
_cell_angle_alpha   90.00000000
_cell_angle_beta   90.00000000
_cell_angle_gamma   120.31693033
_symmetry_Int_Tables_number   1
_chemical_formula_structural   Ti3Re2Si2GeRh
_chemical_formula_sum   'Ti3 Re2 Si2 Ge1 Rh1'
_cell_volume   132.95823917
_cell_formula_units_Z   1
loop_
 _symmetry_equiv_pos_site_id
 _symmetry_equiv_pos_as_xyz
  1  'x, y, z'
loop_
 _atom_site_type_symbol
 _atom_site_label
 _atom_site_symmetry_multiplicity
 _atom_site_fract_x
 _atom_site_fract_y
 _atom_site_fract_z
 _atom_site_occupancy
  Ti  Ti0  1  0.382566  0.388564  0.500000  1
  Ti  Ti1  1  0.593482  0.010076  0.500000  1
  Ti  Ti2  1  0.023106  0.598463  0.500000  1
  Re  Re3  1  0.254951  0.995818  0.000000  1
  Re  Re4  1  0.006071  0.258633  0.000000  1
  Si  Si5  1  0.345039  0.670725  0.000000  1
  Si  Si6  1  0.984093  0.982526  0.500000  1
  Ge  Ge7  1  0.671029  0.346503  0.000000  1
  Rh  Rh8  1  0.739664  0.748695  0.000000  1
