# generated using pymatgen
data_Yb2SbRh3
_symmetry_space_group_name_H-M   'P 1'
_cell_length_a   5.25226175
_cell_length_b   5.65416419
_cell_length_c   5.65416300
_cell_angle_alpha   60.00000110
_cell_angle_beta   57.43473739
_cell_angle_gamma   57.43474846
_symmetry_Int_Tables_number   1
_chemical_formula_structural   Yb2SbRh3
_chemical_formula_sum   'Yb2 Sb1 Rh3'
_cell_volume   113.91802091
_cell_formula_units_Z   1
loop_
 _symmetry_equiv_pos_site_id
 _symmetry_equiv_pos_as_xyz
  1  'x, y, z'
loop_
 _atom_site_type_symbol
 _atom_site_label
 _atom_site_symmetry_multiplicity
 _atom_site_fract_x
 _atom_site_fract_y
 _atom_site_fract_z
 _atom_site_occupancy
  Yb  Yb0  1  0.745227  0.751591  0.751591  1
  Yb  Yb1  1  0.504773  0.498409  0.498409  1
  Sb  Sb2  1  0.625000  0.125000  0.125000  1
  Rh  Rh3  1  0.125000  0.625000  0.125000  1
  Rh  Rh4  1  0.125000  0.125000  0.625000  1
  Rh  Rh5  1  0.125000  0.125000  0.125000  1
