# generated using pymatgen
data_Gd2As4O9
_symmetry_space_group_name_H-M   'P 1'
_cell_length_a   6.85257365
_cell_length_b   7.64597694
_cell_length_c   9.88438783
_cell_angle_alpha   95.20464270
_cell_angle_beta   104.19729677
_cell_angle_gamma   104.64356976
_symmetry_Int_Tables_number   1
_chemical_formula_structural   Gd2As4O9
_chemical_formula_sum   'Gd4 As8 O18'
_cell_volume   479.28030942
_cell_formula_units_Z   2
loop_
 _symmetry_equiv_pos_site_id
 _symmetry_equiv_pos_as_xyz
  1  'x, y, z'
loop_
 _atom_site_type_symbol
 _atom_site_label
 _atom_site_symmetry_multiplicity
 _atom_site_fract_x
 _atom_site_fract_y
 _atom_site_fract_z
 _atom_site_occupancy
  Gd  Gd0  1  0.246512  0.939309  0.615977  1
  Gd  Gd1  1  0.753488  0.060691  0.384023  1
  Gd  Gd2  1  0.719644  0.531357  0.407521  1
  Gd  Gd3  1  0.280356  0.468643  0.592479  1
  As  As4  1  0.679357  0.776858  0.074492  1
  As  As5  1  0.320643  0.223142  0.925508  1
  As  As6  1  0.174907  0.754362  0.913320  1
  As  As7  1  0.825093  0.245638  0.086680  1
  As  As8  1  0.747223  0.916908  0.709190  1
  As  As9  1  0.252777  0.083092  0.290810  1
  As  As10  1  0.809024  0.349671  0.701463  1
  As  As11  1  0.190976  0.650329  0.298537  1
  O  O12  1  0.722268  0.751432  0.254085  1
  O  O13  1  0.277732  0.248568  0.745915  1
  O  O14  1  0.316832  0.979179  0.874147  1
  O  O15  1  0.683168  0.020821  0.125853  1
  O  O16  1  0.606257  0.319897  0.985608  1
  O  O17  1  0.393743  0.680103  0.014392  1
  O  O18  1  0.133735  0.650765  0.738991  1
  O  O19  1  0.866265  0.349235  0.261009  1
  O  O20  1  0.845732  0.872471  0.559391  1
  O  O21  1  0.154268  0.127529  0.440609  1
  O  O22  1  0.490575  0.771166  0.667446  1
  O  O23  1  0.509425  0.228834  0.332554  1
  O  O24  1  0.372681  0.537956  0.377804  1
  O  O25  1  0.627319  0.462044  0.622196  1
  O  O26  1  0.089875  0.668594  0.451947  1
  O  O27  1  0.910125  0.331406  0.548053  1
  O  O28  1  0.369838  0.898611  0.359187  1
  O  O29  1  0.630162  0.101389  0.640813  1
