# generated using pymatgen
data_Dy2Y(SiRh2)3
_symmetry_space_group_name_H-M   'P 1'
_cell_length_a   5.58830700
_cell_length_b   5.58830690
_cell_length_c   15.05730200
_cell_angle_alpha   90.00000000
_cell_angle_beta   90.00000000
_cell_angle_gamma   119.99999467
_symmetry_Int_Tables_number   1
_chemical_formula_structural   Dy2Y(SiRh2)3
_chemical_formula_sum   'Dy4 Y2 Si6 Rh12'
_cell_volume   407.22864704
_cell_formula_units_Z   2
loop_
 _symmetry_equiv_pos_site_id
 _symmetry_equiv_pos_as_xyz
  1  'x, y, z'
loop_
 _atom_site_type_symbol
 _atom_site_label
 _atom_site_symmetry_multiplicity
 _atom_site_fract_x
 _atom_site_fract_y
 _atom_site_fract_z
 _atom_site_occupancy
  Dy  Dy0  1  0.666667  0.333333  0.962976  1
  Dy  Dy1  1  0.666667  0.333333  0.537024  1
  Dy  Dy2  1  0.333333  0.666667  0.037024  1
  Dy  Dy3  1  0.333333  0.666667  0.462976  1
  Y  Y4  1  0.666667  0.333333  0.750000  1
  Y  Y5  1  0.333333  0.666667  0.250000  1
  Si  Si6  1  0.666667  0.333333  0.250000  1
  Si  Si7  1  0.000000  0.000000  0.500000  1
  Si  Si8  1  0.000000  0.000000  0.250000  1
  Si  Si9  1  0.000000  0.000000  0.750000  1
  Si  Si10  1  0.333333  0.666667  0.750000  1
  Si  Si11  1  0.000000  0.000000  0.000000  1
  Rh  Rh12  1  0.166826  0.333653  0.869360  1
  Rh  Rh13  1  0.166826  0.333653  0.630640  1
  Rh  Rh14  1  0.666347  0.833174  0.869360  1
  Rh  Rh15  1  0.333653  0.166826  0.369360  1
  Rh  Rh16  1  0.833174  0.666347  0.369360  1
  Rh  Rh17  1  0.833174  0.166826  0.369360  1
  Rh  Rh18  1  0.833174  0.166826  0.130640  1
  Rh  Rh19  1  0.333653  0.166826  0.130640  1
  Rh  Rh20  1  0.666347  0.833174  0.630640  1
  Rh  Rh21  1  0.166826  0.833174  0.630640  1
  Rh  Rh22  1  0.833174  0.666347  0.130640  1
  Rh  Rh23  1  0.166826  0.833174  0.869360  1
