# generated using pymatgen
data_Y15Er5Cd6IrRu
_symmetry_space_group_name_H-M   'P 1'
_cell_length_a   9.63191600
_cell_length_b   9.63191518
_cell_length_c   9.82840100
_cell_angle_alpha   90.00000000
_cell_angle_beta   90.00000000
_cell_angle_gamma   120.00000281
_symmetry_Int_Tables_number   1
_chemical_formula_structural   Y15Er5Cd6IrRu
_chemical_formula_sum   'Y15 Er5 Cd6 Ir1 Ru1'
_cell_volume   789.65760611
_cell_formula_units_Z   1
loop_
 _symmetry_equiv_pos_site_id
 _symmetry_equiv_pos_as_xyz
  1  'x, y, z'
loop_
 _atom_site_type_symbol
 _atom_site_label
 _atom_site_symmetry_multiplicity
 _atom_site_fract_x
 _atom_site_fract_y
 _atom_site_fract_z
 _atom_site_occupancy
  Y  Y0  1  0.790903  0.209097  0.559891  1
  Y  Y1  1  0.790903  0.581804  0.559891  1
  Y  Y2  1  0.418196  0.209097  0.559891  1
  Y  Y3  1  0.790736  0.209264  0.939891  1
  Y  Y4  1  0.790736  0.581469  0.939891  1
  Y  Y5  1  0.418531  0.209264  0.939891  1
  Y  Y6  1  0.209057  0.790943  0.059920  1
  Y  Y7  1  0.209057  0.418115  0.059920  1
  Y  Y8  1  0.581885  0.790943  0.059920  1
  Y  Y9  1  0.540968  0.459032  0.250558  1
  Y  Y10  1  0.540968  0.081936  0.250558  1
  Y  Y11  1  0.918064  0.459032  0.250558  1
  Y  Y12  1  0.458569  0.541431  0.749218  1
  Y  Y13  1  0.458569  0.917138  0.749218  1
  Y  Y14  1  0.082862  0.541431  0.749218  1
  Er  Er15  1  0.000000  0.000000  0.499045  1
  Er  Er16  1  0.000000  0.000000  0.000463  1
  Er  Er17  1  0.209974  0.790026  0.439959  1
  Er  Er18  1  0.209974  0.419948  0.439959  1
  Er  Er19  1  0.580052  0.790026  0.439959  1
  Cd  Cd20  1  0.885890  0.114110  0.250102  1
  Cd  Cd21  1  0.885890  0.771781  0.250102  1
  Cd  Cd22  1  0.228219  0.114110  0.250102  1
  Cd  Cd23  1  0.114257  0.885743  0.749874  1
  Cd  Cd24  1  0.114257  0.228514  0.749874  1
  Cd  Cd25  1  0.771486  0.885743  0.749874  1
  Ir  Ir26  1  0.333333  0.666667  0.252474  1
  Ru  Ru27  1  0.666667  0.333333  0.749782  1
