# generated using pymatgen
data_TmLuHfGa5
_symmetry_space_group_name_H-M   'P 1'
_cell_length_a   5.85009200
_cell_length_b   9.35409200
_cell_length_c   11.31349500
_cell_angle_alpha   90.00000000
_cell_angle_beta   90.00000000
_cell_angle_gamma   90.00000000
_symmetry_Int_Tables_number   1
_chemical_formula_structural   TmLuHfGa5
_chemical_formula_sum   'Tm4 Lu4 Hf4 Ga20'
_cell_volume   619.10045360
_cell_formula_units_Z   4
loop_
 _symmetry_equiv_pos_site_id
 _symmetry_equiv_pos_as_xyz
  1  'x, y, z'
loop_
 _atom_site_type_symbol
 _atom_site_label
 _atom_site_symmetry_multiplicity
 _atom_site_fract_x
 _atom_site_fract_y
 _atom_site_fract_z
 _atom_site_occupancy
  Tm  Tm0  1  0.885714  0.500777  0.353082  1
  Tm  Tm1  1  0.614286  0.999223  0.853082  1
  Tm  Tm2  1  0.114286  0.000777  0.646918  1
  Tm  Tm3  1  0.385714  0.499223  0.146918  1
  Lu  Lu4  1  0.114080  0.499263  0.647109  1
  Lu  Lu5  1  0.385920  0.000737  0.147109  1
  Lu  Lu6  1  0.885920  0.999263  0.352891  1
  Lu  Lu7  1  0.614080  0.500737  0.852891  1
  Hf  Hf8  1  0.857439  0.749842  0.071598  1
  Hf  Hf9  1  0.642561  0.750158  0.571598  1
  Hf  Hf10  1  0.142561  0.249842  0.928402  1
  Hf  Hf11  1  0.357439  0.250158  0.428402  1
  Ga  Ga12  1  0.875114  0.052336  0.090967  1
  Ga  Ga13  1  0.624886  0.447664  0.590967  1
  Ga  Ga14  1  0.124886  0.552336  0.909033  1
  Ga  Ga15  1  0.375114  0.947664  0.409033  1
  Ga  Ga16  1  0.124722  0.947505  0.909440  1
  Ga  Ga17  1  0.375278  0.552495  0.409440  1
  Ga  Ga18  1  0.875278  0.447505  0.090560  1
  Ga  Ga19  1  0.624722  0.052495  0.590560  1
  Ga  Ga20  1  0.151831  0.750444  0.256511  1
  Ga  Ga21  1  0.348169  0.749556  0.756511  1
  Ga  Ga22  1  0.848169  0.250444  0.743489  1
  Ga  Ga23  1  0.651831  0.249556  0.243489  1
  Ga  Ga24  1  0.396405  0.750205  0.998652  1
  Ga  Ga25  1  0.103595  0.749795  0.498652  1
  Ga  Ga26  1  0.603595  0.250205  0.001348  1
  Ga  Ga27  1  0.896405  0.249795  0.501348  1
  Ga  Ga28  1  0.614211  0.750351  0.293568  1
  Ga  Ga29  1  0.885789  0.749649  0.793568  1
  Ga  Ga30  1  0.385789  0.250351  0.706432  1
  Ga  Ga31  1  0.114211  0.249649  0.206432  1
