# generated using pymatgen
data_Hf6Zn22AgGe
_symmetry_space_group_name_H-M   'P 1'
_cell_length_a   8.76751946
_cell_length_b   8.76751859
_cell_length_c   8.76751800
_cell_angle_alpha   60.00000224
_cell_angle_beta   60.00000550
_cell_angle_gamma   60.00000041
_symmetry_Int_Tables_number   1
_chemical_formula_structural   Hf6Zn22AgGe
_chemical_formula_sum   'Hf6 Zn22 Ag1 Ge1'
_cell_volume   476.55730286
_cell_formula_units_Z   1
loop_
 _symmetry_equiv_pos_site_id
 _symmetry_equiv_pos_as_xyz
  1  'x, y, z'
loop_
 _atom_site_type_symbol
 _atom_site_label
 _atom_site_symmetry_multiplicity
 _atom_site_fract_x
 _atom_site_fract_y
 _atom_site_fract_z
 _atom_site_occupancy
  Hf  Hf0  1  0.711986  0.288014  0.288014  1
  Hf  Hf1  1  0.288014  0.711986  0.711986  1
  Hf  Hf2  1  0.288014  0.711986  0.288014  1
  Hf  Hf3  1  0.711986  0.288014  0.711986  1
  Hf  Hf4  1  0.288014  0.288014  0.711986  1
  Hf  Hf5  1  0.711986  0.711986  0.288014  1
  Zn  Zn6  1  0.124623  0.124623  0.124623  1
  Zn  Zn7  1  0.875377  0.875377  0.875377  1
  Zn  Zn8  1  0.124623  0.124623  0.626131  1
  Zn  Zn9  1  0.124623  0.626131  0.124623  1
  Zn  Zn10  1  0.875377  0.875377  0.373869  1
  Zn  Zn11  1  0.875377  0.373869  0.875377  1
  Zn  Zn12  1  0.626131  0.124623  0.124623  1
  Zn  Zn13  1  0.373869  0.875377  0.875377  1
  Zn  Zn14  1  0.500000  0.000000  0.000000  1
  Zn  Zn15  1  0.000000  0.500000  0.500000  1
  Zn  Zn16  1  0.000000  0.500000  0.000000  1
  Zn  Zn17  1  0.500000  0.000000  0.500000  1
  Zn  Zn18  1  0.000000  0.000000  0.500000  1
  Zn  Zn19  1  0.500000  0.500000  0.000000  1
  Zn  Zn20  1  0.336271  0.336271  0.336271  1
  Zn  Zn21  1  0.663729  0.663729  0.663729  1
  Zn  Zn22  1  0.336271  0.336271  0.991186  1
  Zn  Zn23  1  0.336271  0.991186  0.336271  1
  Zn  Zn24  1  0.663729  0.663729  0.008814  1
  Zn  Zn25  1  0.663729  0.008814  0.663729  1
  Zn  Zn26  1  0.991186  0.336271  0.336271  1
  Zn  Zn27  1  0.008814  0.663729  0.663729  1
  Ag  Ag28  1  0.000000  0.000000  0.000000  1
  Ge  Ge29  1  0.500000  0.500000  0.500000  1
