# generated using pymatgen
data_Lu9MgZn3NiSb2
_symmetry_space_group_name_H-M   'P 1'
_cell_length_a   8.33934513
_cell_length_b   8.33934515
_cell_length_c   8.40687439
_cell_angle_alpha   125.64215742
_cell_angle_beta   124.95919513
_cell_angle_gamma   80.49855130
_symmetry_Int_Tables_number   1
_chemical_formula_structural   Lu9MgZn3NiSb2
_chemical_formula_sum   'Lu9 Mg1 Zn3 Ni1 Sb2'
_cell_volume   376.68202140
_cell_formula_units_Z   1
loop_
 _symmetry_equiv_pos_site_id
 _symmetry_equiv_pos_as_xyz
  1  'x, y, z'
loop_
 _atom_site_type_symbol
 _atom_site_label
 _atom_site_symmetry_multiplicity
 _atom_site_fract_x
 _atom_site_fract_y
 _atom_site_fract_z
 _atom_site_occupancy
  Lu  Lu0  1  0.497813  0.493187  0.991001  1
  Lu  Lu1  1  0.796020  0.296349  0.805718  1
  Lu  Lu2  1  0.195866  0.720147  0.196803  1
  Lu  Lu3  1  0.476656  0.000937  0.196803  1
  Lu  Lu4  1  0.300942  0.463253  0.488577  1
  Lu  Lu5  1  0.025324  0.187635  0.488577  1
  Lu  Lu6  1  0.509369  0.009698  0.805718  1
  Lu  Lu7  1  0.704541  0.518460  0.507507  1
  Lu  Lu8  1  0.989047  0.802966  0.507507  1
  Mg  Mg9  1  0.996210  0.999489  0.995699  1
  Zn  Zn10  1  0.137536  0.637731  0.775267  1
  Zn  Zn11  1  0.864224  0.362716  0.226939  1
  Zn  Zn12  1  0.630294  0.864960  0.495254  1
  Ni  Ni13  1  0.385385  0.132965  0.518350  1
  Sb  Sb14  1  0.247359  0.256726  0.000140  1
  Sb  Sb15  1  0.743413  0.752781  0.000140  1
