# generated using pymatgen
data_Ac2(Ga3Rh)3
_symmetry_space_group_name_H-M   'P 1'
_cell_length_a   7.79224575
_cell_length_b   7.79224590
_cell_length_c   9.87747500
_cell_angle_alpha   90.00000000
_cell_angle_beta   90.00000000
_cell_angle_gamma   118.99421239
_symmetry_Int_Tables_number   1
_chemical_formula_structural   Ac2(Ga3Rh)3
_chemical_formula_sum   'Ac4 Ga18 Rh6'
_cell_volume   524.58371207
_cell_formula_units_Z   2
loop_
 _symmetry_equiv_pos_site_id
 _symmetry_equiv_pos_as_xyz
  1  'x, y, z'
loop_
 _atom_site_type_symbol
 _atom_site_label
 _atom_site_symmetry_multiplicity
 _atom_site_fract_x
 _atom_site_fract_y
 _atom_site_fract_z
 _atom_site_occupancy
  Ac  Ac0  1  0.670975  0.998215  0.250000  1
  Ac  Ac1  1  0.001785  0.329025  0.750000  1
  Ac  Ac2  1  0.998215  0.670975  0.250000  1
  Ac  Ac3  1  0.329025  0.001785  0.750000  1
  Ga  Ga4  1  0.663695  0.989991  0.925463  1
  Ga  Ga5  1  0.134161  0.134161  0.250000  1
  Ga  Ga6  1  0.010009  0.336305  0.425463  1
  Ga  Ga7  1  0.337498  0.337498  0.551480  1
  Ga  Ga8  1  0.337838  0.541374  0.250000  1
  Ga  Ga9  1  0.458626  0.662162  0.750000  1
  Ga  Ga10  1  0.865839  0.865839  0.750000  1
  Ga  Ga11  1  0.662502  0.662502  0.051480  1
  Ga  Ga12  1  0.662502  0.662502  0.448520  1
  Ga  Ga13  1  0.989991  0.663695  0.574537  1
  Ga  Ga14  1  0.989991  0.663695  0.925463  1
  Ga  Ga15  1  0.336305  0.010009  0.425463  1
  Ga  Ga16  1  0.662162  0.458626  0.750000  1
  Ga  Ga17  1  0.541374  0.337838  0.250000  1
  Ga  Ga18  1  0.337498  0.337498  0.948520  1
  Ga  Ga19  1  0.336305  0.010009  0.074537  1
  Ga  Ga20  1  0.663695  0.989991  0.574537  1
  Ga  Ga21  1  0.010009  0.336305  0.074537  1
  Rh  Rh22  1  0.330560  0.669440  0.500000  1
  Rh  Rh23  1  0.330560  0.669440  0.000000  1
  Rh  Rh24  1  0.669440  0.330560  0.500000  1
  Rh  Rh25  1  0.000000  0.000000  0.000000  1
  Rh  Rh26  1  0.000000  0.000000  0.500000  1
  Rh  Rh27  1  0.669440  0.330560  0.000000  1
