# generated using pymatgen
data_HfF10
_symmetry_space_group_name_H-M   'P 1'
_cell_length_a   4.17409878
_cell_length_b   4.17566471
_cell_length_c   11.12612429
_cell_angle_alpha   91.68759386
_cell_angle_beta   81.25960785
_cell_angle_gamma   90.06038762
_symmetry_Int_Tables_number   1
_chemical_formula_structural   HfF10
_chemical_formula_sum   'Hf1 F10'
_cell_volume   191.58798115
_cell_formula_units_Z   1
loop_
 _symmetry_equiv_pos_site_id
 _symmetry_equiv_pos_as_xyz
  1  'x, y, z'
loop_
 _atom_site_type_symbol
 _atom_site_label
 _atom_site_symmetry_multiplicity
 _atom_site_fract_x
 _atom_site_fract_y
 _atom_site_fract_z
 _atom_site_occupancy
  Hf  Hf0  1  0.645479  0.693568  0.283064  1
  F  F1  1  0.322623  0.126456  0.992088  1
  F  F2  1  0.075019  0.169242  0.918795  1
  F  F3  1  0.698832  0.616487  0.822177  1
  F  F4  1  0.065361  0.198078  0.619828  1
  F  F5  1  0.536295  0.690775  0.722543  1
  F  F6  1  0.056841  0.210819  0.492813  1
  F  F7  1  0.574293  0.707290  0.457268  1
  F  F8  1  0.649793  0.193504  0.281590  1
  F  F9  1  0.146124  0.691251  0.281864  1
  F  F10  1  0.715911  0.681428  0.108496  1
