# generated using pymatgen
data_NaTi2V3O12
_symmetry_space_group_name_H-M   'P 1'
_cell_length_a   9.26465228
_cell_length_b   9.26465172
_cell_length_c   9.26465321
_cell_angle_alpha   59.23304777
_cell_angle_beta   59.23305070
_cell_angle_gamma   59.23305785
_symmetry_Int_Tables_number   1
_chemical_formula_structural   NaTi2V3O12
_chemical_formula_sum   'Na2 Ti4 V6 O24'
_cell_volume   552.48185326
_cell_formula_units_Z   2
loop_
 _symmetry_equiv_pos_site_id
 _symmetry_equiv_pos_as_xyz
  1  'x, y, z'
loop_
 _atom_site_type_symbol
 _atom_site_label
 _atom_site_symmetry_multiplicity
 _atom_site_fract_x
 _atom_site_fract_y
 _atom_site_fract_z
 _atom_site_occupancy
  Na  Na0  1  0.500000  0.500000  0.500000  1
  Na  Na1  1  0.000000  0.000000  0.000000  1
  Ti  Ti2  1  0.359207  0.359207  0.359207  1
  Ti  Ti3  1  0.859207  0.859207  0.859207  1
  Ti  Ti4  1  0.640793  0.640793  0.640793  1
  Ti  Ti5  1  0.140793  0.140793  0.140793  1
  V  V6  1  0.965202  0.534798  0.250000  1
  V  V7  1  0.250000  0.965202  0.534798  1
  V  V8  1  0.534798  0.250000  0.965202  1
  V  V9  1  0.750000  0.034798  0.465202  1
  V  V10  1  0.465202  0.750000  0.034798  1
  V  V11  1  0.034798  0.465202  0.750000  1
  O  O12  1  0.146012  0.497457  0.291351  1
  O  O13  1  0.291351  0.146012  0.497457  1
  O  O14  1  0.497457  0.291351  0.146012  1
  O  O15  1  0.791351  0.997457  0.646012  1
  O  O16  1  0.646012  0.791351  0.997457  1
  O  O17  1  0.997457  0.646012  0.791351  1
  O  O18  1  0.853988  0.502543  0.708649  1
  O  O19  1  0.708649  0.853988  0.502543  1
  O  O20  1  0.502543  0.708649  0.853988  1
  O  O21  1  0.208649  0.002543  0.353988  1
  O  O22  1  0.353988  0.208649  0.002543  1
  O  O23  1  0.002543  0.353988  0.208649  1
  O  O24  1  0.231556  0.438976  0.568201  1
  O  O25  1  0.568201  0.231556  0.438976  1
  O  O26  1  0.438976  0.568201  0.231556  1
  O  O27  1  0.068201  0.938976  0.731556  1
  O  O28  1  0.731556  0.068201  0.938976  1
  O  O29  1  0.938976  0.731556  0.068201  1
  O  O30  1  0.768444  0.561024  0.431799  1
  O  O31  1  0.431799  0.768444  0.561024  1
  O  O32  1  0.561024  0.431799  0.768444  1
  O  O33  1  0.931799  0.061024  0.268444  1
  O  O34  1  0.268444  0.931799  0.061024  1
  O  O35  1  0.061024  0.268444  0.931799  1
