# generated using pymatgen
data_La4Ho5LuGe8
_symmetry_space_group_name_H-M   'P 1'
_cell_length_a   7.97240403
_cell_length_b   7.97328400
_cell_length_c   14.66614700
_cell_angle_alpha   90.00000000
_cell_angle_beta   89.99474648
_cell_angle_gamma   90.00000000
_symmetry_Int_Tables_number   1
_chemical_formula_structural   La4Ho5LuGe8
_chemical_formula_sum   'La8 Ho10 Lu2 Ge16'
_cell_volume   932.27183848
_cell_formula_units_Z   2
loop_
 _symmetry_equiv_pos_site_id
 _symmetry_equiv_pos_as_xyz
  1  'x, y, z'
loop_
 _atom_site_type_symbol
 _atom_site_label
 _atom_site_symmetry_multiplicity
 _atom_site_fract_x
 _atom_site_fract_y
 _atom_site_fract_z
 _atom_site_occupancy
  La  La0  1  0.996990  0.647342  0.038448  1
  La  La1  1  0.003207  0.353080  0.538228  1
  La  La2  1  0.646955  0.996580  0.962091  1
  La  La3  1  0.147221  0.502699  0.788779  1
  La  La4  1  0.853045  0.496580  0.287909  1
  La  La5  1  0.503010  0.147342  0.211552  1
  La  La6  1  0.496793  0.853080  0.711772  1
  La  La7  1  0.352779  0.002699  0.461221  1
  Ho  Ho8  1  0.347918  0.494103  0.375450  1
  Ho  Ho9  1  0.848197  0.005603  0.373161  1
  Ho  Ho10  1  0.994688  0.151937  0.126349  1
  Ho  Ho11  1  0.006184  0.848074  0.625960  1
  Ho  Ho12  1  0.651803  0.505603  0.876839  1
  Ho  Ho13  1  0.493816  0.348074  0.624040  1
  Ho  Ho14  1  0.505312  0.651937  0.123651  1
  Ho  Ho15  1  0.152082  0.994103  0.874550  1
  Ho  Ho16  1  0.677429  0.677837  0.499784  1
  Ho  Ho17  1  0.822571  0.177837  0.750216  1
  Lu  Lu18  1  0.177899  0.822823  0.249820  1
  Lu  Lu19  1  0.322101  0.322823  0.000180  1
  Ge  Ge20  1  0.047316  0.710876  0.431547  1
  Ge  Ge21  1  0.954031  0.289473  0.933308  1
  Ge  Ge22  1  0.710770  0.047252  0.566788  1
  Ge  Ge23  1  0.210878  0.453976  0.181728  1
  Ge  Ge24  1  0.789230  0.547252  0.683212  1
  Ge  Ge25  1  0.452684  0.210877  0.818453  1
  Ge  Ge26  1  0.545969  0.789473  0.316692  1
  Ge  Ge27  1  0.289123  0.953976  0.068272  1
  Ge  Ge28  1  0.857413  0.802384  0.817624  1
  Ge  Ge29  1  0.143216  0.195865  0.317455  1
  Ge  Ge30  1  0.803188  0.857126  0.182282  1
  Ge  Ge31  1  0.303198  0.642971  0.567271  1
  Ge  Ge32  1  0.696812  0.357126  0.067718  1
  Ge  Ge33  1  0.642587  0.302384  0.432376  1
  Ge  Ge34  1  0.356784  0.695865  0.932545  1
  Ge  Ge35  1  0.196802  0.142971  0.682729  1
