# generated using pymatgen
data_Ho8Tm7Lu5Pt16
_symmetry_space_group_name_H-M   'P 1'
_cell_length_a   7.42013200
_cell_length_b   7.50546937
_cell_length_c   14.58803900
_cell_angle_alpha   89.98280089
_cell_angle_beta   89.99892669
_cell_angle_gamma   90.00512200
_symmetry_Int_Tables_number   1
_chemical_formula_structural   Ho8Tm7Lu5Pt16
_chemical_formula_sum   'Ho8 Tm7 Lu5 Pt16'
_cell_volume   812.43080537
_cell_formula_units_Z   1
loop_
 _symmetry_equiv_pos_site_id
 _symmetry_equiv_pos_as_xyz
  1  'x, y, z'
loop_
 _atom_site_type_symbol
 _atom_site_label
 _atom_site_symmetry_multiplicity
 _atom_site_fract_x
 _atom_site_fract_y
 _atom_site_fract_z
 _atom_site_occupancy
  Ho  Ho0  1  0.501111  0.678423  0.593269  1
  Ho  Ho1  1  0.001334  0.821058  0.906561  1
  Ho  Ho2  1  0.498584  0.321197  0.093102  1
  Ho  Ho3  1  0.998870  0.179060  0.407208  1
  Ho  Ho4  1  0.498562  0.321163  0.406877  1
  Ho  Ho5  1  0.998749  0.178862  0.093134  1
  Ho  Ho6  1  0.501372  0.678923  0.906698  1
  Ho  Ho7  1  0.001466  0.820984  0.593223  1
  Tm  Tm8  1  0.656257  0.167648  0.622721  1
  Tm  Tm9  1  0.156289  0.332366  0.877172  1
  Tm  Tm10  1  0.343651  0.832288  0.122775  1
  Tm  Tm11  1  0.843864  0.667480  0.377378  1
  Tm  Tm12  1  0.343404  0.832236  0.377587  1
  Tm  Tm13  1  0.843777  0.667718  0.122811  1
  Tm  Tm14  1  0.656296  0.167654  0.876985  1
  Lu  Lu15  1  0.156178  0.332418  0.622950  1
  Lu  Lu16  1  0.819551  0.509925  0.749753  1
  Lu  Lu17  1  0.319064  0.990035  0.749761  1
  Lu  Lu18  1  0.180752  0.489622  0.250026  1
  Lu  Lu19  1  0.680731  0.010318  0.250068  1
  Pt  Pt20  1  0.682300  0.966912  0.457797  1
  Pt  Pt21  1  0.183170  0.532799  0.042287  1
  Pt  Pt22  1  0.316691  0.032905  0.957307  1
  Pt  Pt23  1  0.817638  0.466917  0.542881  1
  Pt  Pt24  1  0.316363  0.033664  0.542287  1
  Pt  Pt25  1  0.816572  0.466851  0.957381  1
  Pt  Pt26  1  0.683193  0.967204  0.042257  1
  Pt  Pt27  1  0.183853  0.532940  0.458209  1
  Pt  Pt28  1  0.453612  0.385814  0.749653  1
  Pt  Pt29  1  0.953199  0.113951  0.749732  1
  Pt  Pt30  1  0.546503  0.613406  0.250205  1
  Pt  Pt31  1  0.046676  0.886532  0.250172  1
  Pt  Pt32  1  0.681512  0.856906  0.749914  1
  Pt  Pt33  1  0.180510  0.643946  0.749647  1
  Pt  Pt34  1  0.319027  0.143550  0.250092  1
  Pt  Pt35  1  0.819321  0.356322  0.250119  1
