# generated using pymatgen
data_Ce4Tm6CuSi7
_symmetry_space_group_name_H-M   'P 1'
_cell_length_a   7.56323700
_cell_length_b   7.75224803
_cell_length_c   14.82140100
_cell_angle_alpha   90.00000000
_cell_angle_beta   90.00000000
_cell_angle_gamma   90.48175671
_symmetry_Int_Tables_number   1
_chemical_formula_structural   Ce4Tm6CuSi7
_chemical_formula_sum   'Ce8 Tm12 Cu2 Si14'
_cell_volume   868.97898637
_cell_formula_units_Z   2
loop_
 _symmetry_equiv_pos_site_id
 _symmetry_equiv_pos_as_xyz
  1  'x, y, z'
loop_
 _atom_site_type_symbol
 _atom_site_label
 _atom_site_symmetry_multiplicity
 _atom_site_fract_x
 _atom_site_fract_y
 _atom_site_fract_z
 _atom_site_occupancy
  Ce  Ce0  1  0.020434  0.177880  0.402210  1
  Ce  Ce1  1  0.524245  0.318725  0.399158  1
  Ce  Ce2  1  0.475755  0.681275  0.899158  1
  Ce  Ce3  1  0.477192  0.677612  0.598387  1
  Ce  Ce4  1  0.978930  0.824795  0.597781  1
  Ce  Ce5  1  0.979566  0.822120  0.902210  1
  Ce  Ce6  1  0.522808  0.322388  0.098387  1
  Ce  Ce7  1  0.021070  0.175205  0.097781  1
  Tm  Tm8  1  0.325435  0.185174  0.620865  1
  Tm  Tm9  1  0.675928  0.821491  0.377789  1
  Tm  Tm10  1  0.656989  0.990993  0.749707  1
  Tm  Tm11  1  0.175833  0.671287  0.378683  1
  Tm  Tm12  1  0.824167  0.328713  0.878683  1
  Tm  Tm13  1  0.823722  0.326116  0.622182  1
  Tm  Tm14  1  0.843622  0.486976  0.251447  1
  Tm  Tm15  1  0.343011  0.009007  0.249707  1
  Tm  Tm16  1  0.324072  0.178509  0.877789  1
  Tm  Tm17  1  0.176278  0.673884  0.122182  1
  Tm  Tm18  1  0.674565  0.814826  0.120865  1
  Tm  Tm19  1  0.156378  0.513024  0.751447  1
  Cu  Cu20  1  0.140588  0.472409  0.541253  1
  Cu  Cu21  1  0.859412  0.527591  0.041253  1
  Si  Si22  1  0.273882  0.881187  0.748732  1
  Si  Si23  1  0.468000  0.608688  0.250437  1
  Si  Si24  1  0.030180  0.113139  0.751064  1
  Si  Si25  1  0.532000  0.391312  0.750437  1
  Si  Si26  1  0.969820  0.886861  0.251064  1
  Si  Si27  1  0.726118  0.118813  0.248732  1
  Si  Si28  1  0.352143  0.969659  0.039986  1
  Si  Si29  1  0.151673  0.469810  0.959745  1
  Si  Si30  1  0.647857  0.030341  0.539986  1
  Si  Si31  1  0.350484  0.968997  0.460159  1
  Si  Si32  1  0.848327  0.530190  0.459745  1
  Si  Si33  1  0.774586  0.625910  0.750416  1
  Si  Si34  1  0.225414  0.374090  0.250416  1
  Si  Si35  1  0.649516  0.031003  0.960159  1
