# generated using pymatgen
data_Yb8Pr2Ir3Ru
_symmetry_space_group_name_H-M   'P 1'
_cell_length_a   8.57347484
_cell_length_b   8.57683210
_cell_length_c   7.47796340
_cell_angle_alpha   83.14802180
_cell_angle_beta   83.14747998
_cell_angle_gamma   44.78042732
_symmetry_Int_Tables_number   1
_chemical_formula_structural   Yb8Pr2Ir3Ru
_chemical_formula_sum   'Yb8 Pr2 Ir3 Ru1'
_cell_volume   384.09204589
_cell_formula_units_Z   1
loop_
 _symmetry_equiv_pos_site_id
 _symmetry_equiv_pos_as_xyz
  1  'x, y, z'
loop_
 _atom_site_type_symbol
 _atom_site_label
 _atom_site_symmetry_multiplicity
 _atom_site_fract_x
 _atom_site_fract_y
 _atom_site_fract_z
 _atom_site_occupancy
  Yb  Yb0  1  0.021671  0.802419  0.915954  1
  Yb  Yb1  1  0.195870  0.979403  0.582990  1
  Yb  Yb2  1  0.978597  0.196305  0.082301  1
  Yb  Yb3  1  0.805181  0.018803  0.418114  1
  Yb  Yb4  1  0.357637  0.203943  0.820858  1
  Yb  Yb5  1  0.796197  0.641897  0.679409  1
  Yb  Yb6  1  0.642946  0.796024  0.178343  1
  Yb  Yb7  1  0.204017  0.358396  0.322487  1
  Pr  Pr8  1  0.564896  0.433285  0.747932  1
  Pr  Pr9  1  0.431424  0.567193  0.252668  1
  Ir  Ir10  1  0.395938  0.823854  0.923029  1
  Ir  Ir11  1  0.823418  0.397171  0.420895  1
  Ir  Ir12  1  0.604498  0.175618  0.078461  1
  Ru  Ru13  1  0.177710  0.605689  0.576559  1
