# generated using pymatgen
data_Lu12Fe3CuBi
_symmetry_space_group_name_H-M   'P 1'
_cell_length_a   8.13242454
_cell_length_b   8.13242280
_cell_length_c   8.13242428
_cell_angle_alpha   107.17081414
_cell_angle_beta   110.74428416
_cell_angle_gamma   110.52285077
_symmetry_Int_Tables_number   1
_chemical_formula_structural   Lu12Fe3CuBi
_chemical_formula_sum   'Lu12 Fe3 Cu1 Bi1'
_cell_volume   413.53633205
_cell_formula_units_Z   1
loop_
 _symmetry_equiv_pos_site_id
 _symmetry_equiv_pos_as_xyz
  1  'x, y, z'
loop_
 _atom_site_type_symbol
 _atom_site_label
 _atom_site_symmetry_multiplicity
 _atom_site_fract_x
 _atom_site_fract_y
 _atom_site_fract_z
 _atom_site_occupancy
  Lu  Lu0  1  0.314283  0.303117  0.617400  1
  Lu  Lu1  1  0.685717  0.696883  0.382600  1
  Lu  Lu2  1  0.685717  0.303117  0.988833  1
  Lu  Lu3  1  0.314283  0.696883  0.011167  1
  Lu  Lu4  1  0.190822  0.410446  0.219623  1
  Lu  Lu5  1  0.809178  0.589554  0.780377  1
  Lu  Lu6  1  0.190822  0.971198  0.780377  1
  Lu  Lu7  1  0.929153  0.190137  0.739017  1
  Lu  Lu8  1  0.809178  0.028802  0.219623  1
  Lu  Lu9  1  0.070847  0.809863  0.260983  1
  Lu  Lu10  1  0.451121  0.190137  0.260983  1
  Lu  Lu11  1  0.548879  0.809863  0.739017  1
  Fe  Fe12  1  0.382206  0.382206  0.000000  1
  Fe  Fe13  1  0.617794  0.617794  0.000000  1
  Fe  Fe14  1  0.000000  0.000000  0.000000  1
  Cu  Cu15  1  0.500000  0.000000  0.500000  1
  Bi  Bi16  1  0.000000  0.500000  0.500000  1
