# generated using pymatgen
data_Nd7ZnNi2
_symmetry_space_group_name_H-M   'P 1'
_cell_length_a   3.75889400
_cell_length_b   12.18699300
_cell_length_c   12.18699300
_cell_angle_alpha   90.00000000
_cell_angle_beta   90.00000000
_cell_angle_gamma   90.00000000
_symmetry_Int_Tables_number   1
_chemical_formula_structural   Nd7ZnNi2
_chemical_formula_sum   'Nd14 Zn2 Ni4'
_cell_volume   558.28145570
_cell_formula_units_Z   2
loop_
 _symmetry_equiv_pos_site_id
 _symmetry_equiv_pos_as_xyz
  1  'x, y, z'
loop_
 _atom_site_type_symbol
 _atom_site_label
 _atom_site_symmetry_multiplicity
 _atom_site_fract_x
 _atom_site_fract_y
 _atom_site_fract_z
 _atom_site_occupancy
  Nd  Nd0  1  0.500000  0.000000  0.500000  1
  Nd  Nd1  1  0.500000  0.500000  0.000000  1
  Nd  Nd2  1  0.000000  0.319045  0.819045  1
  Nd  Nd3  1  0.000000  0.680955  0.180955  1
  Nd  Nd4  1  0.000000  0.180955  0.319045  1
  Nd  Nd5  1  0.000000  0.819045  0.680955  1
  Nd  Nd6  1  0.500000  0.560198  0.705441  1
  Nd  Nd7  1  0.500000  0.439802  0.294559  1
  Nd  Nd8  1  0.500000  0.939802  0.205441  1
  Nd  Nd9  1  0.500000  0.060198  0.794559  1
  Nd  Nd10  1  0.500000  0.705441  0.439802  1
  Nd  Nd11  1  0.500000  0.294559  0.560198  1
  Nd  Nd12  1  0.500000  0.205441  0.060198  1
  Nd  Nd13  1  0.500000  0.794559  0.939802  1
  Zn  Zn14  1  0.000000  0.500000  0.500000  1
  Zn  Zn15  1  0.000000  0.000000  0.000000  1
  Ni  Ni16  1  0.000000  0.129560  0.629560  1
  Ni  Ni17  1  0.000000  0.870440  0.370440  1
  Ni  Ni18  1  0.000000  0.370440  0.129560  1
  Ni  Ni19  1  0.000000  0.629560  0.870440  1
