# generated using pymatgen
data_Ho16ZnNi4Ag3
_symmetry_space_group_name_H-M   'P 1'
_cell_length_a   9.35881655
_cell_length_b   9.35881676
_cell_length_c   9.35881656
_cell_angle_alpha   60.32514923
_cell_angle_beta   60.32514850
_cell_angle_gamma   60.32515088
_symmetry_Int_Tables_number   1
_chemical_formula_structural   Ho16ZnNi4Ag3
_chemical_formula_sum   'Ho16 Zn1 Ni4 Ag3'
_cell_volume   583.89007092
_cell_formula_units_Z   1
loop_
 _symmetry_equiv_pos_site_id
 _symmetry_equiv_pos_as_xyz
  1  'x, y, z'
loop_
 _atom_site_type_symbol
 _atom_site_label
 _atom_site_symmetry_multiplicity
 _atom_site_fract_x
 _atom_site_fract_y
 _atom_site_fract_z
 _atom_site_occupancy
  Ho  Ho0  1  0.350421  0.350421  0.350421  1
  Ho  Ho1  1  0.351217  0.351217  0.947809  1
  Ho  Ho2  1  0.351217  0.947809  0.351217  1
  Ho  Ho3  1  0.947809  0.351217  0.351217  1
  Ho  Ho4  1  0.810944  0.189020  0.189020  1
  Ho  Ho5  1  0.190825  0.810037  0.810037  1
  Ho  Ho6  1  0.189020  0.810944  0.189020  1
  Ho  Ho7  1  0.810037  0.190825  0.810037  1
  Ho  Ho8  1  0.189020  0.189020  0.810944  1
  Ho  Ho9  1  0.810037  0.810037  0.190825  1
  Ho  Ho10  1  0.933899  0.564561  0.564561  1
  Ho  Ho11  1  0.563944  0.936008  0.936008  1
  Ho  Ho12  1  0.564561  0.933899  0.564561  1
  Ho  Ho13  1  0.936008  0.563944  0.936008  1
  Ho  Ho14  1  0.564561  0.564561  0.933899  1
  Ho  Ho15  1  0.936008  0.936008  0.563944  1
  Zn  Zn16  1  0.581381  0.581381  0.581381  1
  Ni  Ni17  1  0.143461  0.143461  0.143461  1
  Ni  Ni18  1  0.142675  0.142675  0.570807  1
  Ni  Ni19  1  0.142675  0.570807  0.142675  1
  Ni  Ni20  1  0.570807  0.142675  0.142675  1
  Ag  Ag21  1  0.582179  0.582179  0.255114  1
  Ag  Ag22  1  0.582179  0.255114  0.582179  1
  Ag  Ag23  1  0.255114  0.582179  0.582179  1
