# generated using pymatgen
data_Eu8SbPPd23
_symmetry_space_group_name_H-M   'P 1'
_cell_length_a   8.51025400
_cell_length_b   8.51025400
_cell_length_c   8.82166200
_cell_angle_alpha   90.00000000
_cell_angle_beta   90.00000000
_cell_angle_gamma   90.00000000
_symmetry_Int_Tables_number   1
_chemical_formula_structural   Eu8SbPPd23
_chemical_formula_sum   'Eu8 Sb1 P1 Pd23'
_cell_volume   638.90378153
_cell_formula_units_Z   1
loop_
 _symmetry_equiv_pos_site_id
 _symmetry_equiv_pos_as_xyz
  1  'x, y, z'
loop_
 _atom_site_type_symbol
 _atom_site_label
 _atom_site_symmetry_multiplicity
 _atom_site_fract_x
 _atom_site_fract_y
 _atom_site_fract_z
 _atom_site_occupancy
  Eu  Eu0  1  0.754131  0.754131  0.244675  1
  Eu  Eu1  1  0.746668  0.253332  0.750203  1
  Eu  Eu2  1  0.253332  0.746668  0.750203  1
  Eu  Eu3  1  0.746668  0.746668  0.750203  1
  Eu  Eu4  1  0.754131  0.245869  0.244675  1
  Eu  Eu5  1  0.253332  0.253332  0.750203  1
  Eu  Eu6  1  0.245869  0.754131  0.244675  1
  Eu  Eu7  1  0.245869  0.245869  0.244675  1
  Sb  Sb8  1  0.000000  0.000000  0.991274  1
  P  P9  1  0.000000  0.000000  0.416861  1
  Pd  Pd10  1  0.729437  0.000000  0.495798  1
  Pd  Pd11  1  0.729787  0.500000  0.000634  1
  Pd  Pd12  1  0.500000  0.000000  0.725687  1
  Pd  Pd13  1  0.000000  0.729437  0.495798  1
  Pd  Pd14  1  0.500000  0.000000  0.263034  1
  Pd  Pd15  1  0.000000  0.270563  0.495798  1
  Pd  Pd16  1  0.500000  0.729787  0.000634  1
  Pd  Pd17  1  0.255035  0.500000  0.494456  1
  Pd  Pd18  1  0.500000  0.500000  0.738959  1
  Pd  Pd19  1  0.500000  0.500000  0.255122  1
  Pd  Pd20  1  0.500000  0.255035  0.494456  1
  Pd  Pd21  1  0.500000  0.744965  0.494456  1
  Pd  Pd22  1  0.744965  0.500000  0.494456  1
  Pd  Pd23  1  0.320542  0.000000  0.995885  1
  Pd  Pd24  1  0.000000  0.000000  0.693738  1
  Pd  Pd25  1  0.000000  0.500000  0.263034  1
  Pd  Pd26  1  0.000000  0.320542  0.995885  1
  Pd  Pd27  1  0.000000  0.679458  0.995885  1
  Pd  Pd28  1  0.679458  0.000000  0.995885  1
  Pd  Pd29  1  0.270213  0.500000  0.000634  1
  Pd  Pd30  1  0.270563  0.000000  0.495798  1
  Pd  Pd31  1  0.000000  0.500000  0.725687  1
  Pd  Pd32  1  0.500000  0.270213  0.000634  1
