# generated using pymatgen
data_Zn20Cu2PdPt3
_symmetry_space_group_name_H-M   'P 1'
_cell_length_a   7.89601379
_cell_length_b   7.90463863
_cell_length_c   7.87005583
_cell_angle_alpha   70.59969791
_cell_angle_beta   70.69998149
_cell_angle_gamma   109.52131945
_symmetry_Int_Tables_number   1
_chemical_formula_structural   Zn20Cu2PdPt3
_chemical_formula_sum   'Zn20 Cu2 Pd1 Pt3'
_cell_volume   379.02648987
_cell_formula_units_Z   1
loop_
 _symmetry_equiv_pos_site_id
 _symmetry_equiv_pos_as_xyz
  1  'x, y, z'
loop_
 _atom_site_type_symbol
 _atom_site_label
 _atom_site_symmetry_multiplicity
 _atom_site_fract_x
 _atom_site_fract_y
 _atom_site_fract_z
 _atom_site_occupancy
  Zn  Zn0  1  0.005436  0.004855  0.787297  1
  Zn  Zn1  1  0.770151  0.769616  0.229862  1
  Zn  Zn2  1  0.222010  0.999438  0.994368  1
  Zn  Zn3  1  0.999956  0.222433  0.994021  1
  Zn  Zn4  1  0.265949  0.265428  0.389258  1
  Zn  Zn5  1  0.009259  0.735676  0.647538  1
  Zn  Zn6  1  0.736778  0.009312  0.646870  1
  Zn  Zn7  1  0.650484  0.650555  0.631890  1
  Zn  Zn8  1  0.362506  0.641109  0.351907  1
  Zn  Zn9  1  0.642470  0.363149  0.350928  1
  Zn  Zn10  1  0.355109  0.733635  0.982493  1
  Zn  Zn11  1  0.626488  0.268386  0.720765  1
  Zn  Zn12  1  0.354382  0.006220  0.275481  1
  Zn  Zn13  1  0.735218  0.356715  0.982217  1
  Zn  Zn14  1  0.006157  0.354972  0.275342  1
  Zn  Zn15  1  0.268736  0.626958  0.720868  1
  Zn  Zn16  1  0.644471  0.642527  0.998048  1
  Zn  Zn17  1  0.999953  0.641176  0.360759  1
  Zn  Zn18  1  0.642975  0.002801  0.360501  1
  Zn  Zn19  1  0.353756  0.356811  0.005288  1
  Cu  Cu20  1  0.996517  0.358466  0.641167  1
  Cu  Cu21  1  0.357053  0.996239  0.640536  1
  Pd  Pd22  1  0.993102  0.648429  0.007985  1
  Pt  Pt23  1  0.999712  0.999504  0.342346  1
  Pt  Pt24  1  0.353958  0.353588  0.653456  1
  Pt  Pt25  1  0.647411  0.992003  0.008805  1
