# generated using pymatgen
data_Tb20Cd6ReNi
_symmetry_space_group_name_H-M   'P 1'
_cell_length_a   9.60119200
_cell_length_b   9.60119221
_cell_length_c   9.93722000
_cell_angle_alpha   90.00000000
_cell_angle_beta   90.00000000
_cell_angle_gamma   119.99999238
_symmetry_Int_Tables_number   1
_chemical_formula_structural   Tb20Cd6ReNi
_chemical_formula_sum   'Tb20 Cd6 Re1 Ni1'
_cell_volume   793.31540651
_cell_formula_units_Z   1
loop_
 _symmetry_equiv_pos_site_id
 _symmetry_equiv_pos_as_xyz
  1  'x, y, z'
loop_
 _atom_site_type_symbol
 _atom_site_label
 _atom_site_symmetry_multiplicity
 _atom_site_fract_x
 _atom_site_fract_y
 _atom_site_fract_z
 _atom_site_occupancy
  Tb  Tb0  1  0.000000  0.000000  0.500011  1
  Tb  Tb1  1  0.000000  0.000000  0.999989  1
  Tb  Tb2  1  0.539915  0.460085  0.250000  1
  Tb  Tb3  1  0.539915  0.079831  0.250000  1
  Tb  Tb4  1  0.920169  0.460085  0.250000  1
  Tb  Tb5  1  0.457269  0.542731  0.750000  1
  Tb  Tb6  1  0.457269  0.914538  0.750000  1
  Tb  Tb7  1  0.085462  0.542731  0.750000  1
  Tb  Tb8  1  0.208678  0.791322  0.440001  1
  Tb  Tb9  1  0.208678  0.417357  0.440001  1
  Tb  Tb10  1  0.582643  0.791322  0.440001  1
  Tb  Tb11  1  0.788679  0.211321  0.563798  1
  Tb  Tb12  1  0.788679  0.577358  0.563798  1
  Tb  Tb13  1  0.422642  0.211321  0.563798  1
  Tb  Tb14  1  0.788679  0.211321  0.936202  1
  Tb  Tb15  1  0.788679  0.577358  0.936202  1
  Tb  Tb16  1  0.422642  0.211321  0.936202  1
  Tb  Tb17  1  0.208678  0.791322  0.059999  1
  Tb  Tb18  1  0.208678  0.417357  0.059999  1
  Tb  Tb19  1  0.582643  0.791322  0.059999  1
  Cd  Cd20  1  0.885622  0.114378  0.250000  1
  Cd  Cd21  1  0.885622  0.771244  0.250000  1
  Cd  Cd22  1  0.228756  0.114378  0.250000  1
  Cd  Cd23  1  0.114126  0.885874  0.750000  1
  Cd  Cd24  1  0.114126  0.228252  0.750000  1
  Cd  Cd25  1  0.771748  0.885874  0.750000  1
  Re  Re26  1  0.333333  0.666667  0.250000  1
  Ni  Ni27  1  0.666667  0.333333  0.750000  1
