# generated using pymatgen
data_Ho8Os3RuC8
_symmetry_space_group_name_H-M   'P 1'
_cell_length_a   5.10637200
_cell_length_b   6.43175204
_cell_length_c   9.74116166
_cell_angle_alpha   89.90011738
_cell_angle_beta   90.00000000
_cell_angle_gamma   90.00000000
_symmetry_Int_Tables_number   1
_chemical_formula_structural   Ho8Os3RuC8
_chemical_formula_sum   'Ho8 Os3 Ru1 C8'
_cell_volume   319.92769245
_cell_formula_units_Z   1
loop_
 _symmetry_equiv_pos_site_id
 _symmetry_equiv_pos_as_xyz
  1  'x, y, z'
loop_
 _atom_site_type_symbol
 _atom_site_label
 _atom_site_symmetry_multiplicity
 _atom_site_fract_x
 _atom_site_fract_y
 _atom_site_fract_z
 _atom_site_occupancy
  Ho  Ho0  1  0.250000  0.471916  0.782565  1
  Ho  Ho1  1  0.750000  0.026982  0.282389  1
  Ho  Ho2  1  0.250000  0.972606  0.718812  1
  Ho  Ho3  1  0.750000  0.527384  0.217342  1
  Ho  Ho4  1  0.250000  0.821944  0.052919  1
  Ho  Ho5  1  0.750000  0.681076  0.552755  1
  Ho  Ho6  1  0.250000  0.318732  0.446621  1
  Ho  Ho7  1  0.750000  0.180088  0.946305  1
  Os  Os8  1  0.750000  0.222126  0.633614  1
  Os  Os9  1  0.250000  0.778871  0.365952  1
  Os  Os10  1  0.750000  0.721093  0.866272  1
  Ru  Ru11  1  0.250000  0.279396  0.133466  1
  C  C12  1  0.250000  0.171891  0.945151  1
  C  C13  1  0.750000  0.825481  0.054089  1
  C  C14  1  0.250000  0.674124  0.554391  1
  C  C15  1  0.750000  0.325462  0.445523  1
  C  C16  1  0.250000  0.042431  0.259084  1
  C  C17  1  0.750000  0.457388  0.757756  1
  C  C18  1  0.250000  0.544029  0.243459  1
  C  C19  1  0.750000  0.956981  0.741536  1
