# generated using pymatgen
data_Ce4MgB4(Ir2Rh)3
_symmetry_space_group_name_H-M   'P 1'
_cell_length_a   10.92447086
_cell_length_b   10.92446978
_cell_length_c   10.92447004
_cell_angle_alpha   29.47150187
_cell_angle_beta   29.47150356
_cell_angle_gamma   29.47150850
_symmetry_Int_Tables_number   1
_chemical_formula_structural   Ce4MgB4(Ir2Rh)3
_chemical_formula_sum   'Ce4 Mg1 B4 Ir6 Rh3'
_cell_volume   279.32141252
_cell_formula_units_Z   1
loop_
 _symmetry_equiv_pos_site_id
 _symmetry_equiv_pos_as_xyz
  1  'x, y, z'
loop_
 _atom_site_type_symbol
 _atom_site_label
 _atom_site_symmetry_multiplicity
 _atom_site_fract_x
 _atom_site_fract_y
 _atom_site_fract_z
 _atom_site_occupancy
  Ce  Ce0  1  0.148475  0.148475  0.148475  1
  Ce  Ce1  1  0.949133  0.949133  0.949133  1
  Ce  Ce2  1  0.851525  0.851525  0.851525  1
  Ce  Ce3  1  0.050867  0.050867  0.050867  1
  Mg  Mg4  1  0.500000  0.500000  0.500000  1
  B  B5  1  0.615720  0.615720  0.615720  1
  B  B6  1  0.717554  0.717554  0.717554  1
  B  B7  1  0.384280  0.384280  0.384280  1
  B  B8  1  0.282446  0.282446  0.282446  1
  Ir  Ir9  1  0.402665  0.905219  0.402665  1
  Ir  Ir10  1  0.905219  0.402665  0.402665  1
  Ir  Ir11  1  0.597335  0.094781  0.597335  1
  Ir  Ir12  1  0.597335  0.597335  0.094781  1
  Ir  Ir13  1  0.094781  0.597335  0.597335  1
  Ir  Ir14  1  0.402665  0.402665  0.905219  1
  Rh  Rh15  1  0.500000  0.500000  0.000000  1
  Rh  Rh16  1  0.500000  0.000000  0.500000  1
  Rh  Rh17  1  0.000000  0.500000  0.500000  1
