# generated using pymatgen
data_Ba6Ga5O
_symmetry_space_group_name_H-M   'P 1'
_cell_length_a   14.77271456
_cell_length_b   14.77271414
_cell_length_c   14.77271459
_cell_angle_alpha   31.31640626
_cell_angle_beta   31.31641101
_cell_angle_gamma   31.31640891
_symmetry_Int_Tables_number   1
_chemical_formula_structural   Ba6Ga5O
_chemical_formula_sum   'Ba12 Ga10 O2'
_cell_volume   773.00919128
_cell_formula_units_Z   2
loop_
 _symmetry_equiv_pos_site_id
 _symmetry_equiv_pos_as_xyz
  1  'x, y, z'
loop_
 _atom_site_type_symbol
 _atom_site_label
 _atom_site_symmetry_multiplicity
 _atom_site_fract_x
 _atom_site_fract_y
 _atom_site_fract_z
 _atom_site_occupancy
  Ba  Ba0  1  0.791424  0.233952  0.363762  1
  Ba  Ba1  1  0.233952  0.363762  0.791424  1
  Ba  Ba2  1  0.363762  0.791424  0.233952  1
  Ba  Ba3  1  0.708576  0.136238  0.266048  1
  Ba  Ba4  1  0.136238  0.266048  0.708576  1
  Ba  Ba5  1  0.266048  0.708576  0.136238  1
  Ba  Ba6  1  0.208576  0.766048  0.636238  1
  Ba  Ba7  1  0.766048  0.636238  0.208576  1
  Ba  Ba8  1  0.636238  0.208576  0.766048  1
  Ba  Ba9  1  0.291424  0.863762  0.733952  1
  Ba  Ba10  1  0.863762  0.733952  0.291424  1
  Ba  Ba11  1  0.733952  0.291424  0.863762  1
  Ga  Ga12  1  0.250000  0.454447  0.045553  1
  Ga  Ga13  1  0.196899  0.196899  0.196899  1
  Ga  Ga14  1  0.696899  0.696899  0.696899  1
  Ga  Ga15  1  0.303101  0.303101  0.303101  1
  Ga  Ga16  1  0.803101  0.803101  0.803101  1
  Ga  Ga17  1  0.454447  0.045553  0.250000  1
  Ga  Ga18  1  0.045553  0.250000  0.454447  1
  Ga  Ga19  1  0.750000  0.545553  0.954447  1
  Ga  Ga20  1  0.545553  0.954447  0.750000  1
  Ga  Ga21  1  0.954447  0.750000  0.545553  1
  O  O22  1  0.500000  0.500000  0.500000  1
  O  O23  1  0.000000  0.000000  0.000000  1
