# generated using pymatgen
data_NaAc2(FeP)6
_symmetry_space_group_name_H-M   'P 1'
_cell_length_a   8.29930496
_cell_length_b   8.29930406
_cell_length_c   6.31954170
_cell_angle_alpha   69.89419071
_cell_angle_beta   69.89419666
_cell_angle_gamma   37.85613029
_symmetry_Int_Tables_number   1
_chemical_formula_structural   NaAc2(FeP)6
_chemical_formula_sum   'Na1 Ac2 Fe6 P6'
_cell_volume   248.86024366
_cell_formula_units_Z   1
loop_
 _symmetry_equiv_pos_site_id
 _symmetry_equiv_pos_as_xyz
  1  'x, y, z'
loop_
 _atom_site_type_symbol
 _atom_site_label
 _atom_site_symmetry_multiplicity
 _atom_site_fract_x
 _atom_site_fract_y
 _atom_site_fract_z
 _atom_site_occupancy
  Na  Na0  1  0.000000  0.000000  0.000000  1
  Ac  Ac1  1  0.660654  0.660654  0.678545  1
  Ac  Ac2  1  0.339346  0.339346  0.321455  1
  Fe  Fe3  1  0.081151  0.585009  0.831462  1
  Fe  Fe4  1  0.414991  0.918849  0.168538  1
  Fe  Fe5  1  0.752812  0.247188  0.500000  1
  Fe  Fe6  1  0.247188  0.752812  0.500000  1
  Fe  Fe7  1  0.585009  0.081151  0.831462  1
  Fe  Fe8  1  0.918849  0.414991  0.168538  1
  P  P9  1  0.884044  0.884044  0.536361  1
  P  P10  1  0.218008  0.218008  0.870812  1
  P  P11  1  0.551694  0.551694  0.206843  1
  P  P12  1  0.448306  0.448306  0.793157  1
  P  P13  1  0.781992  0.781992  0.129188  1
  P  P14  1  0.115956  0.115956  0.463639  1
