# generated using pymatgen
data_Pr4MnV3F28
_symmetry_space_group_name_H-M   'P 1'
_cell_length_a   5.64074228
_cell_length_b   9.13853581
_cell_length_c   12.16059924
_cell_angle_alpha   62.37444196
_cell_angle_beta   89.95587670
_cell_angle_gamma   89.92783882
_symmetry_Int_Tables_number   1
_chemical_formula_structural   Pr4MnV3F28
_chemical_formula_sum   'Pr4 Mn1 V3 F28'
_cell_volume   555.39205776
_cell_formula_units_Z   1
loop_
 _symmetry_equiv_pos_site_id
 _symmetry_equiv_pos_as_xyz
  1  'x, y, z'
loop_
 _atom_site_type_symbol
 _atom_site_label
 _atom_site_symmetry_multiplicity
 _atom_site_fract_x
 _atom_site_fract_y
 _atom_site_fract_z
 _atom_site_occupancy
  Pr  Pr0  1  0.758829  0.810440  0.765294  1
  Pr  Pr1  1  0.258578  0.194572  0.731060  1
  Pr  Pr2  1  0.239931  0.192950  0.234355  1
  Pr  Pr3  1  0.741354  0.803095  0.269125  1
  Mn  Mn4  1  0.743446  0.273470  0.456329  1
  V  V5  1  0.753188  0.275128  0.956849  1
  V  V6  1  0.254799  0.725003  0.544212  1
  V  V7  1  0.246342  0.726533  0.042519  1
  F  F8  1  0.444577  0.709251  0.923457  1
  F  F9  1  0.925620  0.292735  0.574774  1
  F  F10  1  0.553651  0.291806  0.076053  1
  F  F11  1  0.058050  0.707976  0.424862  1
  F  F12  1  0.467229  0.284796  0.535283  1
  F  F13  1  0.971223  0.713055  0.956284  1
  F  F14  1  0.531524  0.712754  0.458827  1
  F  F15  1  0.027894  0.287927  0.044210  1
  F  F16  1  0.760282  0.501573  0.864731  1
  F  F17  1  0.264601  0.497172  0.633672  1
  F  F18  1  0.238132  0.499099  0.136545  1
  F  F19  1  0.736109  0.500289  0.363644  1
  F  F20  1  0.761123  0.049668  0.046673  1
  F  F21  1  0.260336  0.950833  0.455135  1
  F  F22  1  0.238754  0.952086  0.951898  1
  F  F23  1  0.740469  0.047150  0.545913  1
  F  F24  1  0.984520  0.728180  0.635392  1
  F  F25  1  0.483449  0.268081  0.866049  1
  F  F26  1  0.015251  0.266940  0.373735  1
  F  F27  1  0.516901  0.733617  0.132086  1
  F  F28  1  0.050692  0.744753  0.163502  1
  F  F29  1  0.562235  0.256521  0.335443  1
  F  F30  1  0.951962  0.257561  0.835664  1
  F  F31  1  0.450120  0.740565  0.665962  1
  F  F32  1  0.408278  0.969516  0.229409  1
  F  F33  1  0.908780  0.029958  0.272519  1
  F  F34  1  0.594551  0.035293  0.771832  1
  F  F35  1  0.097220  0.969657  0.726704  1
