# generated using pymatgen
data_ErMg2Ir9
_symmetry_space_group_name_H-M   'P 1'
_cell_length_a   8.90546400
_cell_length_b   8.90546400
_cell_length_c   5.02518600
_cell_angle_alpha   90.00000000
_cell_angle_beta   90.00000000
_cell_angle_gamma   90.00000000
_symmetry_Int_Tables_number   1
_chemical_formula_structural   ErMg2Ir9
_chemical_formula_sum   'Er2 Mg4 Ir18'
_cell_volume   398.53387866
_cell_formula_units_Z   2
loop_
 _symmetry_equiv_pos_site_id
 _symmetry_equiv_pos_as_xyz
  1  'x, y, z'
loop_
 _atom_site_type_symbol
 _atom_site_label
 _atom_site_symmetry_multiplicity
 _atom_site_fract_x
 _atom_site_fract_y
 _atom_site_fract_z
 _atom_site_occupancy
  Er  Er0  1  0.500000  0.500000  0.000000  1
  Er  Er1  1  0.000000  0.000000  0.000000  1
  Mg  Mg2  1  0.617281  0.117281  0.000000  1
  Mg  Mg3  1  0.382719  0.882719  0.000000  1
  Mg  Mg4  1  0.117281  0.382719  0.000000  1
  Mg  Mg5  1  0.882719  0.617281  0.000000  1
  Ir  Ir6  1  0.500000  0.000000  0.500000  1
  Ir  Ir7  1  0.000000  0.500000  0.500000  1
  Ir  Ir8  1  0.704109  0.555622  0.500000  1
  Ir  Ir9  1  0.295891  0.444378  0.500000  1
  Ir  Ir10  1  0.204109  0.944378  0.500000  1
  Ir  Ir11  1  0.795891  0.055622  0.500000  1
  Ir  Ir12  1  0.444378  0.704109  0.500000  1
  Ir  Ir13  1  0.555622  0.295891  0.500000  1
  Ir  Ir14  1  0.055622  0.204109  0.500000  1
  Ir  Ir15  1  0.944378  0.795891  0.500000  1
  Ir  Ir16  1  0.817718  0.317718  0.761667  1
  Ir  Ir17  1  0.182282  0.682282  0.761667  1
  Ir  Ir18  1  0.317718  0.182282  0.761667  1
  Ir  Ir19  1  0.682282  0.817718  0.761667  1
  Ir  Ir20  1  0.182282  0.682282  0.238333  1
  Ir  Ir21  1  0.817718  0.317718  0.238333  1
  Ir  Ir22  1  0.682282  0.817718  0.238333  1
  Ir  Ir23  1  0.317718  0.182282  0.238333  1
