# generated using pymatgen
data_Dy4AlRe4Os3
_symmetry_space_group_name_H-M   'P 1'
_cell_length_a   5.37329573
_cell_length_b   5.36069225
_cell_length_c   9.01551500
_cell_angle_alpha   90.00000000
_cell_angle_beta   90.00000000
_cell_angle_gamma   121.19744572
_symmetry_Int_Tables_number   1
_chemical_formula_structural   Dy4AlRe4Os3
_chemical_formula_sum   'Dy4 Al1 Re4 Os3'
_cell_volume   222.13397293
_cell_formula_units_Z   1
loop_
 _symmetry_equiv_pos_site_id
 _symmetry_equiv_pos_as_xyz
  1  'x, y, z'
loop_
 _atom_site_type_symbol
 _atom_site_label
 _atom_site_symmetry_multiplicity
 _atom_site_fract_x
 _atom_site_fract_y
 _atom_site_fract_z
 _atom_site_occupancy
  Dy  Dy0  1  0.337405  0.668023  0.438692  1
  Dy  Dy1  1  0.666055  0.336401  0.559155  1
  Dy  Dy2  1  0.666055  0.336401  0.940845  1
  Dy  Dy3  1  0.337405  0.668023  0.061308  1
  Al  Al4  1  0.165939  0.825851  0.750000  1
  Re  Re5  1  0.835219  0.170076  0.250000  1
  Re  Re6  1  0.832153  0.661129  0.250000  1
  Re  Re7  1  0.342556  0.169463  0.250000  1
  Re  Re8  1  0.164890  0.328217  0.750000  1
  Os  Os9  1  0.003882  0.012987  0.504856  1
  Os  Os10  1  0.003882  0.012987  0.995144  1
  Os  Os11  1  0.644556  0.810441  0.750000  1
