# generated using pymatgen
data_Nd8HoThIr4
_symmetry_space_group_name_H-M   'P 1'
_cell_length_a   6.69985357
_cell_length_b   7.26371891
_cell_length_c   8.99757021
_cell_angle_alpha   96.50801069
_cell_angle_beta   111.85842919
_cell_angle_gamma   89.99999089
_symmetry_Int_Tables_number   1
_chemical_formula_structural   Nd8HoThIr4
_chemical_formula_sum   'Nd8 Ho1 Th1 Ir4'
_cell_volume   403.35234961
_cell_formula_units_Z   1
loop_
 _symmetry_equiv_pos_site_id
 _symmetry_equiv_pos_as_xyz
  1  'x, y, z'
loop_
 _atom_site_type_symbol
 _atom_site_label
 _atom_site_symmetry_multiplicity
 _atom_site_fract_x
 _atom_site_fract_y
 _atom_site_fract_z
 _atom_site_occupancy
  Nd  Nd0  1  0.979312  0.926002  0.184370  1
  Nd  Nd1  1  0.794943  0.573998  0.815630  1
  Nd  Nd2  1  0.019498  0.079975  0.816492  1
  Nd  Nd3  1  0.203005  0.420025  0.183508  1
  Nd  Nd4  1  0.652115  0.813801  0.436986  1
  Nd  Nd5  1  0.215129  0.686199  0.563014  1
  Nd  Nd6  1  0.353984  0.186824  0.569291  1
  Nd  Nd7  1  0.784693  0.313176  0.430709  1
  Ho  Ho8  1  0.564300  0.250000  0.000000  1
  Th  Th9  1  0.433159  0.750000  0.000000  1
  Ir  Ir10  1  0.803710  0.572888  0.208555  1
  Ir  Ir11  1  0.595158  0.927112  0.791445  1
  Ir  Ir12  1  0.195453  0.433107  0.789911  1
  Ir  Ir13  1  0.405540  0.066893  0.210089  1
