# generated using pymatgen
data_MgIn2(Ni10B3)2
_symmetry_space_group_name_H-M   'P 1'
_cell_length_a   7.51195177
_cell_length_b   7.51195197
_cell_length_c   7.51195200
_cell_angle_alpha   59.99999987
_cell_angle_beta   59.99999899
_cell_angle_gamma   59.99999766
_symmetry_Int_Tables_number   1
_chemical_formula_structural   MgIn2(Ni10B3)2
_chemical_formula_sum   'Mg1 In2 Ni20 B6'
_cell_volume   299.73909269
_cell_formula_units_Z   1
loop_
 _symmetry_equiv_pos_site_id
 _symmetry_equiv_pos_as_xyz
  1  'x, y, z'
loop_
 _atom_site_type_symbol
 _atom_site_label
 _atom_site_symmetry_multiplicity
 _atom_site_fract_x
 _atom_site_fract_y
 _atom_site_fract_z
 _atom_site_occupancy
  Mg  Mg0  1  0.000000  0.000000  0.000000  1
  In  In1  1  0.750000  0.750000  0.750000  1
  In  In2  1  0.250000  0.250000  0.250000  1
  Ni  Ni3  1  0.386622  0.386622  0.840133  1
  Ni  Ni4  1  0.613378  0.613378  0.613378  1
  Ni  Ni5  1  0.000000  0.339216  0.000000  1
  Ni  Ni6  1  0.339216  0.000000  0.000000  1
  Ni  Ni7  1  0.000000  0.339216  0.660784  1
  Ni  Ni8  1  0.840133  0.386622  0.386622  1
  Ni  Ni9  1  0.339216  0.000000  0.660784  1
  Ni  Ni10  1  0.000000  0.000000  0.339216  1
  Ni  Ni11  1  0.660784  0.339216  0.000000  1
  Ni  Ni12  1  0.000000  0.660784  0.339216  1
  Ni  Ni13  1  0.000000  0.000000  0.660784  1
  Ni  Ni14  1  0.339216  0.660784  0.000000  1
  Ni  Ni15  1  0.660784  0.000000  0.000000  1
  Ni  Ni16  1  0.000000  0.660784  0.000000  1
  Ni  Ni17  1  0.386622  0.840133  0.386622  1
  Ni  Ni18  1  0.613378  0.613378  0.159867  1
  Ni  Ni19  1  0.613378  0.159867  0.613378  1
  Ni  Ni20  1  0.159867  0.613378  0.613378  1
  Ni  Ni21  1  0.386622  0.386622  0.386622  1
  Ni  Ni22  1  0.660784  0.000000  0.339216  1
  B  B23  1  0.729079  0.270921  0.729079  1
  B  B24  1  0.270921  0.729079  0.270921  1
  B  B25  1  0.270921  0.729079  0.729079  1
  B  B26  1  0.270921  0.270921  0.729079  1
  B  B27  1  0.729079  0.729079  0.270921  1
  B  B28  1  0.729079  0.270921  0.270921  1
