# generated using pymatgen
data_Tm6OsO12
_symmetry_space_group_name_H-M   'P 1'
_cell_length_a   6.38639442
_cell_length_b   6.38639420
_cell_length_c   6.38639416
_cell_angle_alpha   98.80128769
_cell_angle_beta   98.80129602
_cell_angle_gamma   98.80128800
_symmetry_Int_Tables_number   1
_chemical_formula_structural   Tm6OsO12
_chemical_formula_sum   'Tm6 Os1 O12'
_cell_volume   250.19245179
_cell_formula_units_Z   1
loop_
 _symmetry_equiv_pos_site_id
 _symmetry_equiv_pos_as_xyz
  1  'x, y, z'
loop_
 _atom_site_type_symbol
 _atom_site_label
 _atom_site_symmetry_multiplicity
 _atom_site_fract_x
 _atom_site_fract_y
 _atom_site_fract_z
 _atom_site_occupancy
  Tm  Tm0  1  0.682706  0.856126  0.389995  1
  Tm  Tm1  1  0.389995  0.682706  0.856126  1
  Tm  Tm2  1  0.856126  0.389995  0.682706  1
  Tm  Tm3  1  0.317294  0.143874  0.610005  1
  Tm  Tm4  1  0.610005  0.317294  0.143874  1
  Tm  Tm5  1  0.143874  0.610005  0.317294  1
  Os  Os6  1  0.000000  0.000000  0.000000  1
  O  O7  1  0.430232  0.589959  0.177397  1
  O  O8  1  0.177397  0.430232  0.589959  1
  O  O9  1  0.589959  0.177397  0.430232  1
  O  O10  1  0.569768  0.410041  0.822603  1
  O  O11  1  0.822603  0.569768  0.410041  1
  O  O12  1  0.410041  0.822603  0.569768  1
  O  O13  1  0.922068  0.038259  0.700908  1
  O  O14  1  0.961741  0.299092  0.077932  1
  O  O15  1  0.299092  0.077932  0.961741  1
  O  O16  1  0.077932  0.961741  0.299092  1
  O  O17  1  0.038259  0.700908  0.922068  1
  O  O18  1  0.700908  0.922068  0.038259  1
