# generated using pymatgen
data_LuSc9Si5Sn
_symmetry_space_group_name_H-M   'P 1'
_cell_length_a   8.01498251
_cell_length_b   8.02517541
_cell_length_c   5.90190000
_cell_angle_alpha   90.00000000
_cell_angle_beta   90.00000000
_cell_angle_gamma   119.86742201
_symmetry_Int_Tables_number   1
_chemical_formula_structural   LuSc9Si5Sn
_chemical_formula_sum   'Lu1 Sc9 Si5 Sn1'
_cell_volume   329.19879379
_cell_formula_units_Z   1
loop_
 _symmetry_equiv_pos_site_id
 _symmetry_equiv_pos_as_xyz
  1  'x, y, z'
loop_
 _atom_site_type_symbol
 _atom_site_label
 _atom_site_symmetry_multiplicity
 _atom_site_fract_x
 _atom_site_fract_y
 _atom_site_fract_z
 _atom_site_occupancy
  Lu  Lu0  1  0.998442  0.239410  0.250000  1
  Sc  Sc1  1  0.988146  0.750186  0.750000  1
  Sc  Sc2  1  0.755643  0.756613  0.250000  1
  Sc  Sc3  1  0.766713  0.999174  0.750000  1
  Sc  Sc4  1  0.240387  0.251630  0.750000  1
  Sc  Sc5  1  0.239737  0.999330  0.250000  1
  Sc  Sc6  1  0.332081  0.657328  0.496699  1
  Sc  Sc7  1  0.674349  0.344090  0.002888  1
  Sc  Sc8  1  0.674349  0.344090  0.497112  1
  Sc  Sc9  1  0.332081  0.657328  0.003301  1
  Si  Si10  1  0.399666  0.394433  0.250000  1
  Si  Si11  1  0.001885  0.610241  0.250000  1
  Si  Si12  1  0.998253  0.394435  0.750000  1
  Si  Si13  1  0.603944  0.605375  0.750000  1
  Si  Si14  1  0.599064  0.996428  0.250000  1
  Sn  Sn15  1  0.395262  0.999910  0.750000  1
