# generated using pymatgen
data_TbEr3Lu16(CoSb2)4
_symmetry_space_group_name_H-M   'P 1'
_cell_length_a   7.69043663
_cell_length_b   8.71064000
_cell_length_c   11.95563597
_cell_angle_alpha   90.00000000
_cell_angle_beta   90.04621737
_cell_angle_gamma   90.00000000
_symmetry_Int_Tables_number   1
_chemical_formula_structural   TbEr3Lu16(CoSb2)4
_chemical_formula_sum   'Tb1 Er3 Lu16 Co4 Sb8'
_cell_volume   800.89135289
_cell_formula_units_Z   1
loop_
 _symmetry_equiv_pos_site_id
 _symmetry_equiv_pos_as_xyz
  1  'x, y, z'
loop_
 _atom_site_type_symbol
 _atom_site_label
 _atom_site_symmetry_multiplicity
 _atom_site_fract_x
 _atom_site_fract_y
 _atom_site_fract_z
 _atom_site_occupancy
  Tb  Tb0  1  0.877400  0.750000  0.807046  1
  Er  Er1  1  0.621900  0.750000  0.307707  1
  Er  Er2  1  0.121971  0.250000  0.192451  1
  Er  Er3  1  0.377962  0.250000  0.692422  1
  Lu  Lu4  1  0.155324  0.750000  0.203911  1
  Lu  Lu5  1  0.655334  0.250000  0.296119  1
  Lu  Lu6  1  0.844597  0.250000  0.796085  1
  Lu  Lu7  1  0.344963  0.750000  0.703754  1
  Lu  Lu8  1  0.446453  0.750000  0.997635  1
  Lu  Lu9  1  0.946524  0.250000  0.502255  1
  Lu  Lu10  1  0.553138  0.250000  0.002371  1
  Lu  Lu11  1  0.053604  0.750000  0.497595  1
  Lu  Lu12  1  0.824075  0.962848  0.065563  1
  Lu  Lu13  1  0.324191  0.037517  0.434837  1
  Lu  Lu14  1  0.176295  0.461615  0.934897  1
  Lu  Lu15  1  0.675687  0.537661  0.565098  1
  Lu  Lu16  1  0.176295  0.038385  0.934897  1
  Lu  Lu17  1  0.675687  0.962339  0.565098  1
  Lu  Lu18  1  0.824075  0.537152  0.065563  1
  Lu  Lu19  1  0.324191  0.462483  0.434837  1
  Co  Co20  1  0.431686  0.750000  0.491206  1
  Co  Co21  1  0.931717  0.250000  0.008800  1
  Co  Co22  1  0.568321  0.250000  0.508760  1
  Co  Co23  1  0.068631  0.750000  0.991669  1
  Sb  Sb24  1  0.931032  0.991638  0.328861  1
  Sb  Sb25  1  0.431033  0.008256  0.171069  1
  Sb  Sb26  1  0.069595  0.491158  0.670849  1
  Sb  Sb27  1  0.568330  0.507912  0.828933  1
  Sb  Sb28  1  0.069595  0.008842  0.670849  1
  Sb  Sb29  1  0.568330  0.992088  0.828933  1
  Sb  Sb30  1  0.931032  0.508362  0.328861  1
  Sb  Sb31  1  0.431033  0.491744  0.171069  1
