# generated using pymatgen
data_La6Nd10Cd4Ru3Pt
_symmetry_space_group_name_H-M   'P 1'
_cell_length_a   9.99299342
_cell_length_b   10.06556693
_cell_length_c   10.06556628
_cell_angle_alpha   59.40678008
_cell_angle_beta   59.93473034
_cell_angle_gamma   59.93472804
_symmetry_Int_Tables_number   1
_chemical_formula_structural   La6Nd10Cd4Ru3Pt
_chemical_formula_sum   'La6 Nd10 Cd4 Ru3 Pt1'
_cell_volume   711.94549442
_cell_formula_units_Z   1
loop_
 _symmetry_equiv_pos_site_id
 _symmetry_equiv_pos_as_xyz
  1  'x, y, z'
loop_
 _atom_site_type_symbol
 _atom_site_label
 _atom_site_symmetry_multiplicity
 _atom_site_fract_x
 _atom_site_fract_y
 _atom_site_fract_z
 _atom_site_occupancy
  La  La0  1  0.342027  0.350020  0.350020  1
  La  La1  1  0.343294  0.348698  0.955348  1
  La  La2  1  0.343294  0.955348  0.348698  1
  La  La3  1  0.961248  0.346953  0.346953  1
  La  La4  1  0.821508  0.188106  0.188106  1
  La  La5  1  0.186876  0.813976  0.813976  1
  Nd  Nd6  1  0.191629  0.807946  0.190515  1
  Nd  Nd7  1  0.812690  0.192569  0.803390  1
  Nd  Nd8  1  0.191629  0.190515  0.807946  1
  Nd  Nd9  1  0.812690  0.803390  0.192569  1
  Nd  Nd10  1  0.932813  0.566434  0.566434  1
  Nd  Nd11  1  0.561951  0.936085  0.936085  1
  Nd  Nd12  1  0.560277  0.937622  0.565689  1
  Nd  Nd13  1  0.936768  0.563110  0.939320  1
  Nd  Nd14  1  0.560277  0.565689  0.937622  1
  Nd  Nd15  1  0.936768  0.939320  0.563110  1
  Cd  Cd16  1  0.582103  0.579271  0.579271  1
  Cd  Cd17  1  0.579536  0.581857  0.258545  1
  Cd  Cd18  1  0.579536  0.258545  0.581857  1
  Cd  Cd19  1  0.257821  0.579656  0.579656  1
  Ru  Ru20  1  0.132420  0.142323  0.142323  1
  Ru  Ru21  1  0.147465  0.129124  0.581123  1
  Ru  Ru22  1  0.147465  0.581123  0.129124  1
  Pt  Pt23  1  0.577912  0.142322  0.142322  1
