# generated using pymatgen
data_TaTi2NbAs3
_symmetry_space_group_name_H-M   'P 1'
_cell_length_a   7.42956460
_cell_length_b   7.42956611
_cell_length_c   19.06715022
_cell_angle_alpha   89.98296175
_cell_angle_beta   90.01703855
_cell_angle_gamma   152.74390915
_symmetry_Int_Tables_number   1
_chemical_formula_structural   TaTi2NbAs3
_chemical_formula_sum   'Ta4 Ti8 Nb4 As12'
_cell_volume   482.00119378
_cell_formula_units_Z   4
loop_
 _symmetry_equiv_pos_site_id
 _symmetry_equiv_pos_as_xyz
  1  'x, y, z'
loop_
 _atom_site_type_symbol
 _atom_site_label
 _atom_site_symmetry_multiplicity
 _atom_site_fract_x
 _atom_site_fract_y
 _atom_site_fract_z
 _atom_site_occupancy
  Ta  Ta0  1  0.668501  0.331499  0.974289  1
  Ta  Ta1  1  0.331499  0.668501  0.025711  1
  Ta  Ta2  1  0.000000  0.000000  0.000000  1
  Ta  Ta3  1  0.000000  0.000000  0.500000  1
  Ti  Ti4  1  0.734970  0.265030  0.159716  1
  Ti  Ti5  1  0.265030  0.734970  0.840284  1
  Ti  Ti6  1  0.265332  0.734668  0.660088  1
  Ti  Ti7  1  0.734668  0.265332  0.339912  1
  Ti  Ti8  1  0.533112  0.466888  0.120203  1
  Ti  Ti9  1  0.466888  0.533112  0.879797  1
  Ti  Ti10  1  0.466848  0.533152  0.620585  1
  Ti  Ti11  1  0.533152  0.466848  0.379415  1
  Nb  Nb12  1  0.332345  0.667655  0.473908  1
  Nb  Nb13  1  0.667655  0.332345  0.526092  1
  Nb  Nb14  1  0.059296  0.940704  0.750078  1
  Nb  Nb15  1  0.940704  0.059296  0.249922  1
  As  As16  1  0.900354  0.099646  0.117993  1
  As  As17  1  0.099646  0.900354  0.882007  1
  As  As18  1  0.098993  0.901007  0.618235  1
  As  As19  1  0.901007  0.098993  0.381765  1
  As  As20  1  0.843396  0.156604  0.920091  1
  As  As21  1  0.156604  0.843396  0.079909  1
  As  As22  1  0.156566  0.843434  0.419907  1
  As  As23  1  0.843434  0.156566  0.580093  1
  As  As24  1  0.701894  0.298106  0.750004  1
  As  As25  1  0.298106  0.701894  0.249996  1
  As  As26  1  0.416021  0.583979  0.750052  1
  As  As27  1  0.583979  0.416021  0.249948  1
