# generated using pymatgen
data_Rb3Ba(H4Pt)2
_symmetry_space_group_name_H-M   'P 1'
_cell_length_a   5.88262908
_cell_length_b   5.88309108
_cell_length_c   8.54563900
_cell_angle_alpha   90.00000000
_cell_angle_beta   90.00000000
_cell_angle_gamma   89.98060877
_symmetry_Int_Tables_number   1
_chemical_formula_structural   Rb3Ba(H4Pt)2
_chemical_formula_sum   'Rb3 Ba1 H8 Pt2'
_cell_volume   295.74782262
_cell_formula_units_Z   1
loop_
 _symmetry_equiv_pos_site_id
 _symmetry_equiv_pos_as_xyz
  1  'x, y, z'
loop_
 _atom_site_type_symbol
 _atom_site_label
 _atom_site_symmetry_multiplicity
 _atom_site_fract_x
 _atom_site_fract_y
 _atom_site_fract_z
 _atom_site_occupancy
  Rb  Rb0  1  0.500000  0.000000  0.750119  1
  Rb  Rb1  1  0.000000  0.500000  0.750169  1
  Rb  Rb2  1  0.500000  0.000000  0.249915  1
  Ba  Ba3  1  0.000000  0.500000  0.249640  1
  H  H4  1  0.500000  0.500000  0.282872  1
  H  H5  1  0.000000  0.000000  0.826434  1
  H  H6  1  0.500000  0.500000  0.673603  1
  H  H7  1  0.000000  0.000000  0.217194  1
  H  H8  1  0.269029  0.663249  0.485029  1
  H  H9  1  0.730971  0.336751  0.485029  1
  H  H10  1  0.163209  0.230815  0.014975  1
  H  H11  1  0.836791  0.769185  0.014975  1
  Pt  Pt12  1  0.500000  0.500000  0.479828  1
  Pt  Pt13  1  0.000000  0.000000  0.020218  1
