# generated using pymatgen
data_YbPr(NbS2)6
_symmetry_space_group_name_H-M   'P 1'
_cell_length_a   5.84042400
_cell_length_b   5.84042489
_cell_length_c   14.36714000
_cell_angle_alpha   90.00000000
_cell_angle_beta   90.00000000
_cell_angle_gamma   120.00000630
_symmetry_Int_Tables_number   1
_chemical_formula_structural   YbPr(NbS2)6
_chemical_formula_sum   'Yb1 Pr1 Nb6 S12'
_cell_volume   424.41404527
_cell_formula_units_Z   1
loop_
 _symmetry_equiv_pos_site_id
 _symmetry_equiv_pos_as_xyz
  1  'x, y, z'
loop_
 _atom_site_type_symbol
 _atom_site_label
 _atom_site_symmetry_multiplicity
 _atom_site_fract_x
 _atom_site_fract_y
 _atom_site_fract_z
 _atom_site_occupancy
  Yb  Yb0  1  0.000000  0.000000  0.500000  1
  Pr  Pr1  1  0.000000  0.000000  0.000000  1
  Nb  Nb2  1  0.333333  0.666667  0.251260  1
  Nb  Nb3  1  0.000000  0.000000  0.249914  1
  Nb  Nb4  1  0.000000  0.000000  0.750086  1
  Nb  Nb5  1  0.333333  0.666667  0.748740  1
  Nb  Nb6  1  0.666667  0.333333  0.748740  1
  Nb  Nb7  1  0.666667  0.333333  0.251260  1
  S  S8  1  0.000000  0.665032  0.640022  1
  S  S9  1  0.000000  0.660617  0.858830  1
  S  S10  1  0.000000  0.339383  0.141170  1
  S  S11  1  0.000000  0.334968  0.359978  1
  S  S12  1  0.334968  0.334968  0.640022  1
  S  S13  1  0.339383  0.339383  0.858830  1
  S  S14  1  0.660617  0.660617  0.141170  1
  S  S15  1  0.665032  0.665032  0.359978  1
  S  S16  1  0.339383  0.000000  0.141170  1
  S  S17  1  0.334968  0.000000  0.359978  1
  S  S18  1  0.665032  0.000000  0.640022  1
  S  S19  1  0.660617  0.000000  0.858830  1
