# generated using pymatgen
data_Sm5MnNbO12
_symmetry_space_group_name_H-M   'P 1'
_cell_length_a   6.98072303
_cell_length_b   6.98072335
_cell_length_c   7.50262869
_cell_angle_alpha   74.39963077
_cell_angle_beta   74.39963029
_cell_angle_gamma   50.72589099
_symmetry_Int_Tables_number   1
_chemical_formula_structural   Sm5MnNbO12
_chemical_formula_sum   'Sm5 Mn1 Nb1 O12'
_cell_volume   270.20108364
_cell_formula_units_Z   1
loop_
 _symmetry_equiv_pos_site_id
 _symmetry_equiv_pos_as_xyz
  1  'x, y, z'
loop_
 _atom_site_type_symbol
 _atom_site_label
 _atom_site_symmetry_multiplicity
 _atom_site_fract_x
 _atom_site_fract_y
 _atom_site_fract_z
 _atom_site_occupancy
  Sm  Sm0  1  0.293018  0.313853  0.358702  1
  Sm  Sm1  1  0.686147  0.706982  0.641298  1
  Sm  Sm2  1  0.688115  0.699477  0.166156  1
  Sm  Sm3  1  0.300523  0.311885  0.833844  1
  Sm  Sm4  1  0.003014  0.996986  0.500000  1
  Mn  Mn5  1  0.263768  0.736232  0.000000  1
  Nb  Nb6  1  0.782770  0.217230  0.000000  1
  O  O7  1  0.090811  0.599392  0.576599  1
  O  O8  1  0.010846  0.987790  0.182278  1
  O  O9  1  0.400608  0.909189  0.423401  1
  O  O10  1  0.495536  0.505332  0.176254  1
  O  O11  1  0.100884  0.581850  0.079495  1
  O  O12  1  0.897908  0.405732  0.424086  1
  O  O13  1  0.012210  0.989154  0.817722  1
  O  O14  1  0.594268  0.102091  0.575914  1
  O  O15  1  0.494668  0.504464  0.823746  1
  O  O16  1  0.570912  0.104156  0.080534  1
  O  O17  1  0.418150  0.899116  0.920505  1
  O  O18  1  0.895844  0.429088  0.919466  1
