# generated using pymatgen
data_Tm16Cd4Co3Os
_symmetry_space_group_name_H-M   'P 1'
_cell_length_a   9.44385870
_cell_length_b   9.36959852
_cell_length_c   9.36959900
_cell_angle_alpha   60.00000184
_cell_angle_beta   60.25977958
_cell_angle_gamma   60.25978481
_symmetry_Int_Tables_number   1
_chemical_formula_structural   Tm16Cd4Co3Os
_chemical_formula_sum   'Tm16 Cd4 Co3 Os1'
_cell_volume   588.53279086
_cell_formula_units_Z   1
loop_
 _symmetry_equiv_pos_site_id
 _symmetry_equiv_pos_as_xyz
  1  'x, y, z'
loop_
 _atom_site_type_symbol
 _atom_site_label
 _atom_site_symmetry_multiplicity
 _atom_site_fract_x
 _atom_site_fract_y
 _atom_site_fract_z
 _atom_site_occupancy
  Tm  Tm0  1  0.340511  0.350589  0.350589  1
  Tm  Tm1  1  0.340511  0.350589  0.958311  1
  Tm  Tm2  1  0.340511  0.958311  0.350589  1
  Tm  Tm3  1  0.963598  0.345468  0.345468  1
  Tm  Tm4  1  0.815049  0.188768  0.188768  1
  Tm  Tm5  1  0.188812  0.811539  0.811539  1
  Tm  Tm6  1  0.188812  0.811539  0.188110  1
  Tm  Tm7  1  0.815049  0.188768  0.807414  1
  Tm  Tm8  1  0.188812  0.188110  0.811539  1
  Tm  Tm9  1  0.815049  0.807414  0.188768  1
  Tm  Tm10  1  0.937811  0.562681  0.562681  1
  Tm  Tm11  1  0.563039  0.941564  0.941564  1
  Tm  Tm12  1  0.563039  0.941564  0.553833  1
  Tm  Tm13  1  0.937811  0.562681  0.936825  1
  Tm  Tm14  1  0.563039  0.553833  0.941564  1
  Tm  Tm15  1  0.937811  0.936825  0.562681  1
  Cd  Cd16  1  0.581726  0.580044  0.580044  1
  Cd  Cd17  1  0.581726  0.580044  0.258187  1
  Cd  Cd18  1  0.581726  0.258187  0.580044  1
  Cd  Cd19  1  0.258942  0.580353  0.580353  1
  Co  Co20  1  0.140464  0.140379  0.140379  1
  Co  Co21  1  0.140464  0.140379  0.578778  1
  Co  Co22  1  0.140464  0.578778  0.140379  1
  Os  Os23  1  0.575224  0.141592  0.141592  1
