# generated using pymatgen
data_Ho6OsO12
_symmetry_space_group_name_H-M   'P 1'
_cell_length_a   6.44673553
_cell_length_b   6.44673433
_cell_length_c   6.44673489
_cell_angle_alpha   98.66511207
_cell_angle_beta   98.66510053
_cell_angle_gamma   98.66511065
_symmetry_Int_Tables_number   1
_chemical_formula_structural   Ho6OsO12
_chemical_formula_sum   'Ho6 Os1 O12'
_cell_volume   257.69494543
_cell_formula_units_Z   1
loop_
 _symmetry_equiv_pos_site_id
 _symmetry_equiv_pos_as_xyz
  1  'x, y, z'
loop_
 _atom_site_type_symbol
 _atom_site_label
 _atom_site_symmetry_multiplicity
 _atom_site_fract_x
 _atom_site_fract_y
 _atom_site_fract_z
 _atom_site_occupancy
  Ho  Ho0  1  0.144032  0.315065  0.611241  1
  Ho  Ho1  1  0.388759  0.855968  0.684935  1
  Ho  Ho2  1  0.684935  0.388759  0.855968  1
  Ho  Ho3  1  0.315065  0.611241  0.144032  1
  Ho  Ho4  1  0.611241  0.144032  0.315065  1
  Ho  Ho5  1  0.855968  0.684935  0.388759  1
  Os  Os6  1  0.000000  0.000000  0.000000  1
  O  O7  1  0.072886  0.297869  0.964906  1
  O  O8  1  0.035094  0.927114  0.702131  1
  O  O9  1  0.409352  0.567213  0.822735  1
  O  O10  1  0.177265  0.590648  0.432787  1
  O  O11  1  0.702131  0.035094  0.927114  1
  O  O12  1  0.432787  0.177265  0.590648  1
  O  O13  1  0.567213  0.822735  0.409352  1
  O  O14  1  0.297869  0.964906  0.072886  1
  O  O15  1  0.822735  0.409352  0.567213  1
  O  O16  1  0.590648  0.432787  0.177265  1
  O  O17  1  0.964906  0.072886  0.297869  1
  O  O18  1  0.927114  0.702131  0.035094  1
