# generated using pymatgen
data_YAl5Cu6
_symmetry_space_group_name_H-M   'P 1'
_cell_length_a   10.34674530
_cell_length_b   8.19501536
_cell_length_c   7.84797917
_cell_angle_alpha   80.29035180
_cell_angle_beta   51.32398322
_cell_angle_gamma   48.38566549
_symmetry_Int_Tables_number   1
_chemical_formula_structural   YAl5Cu6
_chemical_formula_sum   'Y2 Al10 Cu12'
_cell_volume   352.10592285
_cell_formula_units_Z   2
loop_
 _symmetry_equiv_pos_site_id
 _symmetry_equiv_pos_as_xyz
  1  'x, y, z'
loop_
 _atom_site_type_symbol
 _atom_site_label
 _atom_site_symmetry_multiplicity
 _atom_site_fract_x
 _atom_site_fract_y
 _atom_site_fract_z
 _atom_site_occupancy
  Y  Y0  1  0.000000  0.000000  0.000000  1
  Y  Y1  1  0.250000  0.250000  0.250000  1
  Al  Al2  1  0.500000  0.500000  0.500000  1
  Al  Al3  1  0.750000  0.750000  0.750000  1
  Al  Al4  1  0.754736  0.071325  0.835713  1
  Al  Al5  1  0.835713  0.338227  0.754736  1
  Al  Al6  1  0.071325  0.754736  0.338227  1
  Al  Al7  1  0.338227  0.835713  0.071325  1
  Al  Al8  1  0.495264  0.178675  0.414287  1
  Al  Al9  1  0.414287  0.911773  0.495264  1
  Al  Al10  1  0.178675  0.495264  0.911773  1
  Al  Al11  1  0.911773  0.414287  0.178675  1
  Cu  Cu12  1  0.625000  0.125000  0.625000  1
  Cu  Cu13  1  0.625000  0.625000  0.625000  1
  Cu  Cu14  1  0.125000  0.625000  0.625000  1
  Cu  Cu15  1  0.625000  0.625000  0.125000  1
  Cu  Cu16  1  0.491028  0.435090  0.183523  1
  Cu  Cu17  1  0.183523  0.890360  0.491028  1
  Cu  Cu18  1  0.435090  0.491028  0.890360  1
  Cu  Cu19  1  0.890360  0.183523  0.435090  1
  Cu  Cu20  1  0.758972  0.814910  0.066477  1
  Cu  Cu21  1  0.066477  0.359640  0.758972  1
  Cu  Cu22  1  0.814910  0.758972  0.359640  1
  Cu  Cu23  1  0.359640  0.066477  0.814910  1
