# generated using pymatgen
data_Yb4Al2Pd3Pt
_symmetry_space_group_name_H-M   'P 1'
_cell_length_a   5.72462524
_cell_length_b   5.72482435
_cell_length_c   7.76128844
_cell_angle_alpha   78.74907236
_cell_angle_beta   78.72710931
_cell_angle_gamma   59.79056394
_symmetry_Int_Tables_number   1
_chemical_formula_structural   Yb4Al2Pd3Pt
_chemical_formula_sum   'Yb4 Al2 Pd3 Pt1'
_cell_volume   214.16299304
_cell_formula_units_Z   1
loop_
 _symmetry_equiv_pos_site_id
 _symmetry_equiv_pos_as_xyz
  1  'x, y, z'
loop_
 _atom_site_type_symbol
 _atom_site_label
 _atom_site_symmetry_multiplicity
 _atom_site_fract_x
 _atom_site_fract_y
 _atom_site_fract_z
 _atom_site_occupancy
  Yb  Yb0  1  0.781987  0.519628  0.350374  1
  Yb  Yb1  1  0.482039  0.217658  0.146799  1
  Yb  Yb2  1  0.218416  0.483592  0.651263  1
  Yb  Yb3  1  0.518616  0.779617  0.852234  1
  Al  Al4  1  0.121465  0.874365  0.249274  1
  Al  Al5  1  0.878542  0.119489  0.751411  1
  Pd  Pd6  1  0.259820  0.997038  0.494211  1
  Pd  Pd7  1  0.997146  0.263600  0.997174  1
  Pd  Pd8  1  0.738674  0.005204  0.503467  1
  Pt  Pt9  1  0.003295  0.739810  0.003794  1
