# generated using pymatgen
data_Ba3InBi2O9
_symmetry_space_group_name_H-M   'P 1'
_cell_length_a   6.13592282
_cell_length_b   6.13592377
_cell_length_c   15.07284002
_cell_angle_alpha   89.56209569
_cell_angle_beta   89.56209623
_cell_angle_gamma   59.87939262
_symmetry_Int_Tables_number   1
_chemical_formula_structural   Ba3InBi2O9
_chemical_formula_sum   'Ba6 In2 Bi4 O18'
_cell_volume   490.83958764
_cell_formula_units_Z   2
loop_
 _symmetry_equiv_pos_site_id
 _symmetry_equiv_pos_as_xyz
  1  'x, y, z'
loop_
 _atom_site_type_symbol
 _atom_site_label
 _atom_site_symmetry_multiplicity
 _atom_site_fract_x
 _atom_site_fract_y
 _atom_site_fract_z
 _atom_site_occupancy
  Ba  Ba0  1  0.667809  0.667809  0.914402  1
  Ba  Ba1  1  0.001562  0.001562  0.255410  1
  Ba  Ba2  1  0.334457  0.334457  0.583232  1
  Ba  Ba3  1  0.998438  0.998438  0.744590  1
  Ba  Ba4  1  0.332191  0.332191  0.085598  1
  Ba  Ba5  1  0.665543  0.665543  0.416768  1
  In  In6  1  0.333306  0.333306  0.334976  1
  In  In7  1  0.666694  0.666694  0.665024  1
  Bi  Bi8  1  0.666940  0.666940  0.171660  1
  Bi  Bi9  1  0.000000  0.000000  0.500000  1
  Bi  Bi10  1  0.333060  0.333060  0.828340  1
  Bi  Bi11  1  0.000000  0.000000  0.000000  1
  O  O12  1  0.518308  0.518308  0.767790  1
  O  O13  1  0.848754  0.848754  0.106950  1
  O  O14  1  0.183264  0.183264  0.436643  1
  O  O15  1  0.151246  0.151246  0.893050  1
  O  O16  1  0.481692  0.481692  0.232210  1
  O  O17  1  0.816736  0.816736  0.563357  1
  O  O18  1  0.475936  0.980216  0.261373  1
  O  O19  1  0.812927  0.310400  0.592095  1
  O  O20  1  0.151995  0.635972  0.923695  1
  O  O21  1  0.364028  0.848005  0.076305  1
  O  O22  1  0.689600  0.187073  0.407905  1
  O  O23  1  0.019784  0.524064  0.738627  1
  O  O24  1  0.980216  0.475936  0.261373  1
  O  O25  1  0.310400  0.812927  0.592095  1
  O  O26  1  0.635972  0.151995  0.923695  1
  O  O27  1  0.848005  0.364028  0.076305  1
  O  O28  1  0.187073  0.689600  0.407905  1
  O  O29  1  0.524064  0.019784  0.738627  1
