# generated using pymatgen
data_Ac5Bi4Te
_symmetry_space_group_name_H-M   'P 1'
_cell_length_a   12.80059178
_cell_length_b   12.80059165
_cell_length_c   12.80059057
_cell_angle_alpha   157.94299665
_cell_angle_beta   149.00867979
_cell_angle_gamma   38.36654499
_symmetry_Int_Tables_number   1
_chemical_formula_structural   Ac5Bi4Te
_chemical_formula_sum   'Ac5 Bi4 Te1'
_cell_volume   404.97509670
_cell_formula_units_Z   1
loop_
 _symmetry_equiv_pos_site_id
 _symmetry_equiv_pos_as_xyz
  1  'x, y, z'
loop_
 _atom_site_type_symbol
 _atom_site_label
 _atom_site_symmetry_multiplicity
 _atom_site_fract_x
 _atom_site_fract_y
 _atom_site_fract_z
 _atom_site_occupancy
  Ac  Ac0  1  0.897628  0.897628  0.000000  1
  Ac  Ac1  1  0.102372  0.102372  0.000000  1
  Ac  Ac2  1  0.300374  0.300374  0.000000  1
  Ac  Ac3  1  0.699626  0.699626  0.000000  1
  Ac  Ac4  1  0.500000  0.500000  0.000000  1
  Bi  Bi5  1  0.599385  0.099385  0.500000  1
  Bi  Bi6  1  0.400615  0.900615  0.500000  1
  Bi  Bi7  1  0.800451  0.300451  0.500000  1
  Bi  Bi8  1  0.199549  0.699549  0.500000  1
  Te  Te9  1  0.000000  0.500000  0.500000  1
