# generated using pymatgen
data_YLu5(Sc2Pb3)2
_symmetry_space_group_name_H-M   'P 1'
_cell_length_a   8.77924600
_cell_length_b   8.79281746
_cell_length_c   6.30414600
_cell_angle_alpha   90.00000000
_cell_angle_beta   90.00000000
_cell_angle_gamma   119.94895552
_symmetry_Int_Tables_number   1
_chemical_formula_structural   YLu5(Sc2Pb3)2
_chemical_formula_sum   'Y1 Lu5 Sc4 Pb6'
_cell_volume   421.66283351
_cell_formula_units_Z   1
loop_
 _symmetry_equiv_pos_site_id
 _symmetry_equiv_pos_as_xyz
  1  'x, y, z'
loop_
 _atom_site_type_symbol
 _atom_site_label
 _atom_site_symmetry_multiplicity
 _atom_site_fract_x
 _atom_site_fract_y
 _atom_site_fract_z
 _atom_site_occupancy
  Y  Y0  1  0.236506  0.000000  0.250000  1
  Lu  Lu1  1  0.236666  0.237085  0.750000  1
  Lu  Lu2  1  0.999581  0.762915  0.750000  1
  Lu  Lu3  1  0.999673  0.236819  0.250000  1
  Lu  Lu4  1  0.762854  0.763181  0.250000  1
  Lu  Lu5  1  0.763880  0.000000  0.750000  1
  Sc  Sc6  1  0.333417  0.666640  0.999941  1
  Sc  Sc7  1  0.666777  0.333360  0.500059  1
  Sc  Sc8  1  0.666777  0.333360  0.999941  1
  Sc  Sc9  1  0.333417  0.666640  0.500059  1
  Pb  Pb10  1  0.603103  0.000000  0.250000  1
  Pb  Pb11  1  0.602241  0.602220  0.750000  1
  Pb  Pb12  1  0.000021  0.397780  0.750000  1
  Pb  Pb13  1  0.999046  0.600783  0.250000  1
  Pb  Pb14  1  0.398263  0.399217  0.250000  1
  Pb  Pb15  1  0.397777  0.000000  0.750000  1
