# generated using pymatgen
data_Th2Zn16Cu
_symmetry_space_group_name_H-M   'P 1'
_cell_length_a   6.81357950
_cell_length_b   6.81357888
_cell_length_c   6.80688972
_cell_angle_alpha   82.84959216
_cell_angle_beta   82.84959435
_cell_angle_gamma   82.50839590
_symmetry_Int_Tables_number   1
_chemical_formula_structural   Th2Zn16Cu
_chemical_formula_sum   'Th2 Zn16 Cu1'
_cell_volume   308.98711754
_cell_formula_units_Z   1
loop_
 _symmetry_equiv_pos_site_id
 _symmetry_equiv_pos_as_xyz
  1  'x, y, z'
loop_
 _atom_site_type_symbol
 _atom_site_label
 _atom_site_symmetry_multiplicity
 _atom_site_fract_x
 _atom_site_fract_y
 _atom_site_fract_z
 _atom_site_occupancy
  Th  Th0  1  0.662336  0.662336  0.662647  1
  Th  Th1  1  0.337666  0.337666  0.337352  1
  Zn  Zn2  1  0.347004  0.845721  0.351317  1
  Zn  Zn3  1  0.292936  0.707063  0.000001  1
  Zn  Zn4  1  0.350499  0.350499  0.840312  1
  Zn  Zn5  1  0.154278  0.652995  0.648684  1
  Zn  Zn6  1  0.845721  0.347004  0.351317  1
  Zn  Zn7  1  0.649501  0.649501  0.159689  1
  Zn  Zn8  1  0.652995  0.154278  0.648684  1
  Zn  Zn9  1  0.901179  0.901179  0.893894  1
  Zn  Zn10  1  0.098820  0.098820  0.106106  1
  Zn  Zn11  1  0.000000  0.499999  0.000000  1
  Zn  Zn12  1  0.499999  0.000000  0.000000  1
  Zn  Zn13  1  0.289582  0.999807  0.705245  1
  Zn  Zn14  1  0.000193  0.710417  0.294756  1
  Zn  Zn15  1  0.710417  0.000193  0.294756  1
  Zn  Zn16  1  0.707063  0.292936  0.000001  1
  Zn  Zn17  1  0.999807  0.289582  0.705245  1
  Cu  Cu18  1  0.000000  0.000000  0.500000  1
