# generated using pymatgen
data_Dy10Ga3Bi2Pt
_symmetry_space_group_name_H-M   'P 1'
_cell_length_a   8.65027651
_cell_length_b   8.65027625
_cell_length_c   8.78492232
_cell_angle_alpha   124.40618911
_cell_angle_beta   124.40618389
_cell_angle_gamma   81.50616331
_symmetry_Int_Tables_number   1
_chemical_formula_structural   Dy10Ga3Bi2Pt
_chemical_formula_sum   'Dy10 Ga3 Bi2 Pt1'
_cell_volume   433.01816136
_cell_formula_units_Z   1
loop_
 _symmetry_equiv_pos_site_id
 _symmetry_equiv_pos_as_xyz
  1  'x, y, z'
loop_
 _atom_site_type_symbol
 _atom_site_label
 _atom_site_symmetry_multiplicity
 _atom_site_fract_x
 _atom_site_fract_y
 _atom_site_fract_z
 _atom_site_occupancy
  Dy  Dy0  1  0.996410  0.998276  0.994686  1
  Dy  Dy1  1  0.501724  0.503590  0.005314  1
  Dy  Dy2  1  0.785138  0.295779  0.799398  1
  Dy  Dy3  1  0.204221  0.714862  0.200602  1
  Dy  Dy4  1  0.485741  0.996381  0.200602  1
  Dy  Dy5  1  0.299491  0.467403  0.500000  1
  Dy  Dy6  1  0.032597  0.200509  0.500000  1
  Dy  Dy7  1  0.503619  0.014259  0.799398  1
  Dy  Dy8  1  0.703205  0.515182  0.500000  1
  Dy  Dy9  1  0.984818  0.796795  0.500000  1
  Ga  Ga10  1  0.143992  0.644993  0.788984  1
  Ga  Ga11  1  0.855007  0.356008  0.211016  1
  Ga  Ga12  1  0.638703  0.861297  0.500000  1
  Bi  Bi13  1  0.246423  0.253577  0.000000  1
  Bi  Bi14  1  0.746423  0.753577  0.000000  1
  Pt  Pt15  1  0.372488  0.127512  0.500000  1
