# generated using pymatgen
data_Gd4Se3N2
_symmetry_space_group_name_H-M   'P 1'
_cell_length_a   8.11771359
_cell_length_b   8.12125665
_cell_length_c   6.31864000
_cell_angle_alpha   89.81091051
_cell_angle_beta   90.12586046
_cell_angle_gamma   75.45891172
_symmetry_Int_Tables_number   1
_chemical_formula_structural   Gd4Se3N2
_chemical_formula_sum   'Gd8 Se6 N4'
_cell_volume   403.21530939
_cell_formula_units_Z   2
loop_
 _symmetry_equiv_pos_site_id
 _symmetry_equiv_pos_as_xyz
  1  'x, y, z'
loop_
 _atom_site_type_symbol
 _atom_site_label
 _atom_site_symmetry_multiplicity
 _atom_site_fract_x
 _atom_site_fract_y
 _atom_site_fract_z
 _atom_site_occupancy
  Gd  Gd0  1  0.912990  0.755752  0.927131  1
  Gd  Gd1  1  0.755248  0.913400  0.426834  1
  Gd  Gd2  1  0.086566  0.244317  0.072841  1
  Gd  Gd3  1  0.812688  0.443492  0.528368  1
  Gd  Gd4  1  0.556036  0.188312  0.968098  1
  Gd  Gd5  1  0.189228  0.556231  0.471221  1
  Gd  Gd6  1  0.442707  0.811939  0.029705  1
  Gd  Gd7  1  0.244128  0.086362  0.572329  1
  Se  Se8  1  0.745633  0.483106  0.036458  1
  Se  Se9  1  0.094629  0.905015  0.250171  1
  Se  Se10  1  0.516410  0.254403  0.465192  1
  Se  Se11  1  0.254783  0.516892  0.966200  1
  Se  Se12  1  0.905054  0.094922  0.749484  1
  Se  Se13  1  0.483892  0.745588  0.536708  1
  N  N14  1  0.082926  0.329317  0.414984  1
  N  N15  1  0.328445  0.082597  0.914654  1
  N  N16  1  0.918429  0.670642  0.585080  1
  N  N17  1  0.670211  0.917714  0.084542  1
