# generated using pymatgen
data_Ho4Lu2TiAl23Ru8
_symmetry_space_group_name_H-M   'P 1'
_cell_length_a   8.79262500
_cell_length_b   8.80000215
_cell_length_c   9.54912714
_cell_angle_alpha   89.98286588
_cell_angle_beta   90.00000000
_cell_angle_gamma   119.97226897
_symmetry_Int_Tables_number   1
_chemical_formula_structural   Ho4Lu2TiAl23Ru8
_chemical_formula_sum   'Ho4 Lu2 Ti1 Al23 Ru8'
_cell_volume   640.05441979
_cell_formula_units_Z   1
loop_
 _symmetry_equiv_pos_site_id
 _symmetry_equiv_pos_as_xyz
  1  'x, y, z'
loop_
 _atom_site_type_symbol
 _atom_site_label
 _atom_site_symmetry_multiplicity
 _atom_site_fract_x
 _atom_site_fract_y
 _atom_site_fract_z
 _atom_site_occupancy
  Ho  Ho0  1  0.613832  0.807395  0.250393  1
  Ho  Ho1  1  0.386384  0.193223  0.749006  1
  Ho  Ho2  1  0.193560  0.807395  0.250393  1
  Ho  Ho3  1  0.806840  0.193223  0.749006  1
  Lu  Lu4  1  0.195154  0.390311  0.249644  1
  Lu  Lu5  1  0.805187  0.610373  0.748398  1
  Ti  Ti6  1  0.333214  0.666429  0.997082  1
  Al  Al7  1  0.666837  0.333673  0.982489  1
  Al  Al8  1  0.666796  0.333590  0.518535  1
  Al  Al9  1  0.333104  0.666210  0.480153  1
  Al  Al10  1  0.162306  0.324614  0.576180  1
  Al  Al11  1  0.837068  0.674136  0.423395  1
  Al  Al12  1  0.675154  0.837141  0.576564  1
  Al  Al13  1  0.837285  0.674568  0.078793  1
  Al  Al14  1  0.325037  0.163073  0.422940  1
  Al  Al15  1  0.159182  0.318363  0.923149  1
  Al  Al16  1  0.161985  0.837141  0.576564  1
  Al  Al17  1  0.324994  0.163048  0.079436  1
  Al  Al18  1  0.838036  0.163073  0.422940  1
  Al  Al19  1  0.681922  0.840274  0.922699  1
  Al  Al20  1  0.838055  0.163048  0.079436  1
  Al  Al21  1  0.158352  0.840274  0.922699  1
  Al  Al22  1  0.561866  0.123731  0.252216  1
  Al  Al23  1  0.439715  0.879429  0.750053  1
  Al  Al24  1  0.877914  0.438800  0.252082  1
  Al  Al25  1  0.119410  0.560267  0.750236  1
  Al  Al26  1  0.560886  0.438800  0.252082  1
  Al  Al27  1  0.440858  0.560267  0.750236  1
  Al  Al28  1  0.001806  0.003612  0.249797  1
  Al  Al29  1  0.999015  0.998030  0.749640  1
  Ru  Ru30  1  0.497670  0.995341  0.002923  1
  Ru  Ru31  1  0.003311  0.501371  0.001977  1
  Ru  Ru32  1  0.499474  0.998946  0.501963  1
  Ru  Ru33  1  0.498060  0.501371  0.001977  1
  Ru  Ru34  1  0.000824  0.500135  0.502675  1
  Ru  Ru35  1  0.499312  0.500135  0.502675  1
  Ru  Ru36  1  0.999928  0.999856  0.000780  1
  Ru  Ru37  1  0.999668  0.999335  0.498792  1
