# generated using pymatgen
data_Dy12Co2Ni2HgRh
_symmetry_space_group_name_H-M   'P 1'
_cell_length_a   8.29991830
_cell_length_b   8.29991817
_cell_length_c   8.29991900
_cell_angle_alpha   110.78606080
_cell_angle_beta   109.99721401
_cell_angle_gamma   107.64666404
_symmetry_Int_Tables_number   1
_chemical_formula_structural   Dy12Co2Ni2HgRh
_chemical_formula_sum   'Dy12 Co2 Ni2 Hg1 Rh1'
_cell_volume   439.79383441
_cell_formula_units_Z   1
loop_
 _symmetry_equiv_pos_site_id
 _symmetry_equiv_pos_as_xyz
  1  'x, y, z'
loop_
 _atom_site_type_symbol
 _atom_site_label
 _atom_site_symmetry_multiplicity
 _atom_site_fract_x
 _atom_site_fract_y
 _atom_site_fract_z
 _atom_site_occupancy
  Dy  Dy0  1  0.406616  0.214497  0.192120  1
  Dy  Dy1  1  0.593384  0.785503  0.807880  1
  Dy  Dy2  1  0.022378  0.214497  0.807880  1
  Dy  Dy3  1  0.977622  0.785503  0.192120  1
  Dy  Dy4  1  0.184247  0.294103  0.478350  1
  Dy  Dy5  1  0.815753  0.705897  0.521650  1
  Dy  Dy6  1  0.184247  0.705897  0.890143  1
  Dy  Dy7  1  0.815753  0.294103  0.109857  1
  Dy  Dy8  1  0.315504  0.618985  0.303482  1
  Dy  Dy9  1  0.684496  0.381015  0.696518  1
  Dy  Dy10  1  0.315504  0.012022  0.696518  1
  Dy  Dy11  1  0.684496  0.987978  0.303482  1
  Co  Co12  1  0.114516  0.614516  0.500000  1
  Co  Co13  1  0.885484  0.385484  0.500000  1
  Ni  Ni14  1  0.371553  0.000000  0.371553  1
  Ni  Ni15  1  0.628447  0.000000  0.628447  1
  Hg  Hg16  1  0.500000  0.500000  0.000000  1
  Rh  Rh17  1  0.000000  0.000000  0.000000  1
