# generated using pymatgen
data_Pr2BeTc16C3
_symmetry_space_group_name_H-M   'P 1'
_cell_length_a   6.95720268
_cell_length_b   6.95720266
_cell_length_c   6.98702966
_cell_angle_alpha   83.00665121
_cell_angle_beta   83.00665105
_cell_angle_gamma   82.54380625
_symmetry_Int_Tables_number   1
_chemical_formula_structural   Pr2BeTc16C3
_chemical_formula_sum   'Pr2 Be1 Tc16 C3'
_cell_volume   330.90201935
_cell_formula_units_Z   1
loop_
 _symmetry_equiv_pos_site_id
 _symmetry_equiv_pos_as_xyz
  1  'x, y, z'
loop_
 _atom_site_type_symbol
 _atom_site_label
 _atom_site_symmetry_multiplicity
 _atom_site_fract_x
 _atom_site_fract_y
 _atom_site_fract_z
 _atom_site_occupancy
  Pr  Pr0  1  0.650542  0.650542  0.651461  1
  Pr  Pr1  1  0.349458  0.349458  0.348539  1
  Be  Be2  1  0.000000  0.000000  0.500000  1
  Tc  Tc3  1  0.500000  0.000000  0.000000  1
  Tc  Tc4  1  0.000000  0.500000  0.000000  1
  Tc  Tc5  1  0.723874  0.276126  0.000000  1
  Tc  Tc6  1  0.997558  0.728885  0.283218  1
  Tc  Tc7  1  0.271115  0.002442  0.716782  1
  Tc  Tc8  1  0.002442  0.271115  0.716782  1
  Tc  Tc9  1  0.728885  0.997558  0.283218  1
  Tc  Tc10  1  0.276126  0.723874  0.000000  1
  Tc  Tc11  1  0.351347  0.351347  0.859232  1
  Tc  Tc12  1  0.864274  0.341003  0.348379  1
  Tc  Tc13  1  0.341003  0.864274  0.348379  1
  Tc  Tc14  1  0.648653  0.648653  0.140768  1
  Tc  Tc15  1  0.135726  0.658997  0.651621  1
  Tc  Tc16  1  0.658997  0.135726  0.651621  1
  Tc  Tc17  1  0.900710  0.900710  0.906027  1
  Tc  Tc18  1  0.099290  0.099290  0.093973  1
  C  C19  1  0.500000  0.500000  0.000000  1
  C  C20  1  0.000000  0.500000  0.500000  1
  C  C21  1  0.500000  0.000000  0.500000  1
