# generated using pymatgen
data_Nd3MgCdSb(MoO7)2
_symmetry_space_group_name_H-M   'P 1'
_cell_length_a   7.27867348
_cell_length_b   7.60968605
_cell_length_c   7.60982600
_cell_angle_alpha   119.98731589
_cell_angle_beta   121.52661606
_cell_angle_gamma   90.00455866
_symmetry_Int_Tables_number   1
_chemical_formula_structural   Nd3MgCdSb(MoO7)2
_chemical_formula_sum   'Nd3 Mg1 Cd1 Sb1 Mo2 O14'
_cell_volume   291.02517477
_cell_formula_units_Z   1
loop_
 _symmetry_equiv_pos_site_id
 _symmetry_equiv_pos_as_xyz
  1  'x, y, z'
loop_
 _atom_site_type_symbol
 _atom_site_label
 _atom_site_symmetry_multiplicity
 _atom_site_fract_x
 _atom_site_fract_y
 _atom_site_fract_z
 _atom_site_occupancy
  Nd  Nd0  1  0.375000  0.625000  0.750000  1
  Nd  Nd1  1  0.375000  0.625000  0.250000  1
  Nd  Nd2  1  0.375000  0.125000  0.750000  1
  Mg  Mg3  1  0.375000  0.125000  0.250000  1
  Cd  Cd4  1  0.875000  0.625000  0.250000  1
  Sb  Sb5  1  0.875000  0.125000  0.250000  1
  Mo  Mo6  1  0.875000  0.625000  0.750000  1
  Mo  Mo7  1  0.875000  0.125000  0.750000  1
  O  O8  1  0.806790  0.199134  0.004260  1
  O  O9  1  0.549038  0.468285  0.508640  1
  O  O10  1  0.200943  0.209694  0.991568  1
  O  O11  1  0.942947  0.444786  0.495522  1
  O  O12  1  0.807539  0.803459  0.606885  1
  O  O13  1  0.540555  0.038125  0.076353  1
  O  O14  1  0.244888  0.747843  0.495625  1
  O  O15  1  0.942461  0.446541  0.893115  1
  O  O16  1  0.943210  0.050866  0.495740  1
  O  O17  1  0.549057  0.040306  0.508432  1
  O  O18  1  0.209445  0.211875  0.423647  1
  O  O19  1  0.505112  0.502157  0.004375  1
  O  O20  1  0.807053  0.805214  0.004478  1
  O  O21  1  0.200962  0.781715  0.991360  1
