# generated using pymatgen
data_Er8MgAgIr2
_symmetry_space_group_name_H-M   'P 1'
_cell_length_a   9.55256765
_cell_length_b   9.55256689
_cell_length_c   9.57012700
_cell_angle_alpha   59.93917562
_cell_angle_beta   59.93917828
_cell_angle_gamma   60.05878412
_symmetry_Int_Tables_number   1
_chemical_formula_structural   Er8MgAgIr2
_chemical_formula_sum   'Er16 Mg2 Ag2 Ir4'
_cell_volume   617.21326108
_cell_formula_units_Z   2
loop_
 _symmetry_equiv_pos_site_id
 _symmetry_equiv_pos_as_xyz
  1  'x, y, z'
loop_
 _atom_site_type_symbol
 _atom_site_label
 _atom_site_symmetry_multiplicity
 _atom_site_fract_x
 _atom_site_fract_y
 _atom_site_fract_z
 _atom_site_occupancy
  Er  Er0  1  0.347831  0.347831  0.345688  1
  Er  Er1  1  0.347831  0.347831  0.958652  1
  Er  Er2  1  0.349333  0.954676  0.347996  1
  Er  Er3  1  0.954676  0.349333  0.347996  1
  Er  Er4  1  0.811100  0.186971  0.189492  1
  Er  Er5  1  0.186971  0.811100  0.812437  1
  Er  Er6  1  0.186971  0.811100  0.189492  1
  Er  Er7  1  0.811100  0.186971  0.812437  1
  Er  Er8  1  0.187646  0.187646  0.812354  1
  Er  Er9  1  0.807721  0.807721  0.192279  1
  Er  Er10  1  0.933028  0.562620  0.564590  1
  Er  Er11  1  0.562620  0.933028  0.939761  1
  Er  Er12  1  0.562620  0.933028  0.564590  1
  Er  Er13  1  0.933028  0.562620  0.939761  1
  Er  Er14  1  0.562644  0.562644  0.937356  1
  Er  Er15  1  0.935799  0.935799  0.564201  1
  Mg  Mg16  1  0.581576  0.272452  0.572986  1
  Mg  Mg17  1  0.272452  0.581576  0.572986  1
  Ag  Ag18  1  0.582761  0.582761  0.584370  1
  Ag  Ag19  1  0.582761  0.582761  0.250108  1
  Ir  Ir20  1  0.141580  0.141580  0.141457  1
  Ir  Ir21  1  0.141580  0.141580  0.575382  1
  Ir  Ir22  1  0.140462  0.575910  0.141814  1
  Ir  Ir23  1  0.575910  0.140462  0.141814  1
