# generated using pymatgen
data_Dy2Pa2V3TcB16
_symmetry_space_group_name_H-M   'P 1'
_cell_length_a   3.57566200
_cell_length_b   5.96330581
_cell_length_c   11.54514104
_cell_angle_alpha   89.79669046
_cell_angle_beta   90.00000000
_cell_angle_gamma   90.00000000
_symmetry_Int_Tables_number   1
_chemical_formula_structural   Dy2Pa2V3TcB16
_chemical_formula_sum   'Dy2 Pa2 V3 Tc1 B16'
_cell_volume   246.17279088
_cell_formula_units_Z   1
loop_
 _symmetry_equiv_pos_site_id
 _symmetry_equiv_pos_as_xyz
  1  'x, y, z'
loop_
 _atom_site_type_symbol
 _atom_site_label
 _atom_site_symmetry_multiplicity
 _atom_site_fract_x
 _atom_site_fract_y
 _atom_site_fract_z
 _atom_site_occupancy
  Dy  Dy0  1  0.000000  0.125218  0.151269  1
  Dy  Dy1  1  0.000000  0.875502  0.848456  1
  Pa  Pa2  1  0.000000  0.625270  0.350630  1
  Pa  Pa3  1  0.000000  0.375219  0.650364  1
  V  V4  1  0.000000  0.372196  0.916465  1
  V  V5  1  0.000000  0.126354  0.416672  1
  V  V6  1  0.000000  0.873548  0.582263  1
  Tc  Tc7  1  0.000000  0.626656  0.084210  1
  B  B8  1  0.500000  0.783682  0.185240  1
  B  B9  1  0.500000  0.216441  0.814543  1
  B  B10  1  0.500000  0.284027  0.314903  1
  B  B11  1  0.500000  0.716413  0.684685  1
  B  B12  1  0.500000  0.864589  0.032480  1
  B  B13  1  0.500000  0.134864  0.967804  1
  B  B14  1  0.500000  0.363912  0.467100  1
  B  B15  1  0.500000  0.636523  0.532961  1
  B  B16  1  0.500000  0.887085  0.453340  1
  B  B17  1  0.500000  0.112753  0.546392  1
  B  B18  1  0.500000  0.385191  0.046898  1
  B  B19  1  0.500000  0.615061  0.953559  1
  B  B20  1  0.500000  0.973098  0.308252  1
  B  B21  1  0.500000  0.026548  0.691275  1
  B  B22  1  0.500000  0.475467  0.192081  1
  B  B23  1  0.500000  0.524383  0.808158  1
