# generated using pymatgen
data_Tm5(TlBi)2
_symmetry_space_group_name_H-M   'P 1'
_cell_length_a   8.79699497
_cell_length_b   8.79699564
_cell_length_c   8.14915200
_cell_angle_alpha   90.00000000
_cell_angle_beta   90.00000000
_cell_angle_gamma   124.89979015
_symmetry_Int_Tables_number   1
_chemical_formula_structural   Tm5(TlBi)2
_chemical_formula_sum   'Tm10 Tl4 Bi4'
_cell_volume   517.22145434
_cell_formula_units_Z   2
loop_
 _symmetry_equiv_pos_site_id
 _symmetry_equiv_pos_as_xyz
  1  'x, y, z'
loop_
 _atom_site_type_symbol
 _atom_site_label
 _atom_site_symmetry_multiplicity
 _atom_site_fract_x
 _atom_site_fract_y
 _atom_site_fract_z
 _atom_site_occupancy
  Tm  Tm0  1  0.533891  0.798056  0.164925  1
  Tm  Tm1  1  0.298056  0.033891  0.335075  1
  Tm  Tm2  1  0.201944  0.466109  0.835075  1
  Tm  Tm3  1  0.966109  0.701944  0.664925  1
  Tm  Tm4  1  0.701944  0.966109  0.664925  1
  Tm  Tm5  1  0.466109  0.201944  0.835075  1
  Tm  Tm6  1  0.798056  0.533891  0.164925  1
  Tm  Tm7  1  0.033891  0.298056  0.335075  1
  Tm  Tm8  1  0.500000  0.500000  0.500000  1
  Tm  Tm9  1  0.000000  0.000000  0.000000  1
  Tl  Tl10  1  0.636127  0.636127  0.864262  1
  Tl  Tl11  1  0.136127  0.136127  0.635738  1
  Tl  Tl12  1  0.863873  0.863873  0.364262  1
  Tl  Tl13  1  0.363873  0.363873  0.135738  1
  Bi  Bi14  1  0.294092  0.705908  0.500000  1
  Bi  Bi15  1  0.205908  0.794092  0.000000  1
  Bi  Bi16  1  0.705908  0.294092  0.500000  1
  Bi  Bi17  1  0.794092  0.205908  0.000000  1
