# generated using pymatgen
data_SrUAl16Pt9
_symmetry_space_group_name_H-M   'P 1'
_cell_length_a   11.20836687
_cell_length_b   11.20836812
_cell_length_c   11.20836700
_cell_angle_alpha   158.47545685
_cell_angle_beta   115.34420864
_cell_angle_gamma   69.00319721
_symmetry_Int_Tables_number   1
_chemical_formula_structural   SrUAl16Pt9
_chemical_formula_sum   'Sr1 U1 Al16 Pt9'
_cell_volume   463.50979300
_cell_formula_units_Z   1
loop_
 _symmetry_equiv_pos_site_id
 _symmetry_equiv_pos_as_xyz
  1  'x, y, z'
loop_
 _atom_site_type_symbol
 _atom_site_label
 _atom_site_symmetry_multiplicity
 _atom_site_fract_x
 _atom_site_fract_y
 _atom_site_fract_z
 _atom_site_occupancy
  Sr  Sr0  1  0.228376  0.228376  0.000000  1
  U  U1  1  0.772469  0.772469  0.000000  1
  Al  Al2  1  0.271534  0.391736  0.879798  1
  Al  Al3  1  0.092603  0.920441  0.172161  1
  Al  Al4  1  0.513215  0.204032  0.309184  1
  Al  Al5  1  0.251691  0.079109  0.172583  1
  Al  Al6  1  0.914211  0.414211  0.500000  1
  Al  Al7  1  0.725301  0.607951  0.117350  1
  Al  Al8  1  0.894848  0.204032  0.690816  1
  Al  Al9  1  0.490656  0.795603  0.695052  1
  Al  Al10  1  0.386193  0.000432  0.385761  1
  Al  Al11  1  0.614671  0.000432  0.614239  1
  Al  Al12  1  0.490600  0.607951  0.882650  1
  Al  Al13  1  0.100551  0.795603  0.304948  1
  Al  Al14  1  0.906526  0.079109  0.827417  1
  Al  Al15  1  0.748281  0.920441  0.827839  1
  Al  Al16  1  0.511938  0.391736  0.120202  1
  Al  Al17  1  0.085369  0.585369  0.500000  1
  Pt  Pt18  1  0.746947  0.499669  0.247279  1
  Pt  Pt19  1  0.021362  0.339298  0.682064  1
  Pt  Pt20  1  0.626718  0.126718  0.500000  1
  Pt  Pt21  1  0.252389  0.499669  0.752721  1
  Pt  Pt22  1  0.378018  0.878018  0.500000  1
  Pt  Pt23  1  0.999656  0.999656  0.000000  1
  Pt  Pt24  1  0.657233  0.339298  0.317936  1
  Pt  Pt25  1  0.348805  0.659322  0.689483  1
  Pt  Pt26  1  0.969839  0.659322  0.310517  1
