# generated using pymatgen
data_KTh2SbS8
_symmetry_space_group_name_H-M   'P 1'
_cell_length_a   6.99762335
_cell_length_b   6.99762316
_cell_length_c   7.53455631
_cell_angle_alpha   99.44604907
_cell_angle_beta   99.44604825
_cell_angle_gamma   107.40916039
_symmetry_Int_Tables_number   1
_chemical_formula_structural   KTh2SbS8
_chemical_formula_sum   'K1 Th2 Sb1 S8'
_cell_volume   338.24125530
_cell_formula_units_Z   1
loop_
 _symmetry_equiv_pos_site_id
 _symmetry_equiv_pos_as_xyz
  1  'x, y, z'
loop_
 _atom_site_type_symbol
 _atom_site_label
 _atom_site_symmetry_multiplicity
 _atom_site_fract_x
 _atom_site_fract_y
 _atom_site_fract_z
 _atom_site_occupancy
  K  K0  1  0.539036  0.539036  0.153550  1
  Th  Th1  1  0.923346  0.422130  0.691301  1
  Th  Th2  1  0.422130  0.923346  0.691301  1
  Sb  Sb3  1  0.997145  0.997145  0.988801  1
  S  S4  1  0.697066  0.027339  0.448837  1
  S  S5  1  0.027339  0.697066  0.448837  1
  S  S6  1  0.513584  0.214190  0.459628  1
  S  S7  1  0.214190  0.513584  0.459628  1
  S  S8  1  0.705097  0.705097  0.785091  1
  S  S9  1  0.188312  0.188312  0.787428  1
  S  S10  1  0.748085  0.227972  0.950452  1
  S  S11  1  0.227972  0.748085  0.950452  1
