# generated using pymatgen
data_SmU(CoP)2
_symmetry_space_group_name_H-M   'P 1'
_cell_length_a   3.92281100
_cell_length_b   3.92281127
_cell_length_c   15.12723300
_cell_angle_alpha   90.00000000
_cell_angle_beta   90.00000000
_cell_angle_gamma   120.00000618
_symmetry_Int_Tables_number   1
_chemical_formula_structural   SmU(CoP)2
_chemical_formula_sum   'Sm2 U2 Co4 P4'
_cell_volume   201.59738730
_cell_formula_units_Z   2
loop_
 _symmetry_equiv_pos_site_id
 _symmetry_equiv_pos_as_xyz
  1  'x, y, z'
loop_
 _atom_site_type_symbol
 _atom_site_label
 _atom_site_symmetry_multiplicity
 _atom_site_fract_x
 _atom_site_fract_y
 _atom_site_fract_z
 _atom_site_occupancy
  Sm  Sm0  1  0.000000  0.000000  0.500000  1
  Sm  Sm1  1  0.000000  0.000000  0.000000  1
  U  U2  1  0.000000  0.000000  0.250000  1
  U  U3  1  0.000000  0.000000  0.750000  1
  Co  Co4  1  0.333333  0.666667  0.349119  1
  Co  Co5  1  0.666667  0.333333  0.650881  1
  Co  Co6  1  0.666667  0.333333  0.849119  1
  Co  Co7  1  0.333333  0.666667  0.150881  1
  P  P8  1  0.333333  0.666667  0.874435  1
  P  P9  1  0.666667  0.333333  0.125565  1
  P  P10  1  0.666667  0.333333  0.374435  1
  P  P11  1  0.333333  0.666667  0.625565  1
