# generated using pymatgen
data_Pr6Cd2Hg2IrPd12
_symmetry_space_group_name_H-M   'P 1'
_cell_length_a   8.60040768
_cell_length_b   8.60040636
_cell_length_c   8.57711722
_cell_angle_alpha   109.47304741
_cell_angle_beta   109.47304668
_cell_angle_gamma   109.57731707
_symmetry_Int_Tables_number   1
_chemical_formula_structural   Pr6Cd2Hg2IrPd12
_chemical_formula_sum   'Pr6 Cd2 Hg2 Ir1 Pd12'
_cell_volume   487.71653071
_cell_formula_units_Z   1
loop_
 _symmetry_equiv_pos_site_id
 _symmetry_equiv_pos_as_xyz
  1  'x, y, z'
loop_
 _atom_site_type_symbol
 _atom_site_label
 _atom_site_symmetry_multiplicity
 _atom_site_fract_x
 _atom_site_fract_y
 _atom_site_fract_z
 _atom_site_occupancy
  Pr  Pr0  1  0.001082  0.297271  0.298353  1
  Pr  Pr1  1  0.998918  0.702729  0.701647  1
  Pr  Pr2  1  0.297271  0.001082  0.298353  1
  Pr  Pr3  1  0.702789  0.702789  0.000000  1
  Pr  Pr4  1  0.702729  0.998918  0.701647  1
  Pr  Pr5  1  0.297211  0.297211  0.000000  1
  Cd  Cd6  1  0.500000  0.000000  0.000000  1
  Cd  Cd7  1  0.000000  0.500000  0.000000  1
  Hg  Hg8  1  0.000000  0.000000  0.500000  1
  Hg  Hg9  1  0.500000  0.500000  0.500000  1
  Ir  Ir10  1  0.000000  0.000000  0.000000  1
  Pd  Pd11  1  0.341763  0.658237  0.000000  1
  Pd  Pd12  1  0.999987  0.344757  0.659293  1
  Pd  Pd13  1  0.655243  0.000013  0.340707  1
  Pd  Pd14  1  0.314535  0.659305  0.659293  1
  Pd  Pd15  1  0.659305  0.314535  0.659293  1
  Pd  Pd16  1  0.685465  0.340695  0.340707  1
  Pd  Pd17  1  0.340695  0.685465  0.340707  1
  Pd  Pd18  1  0.343724  0.343724  0.687449  1
  Pd  Pd19  1  0.000013  0.655243  0.340707  1
  Pd  Pd20  1  0.656276  0.656276  0.312551  1
  Pd  Pd21  1  0.344757  0.999987  0.659293  1
  Pd  Pd22  1  0.658237  0.341763  0.000000  1
