# generated using pymatgen
data_Rh(Se2Br)3
_symmetry_space_group_name_H-M   'P 1'
_cell_length_a   9.36477841
_cell_length_b   9.36477763
_cell_length_c   9.36477784
_cell_angle_alpha   109.88163437
_cell_angle_beta   109.88163439
_cell_angle_gamma   109.88163017
_symmetry_Int_Tables_number   1
_chemical_formula_structural   Rh(Se2Br)3
_chemical_formula_sum   'Rh2 Se12 Br6'
_cell_volume   622.43144145
_cell_formula_units_Z   2
loop_
 _symmetry_equiv_pos_site_id
 _symmetry_equiv_pos_as_xyz
  1  'x, y, z'
loop_
 _atom_site_type_symbol
 _atom_site_label
 _atom_site_symmetry_multiplicity
 _atom_site_fract_x
 _atom_site_fract_y
 _atom_site_fract_z
 _atom_site_occupancy
  Rh  Rh0  1  0.250000  0.250000  0.250000  1
  Rh  Rh1  1  0.750000  0.750000  0.750000  1
  Se  Se2  1  0.934232  0.158074  0.165975  1
  Se  Se3  1  0.165975  0.934232  0.158074  1
  Se  Se4  1  0.158074  0.165975  0.934232  1
  Se  Se5  1  0.665975  0.658074  0.434232  1
  Se  Se6  1  0.434232  0.665975  0.658074  1
  Se  Se7  1  0.658074  0.434232  0.665975  1
  Se  Se8  1  0.065768  0.841926  0.834025  1
  Se  Se9  1  0.834025  0.065768  0.841926  1
  Se  Se10  1  0.841926  0.834025  0.065768  1
  Se  Se11  1  0.334025  0.341926  0.565768  1
  Se  Se12  1  0.565768  0.334025  0.341926  1
  Se  Se13  1  0.341926  0.565768  0.334025  1
  Br  Br14  1  0.004562  0.495438  0.250000  1
  Br  Br15  1  0.250000  0.004562  0.495438  1
  Br  Br16  1  0.495438  0.250000  0.004562  1
  Br  Br17  1  0.750000  0.995438  0.504562  1
  Br  Br18  1  0.504562  0.750000  0.995438  1
  Br  Br19  1  0.995438  0.504562  0.750000  1
