# generated using pymatgen
data_Tb10Si5Te
_symmetry_space_group_name_H-M   'P 1'
_cell_length_a   8.55529200
_cell_length_b   8.60818555
_cell_length_c   6.36185400
_cell_angle_alpha   90.00000000
_cell_angle_beta   90.00000000
_cell_angle_gamma   119.79694675
_symmetry_Int_Tables_number   1
_chemical_formula_structural   Tb10Si5Te
_chemical_formula_sum   'Tb10 Si5 Te1'
_cell_volume   406.57976891
_cell_formula_units_Z   1
loop_
 _symmetry_equiv_pos_site_id
 _symmetry_equiv_pos_as_xyz
  1  'x, y, z'
loop_
 _atom_site_type_symbol
 _atom_site_label
 _atom_site_symmetry_multiplicity
 _atom_site_fract_x
 _atom_site_fract_y
 _atom_site_fract_z
 _atom_site_occupancy
  Tb  Tb0  1  0.986012  0.744935  0.750000  1
  Tb  Tb1  1  0.999674  0.245378  0.250000  1
  Tb  Tb2  1  0.754296  0.754622  0.250000  1
  Tb  Tb3  1  0.764356  0.000000  0.750000  1
  Tb  Tb4  1  0.241077  0.255065  0.750000  1
  Tb  Tb5  1  0.242122  0.000000  0.250000  1
  Tb  Tb6  1  0.331200  0.655786  0.496563  1
  Tb  Tb7  1  0.675415  0.344214  0.003437  1
  Tb  Tb8  1  0.675415  0.344214  0.496563  1
  Tb  Tb9  1  0.331200  0.655786  0.003437  1
  Si  Si10  1  0.393090  0.390509  0.250000  1
  Si  Si11  1  0.002581  0.609491  0.250000  1
  Si  Si12  1  0.999511  0.394258  0.750000  1
  Si  Si13  1  0.605253  0.605742  0.750000  1
  Si  Si14  1  0.607253  0.000000  0.250000  1
  Te  Te15  1  0.391545  0.000000  0.750000  1
