# generated using pymatgen
data_BaSb2(AsRh3)3
_symmetry_space_group_name_H-M   'P 1'
_cell_length_a   7.62609500
_cell_length_b   7.62609561
_cell_length_c   11.18631300
_cell_angle_alpha   90.00000000
_cell_angle_beta   90.00000000
_cell_angle_gamma   119.99999300
_symmetry_Int_Tables_number   1
_chemical_formula_structural   BaSb2(AsRh3)3
_chemical_formula_sum   'Ba2 Sb4 As6 Rh18'
_cell_volume   563.40680275
_cell_formula_units_Z   2
loop_
 _symmetry_equiv_pos_site_id
 _symmetry_equiv_pos_as_xyz
  1  'x, y, z'
loop_
 _atom_site_type_symbol
 _atom_site_label
 _atom_site_symmetry_multiplicity
 _atom_site_fract_x
 _atom_site_fract_y
 _atom_site_fract_z
 _atom_site_occupancy
  Ba  Ba0  1  0.000000  0.000000  0.000000  1
  Ba  Ba1  1  0.000000  0.000000  0.500000  1
  Sb  Sb2  1  0.333333  0.666667  0.066916  1
  Sb  Sb3  1  0.666667  0.333333  0.566916  1
  Sb  Sb4  1  0.666667  0.333333  0.933084  1
  Sb  Sb5  1  0.333333  0.666667  0.433084  1
  As  As6  1  0.835402  0.164598  0.250000  1
  As  As7  1  0.670804  0.835402  0.750000  1
  As  As8  1  0.164598  0.329196  0.750000  1
  As  As9  1  0.835402  0.670804  0.250000  1
  As  As10  1  0.329196  0.164598  0.250000  1
  As  As11  1  0.164598  0.835402  0.750000  1
  Rh  Rh12  1  0.539749  0.460251  0.121201  1
  Rh  Rh13  1  0.079499  0.539749  0.621201  1
  Rh  Rh14  1  0.460251  0.920501  0.621201  1
  Rh  Rh15  1  0.539749  0.079499  0.121201  1
  Rh  Rh16  1  0.920501  0.460251  0.121201  1
  Rh  Rh17  1  0.079499  0.539749  0.878799  1
  Rh  Rh18  1  0.460251  0.920501  0.878799  1
  Rh  Rh19  1  0.460251  0.539749  0.621201  1
  Rh  Rh20  1  0.460251  0.539749  0.878799  1
  Rh  Rh21  1  0.539749  0.460251  0.378799  1
  Rh  Rh22  1  0.920501  0.460251  0.378799  1
  Rh  Rh23  1  0.539749  0.079499  0.378799  1
  Rh  Rh24  1  0.197246  0.802754  0.250000  1
  Rh  Rh25  1  0.394492  0.197246  0.750000  1
  Rh  Rh26  1  0.802754  0.605508  0.750000  1
  Rh  Rh27  1  0.197246  0.394492  0.250000  1
  Rh  Rh28  1  0.605508  0.802754  0.250000  1
  Rh  Rh29  1  0.802754  0.197246  0.750000  1
