# generated using pymatgen
data_DyHo3Cu3Sb8
_symmetry_space_group_name_H-M   'P 1'
_cell_length_a   10.55431071
_cell_length_b   10.55431082
_cell_length_c   10.55497978
_cell_angle_alpha   146.50760827
_cell_angle_beta   146.50760782
_cell_angle_gamma   48.10101548
_symmetry_Int_Tables_number   1
_chemical_formula_structural   DyHo3Cu3Sb8
_chemical_formula_sum   'Dy1 Ho3 Cu3 Sb8'
_cell_volume   356.55104198
_cell_formula_units_Z   1
loop_
 _symmetry_equiv_pos_site_id
 _symmetry_equiv_pos_as_xyz
  1  'x, y, z'
loop_
 _atom_site_type_symbol
 _atom_site_label
 _atom_site_symmetry_multiplicity
 _atom_site_fract_x
 _atom_site_fract_y
 _atom_site_fract_z
 _atom_site_occupancy
  Dy  Dy0  1  0.125850  0.125850  0.492438  1
  Ho  Ho1  1  0.633481  0.633481  0.507575  1
  Ho  Ho2  1  0.366529  0.874163  0.000008  1
  Ho  Ho3  1  0.874163  0.366529  0.000008  1
  Cu  Cu4  1  0.999965  0.999965  0.999811  1
  Cu  Cu5  1  0.999982  0.500156  0.500024  1
  Cu  Cu6  1  0.500156  0.999982  0.500024  1
  Sb  Sb7  1  0.334510  0.334510  0.516142  1
  Sb  Sb8  1  0.818355  0.818355  0.483816  1
  Sb  Sb9  1  0.665596  0.181670  0.000084  1
  Sb  Sb10  1  0.181670  0.665596  0.000084  1
  Sb  Sb11  1  0.249964  0.249964  0.000179  1
  Sb  Sb12  1  0.749895  0.749895  0.999835  1
  Sb  Sb13  1  0.749848  0.250037  0.499987  1
  Sb  Sb14  1  0.250037  0.749848  0.499987  1
