# generated using pymatgen
data_Lu12Co4CuBi
_symmetry_space_group_name_H-M   'P 1'
_cell_length_a   8.15844977
_cell_length_b   8.15844965
_cell_length_c   8.15844925
_cell_angle_alpha   110.28808702
_cell_angle_beta   111.28541307
_cell_angle_gamma   106.87264384
_symmetry_Int_Tables_number   1
_chemical_formula_structural   Lu12Co4CuBi
_chemical_formula_sum   'Lu12 Co4 Cu1 Bi1'
_cell_volume   417.34939213
_cell_formula_units_Z   1
loop_
 _symmetry_equiv_pos_site_id
 _symmetry_equiv_pos_as_xyz
  1  'x, y, z'
loop_
 _atom_site_type_symbol
 _atom_site_label
 _atom_site_symmetry_multiplicity
 _atom_site_fract_x
 _atom_site_fract_y
 _atom_site_fract_z
 _atom_site_occupancy
  Lu  Lu0  1  0.286847  0.182672  0.469519  1
  Lu  Lu1  1  0.713153  0.817328  0.530481  1
  Lu  Lu2  1  0.286847  0.817328  0.104174  1
  Lu  Lu3  1  0.713153  0.182672  0.895826  1
  Lu  Lu4  1  0.620740  0.312962  0.307778  1
  Lu  Lu5  1  0.379260  0.687038  0.692222  1
  Lu  Lu6  1  0.005183  0.312962  0.692222  1
  Lu  Lu7  1  0.994817  0.687038  0.307778  1
  Lu  Lu8  1  0.214422  0.416585  0.202164  1
  Lu  Lu9  1  0.785578  0.583415  0.797836  1
  Lu  Lu10  1  0.214422  0.012258  0.797836  1
  Lu  Lu11  1  0.785578  0.987742  0.202164  1
  Co  Co12  1  0.000000  0.375623  0.375623  1
  Co  Co13  1  0.000000  0.624377  0.624377  1
  Co  Co14  1  0.386371  0.886371  0.500000  1
  Co  Co15  1  0.613629  0.113629  0.500000  1
  Cu  Cu16  1  0.000000  0.000000  0.000000  1
  Bi  Bi17  1  0.500000  0.500000  0.000000  1
