# generated using pymatgen
data_Tb5BPt13Rh2
_symmetry_space_group_name_H-M   'P 1'
_cell_length_a   4.18912200
_cell_length_b   4.18912200
_cell_length_c   20.44774900
_cell_angle_alpha   90.00000000
_cell_angle_beta   90.00000000
_cell_angle_gamma   90.00000000
_symmetry_Int_Tables_number   1
_chemical_formula_structural   Tb5BPt13Rh2
_chemical_formula_sum   'Tb5 B1 Pt13 Rh2'
_cell_volume   358.83229481
_cell_formula_units_Z   1
loop_
 _symmetry_equiv_pos_site_id
 _symmetry_equiv_pos_as_xyz
  1  'x, y, z'
loop_
 _atom_site_type_symbol
 _atom_site_label
 _atom_site_symmetry_multiplicity
 _atom_site_fract_x
 _atom_site_fract_y
 _atom_site_fract_z
 _atom_site_occupancy
  Tb  Tb0  1  0.000000  0.000000  0.898348  1
  Tb  Tb1  1  0.000000  0.000000  0.101652  1
  Tb  Tb2  1  0.000000  0.000000  0.301773  1
  Tb  Tb3  1  0.000000  0.000000  0.500000  1
  Tb  Tb4  1  0.000000  0.000000  0.698227  1
  B  B5  1  0.500000  0.500000  0.000000  1
  Pt  Pt6  1  0.500000  0.500000  0.895194  1
  Pt  Pt7  1  0.500000  0.500000  0.104806  1
  Pt  Pt8  1  0.500000  0.500000  0.301990  1
  Pt  Pt9  1  0.500000  0.500000  0.500000  1
  Pt  Pt10  1  0.500000  0.500000  0.698010  1
  Pt  Pt11  1  0.500000  0.000000  0.202383  1
  Pt  Pt12  1  0.500000  0.000000  0.401166  1
  Pt  Pt13  1  0.500000  0.000000  0.598834  1
  Pt  Pt14  1  0.500000  0.000000  0.797617  1
  Pt  Pt15  1  0.000000  0.500000  0.202383  1
  Pt  Pt16  1  0.000000  0.500000  0.401166  1
  Pt  Pt17  1  0.000000  0.500000  0.598834  1
  Pt  Pt18  1  0.000000  0.500000  0.797617  1
  Rh  Rh19  1  0.500000  0.000000  0.000000  1
  Rh  Rh20  1  0.000000  0.500000  0.000000  1
