# generated using pymatgen
data_TbDy4RuPb3
_symmetry_space_group_name_H-M   'P 1'
_cell_length_a   9.33207000
_cell_length_b   9.33206940
_cell_length_c   6.60476400
_cell_angle_alpha   90.00000000
_cell_angle_beta   90.00000000
_cell_angle_gamma   120.00000212
_symmetry_Int_Tables_number   1
_chemical_formula_structural   TbDy4RuPb3
_chemical_formula_sum   'Tb2 Dy8 Ru2 Pb6'
_cell_volume   498.13134919
_cell_formula_units_Z   2
loop_
 _symmetry_equiv_pos_site_id
 _symmetry_equiv_pos_as_xyz
  1  'x, y, z'
loop_
 _atom_site_type_symbol
 _atom_site_label
 _atom_site_symmetry_multiplicity
 _atom_site_fract_x
 _atom_site_fract_y
 _atom_site_fract_z
 _atom_site_occupancy
  Tb  Tb0  1  0.333333  0.666667  0.500000  1
  Tb  Tb1  1  0.666667  0.333333  0.500000  1
  Dy  Dy2  1  0.237515  0.000000  0.249945  1
  Dy  Dy3  1  0.000000  0.762485  0.750055  1
  Dy  Dy4  1  0.000000  0.237515  0.249945  1
  Dy  Dy5  1  0.762485  0.000000  0.750055  1
  Dy  Dy6  1  0.237515  0.237515  0.750055  1
  Dy  Dy7  1  0.333333  0.666667  0.000000  1
  Dy  Dy8  1  0.666667  0.333333  0.000000  1
  Dy  Dy9  1  0.762485  0.762485  0.249945  1
  Ru  Ru10  1  0.000000  0.000000  0.000000  1
  Ru  Ru11  1  0.000000  0.000000  0.500000  1
  Pb  Pb12  1  0.598775  0.000000  0.249929  1
  Pb  Pb13  1  0.401225  0.000000  0.750071  1
  Pb  Pb14  1  0.000000  0.598775  0.249929  1
  Pb  Pb15  1  0.598775  0.598775  0.750071  1
  Pb  Pb16  1  0.401225  0.401225  0.249929  1
  Pb  Pb17  1  0.000000  0.401225  0.750071  1
