# generated using pymatgen
data_Ho6Nb2Co16(SiP3)3
_symmetry_space_group_name_H-M   'P 1'
_cell_length_a   3.72823400
_cell_length_b   10.68502900
_cell_length_c   12.39328400
_cell_angle_alpha   90.00000000
_cell_angle_beta   90.00000000
_cell_angle_gamma   90.00000000
_symmetry_Int_Tables_number   1
_chemical_formula_structural   Ho6Nb2Co16(SiP3)3
_chemical_formula_sum   'Ho6 Nb2 Co16 Si3 P9'
_cell_volume   493.70243576
_cell_formula_units_Z   1
loop_
 _symmetry_equiv_pos_site_id
 _symmetry_equiv_pos_as_xyz
  1  'x, y, z'
loop_
 _atom_site_type_symbol
 _atom_site_label
 _atom_site_symmetry_multiplicity
 _atom_site_fract_x
 _atom_site_fract_y
 _atom_site_fract_z
 _atom_site_occupancy
  Ho  Ho0  1  0.000000  0.500000  0.529068  1
  Ho  Ho1  1  0.500000  0.000000  0.474439  1
  Ho  Ho2  1  0.500000  0.819385  0.207054  1
  Ho  Ho3  1  0.500000  0.180615  0.207054  1
  Ho  Ho4  1  0.000000  0.680818  0.793590  1
  Ho  Ho5  1  0.000000  0.319182  0.793590  1
  Nb  Nb6  1  0.500000  0.500000  0.152071  1
  Nb  Nb7  1  0.000000  0.000000  0.843703  1
  Co  Co8  1  0.000000  0.500000  0.989640  1
  Co  Co9  1  0.500000  0.000000  0.009699  1
  Co  Co10  1  0.500000  0.292471  0.434159  1
  Co  Co11  1  0.500000  0.707529  0.434159  1
  Co  Co12  1  0.000000  0.203684  0.568406  1
  Co  Co13  1  0.000000  0.796316  0.568406  1
  Co  Co14  1  0.500000  0.878022  0.703767  1
  Co  Co15  1  0.500000  0.121978  0.703767  1
  Co  Co16  1  0.000000  0.623419  0.295141  1
  Co  Co17  1  0.000000  0.376581  0.295141  1
  Co  Co18  1  0.500000  0.329860  0.994287  1
  Co  Co19  1  0.500000  0.670140  0.994287  1
  Co  Co20  1  0.000000  0.169475  0.004728  1
  Co  Co21  1  0.000000  0.830525  0.004728  1
  Co  Co22  1  0.500000  0.500000  0.697838  1
  Co  Co23  1  0.000000  0.000000  0.302438  1
  Si  Si24  1  0.500000  0.500000  0.882670  1
  Si  Si25  1  0.000000  0.000000  0.116967  1
  Si  Si26  1  0.500000  0.500000  0.356383  1
  P  P27  1  0.500000  0.309278  0.615338  1
  P  P28  1  0.500000  0.690722  0.615338  1
  P  P29  1  0.000000  0.190754  0.384827  1
  P  P30  1  0.000000  0.809246  0.384827  1
  P  P31  1  0.500000  0.840887  0.893412  1
  P  P32  1  0.500000  0.159113  0.893412  1
  P  P33  1  0.000000  0.660079  0.105988  1
  P  P34  1  0.000000  0.339921  0.105988  1
  P  P35  1  0.000000  0.000000  0.643692  1
