# generated using pymatgen
data_Dy12Ni4HgOs
_symmetry_space_group_name_H-M   'P 1'
_cell_length_a   8.28142641
_cell_length_b   8.27846965
_cell_length_c   8.28142700
_cell_angle_alpha   111.09558127
_cell_angle_beta   109.87209233
_cell_angle_gamma   107.48098382
_symmetry_Int_Tables_number   1
_chemical_formula_structural   Dy12Ni4HgOs
_chemical_formula_sum   'Dy12 Ni4 Hg1 Os1'
_cell_volume   436.53278985
_cell_formula_units_Z   1
loop_
 _symmetry_equiv_pos_site_id
 _symmetry_equiv_pos_as_xyz
  1  'x, y, z'
loop_
 _atom_site_type_symbol
 _atom_site_label
 _atom_site_symmetry_multiplicity
 _atom_site_fract_x
 _atom_site_fract_y
 _atom_site_fract_z
 _atom_site_occupancy
  Dy  Dy0  1  0.037173  0.726423  0.310749  1
  Dy  Dy1  1  0.962827  0.273577  0.689251  1
  Dy  Dy2  1  0.584328  0.273577  0.310751  1
  Dy  Dy3  1  0.415672  0.726423  0.689249  1
  Dy  Dy4  1  0.676008  0.870834  0.194826  1
  Dy  Dy5  1  0.324015  0.518866  0.194852  1
  Dy  Dy6  1  0.323993  0.129166  0.805174  1
  Dy  Dy7  1  0.675986  0.481134  0.805148  1
  Dy  Dy8  1  0.177391  0.221741  0.399183  1
  Dy  Dy9  1  0.822558  0.221741  0.044350  1
  Dy  Dy10  1  0.177442  0.778259  0.955650  1
  Dy  Dy11  1  0.822609  0.778259  0.600817  1
  Ni  Ni12  1  0.643569  0.500000  0.143569  1
  Ni  Ni13  1  0.356431  0.500000  0.856431  1
  Ni  Ni14  1  0.881409  0.881520  0.000110  1
  Ni  Ni15  1  0.118591  0.118480  0.999890  1
  Hg  Hg16  1  0.500000  0.000000  0.500000  1
  Os  Os17  1  0.000000  0.500000  0.500000  1
