# generated using pymatgen
data_AcPrZn4CdSn
_symmetry_space_group_name_H-M   'P 1'
_cell_length_a   8.89407162
_cell_length_b   8.89407289
_cell_length_c   9.36822600
_cell_angle_alpha   90.00000000
_cell_angle_beta   90.00000000
_cell_angle_gamma   149.92569126
_symmetry_Int_Tables_number   1
_chemical_formula_structural   AcPrZn4CdSn
_chemical_formula_sum   'Ac2 Pr2 Zn8 Cd2 Sn2'
_cell_volume   371.36655606
_cell_formula_units_Z   2
loop_
 _symmetry_equiv_pos_site_id
 _symmetry_equiv_pos_as_xyz
  1  'x, y, z'
loop_
 _atom_site_type_symbol
 _atom_site_label
 _atom_site_symmetry_multiplicity
 _atom_site_fract_x
 _atom_site_fract_y
 _atom_site_fract_z
 _atom_site_occupancy
  Ac  Ac0  1  0.000000  0.000000  0.500000  1
  Ac  Ac1  1  0.000000  0.000000  0.000000  1
  Pr  Pr2  1  0.206793  0.793207  0.250000  1
  Pr  Pr3  1  0.793207  0.206793  0.750000  1
  Zn  Zn4  1  0.811047  0.188953  0.391366  1
  Zn  Zn5  1  0.188953  0.811047  0.608634  1
  Zn  Zn6  1  0.811047  0.188953  0.108634  1
  Zn  Zn7  1  0.188953  0.811047  0.891366  1
  Zn  Zn8  1  0.662925  0.337075  0.480704  1
  Zn  Zn9  1  0.337075  0.662925  0.519296  1
  Zn  Zn10  1  0.662925  0.337075  0.019296  1
  Zn  Zn11  1  0.337075  0.662925  0.980704  1
  Cd  Cd12  1  0.398703  0.601297  0.250000  1
  Cd  Cd13  1  0.601297  0.398703  0.750000  1
  Sn  Sn14  1  0.566378  0.433622  0.250000  1
  Sn  Sn15  1  0.433622  0.566378  0.750000  1
