# generated using pymatgen
data_Y4Er3Tm(ReB6)4
_symmetry_space_group_name_H-M   'P 1'
_cell_length_a   3.66469300
_cell_length_b   9.14808601
_cell_length_c   11.53821501
_cell_angle_alpha   90.00510149
_cell_angle_beta   90.00000000
_cell_angle_gamma   90.00000000
_symmetry_Int_Tables_number   1
_chemical_formula_structural   Y4Er3Tm(ReB6)4
_chemical_formula_sum   'Y4 Er3 Tm1 Re4 B24'
_cell_volume   386.81781168
_cell_formula_units_Z   1
loop_
 _symmetry_equiv_pos_site_id
 _symmetry_equiv_pos_as_xyz
  1  'x, y, z'
loop_
 _atom_site_type_symbol
 _atom_site_label
 _atom_site_symmetry_multiplicity
 _atom_site_fract_x
 _atom_site_fract_y
 _atom_site_fract_z
 _atom_site_occupancy
  Y  Y0  1  0.000000  0.323208  0.414204  1
  Y  Y1  1  0.000000  0.676800  0.585891  1
  Y  Y2  1  0.000000  0.823113  0.085760  1
  Y  Y3  1  0.000000  0.176822  0.914171  1
  Er  Er4  1  0.000000  0.943093  0.370015  1
  Er  Er5  1  0.000000  0.056965  0.630034  1
  Er  Er6  1  0.000000  0.443116  0.129779  1
  Tm  Tm7  1  0.000000  0.556938  0.869875  1
  Re  Re8  1  0.000000  0.639126  0.320413  1
  Re  Re9  1  0.000000  0.361035  0.679754  1
  Re  Re10  1  0.000000  0.139242  0.179517  1
  Re  Re11  1  0.000000  0.860489  0.820453  1
  B  B12  1  0.500000  0.553510  0.432579  1
  B  B13  1  0.500000  0.446514  0.567524  1
  B  B14  1  0.500000  0.053483  0.067432  1
  B  B15  1  0.500000  0.946367  0.932534  1
  B  B16  1  0.500000  0.749895  0.418201  1
  B  B17  1  0.500000  0.250155  0.581846  1
  B  B18  1  0.500000  0.249909  0.081816  1
  B  B19  1  0.500000  0.749728  0.918165  1
  B  B20  1  0.500000  0.792321  0.265370  1
  B  B21  1  0.500000  0.207785  0.734666  1
  B  B22  1  0.500000  0.292345  0.234632  1
  B  B23  1  0.500000  0.707385  0.765475  1
  B  B24  1  0.500000  0.630388  0.185330  1
  B  B25  1  0.500000  0.369898  0.814803  1
  B  B26  1  0.500000  0.130426  0.314648  1
  B  B27  1  0.500000  0.869515  0.685431  1
  B  B28  1  0.500000  0.982194  0.212370  1
  B  B29  1  0.500000  0.017743  0.787671  1
  B  B30  1  0.500000  0.482153  0.287630  1
  B  B31  1  0.500000  0.518002  0.712588  1
  B  B32  1  0.500000  0.598756  0.027154  1
  B  B33  1  0.500000  0.401552  0.972233  1
  B  B34  1  0.500000  0.098892  0.472492  1
  B  B35  1  0.500000  0.901135  0.527543  1
