# generated using pymatgen
data_Sm3Al12Ru3Au
_symmetry_space_group_name_H-M   'P 1'
_cell_length_a   8.94975287
_cell_length_b   8.88817586
_cell_length_c   9.64263673
_cell_angle_alpha   90.00000231
_cell_angle_beta   89.84323497
_cell_angle_gamma   119.77266177
_symmetry_Int_Tables_number   1
_chemical_formula_structural   Sm3Al12Ru3Au
_chemical_formula_sum   'Sm6 Al24 Ru6 Au2'
_cell_volume   665.79157790
_cell_formula_units_Z   2
loop_
 _symmetry_equiv_pos_site_id
 _symmetry_equiv_pos_as_xyz
  1  'x, y, z'
loop_
 _atom_site_type_symbol
 _atom_site_label
 _atom_site_symmetry_multiplicity
 _atom_site_fract_x
 _atom_site_fract_y
 _atom_site_fract_z
 _atom_site_occupancy
  Sm  Sm0  1  0.381624  0.190812  0.252745  1
  Sm  Sm1  1  0.809485  0.192337  0.246963  1
  Sm  Sm2  1  0.809485  0.617148  0.246963  1
  Sm  Sm3  1  0.618376  0.809188  0.747255  1
  Sm  Sm4  1  0.190515  0.807663  0.753037  1
  Sm  Sm5  1  0.190515  0.382852  0.753037  1
  Al  Al6  1  0.435191  0.871574  0.242583  1
  Al  Al7  1  0.121762  0.560881  0.250639  1
  Al  Al8  1  0.435191  0.563617  0.242583  1
  Al  Al9  1  0.564809  0.128426  0.757417  1
  Al  Al10  1  0.878238  0.439119  0.749361  1
  Al  Al11  1  0.564809  0.436383  0.757417  1
  Al  Al12  1  0.151854  0.828292  0.420182  1
  Al  Al13  1  0.151854  0.323564  0.420182  1
  Al  Al14  1  0.681488  0.840744  0.417107  1
  Al  Al15  1  0.848146  0.171708  0.579818  1
  Al  Al16  1  0.848146  0.676436  0.579818  1
  Al  Al17  1  0.318512  0.159256  0.582893  1
  Al  Al18  1  0.836271  0.163754  0.925128  1
  Al  Al19  1  0.836271  0.672516  0.925128  1
  Al  Al20  1  0.326659  0.163329  0.929426  1
  Al  Al21  1  0.163729  0.836246  0.074872  1
  Al  Al22  1  0.163729  0.327484  0.074872  1
  Al  Al23  1  0.673341  0.836671  0.070574  1
  Al  Al24  1  0.320773  0.660387  0.526413  1
  Al  Al25  1  0.679227  0.339613  0.473587  1
  Al  Al26  1  0.666453  0.333226  0.023371  1
  Al  Al27  1  0.333547  0.666774  0.976629  1
  Al  Al28  1  0.003174  0.001587  0.248950  1
  Al  Al29  1  0.996826  0.998413  0.751050  1
  Ru  Ru30  1  0.000000  0.000000  0.500000  1
  Ru  Ru31  1  0.000000  0.000000  0.000000  1
  Ru  Ru32  1  0.000000  0.500000  0.500000  1
  Ru  Ru33  1  0.500000  0.000000  0.000000  1
  Ru  Ru34  1  0.000000  0.500000  0.000000  1
  Ru  Ru35  1  0.500000  0.500000  0.000000  1
  Au  Au36  1  0.500000  0.000000  0.500000  1
  Au  Au37  1  0.500000  0.500000  0.500000  1
