# generated using pymatgen
data_HfSc2TaOs4
_symmetry_space_group_name_H-M   'P 1'
_cell_length_a   6.40779000
_cell_length_b   4.55012900
_cell_length_c   9.10761400
_cell_angle_alpha   90.00000000
_cell_angle_beta   90.00021159
_cell_angle_gamma   90.00000000
_symmetry_Int_Tables_number   1
_chemical_formula_structural   HfSc2TaOs4
_chemical_formula_sum   'Hf2 Sc4 Ta2 Os8'
_cell_volume   265.54406290
_cell_formula_units_Z   2
loop_
 _symmetry_equiv_pos_site_id
 _symmetry_equiv_pos_as_xyz
  1  'x, y, z'
loop_
 _atom_site_type_symbol
 _atom_site_label
 _atom_site_symmetry_multiplicity
 _atom_site_fract_x
 _atom_site_fract_y
 _atom_site_fract_z
 _atom_site_occupancy
  Hf  Hf0  1  0.249999  0.250000  0.124778  1
  Hf  Hf1  1  0.750004  0.749999  0.375216  1
  Sc  Sc2  1  0.750000  0.250000  0.124918  1
  Sc  Sc3  1  0.250003  0.749999  0.375087  1
  Sc  Sc4  1  0.750000  0.250000  0.624814  1
  Sc  Sc5  1  0.249995  0.749999  0.875186  1
  Ta  Ta6  1  0.249998  0.250000  0.624967  1
  Ta  Ta7  1  0.749991  0.749999  0.875044  1
  Os  Os8  1  0.503175  0.749999  0.120884  1
  Os  Os9  1  0.996831  0.749999  0.120880  1
  Os  Os10  1  0.496831  0.250000  0.379112  1
  Os  Os11  1  0.003180  0.250000  0.379109  1
  Os  Os12  1  0.002986  0.749999  0.629028  1
  Os  Os13  1  0.497018  0.749999  0.629028  1
  Os  Os14  1  0.997015  0.250000  0.870973  1
  Os  Os15  1  0.502981  0.250000  0.870975  1
