# generated using pymatgen
data_Tm4Al4IrRh3
_symmetry_space_group_name_H-M   'P 1'
_cell_length_a   4.17036400
_cell_length_b   6.81571514
_cell_length_c   7.92778133
_cell_angle_alpha   90.06638920
_cell_angle_beta   90.00000000
_cell_angle_gamma   90.00000000
_symmetry_Int_Tables_number   1
_chemical_formula_structural   Tm4Al4IrRh3
_chemical_formula_sum   'Tm4 Al4 Ir1 Rh3'
_cell_volume   225.33920888
_cell_formula_units_Z   1
loop_
 _symmetry_equiv_pos_site_id
 _symmetry_equiv_pos_as_xyz
  1  'x, y, z'
loop_
 _atom_site_type_symbol
 _atom_site_label
 _atom_site_symmetry_multiplicity
 _atom_site_fract_x
 _atom_site_fract_y
 _atom_site_fract_z
 _atom_site_occupancy
  Tm  Tm0  1  0.250000  0.964364  0.320984  1
  Tm  Tm1  1  0.750000  0.535090  0.821864  1
  Tm  Tm2  1  0.250000  0.467323  0.178301  1
  Tm  Tm3  1  0.750000  0.034515  0.678503  1
  Al  Al4  1  0.750000  0.636446  0.439029  1
  Al  Al5  1  0.750000  0.136941  0.059901  1
  Al  Al6  1  0.250000  0.363523  0.559548  1
  Al  Al7  1  0.250000  0.862990  0.940067  1
  Ir  Ir8  1  0.750000  0.764613  0.123825  1
  Rh  Rh9  1  0.750000  0.262896  0.378637  1
  Rh  Rh10  1  0.250000  0.235582  0.876989  1
  Rh  Rh11  1  0.250000  0.735717  0.622352  1
