# generated using pymatgen
data_YHo2Pa(Al3Rh)6
_symmetry_space_group_name_H-M   'P 1'
_cell_length_a   7.58404318
_cell_length_b   7.57399072
_cell_length_c   9.41076000
_cell_angle_alpha   90.00000000
_cell_angle_beta   90.00000000
_cell_angle_gamma   119.51054498
_symmetry_Int_Tables_number   1
_chemical_formula_structural   YHo2Pa(Al3Rh)6
_chemical_formula_sum   'Y1 Ho2 Pa1 Al18 Rh6'
_cell_volume   470.43736376
_cell_formula_units_Z   1
loop_
 _symmetry_equiv_pos_site_id
 _symmetry_equiv_pos_as_xyz
  1  'x, y, z'
loop_
 _atom_site_type_symbol
 _atom_site_label
 _atom_site_symmetry_multiplicity
 _atom_site_fract_x
 _atom_site_fract_y
 _atom_site_fract_z
 _atom_site_occupancy
  Y  Y0  1  0.673382  0.994587  0.250000  1
  Ho  Ho1  1  0.005392  0.328340  0.750000  1
  Ho  Ho2  1  0.328105  0.004453  0.750000  1
  Pa  Pa3  1  0.995661  0.672386  0.250000  1
  Al  Al4  1  0.132409  0.130611  0.250000  1
  Al  Al5  1  0.873533  0.874724  0.750000  1
  Al  Al6  1  0.000797  0.333434  0.074856  1
  Al  Al7  1  0.999577  0.664256  0.920663  1
  Al  Al8  1  0.999577  0.664256  0.579337  1
  Al  Al9  1  0.338525  0.003111  0.424861  1
  Al  Al10  1  0.000797  0.333434  0.425144  1
  Al  Al11  1  0.664656  0.000649  0.577232  1
  Al  Al12  1  0.664656  0.000649  0.922768  1
  Al  Al13  1  0.338525  0.003111  0.075139  1
  Al  Al14  1  0.331901  0.331943  0.554066  1
  Al  Al15  1  0.663733  0.665762  0.451206  1
  Al  Al16  1  0.663733  0.665762  0.048794  1
  Al  Al17  1  0.331901  0.331943  0.945934  1
  Al  Al18  1  0.338954  0.548334  0.250000  1
  Al  Al19  1  0.658663  0.447483  0.750000  1
  Al  Al20  1  0.548623  0.342846  0.250000  1
  Al  Al21  1  0.448967  0.659980  0.750000  1
  Rh  Rh22  1  0.673481  0.329391  0.001592  1
  Rh  Rh23  1  0.325851  0.672044  0.001615  1
  Rh  Rh24  1  0.325851  0.672044  0.498385  1
  Rh  Rh25  1  0.673481  0.329391  0.498408  1
  Rh  Rh26  1  0.999634  0.997540  0.002512  1
  Rh  Rh27  1  0.999634  0.997540  0.497488  1
