# generated using pymatgen
data_CaLa9(Si3H)2
_symmetry_space_group_name_H-M   'P 1'
_cell_length_a   9.04758825
_cell_length_b   9.04766372
_cell_length_c   9.04842193
_cell_angle_alpha   127.65860836
_cell_angle_beta   127.64282065
_cell_angle_gamma   77.18807977
_symmetry_Int_Tables_number   1
_chemical_formula_structural   CaLa9(Si3H)2
_chemical_formula_sum   'Ca1 La9 Si6 H2'
_cell_volume   450.57780074
_cell_formula_units_Z   1
loop_
 _symmetry_equiv_pos_site_id
 _symmetry_equiv_pos_as_xyz
  1  'x, y, z'
loop_
 _atom_site_type_symbol
 _atom_site_label
 _atom_site_symmetry_multiplicity
 _atom_site_fract_x
 _atom_site_fract_y
 _atom_site_fract_z
 _atom_site_occupancy
  Ca  Ca0  1  0.500000  0.500000  0.000000  1
  La  La1  1  0.000000  0.000000  0.000000  1
  La  La2  1  0.523793  0.025817  0.848535  1
  La  La3  1  0.177292  0.675264  0.151462  1
  La  La4  1  0.025878  0.177228  0.502069  1
  La  La5  1  0.675183  0.523818  0.497958  1
  La  La6  1  0.476207  0.974183  0.151465  1
  La  La7  1  0.822708  0.324736  0.848538  1
  La  La8  1  0.974122  0.822772  0.497931  1
  La  La9  1  0.324817  0.476182  0.502042  1
  Si  Si10  1  0.247567  0.247616  0.999973  1
  Si  Si11  1  0.752433  0.752384  0.000027  1
  Si  Si12  1  0.889763  0.385935  0.275710  1
  Si  Si13  1  0.110237  0.614065  0.724290  1
  Si  Si14  1  0.385852  0.110250  0.496104  1
  Si  Si15  1  0.614148  0.889750  0.503896  1
  H  H16  1  0.249976  0.749987  0.499990  1
  H  H17  1  0.750024  0.250013  0.500010  1
