# generated using pymatgen
data_Dy5Y3(CdPt)2
_symmetry_space_group_name_H-M   'P 1'
_cell_length_a   9.68502142
_cell_length_b   9.68502121
_cell_length_c   9.68502200
_cell_angle_alpha   60.00000412
_cell_angle_beta   60.00000486
_cell_angle_gamma   60.00000250
_symmetry_Int_Tables_number   1
_chemical_formula_structural   Dy5Y3(CdPt)2
_chemical_formula_sum   'Dy10 Y6 Cd4 Pt4'
_cell_volume   642.37231164
_cell_formula_units_Z   2
loop_
 _symmetry_equiv_pos_site_id
 _symmetry_equiv_pos_as_xyz
  1  'x, y, z'
loop_
 _atom_site_type_symbol
 _atom_site_label
 _atom_site_symmetry_multiplicity
 _atom_site_fract_x
 _atom_site_fract_y
 _atom_site_fract_z
 _atom_site_occupancy
  Dy  Dy0  1  0.352226  0.352226  0.352226  1
  Dy  Dy1  1  0.352226  0.352226  0.943322  1
  Dy  Dy2  1  0.352226  0.943322  0.352226  1
  Dy  Dy3  1  0.943322  0.352226  0.352226  1
  Dy  Dy4  1  0.810092  0.189908  0.189908  1
  Dy  Dy5  1  0.189908  0.810092  0.810092  1
  Dy  Dy6  1  0.189908  0.810092  0.189908  1
  Dy  Dy7  1  0.810092  0.189908  0.810092  1
  Dy  Dy8  1  0.189908  0.189908  0.810092  1
  Dy  Dy9  1  0.810092  0.810092  0.189908  1
  Y  Y10  1  0.936119  0.563881  0.563881  1
  Y  Y11  1  0.563881  0.936119  0.936119  1
  Y  Y12  1  0.563881  0.936119  0.563881  1
  Y  Y13  1  0.936119  0.563881  0.936119  1
  Y  Y14  1  0.563881  0.563881  0.936119  1
  Y  Y15  1  0.936119  0.936119  0.563881  1
  Cd  Cd16  1  0.581797  0.581797  0.581797  1
  Cd  Cd17  1  0.581797  0.581797  0.254610  1
  Cd  Cd18  1  0.581797  0.254610  0.581797  1
  Cd  Cd19  1  0.254610  0.581797  0.581797  1
  Pt  Pt20  1  0.143653  0.143653  0.143653  1
  Pt  Pt21  1  0.143653  0.143653  0.569041  1
  Pt  Pt22  1  0.143653  0.569041  0.143653  1
  Pt  Pt23  1  0.569041  0.143653  0.143653  1
