# generated using pymatgen
data_CePa7(Si4W3)4
_symmetry_space_group_name_H-M   'P 1'
_cell_length_a   6.79906501
_cell_length_b   6.95069427
_cell_length_c   12.96442200
_cell_angle_alpha   89.93653579
_cell_angle_beta   89.99676403
_cell_angle_gamma   90.04348740
_symmetry_Int_Tables_number   1
_chemical_formula_structural   CePa7(Si4W3)4
_chemical_formula_sum   'Ce1 Pa7 Si16 W12'
_cell_volume   612.67498208
_cell_formula_units_Z   1
loop_
 _symmetry_equiv_pos_site_id
 _symmetry_equiv_pos_as_xyz
  1  'x, y, z'
loop_
 _atom_site_type_symbol
 _atom_site_label
 _atom_site_symmetry_multiplicity
 _atom_site_fract_x
 _atom_site_fract_y
 _atom_site_fract_z
 _atom_site_occupancy
  Ce  Ce0  1  0.992963  0.836748  0.592316  1
  Pa  Pa1  1  0.491031  0.663087  0.593920  1
  Pa  Pa2  1  0.990700  0.836573  0.906397  1
  Pa  Pa3  1  0.509546  0.336537  0.093328  1
  Pa  Pa4  1  0.009563  0.163554  0.406171  1
  Pa  Pa5  1  0.509505  0.336880  0.406290  1
  Pa  Pa6  1  0.009678  0.163046  0.093542  1
  Pa  Pa7  1  0.490480  0.663870  0.906536  1
  Si  Si8  1  0.659324  0.955480  0.454813  1
  Si  Si9  1  0.159513  0.544286  0.045160  1
  Si  Si10  1  0.340535  0.044392  0.955211  1
  Si  Si11  1  0.840950  0.456061  0.545238  1
  Si  Si12  1  0.341306  0.043939  0.545165  1
  Si  Si13  1  0.840408  0.455539  0.955232  1
  Si  Si14  1  0.659855  0.955745  0.045206  1
  Si  Si15  1  0.158908  0.544082  0.454133  1
  Si  Si16  1  0.461238  0.369427  0.751005  1
  Si  Si17  1  0.961875  0.131288  0.749475  1
  Si  Si18  1  0.537765  0.631544  0.249537  1
  Si  Si19  1  0.037973  0.868556  0.250368  1
  Si  Si20  1  0.696221  0.870582  0.749396  1
  Si  Si21  1  0.194252  0.629717  0.750225  1
  Si  Si22  1  0.304549  0.129342  0.249980  1
  Si  Si23  1  0.804988  0.370047  0.249605  1
  W  W24  1  0.666176  0.168132  0.624217  1
  W  W25  1  0.169813  0.335537  0.876622  1
  W  W26  1  0.329060  0.835593  0.123872  1
  W  W27  1  0.827976  0.662874  0.374676  1
  W  W28  1  0.330435  0.835163  0.375811  1
  W  W29  1  0.829899  0.664703  0.123793  1
  W  W30  1  0.670915  0.163869  0.876083  1
  W  W31  1  0.170924  0.334611  0.624099  1
  W  W32  1  0.829767  0.505184  0.751254  1
  W  W33  1  0.332036  0.994002  0.751515  1
  W  W34  1  0.170038  0.491866  0.249878  1
  W  W35  1  0.669834  0.008143  0.249930  1
