# generated using pymatgen
data_Dy8Er2RuRh3
_symmetry_space_group_name_H-M   'P 1'
_cell_length_a   6.40074723
_cell_length_b   7.17474744
_cell_length_c   8.55072315
_cell_angle_alpha   96.87113676
_cell_angle_beta   111.42254864
_cell_angle_gamma   90.03078669
_symmetry_Int_Tables_number   1
_chemical_formula_structural   Dy8Er2RuRh3
_chemical_formula_sum   'Dy8 Er2 Ru1 Rh3'
_cell_volume   362.51033520
_cell_formula_units_Z   1
loop_
 _symmetry_equiv_pos_site_id
 _symmetry_equiv_pos_as_xyz
  1  'x, y, z'
loop_
 _atom_site_type_symbol
 _atom_site_label
 _atom_site_symmetry_multiplicity
 _atom_site_fract_x
 _atom_site_fract_y
 _atom_site_fract_z
 _atom_site_occupancy
  Dy  Dy0  1  0.793747  0.581437  0.812504  1
  Dy  Dy1  1  0.979209  0.918040  0.187264  1
  Dy  Dy2  1  0.206436  0.417783  0.183844  1
  Dy  Dy3  1  0.021363  0.084039  0.811775  1
  Dy  Dy4  1  0.209010  0.685971  0.565454  1
  Dy  Dy5  1  0.645383  0.812633  0.435907  1
  Dy  Dy6  1  0.794278  0.312131  0.438453  1
  Dy  Dy7  1  0.352120  0.188427  0.565121  1
  Er  Er8  1  0.423610  0.748326  0.998582  1
  Er  Er9  1  0.573998  0.250294  0.999390  1
  Ru  Ru10  1  0.180836  0.426334  0.781188  1
  Rh  Rh11  1  0.599663  0.926442  0.780325  1
  Rh  Rh12  1  0.817927  0.574713  0.219629  1
  Rh  Rh13  1  0.402421  0.073430  0.220563  1
