# generated using pymatgen
data_Ta6Be15Co5Cu3
_symmetry_space_group_name_H-M   'P 1'
_cell_length_a   7.58828618
_cell_length_b   7.58396494
_cell_length_c   7.58285800
_cell_angle_alpha   60.00482812
_cell_angle_beta   60.02366033
_cell_angle_gamma   59.94968805
_symmetry_Int_Tables_number   1
_chemical_formula_structural   Ta6Be15Co5Cu3
_chemical_formula_sum   'Ta6 Be15 Co5 Cu3'
_cell_volume   308.52184119
_cell_formula_units_Z   1
loop_
 _symmetry_equiv_pos_site_id
 _symmetry_equiv_pos_as_xyz
  1  'x, y, z'
loop_
 _atom_site_type_symbol
 _atom_site_label
 _atom_site_symmetry_multiplicity
 _atom_site_fract_x
 _atom_site_fract_y
 _atom_site_fract_z
 _atom_site_occupancy
  Ta  Ta0  1  0.208929  0.209043  0.791014  1
  Ta  Ta1  1  0.192942  0.790545  0.807592  1
  Ta  Ta2  1  0.794428  0.197008  0.214097  1
  Ta  Ta3  1  0.192942  0.790545  0.208920  1
  Ta  Ta4  1  0.794428  0.197008  0.794466  1
  Ta  Ta5  1  0.812686  0.796452  0.195431  1
  Be  Be6  1  0.497989  0.492796  0.504608  1
  Be  Be7  1  0.499374  0.497648  0.001489  1
  Be  Be8  1  0.003683  0.497764  0.499401  1
  Be  Be9  1  0.499078  0.004476  0.996588  1
  Be  Be10  1  0.996746  0.001619  0.500818  1
  Be  Be11  1  0.003683  0.497764  0.999152  1
  Be  Be12  1  0.499078  0.004476  0.499858  1
  Be  Be13  1  0.834381  0.517437  0.824091  1
  Be  Be14  1  0.170810  0.179874  0.479290  1
  Be  Be15  1  0.481399  0.178648  0.169976  1
  Be  Be16  1  0.170810  0.179874  0.170025  1
  Be  Be17  1  0.516743  0.833385  0.824936  1
  Be  Be18  1  0.827252  0.828668  0.820287  1
  Be  Be19  1  0.827252  0.828668  0.523793  1
  Be  Be20  1  0.176825  0.473059  0.175058  1
  Co  Co21  1  0.621843  0.132737  0.622709  1
  Co  Co22  1  0.377910  0.378112  0.866705  1
  Co  Co23  1  0.866694  0.378316  0.377496  1
  Co  Co24  1  0.377910  0.378112  0.377274  1
  Co  Co25  1  0.132384  0.622755  0.622430  1
  Cu  Cu26  1  0.622044  0.622976  0.622199  1
  Cu  Cu27  1  0.622044  0.622976  0.132780  1
  Cu  Cu28  1  0.377711  0.867262  0.377514  1
