# generated using pymatgen
data_LaNd6PI12
_symmetry_space_group_name_H-M   'P 1'
_cell_length_a   9.95770900
_cell_length_b   9.95770997
_cell_length_c   9.95771232
_cell_angle_alpha   107.58811694
_cell_angle_beta   107.58811047
_cell_angle_gamma   107.58810089
_symmetry_Int_Tables_number   1
_chemical_formula_structural   LaNd6PI12
_chemical_formula_sum   'La1 Nd6 P1 I12'
_cell_volume   808.73391598
_cell_formula_units_Z   1
loop_
 _symmetry_equiv_pos_site_id
 _symmetry_equiv_pos_as_xyz
  1  'x, y, z'
loop_
 _atom_site_type_symbol
 _atom_site_label
 _atom_site_symmetry_multiplicity
 _atom_site_fract_x
 _atom_site_fract_y
 _atom_site_fract_z
 _atom_site_occupancy
  La  La0  1  0.983101  0.983101  0.983101  1
  Nd  Nd1  1  0.531985  0.602087  0.803603  1
  Nd  Nd2  1  0.803603  0.531985  0.602087  1
  Nd  Nd3  1  0.602087  0.803603  0.531985  1
  Nd  Nd4  1  0.473200  0.401972  0.196199  1
  Nd  Nd5  1  0.196199  0.473200  0.401972  1
  Nd  Nd6  1  0.401972  0.196199  0.473200  1
  P  P7  1  0.498138  0.498138  0.498138  1
  I  I8  1  0.273164  0.814001  0.422900  1
  I  I9  1  0.422900  0.273164  0.814001  1
  I  I10  1  0.814001  0.422900  0.273164  1
  I  I11  1  0.728554  0.186212  0.574582  1
  I  I12  1  0.574582  0.728554  0.186212  1
  I  I13  1  0.186212  0.574582  0.728554  1
  I  I14  1  0.035025  0.114637  0.344215  1
  I  I15  1  0.344215  0.035025  0.114637  1
  I  I16  1  0.114637  0.344215  0.035025  1
  I  I17  1  0.966959  0.883298  0.641539  1
  I  I18  1  0.641539  0.966959  0.883298  1
  I  I19  1  0.883298  0.641539  0.966959  1
