# generated using pymatgen
data_Lu4Al5Tc2W
_symmetry_space_group_name_H-M   'P 1'
_cell_length_a   5.49124851
_cell_length_b   5.50158173
_cell_length_c   8.72767200
_cell_angle_alpha   90.00000000
_cell_angle_beta   90.00000000
_cell_angle_gamma   120.06226050
_symmetry_Int_Tables_number   1
_chemical_formula_structural   Lu4Al5Tc2W
_chemical_formula_sum   'Lu4 Al5 Tc2 W1'
_cell_volume   228.19961486
_cell_formula_units_Z   1
loop_
 _symmetry_equiv_pos_site_id
 _symmetry_equiv_pos_as_xyz
  1  'x, y, z'
loop_
 _atom_site_type_symbol
 _atom_site_label
 _atom_site_symmetry_multiplicity
 _atom_site_fract_x
 _atom_site_fract_y
 _atom_site_fract_z
 _atom_site_occupancy
  Lu  Lu0  1  0.335487  0.667744  0.443533  1
  Lu  Lu1  1  0.665462  0.332731  0.555453  1
  Lu  Lu2  1  0.665462  0.332731  0.944547  1
  Lu  Lu3  1  0.335487  0.667744  0.056467  1
  Al  Al4  1  0.835066  0.163988  0.250000  1
  Al  Al5  1  0.835066  0.671078  0.250000  1
  Al  Al6  1  0.324256  0.162127  0.250000  1
  Al  Al7  1  0.186332  0.845397  0.750000  1
  Al  Al8  1  0.186332  0.340935  0.750000  1
  Tc  Tc9  1  0.975257  0.987629  0.508241  1
  Tc  Tc10  1  0.975257  0.987629  0.991759  1
  W  W11  1  0.680534  0.840267  0.750000  1
