# generated using pymatgen
data_Y4Ga18NiRu5
_symmetry_space_group_name_H-M   'P 1'
_cell_length_a   7.49471548
_cell_length_b   7.49471512
_cell_length_c   9.64773686
_cell_angle_alpha   90.26228797
_cell_angle_beta   90.26228396
_cell_angle_gamma   119.73284683
_symmetry_Int_Tables_number   1
_chemical_formula_structural   Y4Ga18NiRu5
_chemical_formula_sum   'Y4 Ga18 Ni1 Ru5'
_cell_volume   470.55581844
_cell_formula_units_Z   1
loop_
 _symmetry_equiv_pos_site_id
 _symmetry_equiv_pos_as_xyz
  1  'x, y, z'
loop_
 _atom_site_type_symbol
 _atom_site_label
 _atom_site_symmetry_multiplicity
 _atom_site_fract_x
 _atom_site_fract_y
 _atom_site_fract_z
 _atom_site_occupancy
  Y  Y0  1  0.997311  0.669307  0.250091  1
  Y  Y1  1  0.002689  0.330693  0.749909  1
  Y  Y2  1  0.669307  0.997311  0.250091  1
  Y  Y3  1  0.330693  0.002689  0.749909  1
  Ga  Ga4  1  0.126488  0.126488  0.248232  1
  Ga  Ga5  1  0.873512  0.873512  0.751768  1
  Ga  Ga6  1  0.005543  0.332393  0.076599  1
  Ga  Ga7  1  0.994457  0.667607  0.923401  1
  Ga  Ga8  1  0.994404  0.664941  0.576398  1
  Ga  Ga9  1  0.335059  0.005596  0.423602  1
  Ga  Ga10  1  0.005596  0.335059  0.423602  1
  Ga  Ga11  1  0.664941  0.994404  0.576398  1
  Ga  Ga12  1  0.667607  0.994457  0.923401  1
  Ga  Ga13  1  0.332393  0.005543  0.076599  1
  Ga  Ga14  1  0.337511  0.337511  0.559691  1
  Ga  Ga15  1  0.662489  0.662489  0.440309  1
  Ga  Ga16  1  0.664176  0.664176  0.060111  1
  Ga  Ga17  1  0.335824  0.335824  0.939889  1
  Ga  Ga18  1  0.337416  0.549263  0.249599  1
  Ga  Ga19  1  0.662584  0.450737  0.750401  1
  Ga  Ga20  1  0.549263  0.337416  0.249599  1
  Ga  Ga21  1  0.450737  0.662584  0.750401  1
  Ni  Ni22  1  0.000000  0.000000  0.000000  1
  Ru  Ru23  1  0.674821  0.325179  0.000000  1
  Ru  Ru24  1  0.325179  0.674821  0.000000  1
  Ru  Ru25  1  0.325429  0.674571  0.500000  1
  Ru  Ru26  1  0.674571  0.325429  0.500000  1
  Ru  Ru27  1  0.000000  0.000000  0.500000  1
