# generated using pymatgen
data_Tb2YSi2Ag3Sn
_symmetry_space_group_name_H-M   'P 1'
_cell_length_a   7.20946286
_cell_length_b   7.20946239
_cell_length_c   4.31712000
_cell_angle_alpha   90.00000000
_cell_angle_beta   90.00000000
_cell_angle_gamma   119.94015854
_symmetry_Int_Tables_number   1
_chemical_formula_structural   Tb2YSi2Ag3Sn
_chemical_formula_sum   'Tb2 Y1 Si2 Ag3 Sn1'
_cell_volume   194.44290747
_cell_formula_units_Z   1
loop_
 _symmetry_equiv_pos_site_id
 _symmetry_equiv_pos_as_xyz
  1  'x, y, z'
loop_
 _atom_site_type_symbol
 _atom_site_label
 _atom_site_symmetry_multiplicity
 _atom_site_fract_x
 _atom_site_fract_y
 _atom_site_fract_z
 _atom_site_occupancy
  Tb  Tb0  1  0.567561  0.999790  0.000000  1
  Tb  Tb1  1  0.999790  0.567561  0.000000  1
  Y  Y2  1  0.432187  0.432187  0.000000  1
  Si  Si3  1  0.333698  0.666669  0.500000  1
  Si  Si4  1  0.666669  0.333698  0.500000  1
  Ag  Ag5  1  0.264199  0.000100  0.500000  1
  Ag  Ag6  1  0.000100  0.264199  0.500000  1
  Ag  Ag7  1  0.736201  0.736201  0.500000  1
  Sn  Sn8  1  0.999594  0.999594  0.000000  1
