# generated using pymatgen
data_Tm6Si5GeRh2
_symmetry_space_group_name_H-M   'P 1'
_cell_length_a   5.65990496
_cell_length_b   5.65990483
_cell_length_c   13.46570200
_cell_angle_alpha   71.11221636
_cell_angle_beta   71.11221680
_cell_angle_gamma   43.69389480
_symmetry_Int_Tables_number   1
_chemical_formula_structural   Tm6Si5GeRh2
_chemical_formula_sum   'Tm6 Si5 Ge1 Rh2'
_cell_volume   279.28026557
_cell_formula_units_Z   1
loop_
 _symmetry_equiv_pos_site_id
 _symmetry_equiv_pos_as_xyz
  1  'x, y, z'
loop_
 _atom_site_type_symbol
 _atom_site_label
 _atom_site_symmetry_multiplicity
 _atom_site_fract_x
 _atom_site_fract_y
 _atom_site_fract_z
 _atom_site_occupancy
  Tm  Tm0  1  0.741157  0.741157  0.773052  1
  Tm  Tm1  1  0.397404  0.397404  0.923607  1
  Tm  Tm2  1  0.601102  0.601102  0.080271  1
  Tm  Tm3  1  0.477633  0.477633  0.375569  1
  Tm  Tm4  1  0.256769  0.256769  0.226920  1
  Tm  Tm5  1  0.524400  0.524400  0.620949  1
  Si  Si6  1  0.130303  0.130303  0.454127  1
  Si  Si7  1  0.872116  0.872116  0.544224  1
  Si  Si8  1  0.952261  0.952261  0.237422  1
  Si  Si9  1  0.884758  0.884758  0.076289  1
  Si  Si10  1  0.117187  0.117187  0.927709  1
  Ge  Ge11  1  0.040107  0.040107  0.763977  1
  Rh  Rh12  1  0.753023  0.753023  0.413956  1
  Rh  Rh13  1  0.251780  0.251780  0.581927  1
