# generated using pymatgen
data_Zr2ScPtF15
_symmetry_space_group_name_H-M   'P 1'
_cell_length_a   7.97270377
_cell_length_b   7.97270345
_cell_length_c   8.03836397
_cell_angle_alpha   79.72421875
_cell_angle_beta   79.72421525
_cell_angle_gamma   99.78856076
_symmetry_Int_Tables_number   1
_chemical_formula_structural   Zr2ScPtF15
_chemical_formula_sum   'Zr4 Sc2 Pt2 F30'
_cell_volume   483.82248416
_cell_formula_units_Z   2
loop_
 _symmetry_equiv_pos_site_id
 _symmetry_equiv_pos_as_xyz
  1  'x, y, z'
loop_
 _atom_site_type_symbol
 _atom_site_label
 _atom_site_symmetry_multiplicity
 _atom_site_fract_x
 _atom_site_fract_y
 _atom_site_fract_z
 _atom_site_occupancy
  Zr  Zr0  1  0.822468  0.745933  0.327182  1
  Zr  Zr1  1  0.254067  0.177532  0.172818  1
  Zr  Zr2  1  0.177532  0.254067  0.672818  1
  Zr  Zr3  1  0.745933  0.822468  0.827182  1
  Sc  Sc4  1  0.676267  0.323733  0.750000  1
  Sc  Sc5  1  0.323733  0.676267  0.250000  1
  Pt  Pt6  1  0.249411  0.750589  0.750000  1
  Pt  Pt7  1  0.750589  0.249411  0.250000  1
  F  F8  1  0.150918  0.183770  0.946570  1
  F  F9  1  0.684750  0.555427  0.844784  1
  F  F10  1  0.052021  0.653753  0.313874  1
  F  F11  1  0.653753  0.052021  0.813874  1
  F  F12  1  0.555427  0.684750  0.344784  1
  F  F13  1  0.183770  0.150918  0.446570  1
  F  F14  1  0.849082  0.816230  0.053430  1
  F  F15  1  0.315250  0.444573  0.155216  1
  F  F16  1  0.947979  0.346247  0.686126  1
  F  F17  1  0.346247  0.947979  0.186126  1
  F  F18  1  0.444573  0.315250  0.655216  1
  F  F19  1  0.816230  0.849082  0.553430  1
  F  F20  1  0.969576  0.030424  0.750000  1
  F  F21  1  0.533613  0.750515  0.032320  1
  F  F22  1  0.249485  0.466387  0.467680  1
  F  F23  1  0.466387  0.249485  0.967680  1
  F  F24  1  0.750515  0.533613  0.532320  1
  F  F25  1  0.030424  0.969576  0.250000  1
  F  F26  1  0.210513  0.725550  0.003056  1
  F  F27  1  0.224097  0.494645  0.790755  1
  F  F28  1  0.993773  0.709262  0.776920  1
  F  F29  1  0.709262  0.993773  0.276920  1
  F  F30  1  0.494645  0.224097  0.290755  1
  F  F31  1  0.725550  0.210513  0.503056  1
  F  F32  1  0.789487  0.274450  0.996944  1
  F  F33  1  0.775903  0.505355  0.209245  1
  F  F34  1  0.006227  0.290738  0.223080  1
  F  F35  1  0.290738  0.006227  0.723080  1
  F  F36  1  0.505355  0.775903  0.709245  1
  F  F37  1  0.274450  0.789487  0.496944  1
