# generated using pymatgen
data_Hf2Mn3Cr5P4
_symmetry_space_group_name_H-M   'P 1'
_cell_length_a   7.06464296
_cell_length_b   6.62519019
_cell_length_c   3.76491800
_cell_angle_alpha   90.00000000
_cell_angle_beta   90.00000000
_cell_angle_gamma   90.13228601
_symmetry_Int_Tables_number   1
_chemical_formula_structural   Hf2Mn3Cr5P4
_chemical_formula_sum   'Hf2 Mn3 Cr5 P4'
_cell_volume   176.21502336
_cell_formula_units_Z   1
loop_
 _symmetry_equiv_pos_site_id
 _symmetry_equiv_pos_as_xyz
  1  'x, y, z'
loop_
 _atom_site_type_symbol
 _atom_site_label
 _atom_site_symmetry_multiplicity
 _atom_site_fract_x
 _atom_site_fract_y
 _atom_site_fract_z
 _atom_site_occupancy
  Hf  Hf0  1  0.497999  0.501231  0.000000  1
  Hf  Hf1  1  0.001122  0.002523  0.500000  1
  Mn  Mn2  1  0.834772  0.419837  0.500000  1
  Mn  Mn3  1  0.340840  0.078928  0.000000  1
  Mn  Mn4  1  0.663224  0.921487  0.000000  1
  Cr  Cr5  1  0.603526  0.144481  0.500000  1
  Cr  Cr6  1  0.397019  0.851806  0.500000  1
  Cr  Cr7  1  0.103956  0.351913  0.000000  1
  Cr  Cr8  1  0.896369  0.648663  0.000000  1
  Cr  Cr9  1  0.157576  0.576102  0.500000  1
  P  P10  1  0.697494  0.726453  0.500000  1
  P  P11  1  0.305723  0.272011  0.500000  1
  P  P12  1  0.197439  0.776854  0.000000  1
  P  P13  1  0.802940  0.227712  0.000000  1
