# generated using pymatgen
data_Sc3Al3ZnGeRh
_symmetry_space_group_name_H-M   'P 1'
_cell_length_a   6.72173100
_cell_length_b   6.72173142
_cell_length_c   4.07590400
_cell_angle_alpha   90.00000000
_cell_angle_beta   90.00000000
_cell_angle_gamma   120.00000285
_symmetry_Int_Tables_number   1
_chemical_formula_structural   Sc3Al3ZnGeRh
_chemical_formula_sum   'Sc3 Al3 Zn1 Ge1 Rh1'
_cell_volume   159.48390076
_cell_formula_units_Z   1
loop_
 _symmetry_equiv_pos_site_id
 _symmetry_equiv_pos_as_xyz
  1  'x, y, z'
loop_
 _atom_site_type_symbol
 _atom_site_label
 _atom_site_symmetry_multiplicity
 _atom_site_fract_x
 _atom_site_fract_y
 _atom_site_fract_z
 _atom_site_occupancy
  Sc  Sc0  1  0.417096  0.999522  0.000000  1
  Sc  Sc1  1  0.000478  0.417574  0.000000  1
  Sc  Sc2  1  0.582427  0.582905  0.000000  1
  Al  Al3  1  0.765795  0.007370  0.499999  1
  Al  Al4  1  0.241576  0.234205  0.499999  1
  Al  Al5  1  0.992630  0.758426  0.499999  1
  Zn  Zn6  1  0.666667  0.333333  0.499999  1
  Ge  Ge7  1  0.333333  0.666667  0.499999  1
  Rh  Rh8  1  0.000000  0.000000  0.000000  1
