# generated using pymatgen
data_Zr6Zn21Ni2B
_symmetry_space_group_name_H-M   'P 1'
_cell_length_a   8.67445520
_cell_length_b   8.65185405
_cell_length_c   8.65185525
_cell_angle_alpha   59.72752295
_cell_angle_beta   59.91354835
_cell_angle_gamma   59.91354937
_symmetry_Int_Tables_number   1
_chemical_formula_structural   Zr6Zn21Ni2B
_chemical_formula_sum   'Zr6 Zn21 Ni2 B1'
_cell_volume   457.59042978
_cell_formula_units_Z   1
loop_
 _symmetry_equiv_pos_site_id
 _symmetry_equiv_pos_as_xyz
  1  'x, y, z'
loop_
 _atom_site_type_symbol
 _atom_site_label
 _atom_site_symmetry_multiplicity
 _atom_site_fract_x
 _atom_site_fract_y
 _atom_site_fract_z
 _atom_site_occupancy
  Zr  Zr0  1  0.694938  0.305062  0.305062  1
  Zr  Zr1  1  0.305062  0.694938  0.694938  1
  Zr  Zr2  1  0.305061  0.692326  0.307674  1
  Zr  Zr3  1  0.694939  0.307674  0.692326  1
  Zr  Zr4  1  0.305061  0.307674  0.692326  1
  Zr  Zr5  1  0.694939  0.692326  0.307674  1
  Zn  Zn6  1  0.115717  0.117655  0.117655  1
  Zn  Zn7  1  0.884283  0.882345  0.882345  1
  Zn  Zn8  1  0.112832  0.128520  0.645817  1
  Zn  Zn9  1  0.112832  0.645817  0.128520  1
  Zn  Zn10  1  0.887168  0.871480  0.354183  1
  Zn  Zn11  1  0.887168  0.354183  0.871480  1
  Zn  Zn12  1  0.648974  0.117655  0.117655  1
  Zn  Zn13  1  0.351026  0.882345  0.882345  1
  Zn  Zn14  1  0.500000  0.000000  0.000000  1
  Zn  Zn15  1  0.000000  0.500000  0.000000  1
  Zn  Zn16  1  0.500000  0.000000  0.500000  1
  Zn  Zn17  1  0.000000  0.000000  0.500000  1
  Zn  Zn18  1  0.500000  0.500000  0.000000  1
  Zn  Zn19  1  0.324357  0.335696  0.335696  1
  Zn  Zn20  1  0.675643  0.664304  0.664304  1
  Zn  Zn21  1  0.331990  0.331784  0.004238  1
  Zn  Zn22  1  0.331990  0.004238  0.331784  1
  Zn  Zn23  1  0.668010  0.668216  0.995762  1
  Zn  Zn24  1  0.668010  0.995762  0.668216  1
  Zn  Zn25  1  0.004253  0.335696  0.335696  1
  Zn  Zn26  1  0.995747  0.664304  0.664304  1
  Ni  Ni27  1  0.000000  0.500000  0.500000  1
  Ni  Ni28  1  0.000000  0.000000  0.000000  1
  B  B29  1  0.500000  0.500000  0.500000  1
