# generated using pymatgen
data_TbDy5GaSiTc
_symmetry_space_group_name_H-M   'P 1'
_cell_length_a   8.43830976
_cell_length_b   8.43803642
_cell_length_c   8.43831045
_cell_angle_alpha   104.83626270
_cell_angle_beta   111.68667688
_cell_angle_gamma   111.98921848
_symmetry_Int_Tables_number   1
_chemical_formula_structural   TbDy5GaSiTc
_chemical_formula_sum   'Tb2 Dy10 Ga2 Si2 Tc2'
_cell_volume   460.26314908
_cell_formula_units_Z   2
loop_
 _symmetry_equiv_pos_site_id
 _symmetry_equiv_pos_as_xyz
  1  'x, y, z'
loop_
 _atom_site_type_symbol
 _atom_site_label
 _atom_site_symmetry_multiplicity
 _atom_site_fract_x
 _atom_site_fract_y
 _atom_site_fract_z
 _atom_site_occupancy
  Tb  Tb0  1  0.047294  0.228579  0.818679  1
  Tb  Tb1  1  0.409900  0.228579  0.181287  1
  Dy  Dy2  1  0.693610  0.257390  0.950757  1
  Dy  Dy3  1  0.306496  0.742745  0.049233  1
  Dy  Dy4  1  0.693511  0.742745  0.436249  1
  Dy  Dy5  1  0.306633  0.257390  0.563778  1
  Dy  Dy6  1  0.810825  0.144803  0.333979  1
  Dy  Dy7  1  0.810854  0.476769  0.665913  1
  Dy  Dy8  1  0.189044  0.854788  0.665744  1
  Dy  Dy9  1  0.188986  0.523369  0.334383  1
  Dy  Dy10  1  0.589984  0.771394  0.818678  1
  Dy  Dy11  1  0.952715  0.771394  0.181412  1
  Ga  Ga12  1  0.501106  0.501099  0.999992  1
  Ga  Ga13  1  0.499777  0.999713  0.499936  1
  Si  Si14  1  0.999253  0.113921  0.114667  1
  Si  Si15  1  0.999197  0.884518  0.885321  1
  Tc  Tc16  1  0.825893  0.500402  0.325480  1
  Tc  Tc17  1  0.174923  0.500402  0.674509  1
