# generated using pymatgen
data_Rb3Lu(PS4)2
_symmetry_space_group_name_H-M   'P 1'
_cell_length_a   6.85148600
_cell_length_b   15.25333435
_cell_length_c   15.42007000
_cell_angle_alpha   99.83261091
_cell_angle_beta   90.00000000
_cell_angle_gamma   90.00000000
_symmetry_Int_Tables_number   1
_chemical_formula_structural   Rb3Lu(PS4)2
_chemical_formula_sum   'Rb12 Lu4 P8 S32'
_cell_volume   1587.84892679
_cell_formula_units_Z   4
loop_
 _symmetry_equiv_pos_site_id
 _symmetry_equiv_pos_as_xyz
  1  'x, y, z'
loop_
 _atom_site_type_symbol
 _atom_site_label
 _atom_site_symmetry_multiplicity
 _atom_site_fract_x
 _atom_site_fract_y
 _atom_site_fract_z
 _atom_site_occupancy
  Rb  Rb0  1  0.257673  0.723997  0.877296  1
  Rb  Rb1  1  0.254694  0.544010  0.614822  1
  Rb  Rb2  1  0.754694  0.955990  0.885178  1
  Rb  Rb3  1  0.757673  0.776003  0.622704  1
  Rb  Rb4  1  0.757541  0.610608  0.023905  1
  Rb  Rb5  1  0.745306  0.455990  0.385178  1
  Rb  Rb6  1  0.242459  0.389392  0.976095  1
  Rb  Rb7  1  0.242327  0.223997  0.377296  1
  Rb  Rb8  1  0.257541  0.889392  0.476095  1
  Rb  Rb9  1  0.742459  0.110608  0.523905  1
  Rb  Rb10  1  0.245306  0.044010  0.114822  1
  Rb  Rb11  1  0.742327  0.276003  0.122704  1
  Lu  Lu12  1  0.230774  0.123094  0.767998  1
  Lu  Lu13  1  0.730774  0.376906  0.732002  1
  Lu  Lu14  1  0.269226  0.623094  0.267998  1
  Lu  Lu15  1  0.769226  0.876906  0.232002  1
  P  P16  1  0.255312  0.917594  0.725956  1
  P  P17  1  0.726544  0.716970  0.367273  1
  P  P18  1  0.244688  0.417594  0.225956  1
  P  P19  1  0.273456  0.283030  0.632727  1
  P  P20  1  0.755312  0.582406  0.774044  1
  P  P21  1  0.226544  0.783030  0.132727  1
  P  P22  1  0.744688  0.082406  0.274044  1
  P  P23  1  0.773456  0.216970  0.867273  1
  S  S24  1  0.010877  0.486654  0.187786  1
  S  S25  1  0.752900  0.852114  0.407049  1
  S  S26  1  0.486430  0.666661  0.422554  1
  S  S27  1  0.657518  0.702235  0.235085  1
  S  S28  1  0.510877  0.013346  0.312214  1
  S  S29  1  0.738880  0.213234  0.328082  1
  S  S30  1  0.513570  0.333339  0.577446  1
  S  S31  1  0.990579  0.019942  0.312741  1
  S  S32  1  0.747586  0.051605  0.139347  1
  S  S33  1  0.527073  0.153014  0.899439  1
  S  S34  1  0.986430  0.833339  0.077446  1
  S  S35  1  0.509421  0.519942  0.812741  1
  S  S36  1  0.489123  0.986654  0.687786  1
  S  S37  1  0.472927  0.846986  0.100561  1
  S  S38  1  0.261120  0.786766  0.671918  1
  S  S39  1  0.342482  0.297765  0.764915  1
  S  S40  1  0.009421  0.980058  0.687259  1
  S  S41  1  0.490579  0.480058  0.187259  1
  S  S42  1  0.157518  0.797765  0.264915  1
  S  S43  1  0.972927  0.653014  0.399439  1
  S  S44  1  0.027073  0.346986  0.600561  1
  S  S45  1  0.842482  0.202235  0.735085  1
  S  S46  1  0.252900  0.647886  0.092951  1
  S  S47  1  0.238880  0.286766  0.171918  1
  S  S48  1  0.747100  0.352114  0.907049  1
  S  S49  1  0.752414  0.551605  0.639347  1
  S  S50  1  0.989123  0.513346  0.812214  1
  S  S51  1  0.247586  0.448395  0.360653  1
  S  S52  1  0.013570  0.166661  0.922554  1
  S  S53  1  0.761120  0.713234  0.828082  1
  S  S54  1  0.252414  0.948395  0.860653  1
  S  S55  1  0.247100  0.147886  0.592951  1
