# generated using pymatgen
data_Tb6Ho(TmSn2)3
_symmetry_space_group_name_H-M   'P 1'
_cell_length_a   6.51511200
_cell_length_b   8.96983260
_cell_length_c   8.97252802
_cell_angle_alpha   119.99572002
_cell_angle_beta   89.99936559
_cell_angle_gamma   90.00102504
_symmetry_Int_Tables_number   1
_chemical_formula_structural   Tb6Ho(TmSn2)3
_chemical_formula_sum   'Tb6 Ho1 Tm3 Sn6'
_cell_volume   454.11976796
_cell_formula_units_Z   1
loop_
 _symmetry_equiv_pos_site_id
 _symmetry_equiv_pos_as_xyz
  1  'x, y, z'
loop_
 _atom_site_type_symbol
 _atom_site_label
 _atom_site_symmetry_multiplicity
 _atom_site_fract_x
 _atom_site_fract_y
 _atom_site_fract_z
 _atom_site_occupancy
  Tb  Tb0  1  0.750155  0.239685  0.000091  1
  Tb  Tb1  1  0.750146  0.760309  0.760307  1
  Tb  Tb2  1  0.750145  0.999879  0.239627  1
  Tb  Tb3  1  0.249851  0.760400  0.000057  1
  Tb  Tb4  1  0.249853  0.239764  0.239623  1
  Tb  Tb5  1  0.249850  0.999983  0.760292  1
  Ho  Ho6  1  0.500005  0.333379  0.666725  1
  Tm  Tm7  1  0.500000  0.666642  0.333298  1
  Tm  Tm8  1  0.999995  0.666613  0.333256  1
  Tm  Tm9  1  0.999995  0.333367  0.666713  1
  Sn  Sn10  1  0.750546  0.604372  0.000603  1
  Sn  Sn11  1  0.750550  0.396146  0.395573  1
  Sn  Sn12  1  0.750541  0.999402  0.603853  1
  Sn  Sn13  1  0.249456  0.396216  0.000577  1
  Sn  Sn14  1  0.249461  0.604446  0.603848  1
  Sn  Sn15  1  0.249450  0.999400  0.395556  1
