# generated using pymatgen
data_TbLu15Cd4TcNi3
_symmetry_space_group_name_H-M   'P 1'
_cell_length_a   9.42498058
_cell_length_b   9.42498072
_cell_length_c   9.43417665
_cell_angle_alpha   59.66480908
_cell_angle_beta   59.66480580
_cell_angle_gamma   59.53853351
_symmetry_Int_Tables_number   1
_chemical_formula_structural   TbLu15Cd4TcNi3
_chemical_formula_sum   'Tb1 Lu15 Cd4 Tc1 Ni3'
_cell_volume   587.50126959
_cell_formula_units_Z   1
loop_
 _symmetry_equiv_pos_site_id
 _symmetry_equiv_pos_as_xyz
  1  'x, y, z'
loop_
 _atom_site_type_symbol
 _atom_site_label
 _atom_site_symmetry_multiplicity
 _atom_site_fract_x
 _atom_site_fract_y
 _atom_site_fract_z
 _atom_site_occupancy
  Tb  Tb0  1  0.939147  0.939147  0.555529  1
  Lu  Lu1  1  0.347526  0.347526  0.347422  1
  Lu  Lu2  1  0.351688  0.351688  0.954499  1
  Lu  Lu3  1  0.352666  0.954954  0.350654  1
  Lu  Lu4  1  0.954954  0.352666  0.350654  1
  Lu  Lu5  1  0.810595  0.188210  0.186509  1
  Lu  Lu6  1  0.187813  0.810819  0.811994  1
  Lu  Lu7  1  0.188210  0.810595  0.186509  1
  Lu  Lu8  1  0.810819  0.187813  0.811994  1
  Lu  Lu9  1  0.187435  0.187435  0.811306  1
  Lu  Lu10  1  0.811464  0.811464  0.186717  1
  Lu  Lu11  1  0.935449  0.563186  0.564380  1
  Lu  Lu12  1  0.554100  0.939376  0.940562  1
  Lu  Lu13  1  0.563186  0.935449  0.564380  1
  Lu  Lu14  1  0.939376  0.554100  0.940562  1
  Lu  Lu15  1  0.564587  0.564587  0.935570  1
  Cd  Cd16  1  0.580533  0.580533  0.580618  1
  Cd  Cd17  1  0.580692  0.580692  0.254864  1
  Cd  Cd18  1  0.578811  0.256350  0.580756  1
  Cd  Cd19  1  0.256350  0.578811  0.580756  1
  Tc  Tc20  1  0.144117  0.144117  0.143278  1
  Ni  Ni21  1  0.142693  0.142693  0.575766  1
  Ni  Ni22  1  0.142389  0.575403  0.142360  1
  Ni  Ni23  1  0.575403  0.142389  0.142360  1
