# generated using pymatgen
data_K3Ho(PS4)2
_symmetry_space_group_name_H-M   'P 1'
_cell_length_a   15.14608431
_cell_length_b   6.80178200
_cell_length_c   15.23441200
_cell_angle_alpha   90.00000000
_cell_angle_beta   99.64320869
_cell_angle_gamma   90.00000000
_symmetry_Int_Tables_number   1
_chemical_formula_structural   K3Ho(PS4)2
_chemical_formula_sum   'K12 Ho4 P8 S32'
_cell_volume   1547.27825516
_cell_formula_units_Z   4
loop_
 _symmetry_equiv_pos_site_id
 _symmetry_equiv_pos_as_xyz
  1  'x, y, z'
loop_
 _atom_site_type_symbol
 _atom_site_label
 _atom_site_symmetry_multiplicity
 _atom_site_fract_x
 _atom_site_fract_y
 _atom_site_fract_z
 _atom_site_occupancy
  K  K0  1  0.618420  0.762163  0.020931  1
  K  K1  1  0.039932  0.243660  0.124193  1
  K  K2  1  0.274773  0.743002  0.127365  1
  K  K3  1  0.225227  0.243001  0.372635  1
  K  K4  1  0.460068  0.743660  0.375807  1
  K  K5  1  0.881581  0.262163  0.479069  1
  K  K6  1  0.118420  0.737837  0.520932  1
  K  K7  1  0.539931  0.256340  0.624192  1
  K  K8  1  0.774773  0.756998  0.627365  1
  K  K9  1  0.725227  0.256998  0.872635  1
  K  K10  1  0.960068  0.756341  0.875808  1
  K  K11  1  0.381580  0.237838  0.979068  1
  Ho  Ho12  1  0.879669  0.768942  0.232992  1
  Ho  Ho13  1  0.620331  0.268941  0.267008  1
  Ho  Ho14  1  0.379669  0.731059  0.732992  1
  Ho  Ho15  1  0.120331  0.231058  0.767008  1
  P  P16  1  0.784511  0.226326  0.130213  1
  P  P17  1  0.410982  0.244803  0.224077  1
  P  P18  1  0.089018  0.744803  0.275923  1
  P  P19  1  0.715489  0.726325  0.369787  1
  P  P20  1  0.284511  0.273674  0.630212  1
  P  P21  1  0.910982  0.255196  0.724077  1
  P  P22  1  0.589018  0.755197  0.775923  1
  P  P23  1  0.215489  0.773675  0.869787  1
  S  S24  1  0.833390  0.984347  0.073429  1
  S  S25  1  0.648942  0.255828  0.088158  1
  S  S26  1  0.851084  0.471207  0.098185  1
  S  S27  1  0.058763  0.747302  0.139588  1
  S  S28  1  0.279740  0.236754  0.168590  1
  S  S29  1  0.472889  0.493341  0.184319  1
  S  S30  1  0.480711  0.009678  0.184333  1
  S  S31  1  0.699877  0.658497  0.235425  1
  S  S32  1  0.800123  0.158498  0.264575  1
  S  S33  1  0.019290  0.509679  0.315667  1
  S  S34  1  0.027111  0.993340  0.315680  1
  S  S35  1  0.220261  0.736755  0.331411  1
  S  S36  1  0.441237  0.247302  0.360412  1
  S  S37  1  0.648916  0.971207  0.401815  1
  S  S38  1  0.851057  0.755827  0.411843  1
  S  S39  1  0.666610  0.484346  0.426570  1
  S  S40  1  0.333390  0.515653  0.573429  1
  S  S41  1  0.148943  0.244173  0.588158  1
  S  S42  1  0.351084  0.028792  0.598185  1
  S  S43  1  0.558763  0.752698  0.639588  1
  S  S44  1  0.779740  0.263245  0.668589  1
  S  S45  1  0.972889  0.006659  0.684319  1
  S  S46  1  0.980710  0.490322  0.684333  1
  S  S47  1  0.199877  0.841503  0.735425  1
  S  S48  1  0.300123  0.341502  0.764576  1
  S  S49  1  0.519290  0.990323  0.815667  1
  S  S50  1  0.527111  0.506660  0.815681  1
  S  S51  1  0.720260  0.763245  0.831411  1
  S  S52  1  0.941237  0.252698  0.860412  1
  S  S53  1  0.148916  0.528793  0.901816  1
  S  S54  1  0.351058  0.744173  0.911842  1
  S  S55  1  0.166610  0.015653  0.926570  1
