# generated using pymatgen
data_TbTmLu4(Al3Os)8
_symmetry_space_group_name_H-M   'P 1'
_cell_length_a   8.76576520
_cell_length_b   8.76543715
_cell_length_c   9.58841600
_cell_angle_alpha   90.00000000
_cell_angle_beta   90.00000000
_cell_angle_gamma   119.94080265
_symmetry_Int_Tables_number   1
_chemical_formula_structural   TbTmLu4(Al3Os)8
_chemical_formula_sum   'Tb1 Tm1 Lu4 Al24 Os8'
_cell_volume   638.40997728
_cell_formula_units_Z   1
loop_
 _symmetry_equiv_pos_site_id
 _symmetry_equiv_pos_as_xyz
  1  'x, y, z'
loop_
 _atom_site_type_symbol
 _atom_site_label
 _atom_site_symmetry_multiplicity
 _atom_site_fract_x
 _atom_site_fract_y
 _atom_site_fract_z
 _atom_site_occupancy
  Tb  Tb0  1  0.807685  0.192246  0.750000  1
  Tm  Tm1  1  0.804324  0.608903  0.750000  1
  Lu  Lu2  1  0.194807  0.390965  0.250000  1
  Lu  Lu3  1  0.609006  0.805176  0.250000  1
  Lu  Lu4  1  0.391673  0.195942  0.750000  1
  Lu  Lu5  1  0.194876  0.805116  0.250000  1
  Al  Al6  1  0.333169  0.666823  0.022947  1
  Al  Al7  1  0.666511  0.333284  0.978841  1
  Al  Al8  1  0.666511  0.333284  0.521159  1
  Al  Al9  1  0.333169  0.666823  0.477053  1
  Al  Al10  1  0.164373  0.327680  0.575780  1
  Al  Al11  1  0.836351  0.673246  0.423158  1
  Al  Al12  1  0.672287  0.835658  0.575780  1
  Al  Al13  1  0.836351  0.673246  0.076842  1
  Al  Al14  1  0.326762  0.163664  0.423223  1
  Al  Al15  1  0.164373  0.327680  0.924220  1
  Al  Al16  1  0.163585  0.836513  0.575915  1
  Al  Al17  1  0.326762  0.163664  0.076777  1
  Al  Al18  1  0.836379  0.163645  0.422130  1
  Al  Al19  1  0.672287  0.835658  0.924220  1
  Al  Al20  1  0.836379  0.163645  0.077870  1
  Al  Al21  1  0.163585  0.836513  0.924085  1
  Al  Al22  1  0.560922  0.123344  0.250000  1
  Al  Al23  1  0.437220  0.875911  0.750000  1
  Al  Al24  1  0.876662  0.439074  0.250000  1
  Al  Al25  1  0.124264  0.562760  0.750000  1
  Al  Al26  1  0.561123  0.438860  0.250000  1
  Al  Al27  1  0.438166  0.561617  0.750000  1
  Al  Al28  1  0.999522  0.000462  0.250000  1
  Al  Al29  1  0.002865  0.997401  0.750000  1
  Os  Os30  1  0.498924  0.999327  0.001065  1
  Os  Os31  1  0.000677  0.500951  0.001148  1
  Os  Os32  1  0.498924  0.999327  0.498935  1
  Os  Os33  1  0.499603  0.500145  0.000390  1
  Os  Os34  1  0.000677  0.500951  0.498852  1
  Os  Os35  1  0.499603  0.500145  0.499610  1
  Os  Os36  1  0.999820  0.000178  0.000097  1
  Os  Os37  1  0.999820  0.000178  0.499903  1
