# generated using pymatgen
data_Ca6PrSm(Si3Pd)4
_symmetry_space_group_name_H-M   'P 1'
_cell_length_a   8.26016900
_cell_length_b   8.26016995
_cell_length_c   8.41458800
_cell_angle_alpha   90.00000000
_cell_angle_beta   90.00000000
_cell_angle_gamma   120.00000021
_symmetry_Int_Tables_number   1
_chemical_formula_structural   Ca6PrSm(Si3Pd)4
_chemical_formula_sum   'Ca6 Pr1 Sm1 Si12 Pd4'
_cell_volume   497.21177278
_cell_formula_units_Z   1
loop_
 _symmetry_equiv_pos_site_id
 _symmetry_equiv_pos_as_xyz
  1  'x, y, z'
loop_
 _atom_site_type_symbol
 _atom_site_label
 _atom_site_symmetry_multiplicity
 _atom_site_fract_x
 _atom_site_fract_y
 _atom_site_fract_z
 _atom_site_occupancy
  Ca  Ca0  1  0.499362  0.500638  0.750000  1
  Ca  Ca1  1  0.500634  0.499366  0.250000  1
  Ca  Ca2  1  0.001276  0.500638  0.750000  1
  Ca  Ca3  1  0.998730  0.499366  0.250000  1
  Ca  Ca4  1  0.499362  0.998724  0.750000  1
  Ca  Ca5  1  0.500634  0.001270  0.250000  1
  Pr  Pr6  1  0.000000  0.000000  0.250000  1
  Sm  Sm7  1  0.000000  0.000000  0.750000  1
  Si  Si8  1  0.834617  0.165383  0.998370  1
  Si  Si9  1  0.165377  0.834623  0.998018  1
  Si  Si10  1  0.330767  0.165383  0.998370  1
  Si  Si11  1  0.165377  0.834623  0.501982  1
  Si  Si12  1  0.669245  0.834623  0.998018  1
  Si  Si13  1  0.834617  0.165383  0.501630  1
  Si  Si14  1  0.834617  0.669233  0.998370  1
  Si  Si15  1  0.669245  0.834623  0.501982  1
  Si  Si16  1  0.165377  0.330755  0.998018  1
  Si  Si17  1  0.330767  0.165383  0.501630  1
  Si  Si18  1  0.165377  0.330755  0.501982  1
  Si  Si19  1  0.834617  0.669233  0.501630  1
  Pd  Pd20  1  0.666667  0.333333  0.997354  1
  Pd  Pd21  1  0.333333  0.666667  0.001808  1
  Pd  Pd22  1  0.333333  0.666667  0.498192  1
  Pd  Pd23  1  0.666667  0.333333  0.502646  1
