# generated using pymatgen
data_Tb4Ga12Rh
_symmetry_space_group_name_H-M   'P 1'
_cell_length_a   7.48257982
_cell_length_b   7.48257988
_cell_length_c   7.48258000
_cell_angle_alpha   109.47121825
_cell_angle_beta   109.47121843
_cell_angle_gamma   109.47122266
_symmetry_Int_Tables_number   1
_chemical_formula_structural   Tb4Ga12Rh
_chemical_formula_sum   'Tb4 Ga12 Rh1'
_cell_volume   322.50185112
_cell_formula_units_Z   1
loop_
 _symmetry_equiv_pos_site_id
 _symmetry_equiv_pos_as_xyz
  1  'x, y, z'
loop_
 _atom_site_type_symbol
 _atom_site_label
 _atom_site_symmetry_multiplicity
 _atom_site_fract_x
 _atom_site_fract_y
 _atom_site_fract_z
 _atom_site_occupancy
  Tb  Tb0  1  0.500000  0.500000  0.500000  1
  Tb  Tb1  1  0.000000  0.500000  0.000000  1
  Tb  Tb2  1  0.000000  0.000000  0.500000  1
  Tb  Tb3  1  0.500000  0.000000  0.000000  1
  Ga  Ga4  1  0.750000  0.250000  0.500000  1
  Ga  Ga5  1  0.000000  0.708657  0.708657  1
  Ga  Ga6  1  0.291343  0.000000  0.291343  1
  Ga  Ga7  1  0.500000  0.250000  0.750000  1
  Ga  Ga8  1  0.750000  0.500000  0.250000  1
  Ga  Ga9  1  0.250000  0.750000  0.500000  1
  Ga  Ga10  1  0.250000  0.500000  0.750000  1
  Ga  Ga11  1  0.708657  0.000000  0.708657  1
  Ga  Ga12  1  0.500000  0.750000  0.250000  1
  Ga  Ga13  1  0.708657  0.708657  0.000000  1
  Ga  Ga14  1  0.291343  0.291343  0.000000  1
  Ga  Ga15  1  0.000000  0.291343  0.291343  1
  Rh  Rh16  1  0.000000  0.000000  0.000000  1
