# generated using pymatgen
data_Ta3Mn3N
_symmetry_space_group_name_H-M   'P 1'
_cell_length_a   8.01384600
_cell_length_b   8.01402400
_cell_length_c   8.01429200
_cell_angle_alpha   120.00109800
_cell_angle_beta   90.00000000
_cell_angle_gamma   119.99856588
_symmetry_Int_Tables_number   1
_chemical_formula_structural   Ta3Mn3N
_chemical_formula_sum   'Ta12 Mn12 N4'
_cell_volume   363.95190860
_cell_formula_units_Z   4
loop_
 _symmetry_equiv_pos_site_id
 _symmetry_equiv_pos_as_xyz
  1  'x, y, z'
loop_
 _atom_site_type_symbol
 _atom_site_label
 _atom_site_symmetry_multiplicity
 _atom_site_fract_x
 _atom_site_fract_y
 _atom_site_fract_z
 _atom_site_occupancy
  Ta  Ta0  1  0.320791  0.749981  0.179194  1
  Ta  Ta1  1  0.929191  0.749983  0.179182  1
  Ta  Ta2  1  0.929203  0.358389  0.179195  1
  Ta  Ta3  1  0.679209  0.250020  0.429213  1
  Ta  Ta4  1  0.679197  0.858403  0.429201  1
  Ta  Ta5  1  0.070810  0.250018  0.429200  1
  Ta  Ta6  1  0.320791  0.749981  0.570787  1
  Ta  Ta7  1  0.929191  0.749983  0.570801  1
  Ta  Ta8  1  0.320803  0.141597  0.570799  1
  Ta  Ta9  1  0.679209  0.250020  0.820806  1
  Ta  Ta10  1  0.070810  0.250018  0.820819  1
  Ta  Ta11  1  0.070798  0.641612  0.820806  1
  Mn  Mn12  1  0.000000  0.000000  0.000000  1
  Mn  Mn13  1  0.500000  0.000000  0.000000  1
  Mn  Mn14  1  0.500000  0.500000  0.000000  1
  Mn  Mn15  1  0.700656  0.901358  0.101977  1
  Mn  Mn16  1  0.299226  0.401464  0.200732  1
  Mn  Mn17  1  0.602141  0.401369  0.200685  1
  Mn  Mn18  1  0.299344  0.098642  0.200620  1
  Mn  Mn19  1  0.500000  0.500000  0.500000  1
  Mn  Mn20  1  0.397860  0.598632  0.799316  1
  Mn  Mn21  1  0.700774  0.598537  0.799269  1
  Mn  Mn22  1  0.700656  0.901358  0.799381  1
  Mn  Mn23  1  0.299344  0.098642  0.898023  1
  N  N24  1  0.000000  0.500000  0.000000  1
  N  N25  1  0.000000  0.000000  0.500000  1
  N  N26  1  0.000000  0.500000  0.500000  1
  N  N27  1  0.500000  0.000000  0.500000  1
