# generated using pymatgen
data_Rb3Zr7BBr20
_symmetry_space_group_name_H-M   'P 1'
_cell_length_a   14.38736516
_cell_length_b   14.38736642
_cell_length_c   14.38736700
_cell_angle_alpha   55.84815288
_cell_angle_beta   55.84814948
_cell_angle_gamma   55.84815471
_symmetry_Int_Tables_number   1
_chemical_formula_structural   Rb3Zr7BBr20
_chemical_formula_sum   'Rb6 Zr14 B2 Br40'
_cell_volume   1903.16489620
_cell_formula_units_Z   2
loop_
 _symmetry_equiv_pos_site_id
 _symmetry_equiv_pos_as_xyz
  1  'x, y, z'
loop_
 _atom_site_type_symbol
 _atom_site_label
 _atom_site_symmetry_multiplicity
 _atom_site_fract_x
 _atom_site_fract_y
 _atom_site_fract_z
 _atom_site_occupancy
  Rb  Rb0  1  0.500000  0.000000  0.500000  1
  Rb  Rb1  1  0.000000  0.500000  0.500000  1
  Rb  Rb2  1  0.500000  0.000000  0.000000  1
  Rb  Rb3  1  0.500000  0.500000  0.000000  1
  Rb  Rb4  1  0.000000  0.000000  0.500000  1
  Rb  Rb5  1  0.000000  0.500000  0.000000  1
  Zr  Zr6  1  0.327177  0.449708  0.610655  1
  Zr  Zr7  1  0.389345  0.672823  0.550292  1
  Zr  Zr8  1  0.550292  0.389345  0.672823  1
  Zr  Zr9  1  0.949708  0.827177  0.110655  1
  Zr  Zr10  1  0.250000  0.250000  0.250000  1
  Zr  Zr11  1  0.610655  0.327177  0.449708  1
  Zr  Zr12  1  0.172823  0.889345  0.050292  1
  Zr  Zr13  1  0.050292  0.172823  0.889345  1
  Zr  Zr14  1  0.889345  0.050292  0.172823  1
  Zr  Zr15  1  0.672823  0.550292  0.389345  1
  Zr  Zr16  1  0.827177  0.110655  0.949708  1
  Zr  Zr17  1  0.449708  0.610655  0.327177  1
  Zr  Zr18  1  0.110655  0.949708  0.827177  1
  Zr  Zr19  1  0.750000  0.750000  0.750000  1
  B  B20  1  0.000000  0.000000  0.000000  1
  B  B21  1  0.500000  0.500000  0.500000  1
  Br  Br22  1  0.857780  0.325665  0.817795  1
  Br  Br23  1  0.674335  0.182205  0.142220  1
  Br  Br24  1  0.431432  0.571556  0.753413  1
  Br  Br25  1  0.822416  0.822416  0.822416  1
  Br  Br26  1  0.428444  0.246587  0.568568  1
  Br  Br27  1  0.571556  0.753413  0.431432  1
  Br  Br28  1  0.568568  0.428444  0.246587  1
  Br  Br29  1  0.317795  0.825665  0.357780  1
  Br  Br30  1  0.253413  0.071556  0.931432  1
  Br  Br31  1  0.894607  0.605393  0.250000  1
  Br  Br32  1  0.753413  0.431432  0.571556  1
  Br  Br33  1  0.250000  0.438228  0.061772  1
  Br  Br34  1  0.438228  0.061772  0.250000  1
  Br  Br35  1  0.177584  0.177584  0.177584  1
  Br  Br36  1  0.142220  0.674335  0.182205  1
  Br  Br37  1  0.605393  0.250000  0.894607  1
  Br  Br38  1  0.938228  0.750000  0.561772  1
  Br  Br39  1  0.182205  0.142220  0.674335  1
  Br  Br40  1  0.642220  0.682205  0.174335  1
  Br  Br41  1  0.682205  0.174335  0.642220  1
  Br  Br42  1  0.068568  0.746587  0.928444  1
  Br  Br43  1  0.750000  0.561772  0.938228  1
  Br  Br44  1  0.061772  0.250000  0.438228  1
  Br  Br45  1  0.174335  0.642220  0.682205  1
  Br  Br46  1  0.561772  0.938228  0.750000  1
  Br  Br47  1  0.746587  0.928444  0.068568  1
  Br  Br48  1  0.931432  0.253413  0.071556  1
  Br  Br49  1  0.825665  0.357780  0.317795  1
  Br  Br50  1  0.322416  0.322416  0.322416  1
  Br  Br51  1  0.250000  0.894607  0.605393  1
  Br  Br52  1  0.677584  0.677584  0.677584  1
  Br  Br53  1  0.246587  0.568568  0.428444  1
  Br  Br54  1  0.105393  0.394607  0.750000  1
  Br  Br55  1  0.071556  0.931432  0.253413  1
  Br  Br56  1  0.928444  0.068568  0.746587  1
  Br  Br57  1  0.394607  0.750000  0.105393  1
  Br  Br58  1  0.750000  0.105393  0.394607  1
  Br  Br59  1  0.325665  0.817795  0.857780  1
  Br  Br60  1  0.357780  0.317795  0.825665  1
  Br  Br61  1  0.817795  0.857780  0.325665  1
