# generated using pymatgen
data_AcLa7(CdTc)2
_symmetry_space_group_name_H-M   'P 1'
_cell_length_a   10.15528630
_cell_length_b   10.16150534
_cell_length_c   10.14842941
_cell_angle_alpha   59.93634600
_cell_angle_beta   59.97764423
_cell_angle_gamma   60.02024077
_symmetry_Int_Tables_number   1
_chemical_formula_structural   AcLa7(CdTc)2
_chemical_formula_sum   'Ac2 La14 Cd4 Tc4'
_cell_volume   740.14642097
_cell_formula_units_Z   2
loop_
 _symmetry_equiv_pos_site_id
 _symmetry_equiv_pos_as_xyz
  1  'x, y, z'
loop_
 _atom_site_type_symbol
 _atom_site_label
 _atom_site_symmetry_multiplicity
 _atom_site_fract_x
 _atom_site_fract_y
 _atom_site_fract_z
 _atom_site_occupancy
  Ac  Ac0  1  0.942481  0.942376  0.558767  1
  Ac  Ac1  1  0.556376  0.942376  0.558767  1
  La  La2  1  0.556076  0.943021  0.944827  1
  La  La3  1  0.688785  0.687408  0.310834  1
  La  La4  1  0.154060  0.157319  0.534560  1
  La  La5  1  0.312555  0.685564  0.689326  1
  La  La6  1  0.155713  0.155899  0.153012  1
  La  La7  1  0.535376  0.155899  0.153012  1
  La  La8  1  0.312973  0.687408  0.310834  1
  La  La9  1  0.310904  0.313002  0.689048  1
  La  La10  1  0.687046  0.313002  0.689048  1
  La  La11  1  0.945261  0.553698  0.555779  1
  La  La12  1  0.556267  0.555921  0.944915  1
  La  La13  1  0.154717  0.535252  0.155314  1
  La  La14  1  0.688366  0.313754  0.309515  1
  La  La15  1  0.942897  0.555921  0.944915  1
  Cd  Cd16  1  0.233078  0.921620  0.923757  1
  Cd  Cd17  1  0.921544  0.921620  0.923757  1
  Cd  Cd18  1  0.923524  0.921583  0.231369  1
  Cd  Cd19  1  0.921938  0.233968  0.922156  1
  Tc  Tc20  1  0.900402  0.367698  0.365948  1
  Tc  Tc21  1  0.366899  0.367248  0.898953  1
  Tc  Tc22  1  0.366808  0.900745  0.365638  1
  Tc  Tc23  1  0.365951  0.367698  0.365948  1
