# generated using pymatgen
data_Ho3LuGa4Ni3Ru
_symmetry_space_group_name_H-M   'P 1'
_cell_length_a   4.22337800
_cell_length_b   6.71343597
_cell_length_c   7.51889132
_cell_angle_alpha   89.87630949
_cell_angle_beta   90.00000000
_cell_angle_gamma   90.00000000
_symmetry_Int_Tables_number   1
_chemical_formula_structural   Ho3LuGa4Ni3Ru
_chemical_formula_sum   'Ho3 Lu1 Ga4 Ni3 Ru1'
_cell_volume   213.18546916
_cell_formula_units_Z   1
loop_
 _symmetry_equiv_pos_site_id
 _symmetry_equiv_pos_as_xyz
  1  'x, y, z'
loop_
 _atom_site_type_symbol
 _atom_site_label
 _atom_site_symmetry_multiplicity
 _atom_site_fract_x
 _atom_site_fract_y
 _atom_site_fract_z
 _atom_site_occupancy
  Ho  Ho0  1  0.250000  0.527145  0.685738  1
  Ho  Ho1  1  0.250000  0.021237  0.813257  1
  Ho  Ho2  1  0.750000  0.477309  0.309065  1
  Lu  Lu3  1  0.750000  0.978122  0.190025  1
  Ga  Ga4  1  0.750000  0.339257  0.923392  1
  Ga  Ga5  1  0.250000  0.158653  0.440270  1
  Ga  Ga6  1  0.750000  0.839352  0.567262  1
  Ga  Ga7  1  0.250000  0.664872  0.069474  1
  Ni  Ni8  1  0.250000  0.785416  0.389689  1
  Ni  Ni9  1  0.750000  0.722285  0.889071  1
  Ni  Ni10  1  0.750000  0.219925  0.610305  1
  Ru  Ru11  1  0.250000  0.266426  0.112451  1
