# generated using pymatgen
data_ErTm3B16(MoIr)2
_symmetry_space_group_name_H-M   'P 1'
_cell_length_a   3.57299800
_cell_length_b   5.97397082
_cell_length_c   11.57087005
_cell_angle_alpha   89.66431713
_cell_angle_beta   90.00000000
_cell_angle_gamma   90.00000000
_symmetry_Int_Tables_number   1
_chemical_formula_structural   ErTm3B16(MoIr)2
_chemical_formula_sum   'Er1 Tm3 B16 Mo2 Ir2'
_cell_volume   246.97581795
_cell_formula_units_Z   1
loop_
 _symmetry_equiv_pos_site_id
 _symmetry_equiv_pos_as_xyz
  1  'x, y, z'
loop_
 _atom_site_type_symbol
 _atom_site_label
 _atom_site_symmetry_multiplicity
 _atom_site_fract_x
 _atom_site_fract_y
 _atom_site_fract_z
 _atom_site_occupancy
  Er  Er0  1  0.000000  0.870613  0.851199  1
  Tm  Tm1  1  0.000000  0.627130  0.349961  1
  Tm  Tm2  1  0.000000  0.372861  0.650007  1
  Tm  Tm3  1  0.000000  0.129337  0.148823  1
  B  B4  1  0.500000  0.789466  0.186379  1
  B  B5  1  0.500000  0.210797  0.813611  1
  B  B6  1  0.500000  0.290821  0.311855  1
  B  B7  1  0.500000  0.709125  0.688013  1
  B  B8  1  0.500000  0.864871  0.030488  1
  B  B9  1  0.500000  0.135239  0.969741  1
  B  B10  1  0.500000  0.368107  0.467771  1
  B  B11  1  0.500000  0.631869  0.532203  1
  B  B12  1  0.500000  0.884677  0.452906  1
  B  B13  1  0.500000  0.115365  0.547054  1
  B  B14  1  0.500000  0.386277  0.047398  1
  B  B15  1  0.500000  0.613406  0.952781  1
  B  B16  1  0.500000  0.975642  0.305263  1
  B  B17  1  0.500000  0.024492  0.694548  1
  B  B18  1  0.500000  0.474437  0.191829  1
  B  B19  1  0.500000  0.525353  0.808163  1
  Mo  Mo20  1  0.000000  0.128702  0.413757  1
  Mo  Mo21  1  0.000000  0.871308  0.586088  1
  Ir  Ir22  1  0.000000  0.645380  0.095206  1
  Ir  Ir23  1  0.000000  0.354724  0.904956  1
