# generated using pymatgen
data_Yb8Re9Si16Mo3
_symmetry_space_group_name_H-M   'P 1'
_cell_length_a   6.74976432
_cell_length_b   6.74976418
_cell_length_c   12.84013759
_cell_angle_alpha   89.88252202
_cell_angle_beta   89.88252319
_cell_angle_gamma   90.20245205
_symmetry_Int_Tables_number   1
_chemical_formula_structural   Yb8Re9Si16Mo3
_chemical_formula_sum   'Yb8 Re9 Si16 Mo3'
_cell_volume   584.98178465
_cell_formula_units_Z   1
loop_
 _symmetry_equiv_pos_site_id
 _symmetry_equiv_pos_as_xyz
  1  'x, y, z'
loop_
 _atom_site_type_symbol
 _atom_site_label
 _atom_site_symmetry_multiplicity
 _atom_site_fract_x
 _atom_site_fract_y
 _atom_site_fract_z
 _atom_site_occupancy
  Yb  Yb0  1  0.999291  0.675128  0.028723  1
  Yb  Yb1  1  0.999429  0.324737  0.529817  1
  Yb  Yb2  1  0.324872  0.000709  0.471277  1
  Yb  Yb3  1  0.172171  0.500314  0.777378  1
  Yb  Yb4  1  0.826343  0.498080  0.278452  1
  Yb  Yb5  1  0.501920  0.173657  0.221548  1
  Yb  Yb6  1  0.499686  0.827829  0.722622  1
  Yb  Yb7  1  0.675263  0.000571  0.970183  1
  Re  Re8  1  0.994483  0.813988  0.627783  1
  Re  Re9  1  0.998931  0.180272  0.129119  1
  Re  Re10  1  0.819728  0.001069  0.370881  1
  Re  Re11  1  0.320851  0.499198  0.379758  1
  Re  Re12  1  0.680033  0.503973  0.882309  1
  Re  Re13  1  0.496027  0.319967  0.617691  1
  Re  Re14  1  0.500802  0.679149  0.120242  1
  Re  Re15  1  0.186012  0.005517  0.872217  1
  Re  Re16  1  0.840404  0.159596  0.750000  1
  Si  Si17  1  0.019124  0.709332  0.435895  1
  Si  Si18  1  0.618713  0.294969  0.434469  1
  Si  Si19  1  0.381549  0.706566  0.935801  1
  Si  Si20  1  0.198900  0.113580  0.685457  1
  Si  Si21  1  0.293434  0.618451  0.564199  1
  Si  Si22  1  0.705031  0.381287  0.065531  1
  Si  Si23  1  0.797417  0.880813  0.185773  1
  Si  Si24  1  0.119187  0.202583  0.314227  1
  Si  Si25  1  0.979066  0.290248  0.936583  1
  Si  Si26  1  0.709752  0.020934  0.563417  1
  Si  Si27  1  0.211895  0.479503  0.187361  1
  Si  Si28  1  0.782302  0.514178  0.690357  1
  Si  Si29  1  0.485822  0.217698  0.809643  1
  Si  Si30  1  0.520497  0.788105  0.312639  1
  Si  Si31  1  0.290668  0.980876  0.064105  1
  Si  Si32  1  0.886420  0.801100  0.814543  1
  Mo  Mo33  1  0.660518  0.657408  0.503068  1
  Mo  Mo34  1  0.160870  0.839130  0.250000  1
  Mo  Mo35  1  0.342592  0.339482  0.996932  1
