# generated using pymatgen
data_Mg4SbPd8Au3
_symmetry_space_group_name_H-M   'P 1'
_cell_length_a   5.91297700
_cell_length_b   5.91703400
_cell_length_c   7.54550200
_cell_angle_alpha   90.00000000
_cell_angle_beta   89.99980439
_cell_angle_gamma   90.00000000
_symmetry_Int_Tables_number   1
_chemical_formula_structural   Mg4SbPd8Au3
_chemical_formula_sum   'Mg4 Sb1 Pd8 Au3'
_cell_volume   263.99663611
_cell_formula_units_Z   1
loop_
 _symmetry_equiv_pos_site_id
 _symmetry_equiv_pos_as_xyz
  1  'x, y, z'
loop_
 _atom_site_type_symbol
 _atom_site_label
 _atom_site_symmetry_multiplicity
 _atom_site_fract_x
 _atom_site_fract_y
 _atom_site_fract_z
 _atom_site_occupancy
  Mg  Mg0  1  0.250155  0.250000  0.999993  1
  Mg  Mg1  1  0.749900  0.750000  0.999995  1
  Mg  Mg2  1  0.750048  0.750000  0.500005  1
  Mg  Mg3  1  0.249939  0.250000  0.500006  1
  Sb  Sb4  1  0.749919  0.250000  0.999987  1
  Pd  Pd5  1  0.500749  0.000225  0.246045  1
  Pd  Pd6  1  0.500749  0.499772  0.246045  1
  Pd  Pd7  1  0.999243  0.000167  0.245963  1
  Pd  Pd8  1  0.999243  0.499837  0.245963  1
  Pd  Pd9  1  0.999243  0.000162  0.754039  1
  Pd  Pd10  1  0.999243  0.499835  0.754039  1
  Pd  Pd11  1  0.500751  0.000229  0.753955  1
  Pd  Pd12  1  0.500751  0.499775  0.753955  1
  Au  Au13  1  0.250091  0.750000  0.999990  1
  Au  Au14  1  0.750076  0.250000  0.500009  1
  Au  Au15  1  0.249900  0.750000  0.500009  1
