# generated using pymatgen
data_Ac5Yb(HfBi5)2
_symmetry_space_group_name_H-M   'P 1'
_cell_length_a   10.07847200
_cell_length_b   10.08157185
_cell_length_c   6.67040100
_cell_angle_alpha   90.00000000
_cell_angle_beta   90.00000000
_cell_angle_gamma   119.98982926
_symmetry_Int_Tables_number   1
_chemical_formula_structural   Ac5Yb(HfBi5)2
_chemical_formula_sum   'Ac5 Yb1 Hf2 Bi10'
_cell_volume   587.01610753
_cell_formula_units_Z   1
loop_
 _symmetry_equiv_pos_site_id
 _symmetry_equiv_pos_as_xyz
  1  'x, y, z'
loop_
 _atom_site_type_symbol
 _atom_site_label
 _atom_site_symmetry_multiplicity
 _atom_site_fract_x
 _atom_site_fract_y
 _atom_site_fract_z
 _atom_site_occupancy
  Ac  Ac0  1  0.385430  0.000000  0.750000  1
  Ac  Ac1  1  0.997594  0.619976  0.250000  1
  Ac  Ac2  1  0.000353  0.378778  0.750000  1
  Ac  Ac3  1  0.377618  0.380024  0.250000  1
  Ac  Ac4  1  0.621573  0.621222  0.750000  1
  Yb  Yb5  1  0.625703  0.000000  0.250000  1
  Hf  Hf6  1  0.998455  0.000000  0.002153  1
  Hf  Hf7  1  0.998455  0.000000  0.497847  1
  Bi  Bi8  1  0.255250  0.000000  0.250000  1
  Bi  Bi9  1  0.745767  0.000000  0.750000  1
  Bi  Bi10  1  0.992168  0.250216  0.250000  1
  Bi  Bi11  1  0.001911  0.747077  0.750000  1
  Bi  Bi12  1  0.741952  0.749784  0.250000  1
  Bi  Bi13  1  0.254833  0.252923  0.750000  1
  Bi  Bi14  1  0.336201  0.670933  0.003114  1
  Bi  Bi15  1  0.665269  0.329067  0.003114  1
  Bi  Bi16  1  0.665269  0.329067  0.496886  1
  Bi  Bi17  1  0.336201  0.670933  0.496886  1
