# generated using pymatgen
data_Tb8Sc12Si15As
_symmetry_space_group_name_H-M   'P 1'
_cell_length_a   7.15188924
_cell_length_b   7.39607841
_cell_length_c   14.00676759
_cell_angle_alpha   90.07650434
_cell_angle_beta   89.01192105
_cell_angle_gamma   90.16568468
_symmetry_Int_Tables_number   1
_chemical_formula_structural   Tb8Sc12Si15As
_chemical_formula_sum   'Tb8 Sc12 Si15 As1'
_cell_volume   740.78716991
_cell_formula_units_Z   1
loop_
 _symmetry_equiv_pos_site_id
 _symmetry_equiv_pos_as_xyz
  1  'x, y, z'
loop_
 _atom_site_type_symbol
 _atom_site_label
 _atom_site_symmetry_multiplicity
 _atom_site_fract_x
 _atom_site_fract_y
 _atom_site_fract_z
 _atom_site_occupancy
  Tb  Tb0  1  0.012889  0.175903  0.097324  1
  Tb  Tb1  1  0.987781  0.824732  0.902425  1
  Tb  Tb2  1  0.487846  0.675366  0.902585  1
  Tb  Tb3  1  0.991944  0.821967  0.595980  1
  Tb  Tb4  1  0.512732  0.325092  0.097526  1
  Tb  Tb5  1  0.006833  0.178101  0.403705  1
  Tb  Tb6  1  0.505377  0.322163  0.401916  1
  Tb  Tb7  1  0.499055  0.676551  0.597731  1
  Sc  Sc8  1  0.163944  0.500941  0.749939  1
  Sc  Sc9  1  0.835906  0.498922  0.252806  1
  Sc  Sc10  1  0.336354  0.000644  0.251011  1
  Sc  Sc11  1  0.663786  0.999351  0.749402  1
  Sc  Sc12  1  0.338888  0.171186  0.627075  1
  Sc  Sc13  1  0.662235  0.827327  0.373381  1
  Sc  Sc14  1  0.159511  0.672391  0.376929  1
  Sc  Sc15  1  0.669040  0.823827  0.125564  1
  Sc  Sc16  1  0.837383  0.328584  0.622807  1
  Sc  Sc17  1  0.330545  0.175732  0.873982  1
  Sc  Sc18  1  0.831504  0.323215  0.874508  1
  Sc  Sc19  1  0.168574  0.676843  0.125064  1
  Si  Si20  1  0.034936  0.117607  0.749152  1
  Si  Si21  1  0.964860  0.882549  0.249844  1
  Si  Si22  1  0.460770  0.618405  0.248841  1
  Si  Si23  1  0.538266  0.382218  0.750911  1
  Si  Si24  1  0.287788  0.872135  0.750181  1
  Si  Si25  1  0.713006  0.126441  0.249272  1
  Si  Si26  1  0.211048  0.375168  0.249822  1
  Si  Si27  1  0.790281  0.625486  0.750245  1
  Si  Si28  1  0.814502  0.540404  0.456842  1
  Si  Si29  1  0.335638  0.962393  0.460901  1
  Si  Si30  1  0.844416  0.535547  0.039419  1
  Si  Si31  1  0.664331  0.037312  0.539831  1
  Si  Si32  1  0.155319  0.465148  0.960189  1
  Si  Si33  1  0.654933  0.034825  0.959815  1
  Si  Si34  1  0.345026  0.965712  0.040047  1
  As  As35  1  0.182753  0.459812  0.543027  1
