# generated using pymatgen
data_Sm2Mn2FeRe14C3
_symmetry_space_group_name_H-M   'P 1'
_cell_length_a   6.95510627
_cell_length_b   6.95510600
_cell_length_c   6.95152157
_cell_angle_alpha   82.59181376
_cell_angle_beta   82.59180031
_cell_angle_gamma   82.58291135
_symmetry_Int_Tables_number   1
_chemical_formula_structural   Sm2Mn2FeRe14C3
_chemical_formula_sum   'Sm2 Mn2 Fe1 Re14 C3'
_cell_volume   328.50924804
_cell_formula_units_Z   1
loop_
 _symmetry_equiv_pos_site_id
 _symmetry_equiv_pos_as_xyz
  1  'x, y, z'
loop_
 _atom_site_type_symbol
 _atom_site_label
 _atom_site_symmetry_multiplicity
 _atom_site_fract_x
 _atom_site_fract_y
 _atom_site_fract_z
 _atom_site_occupancy
  Sm  Sm0  1  0.648432  0.648432  0.647953  1
  Sm  Sm1  1  0.351568  0.351568  0.352047  1
  Mn  Mn2  1  0.500000  0.000000  0.000000  1
  Mn  Mn3  1  0.000000  0.500000  0.000000  1
  Fe  Fe4  1  0.000000  0.000000  0.500000  1
  Re  Re5  1  0.721436  0.278564  0.000000  1
  Re  Re6  1  0.000269  0.722409  0.278522  1
  Re  Re7  1  0.277591  0.999731  0.721478  1
  Re  Re8  1  0.999731  0.277591  0.721478  1
  Re  Re9  1  0.722409  0.000269  0.278522  1
  Re  Re10  1  0.278564  0.721436  0.000000  1
  Re  Re11  1  0.345406  0.345406  0.860957  1
  Re  Re12  1  0.861837  0.345411  0.346192  1
  Re  Re13  1  0.345411  0.861837  0.346192  1
  Re  Re14  1  0.654594  0.654594  0.139043  1
  Re  Re15  1  0.138163  0.654589  0.653808  1
  Re  Re16  1  0.654589  0.138163  0.653808  1
  Re  Re17  1  0.899849  0.899849  0.898577  1
  Re  Re18  1  0.100151  0.100151  0.101423  1
  C  C19  1  0.500000  0.500000  0.000000  1
  C  C20  1  0.000000  0.500000  0.500000  1
  C  C21  1  0.500000  0.000000  0.500000  1
