# generated using pymatgen
data_NdY3Ir3RhO14
_symmetry_space_group_name_H-M   'P 1'
_cell_length_a   7.27305393
_cell_length_b   7.27305397
_cell_length_c   7.32063281
_cell_angle_alpha   60.19355306
_cell_angle_beta   60.19355174
_cell_angle_gamma   59.89788611
_symmetry_Int_Tables_number   1
_chemical_formula_structural   NdY3Ir3RhO14
_chemical_formula_sum   'Nd1 Y3 Ir3 Rh1 O14'
_cell_volume   274.40586948
_cell_formula_units_Z   1
loop_
 _symmetry_equiv_pos_site_id
 _symmetry_equiv_pos_as_xyz
  1  'x, y, z'
loop_
 _atom_site_type_symbol
 _atom_site_label
 _atom_site_symmetry_multiplicity
 _atom_site_fract_x
 _atom_site_fract_y
 _atom_site_fract_z
 _atom_site_occupancy
  Nd  Nd0  1  0.125000  0.125000  0.625000  1
  Y  Y1  1  0.625000  0.125000  0.125000  1
  Y  Y2  1  0.125000  0.625000  0.125000  1
  Y  Y3  1  0.125000  0.125000  0.125000  1
  Ir  Ir4  1  0.125000  0.625000  0.625000  1
  Ir  Ir5  1  0.625000  0.125000  0.625000  1
  Ir  Ir6  1  0.625000  0.625000  0.125000  1
  Rh  Rh7  1  0.625000  0.625000  0.625000  1
  O  O8  1  0.712851  0.712851  0.283947  1
  O  O9  1  0.291450  0.291450  0.719095  1
  O  O10  1  0.705111  0.284374  0.719849  1
  O  O11  1  0.291359  0.713014  0.290549  1
  O  O12  1  0.284374  0.705111  0.719849  1
  O  O13  1  0.713014  0.291359  0.290549  1
  O  O14  1  0.537149  0.537149  0.966053  1
  O  O15  1  0.958550  0.958550  0.530905  1
  O  O16  1  0.544889  0.965626  0.530151  1
  O  O17  1  0.958641  0.536986  0.959451  1
  O  O18  1  0.965626  0.544889  0.530151  1
  O  O19  1  0.536986  0.958641  0.959451  1
  O  O20  1  0.252424  0.252424  0.240518  1
  O  O21  1  0.997576  0.997576  0.009482  1
