# generated using pymatgen
data_Nd11Ho(GaI3)4
_symmetry_space_group_name_H-M   'P 1'
_cell_length_a   10.88218669
_cell_length_b   10.88126822
_cell_length_c   10.88482200
_cell_angle_alpha   109.46696269
_cell_angle_beta   109.48789361
_cell_angle_gamma   109.45844419
_symmetry_Int_Tables_number   1
_chemical_formula_structural   Nd11Ho(GaI3)4
_chemical_formula_sum   'Nd11 Ho1 Ga4 I12'
_cell_volume   992.19501907
_cell_formula_units_Z   1
loop_
 _symmetry_equiv_pos_site_id
 _symmetry_equiv_pos_as_xyz
  1  'x, y, z'
loop_
 _atom_site_type_symbol
 _atom_site_label
 _atom_site_symmetry_multiplicity
 _atom_site_fract_x
 _atom_site_fract_y
 _atom_site_fract_z
 _atom_site_occupancy
  Nd  Nd0  1  0.028254  0.264316  0.014458  1
  Nd  Nd1  1  0.751522  0.015920  0.486003  1
  Nd  Nd2  1  0.264741  0.750483  0.235803  1
  Nd  Nd3  1  0.485798  0.750484  0.014659  1
  Nd  Nd4  1  0.750177  0.235868  0.264649  1
  Nd  Nd5  1  0.014331  0.486128  0.749671  1
  Nd  Nd6  1  0.235993  0.264278  0.749784  1
  Nd  Nd7  1  0.485749  0.235817  0.471217  1
  Nd  Nd8  1  0.471714  0.486182  0.236398  1
  Nd  Nd9  1  0.264481  0.015923  0.030013  1
  Nd  Nd10  1  0.015088  0.030278  0.265178  1
  Ho  Ho11  1  0.232017  0.464000  0.481970  1
  Ga  Ga12  1  0.500112  0.000252  0.250121  1
  Ga  Ga13  1  0.250238  0.500497  0.000227  1
  Ga  Ga14  1  0.250455  0.252663  0.252527  1
  Ga  Ga15  1  0.002238  0.252669  0.500133  1
  I  I16  1  0.757873  0.742687  0.250171  1
  I  I17  1  0.999286  0.508567  0.257017  1
  I  I18  1  0.250621  0.752613  0.737948  1
  I  I19  1  0.757514  0.515107  0.507512  1
  I  I20  1  0.507474  0.250250  0.992823  1
  I  I21  1  0.742690  0.992843  0.985338  1
  I  I22  1  0.992644  0.985260  0.742673  1
  I  I23  1  0.509353  0.508565  0.751555  1
  I  I24  1  0.250142  0.992843  0.507437  1
  I  I25  1  0.742671  0.250212  0.757498  1
  I  I26  1  0.501945  0.752553  0.514619  1
  I  I27  1  0.984877  0.742746  0.992599  1
