# generated using pymatgen
data_Y2Ga9IrPdRu
_symmetry_space_group_name_H-M   'P 1'
_cell_length_a   7.60204904
_cell_length_b   7.60204913
_cell_length_c   9.55172954
_cell_angle_alpha   90.08148411
_cell_angle_beta   90.08147984
_cell_angle_gamma   119.82728349
_symmetry_Int_Tables_number   1
_chemical_formula_structural   Y2Ga9IrPdRu
_chemical_formula_sum   'Y4 Ga18 Ir2 Pd2 Ru2'
_cell_volume   478.87863391
_cell_formula_units_Z   2
loop_
 _symmetry_equiv_pos_site_id
 _symmetry_equiv_pos_as_xyz
  1  'x, y, z'
loop_
 _atom_site_type_symbol
 _atom_site_label
 _atom_site_symmetry_multiplicity
 _atom_site_fract_x
 _atom_site_fract_y
 _atom_site_fract_z
 _atom_site_occupancy
  Y  Y0  1  0.996409  0.669157  0.250197  1
  Y  Y1  1  0.003591  0.330843  0.749803  1
  Y  Y2  1  0.669157  0.996409  0.250197  1
  Y  Y3  1  0.330843  0.003591  0.749803  1
  Ga  Ga4  1  0.129662  0.129662  0.250625  1
  Ga  Ga5  1  0.870338  0.870338  0.749375  1
  Ga  Ga6  1  0.000248  0.339252  0.079570  1
  Ga  Ga7  1  0.999752  0.660748  0.920430  1
  Ga  Ga8  1  0.999876  0.663115  0.580910  1
  Ga  Ga9  1  0.336885  0.000124  0.419090  1
  Ga  Ga10  1  0.000124  0.336885  0.419090  1
  Ga  Ga11  1  0.663115  0.999876  0.580910  1
  Ga  Ga12  1  0.660748  0.999752  0.920430  1
  Ga  Ga13  1  0.339252  0.000248  0.079570  1
  Ga  Ga14  1  0.336403  0.336403  0.566739  1
  Ga  Ga15  1  0.663597  0.663597  0.433261  1
  Ga  Ga16  1  0.660561  0.660561  0.064629  1
  Ga  Ga17  1  0.339439  0.339439  0.935371  1
  Ga  Ga18  1  0.336045  0.547218  0.248397  1
  Ga  Ga19  1  0.663955  0.452782  0.751603  1
  Ga  Ga20  1  0.547218  0.336045  0.248397  1
  Ga  Ga21  1  0.452782  0.663955  0.751603  1
  Ir  Ir22  1  0.328215  0.671785  0.500000  1
  Ir  Ir23  1  0.671785  0.328215  0.500000  1
  Pd  Pd24  1  0.000000  0.000000  0.000000  1
  Pd  Pd25  1  0.000000  0.000000  0.500000  1
  Ru  Ru26  1  0.672437  0.327563  0.000000  1
  Ru  Ru27  1  0.327563  0.672437  0.000000  1
