# generated using pymatgen
data_CsScSe2O7
_symmetry_space_group_name_H-M   'P 1'
_cell_length_a   5.66131621
_cell_length_b   5.66131653
_cell_length_c   15.15187681
_cell_angle_alpha   79.23279602
_cell_angle_beta   100.76720539
_cell_angle_gamma   119.99999990
_symmetry_Int_Tables_number   1
_chemical_formula_structural   CsScSe2O7
_chemical_formula_sum   'Cs2 Sc2 Se4 O14'
_cell_volume   410.66175624
_cell_formula_units_Z   2
loop_
 _symmetry_equiv_pos_site_id
 _symmetry_equiv_pos_as_xyz
  1  'x, y, z'
loop_
 _atom_site_type_symbol
 _atom_site_label
 _atom_site_symmetry_multiplicity
 _atom_site_fract_x
 _atom_site_fract_y
 _atom_site_fract_z
 _atom_site_occupancy
  Cs  Cs0  1  0.000000  0.000000  0.000000  1
  Cs  Cs1  1  0.499999  0.500000  0.500000  1
  Sc  Sc2  1  0.097344  0.902657  0.292033  1
  Sc  Sc3  1  0.902656  0.097344  0.707967  1
  Se  Se4  1  0.387025  0.612974  0.161077  1
  Se  Se5  1  0.771581  0.228419  0.314742  1
  Se  Se6  1  0.228419  0.771582  0.685259  1
  Se  Se7  1  0.612973  0.387026  0.838923  1
  O  O8  1  0.350046  0.649953  0.050143  1
  O  O9  1  0.721670  0.760759  0.200151  1
  O  O10  1  0.239241  0.278329  0.200151  1
  O  O11  1  0.239241  0.760759  0.200151  1
  O  O12  1  0.946304  0.053695  0.368389  1
  O  O13  1  0.946304  0.524220  0.368389  1
  O  O14  1  0.475778  0.053694  0.368389  1
  O  O15  1  0.524221  0.946306  0.631611  1
  O  O16  1  0.053694  0.475778  0.631611  1
  O  O17  1  0.053694  0.946305  0.631611  1
  O  O18  1  0.760760  0.239241  0.799849  1
  O  O19  1  0.760760  0.721670  0.799849  1
  O  O20  1  0.278330  0.239242  0.799849  1
  O  O21  1  0.649952  0.350047  0.949857  1
