# generated using pymatgen
data_Np2Zn19Au3
_symmetry_space_group_name_H-M   'P 1'
_cell_length_a   8.36097814
_cell_length_b   8.33075634
_cell_length_c   8.33177548
_cell_angle_alpha   99.87758678
_cell_angle_beta   100.09909001
_cell_angle_gamma   130.94350661
_symmetry_Int_Tables_number   1
_chemical_formula_structural   Np2Zn19Au3
_chemical_formula_sum   'Np2 Zn19 Au3'
_cell_volume   398.26544629
_cell_formula_units_Z   1
loop_
 _symmetry_equiv_pos_site_id
 _symmetry_equiv_pos_as_xyz
  1  'x, y, z'
loop_
 _atom_site_type_symbol
 _atom_site_label
 _atom_site_symmetry_multiplicity
 _atom_site_fract_x
 _atom_site_fract_y
 _atom_site_fract_z
 _atom_site_occupancy
  Np  Np0  1  0.246722  0.752468  0.498482  1
  Np  Np1  1  0.003051  0.000148  0.003481  1
  Zn  Zn2  1  0.626133  0.876004  0.247255  1
  Zn  Zn3  1  0.500224  0.582659  0.675631  1
  Zn  Zn4  1  0.422883  0.096288  0.915771  1
  Zn  Zn5  1  0.751830  0.168337  0.826244  1
  Zn  Zn6  1  0.497104  0.824115  0.914157  1
  Zn  Zn7  1  0.500377  0.497557  0.999079  1
  Zn  Zn8  1  0.755493  0.929554  0.587241  1
  Zn  Zn9  1  0.749550  0.249883  0.499291  1
  Zn  Zn10  1  0.072252  0.659204  0.824046  1
  Zn  Zn11  1  0.345435  0.169646  0.416935  1
  Zn  Zn12  1  0.826117  0.652133  0.584956  1
  Zn  Zn13  1  0.903667  0.823292  0.333385  1
  Zn  Zn14  1  0.178443  0.088388  0.673813  1
  Zn  Zn15  1  0.065159  0.238960  0.412665  1
  Zn  Zn16  1  0.354574  0.937255  0.175039  1
  Zn  Zn17  1  0.825232  0.239424  0.173595  1
  Zn  Zn18  1  0.176307  0.508282  0.083452  1
  Zn  Zn19  1  0.627381  0.374048  0.252286  1
  Zn  Zn20  1  0.620896  0.369825  0.746168  1
  Au  Au21  1  0.907130  0.586164  0.085198  1
  Au  Au22  1  0.417108  0.501756  0.321751  1
  Au  Au23  1  0.126930  0.374611  0.750074  1
