# generated using pymatgen
data_Y2ZrSnIr2
_symmetry_space_group_name_H-M   'P 1'
_cell_length_a   4.39508600
_cell_length_b   7.16587800
_cell_length_c   8.41223300
_cell_angle_alpha   90.00000000
_cell_angle_beta   90.00000000
_cell_angle_gamma   90.00000000
_symmetry_Int_Tables_number   1
_chemical_formula_structural   Y2ZrSnIr2
_chemical_formula_sum   'Y4 Zr2 Sn2 Ir4'
_cell_volume   264.94033469
_cell_formula_units_Z   2
loop_
 _symmetry_equiv_pos_site_id
 _symmetry_equiv_pos_as_xyz
  1  'x, y, z'
loop_
 _atom_site_type_symbol
 _atom_site_label
 _atom_site_symmetry_multiplicity
 _atom_site_fract_x
 _atom_site_fract_y
 _atom_site_fract_z
 _atom_site_occupancy
  Y  Y0  1  0.250000  0.033658  0.330736  1
  Y  Y1  1  0.250000  0.533658  0.169264  1
  Y  Y2  1  0.750000  0.971803  0.678258  1
  Y  Y3  1  0.750000  0.471803  0.821742  1
  Zr  Zr4  1  0.250000  0.129604  0.939607  1
  Zr  Zr5  1  0.250000  0.629604  0.560393  1
  Sn  Sn6  1  0.750000  0.855858  0.071706  1
  Sn  Sn7  1  0.750000  0.355858  0.428294  1
  Ir  Ir8  1  0.250000  0.260302  0.635194  1
  Ir  Ir9  1  0.250000  0.760302  0.864806  1
  Ir  Ir10  1  0.750000  0.748776  0.394012  1
  Ir  Ir11  1  0.750000  0.248776  0.105988  1
