# generated using pymatgen
data_Y4Ga5Ir4Pt5
_symmetry_space_group_name_H-M   'P 1'
_cell_length_a   5.58314553
_cell_length_b   5.58314513
_cell_length_c   24.17561527
_cell_angle_alpha   90.06588159
_cell_angle_beta   89.93411868
_cell_angle_gamma   120.31125343
_symmetry_Int_Tables_number   1
_chemical_formula_structural   Y4Ga5Ir4Pt5
_chemical_formula_sum   'Y8 Ga10 Ir8 Pt10'
_cell_volume   650.57140302
_cell_formula_units_Z   2
loop_
 _symmetry_equiv_pos_site_id
 _symmetry_equiv_pos_as_xyz
  1  'x, y, z'
loop_
 _atom_site_type_symbol
 _atom_site_label
 _atom_site_symmetry_multiplicity
 _atom_site_fract_x
 _atom_site_fract_y
 _atom_site_fract_z
 _atom_site_occupancy
  Y  Y0  1  0.331942  0.668058  0.530038  1
  Y  Y1  1  0.668058  0.331942  0.469962  1
  Y  Y2  1  0.666019  0.333981  0.030934  1
  Y  Y3  1  0.333981  0.666019  0.969066  1
  Y  Y4  1  0.332609  0.667391  0.679389  1
  Y  Y5  1  0.667391  0.332609  0.320611  1
  Y  Y6  1  0.666951  0.333049  0.183772  1
  Y  Y7  1  0.333049  0.666951  0.816228  1
  Ga  Ga8  1  0.000000  0.000000  0.000000  1
  Ga  Ga9  1  0.000000  0.000000  0.500000  1
  Ga  Ga10  1  0.335025  0.664975  0.168757  1
  Ga  Ga11  1  0.664975  0.335025  0.831243  1
  Ga  Ga12  1  0.671097  0.328903  0.667336  1
  Ga  Ga13  1  0.328903  0.671097  0.332664  1
  Ga  Ga14  1  0.998064  0.001936  0.168034  1
  Ga  Ga15  1  0.001936  0.998064  0.831966  1
  Ga  Ga16  1  0.997045  0.002955  0.666449  1
  Ga  Ga17  1  0.002955  0.997045  0.333551  1
  Ir  Ir18  1  0.833483  0.166517  0.583339  1
  Ir  Ir19  1  0.166517  0.833483  0.416661  1
  Ir  Ir20  1  0.167428  0.332500  0.251341  1
  Ir  Ir21  1  0.832572  0.667500  0.748659  1
  Ir  Ir22  1  0.667500  0.832572  0.251341  1
  Ir  Ir23  1  0.332500  0.167428  0.748659  1
  Ir  Ir24  1  0.166467  0.833533  0.249553  1
  Ir  Ir25  1  0.833533  0.166467  0.750447  1
  Pt  Pt26  1  0.167278  0.338559  0.083125  1
  Pt  Pt27  1  0.832722  0.661441  0.916875  1
  Pt  Pt28  1  0.661441  0.832722  0.083125  1
  Pt  Pt29  1  0.832860  0.659536  0.583080  1
  Pt  Pt30  1  0.338559  0.167278  0.916875  1
  Pt  Pt31  1  0.167140  0.340464  0.416920  1
  Pt  Pt32  1  0.167999  0.832001  0.084129  1
  Pt  Pt33  1  0.340464  0.167140  0.583080  1
  Pt  Pt34  1  0.832001  0.167999  0.915871  1
  Pt  Pt35  1  0.659536  0.832860  0.416920  1
