# generated using pymatgen
data_Er20TlCo4Bi7
_symmetry_space_group_name_H-M   'P 1'
_cell_length_a   7.93742323
_cell_length_b   8.87131509
_cell_length_c   12.33017100
_cell_angle_alpha   90.06129159
_cell_angle_beta   90.13251616
_cell_angle_gamma   90.00274520
_symmetry_Int_Tables_number   1
_chemical_formula_structural   Er20TlCo4Bi7
_chemical_formula_sum   'Er20 Tl1 Co4 Bi7'
_cell_volume   868.23088656
_cell_formula_units_Z   1
loop_
 _symmetry_equiv_pos_site_id
 _symmetry_equiv_pos_as_xyz
  1  'x, y, z'
loop_
 _atom_site_type_symbol
 _atom_site_label
 _atom_site_symmetry_multiplicity
 _atom_site_fract_x
 _atom_site_fract_y
 _atom_site_fract_z
 _atom_site_occupancy
  Er  Er0  1  0.655264  0.752206  0.701026  1
  Er  Er1  1  0.348842  0.248953  0.302294  1
  Er  Er2  1  0.148473  0.247059  0.799147  1
  Er  Er3  1  0.849133  0.748972  0.198919  1
  Er  Er4  1  0.110584  0.752911  0.811195  1
  Er  Er5  1  0.885227  0.250486  0.186279  1
  Er  Er6  1  0.621115  0.247562  0.687104  1
  Er  Er7  1  0.385154  0.750862  0.312811  1
  Er  Er8  1  0.553017  0.749012  0.997386  1
  Er  Er9  1  0.444781  0.250742  0.003050  1
  Er  Er10  1  0.049824  0.246598  0.505255  1
  Er  Er11  1  0.946981  0.753573  0.499249  1
  Er  Er12  1  0.824246  0.462061  0.935809  1
  Er  Er13  1  0.174076  0.537704  0.063065  1
  Er  Er14  1  0.326654  0.535835  0.564669  1
  Er  Er15  1  0.173746  0.964368  0.063870  1
  Er  Er16  1  0.675476  0.463855  0.436610  1
  Er  Er17  1  0.826303  0.035902  0.932154  1
  Er  Er18  1  0.674847  0.036452  0.437043  1
  Er  Er19  1  0.323266  0.965368  0.564847  1
  Tl  Tl20  1  0.930179  0.006465  0.671810  1
  Co  Co21  1  0.934167  0.750187  0.992464  1
  Co  Co22  1  0.065265  0.250566  0.006936  1
  Co  Co23  1  0.438533  0.250805  0.507779  1
  Co  Co24  1  0.563474  0.750292  0.493430  1
  Bi  Bi25  1  0.070787  0.991801  0.325407  1
  Bi  Bi26  1  0.428059  0.991697  0.827723  1
  Bi  Bi27  1  0.071963  0.507878  0.327835  1
  Bi  Bi28  1  0.571030  0.008274  0.172512  1
  Bi  Bi29  1  0.929932  0.492510  0.672441  1
  Bi  Bi30  1  0.569844  0.491479  0.173828  1
  Bi  Bi31  1  0.429760  0.507566  0.826050  1
