# generated using pymatgen
data_PrDy5(RuI3)2
_symmetry_space_group_name_H-M   'P 1'
_cell_length_a   4.24476400
_cell_length_b   8.99291570
_cell_length_c   12.37349202
_cell_angle_alpha   94.37515689
_cell_angle_beta   90.00000000
_cell_angle_gamma   90.00000000
_symmetry_Int_Tables_number   1
_chemical_formula_structural   PrDy5(RuI3)2
_chemical_formula_sum   'Pr1 Dy5 Ru2 I6'
_cell_volume   470.95448759
_cell_formula_units_Z   1
loop_
 _symmetry_equiv_pos_site_id
 _symmetry_equiv_pos_as_xyz
  1  'x, y, z'
loop_
 _atom_site_type_symbol
 _atom_site_label
 _atom_site_symmetry_multiplicity
 _atom_site_fract_x
 _atom_site_fract_y
 _atom_site_fract_z
 _atom_site_occupancy
  Pr  Pr0  1  0.750000  0.274330  0.603429  1
  Dy  Dy1  1  0.250000  0.738662  0.396620  1
  Dy  Dy2  1  0.750000  0.874905  0.623896  1
  Dy  Dy3  1  0.250000  0.124325  0.373010  1
  Dy  Dy4  1  0.750000  0.894948  0.185410  1
  Dy  Dy5  1  0.250000  0.097273  0.816143  1
  Ru  Ru6  1  0.750000  0.942821  0.405466  1
  Ru  Ru7  1  0.250000  0.056073  0.593229  1
  I  I8  1  0.750000  0.425306  0.361918  1
  I  I9  1  0.250000  0.586545  0.634739  1
  I  I10  1  0.750000  0.860467  0.889976  1
  I  I11  1  0.250000  0.131632  0.109122  1
  I  I12  1  0.750000  0.347272  0.871620  1
  I  I13  1  0.250000  0.645439  0.135420  1
