# generated using pymatgen
data_Zr2Ta3Ir
_symmetry_space_group_name_H-M   'P 1'
_cell_length_a   5.57551197
_cell_length_b   5.42683476
_cell_length_c   5.57551300
_cell_angle_alpha   59.08951026
_cell_angle_beta   59.99999984
_cell_angle_gamma   59.08950676
_symmetry_Int_Tables_number   1
_chemical_formula_structural   Zr2Ta3Ir
_chemical_formula_sum   'Zr2 Ta3 Ir1'
_cell_volume   117.62110182
_cell_formula_units_Z   1
loop_
 _symmetry_equiv_pos_site_id
 _symmetry_equiv_pos_as_xyz
  1  'x, y, z'
loop_
 _atom_site_type_symbol
 _atom_site_label
 _atom_site_symmetry_multiplicity
 _atom_site_fract_x
 _atom_site_fract_y
 _atom_site_fract_z
 _atom_site_occupancy
  Zr  Zr0  1  0.498750  0.503750  0.498750  1
  Zr  Zr1  1  0.751250  0.746250  0.751250  1
  Ta  Ta2  1  0.625000  0.125000  0.125000  1
  Ta  Ta3  1  0.125000  0.125000  0.125000  1
  Ta  Ta4  1  0.125000  0.125000  0.625000  1
  Ir  Ir5  1  0.125000  0.625000  0.125000  1
