# generated using pymatgen
data_Tb6Dy6Os3Ru
_symmetry_space_group_name_H-M   'P 1'
_cell_length_a   6.34183134
_cell_length_b   7.37197620
_cell_length_c   9.13639491
_cell_angle_alpha   90.00458458
_cell_angle_beta   90.07387417
_cell_angle_gamma   90.03984003
_symmetry_Int_Tables_number   1
_chemical_formula_structural   Tb6Dy6Os3Ru
_chemical_formula_sum   'Tb6 Dy6 Os3 Ru1'
_cell_volume   427.14271890
_cell_formula_units_Z   1
loop_
 _symmetry_equiv_pos_site_id
 _symmetry_equiv_pos_as_xyz
  1  'x, y, z'
loop_
 _atom_site_type_symbol
 _atom_site_label
 _atom_site_symmetry_multiplicity
 _atom_site_fract_x
 _atom_site_fract_y
 _atom_site_fract_z
 _atom_site_occupancy
  Tb  Tb0  1  0.331521  0.675303  0.062801  1
  Tb  Tb1  1  0.169266  0.176035  0.436522  1
  Tb  Tb2  1  0.868560  0.539660  0.250054  1
  Tb  Tb3  1  0.632811  0.038666  0.249955  1
  Tb  Tb4  1  0.131255  0.461523  0.749979  1
  Tb  Tb5  1  0.368712  0.961729  0.750021  1
  Dy  Dy6  1  0.669773  0.324410  0.563454  1
  Dy  Dy7  1  0.829488  0.824120  0.935287  1
  Dy  Dy8  1  0.669854  0.324207  0.936549  1
  Dy  Dy9  1  0.829405  0.823935  0.564713  1
  Dy  Dy10  1  0.331686  0.675081  0.437284  1
  Dy  Dy11  1  0.169181  0.175857  0.063377  1
  Os  Os12  1  0.459749  0.383888  0.249975  1
  Os  Os13  1  0.959326  0.115621  0.750292  1
  Os  Os14  1  0.540878  0.615988  0.749721  1
  Ru  Ru15  1  0.038534  0.883977  0.250016  1
