# generated using pymatgen
data_Ag3RhF8
_symmetry_space_group_name_H-M   'P 1'
_cell_length_a   5.53122767
_cell_length_b   5.65983796
_cell_length_c   5.64934818
_cell_angle_alpha   83.76295432
_cell_angle_beta   93.46223198
_cell_angle_gamma   92.98791551
_symmetry_Int_Tables_number   1
_chemical_formula_structural   Ag3RhF8
_chemical_formula_sum   'Ag3 Rh1 F8'
_cell_volume   175.30482389
_cell_formula_units_Z   1
loop_
 _symmetry_equiv_pos_site_id
 _symmetry_equiv_pos_as_xyz
  1  'x, y, z'
loop_
 _atom_site_type_symbol
 _atom_site_label
 _atom_site_symmetry_multiplicity
 _atom_site_fract_x
 _atom_site_fract_y
 _atom_site_fract_z
 _atom_site_occupancy
  Ag  Ag0  1  0.000000  0.500000  0.500000  1
  Ag  Ag1  1  0.500000  0.500000  0.000000  1
  Ag  Ag2  1  0.000000  0.000000  0.000000  1
  Rh  Rh3  1  0.500000  0.000000  0.500000  1
  F  F4  1  0.645221  0.270150  0.659245  1
  F  F5  1  0.216229  0.175274  0.365200  1
  F  F6  1  0.338920  0.861839  0.789153  1
  F  F7  1  0.843932  0.650252  0.149255  1
  F  F8  1  0.156068  0.349748  0.850745  1
  F  F9  1  0.661080  0.138161  0.210847  1
  F  F10  1  0.783771  0.824726  0.634800  1
  F  F11  1  0.354779  0.729850  0.340755  1
