# generated using pymatgen
data_ZnCr2(SeO3)4
_symmetry_space_group_name_H-M   'P 1'
_cell_length_a   8.13559000
_cell_length_b   8.11827131
_cell_length_c   8.26626651
_cell_angle_alpha   87.92391245
_cell_angle_beta   90.00000000
_cell_angle_gamma   90.00000000
_symmetry_Int_Tables_number   1
_chemical_formula_structural   ZnCr2(SeO3)4
_chemical_formula_sum   'Zn2 Cr4 Se8 O24'
_cell_volume   545.60313058
_cell_formula_units_Z   2
loop_
 _symmetry_equiv_pos_site_id
 _symmetry_equiv_pos_as_xyz
  1  'x, y, z'
loop_
 _atom_site_type_symbol
 _atom_site_label
 _atom_site_symmetry_multiplicity
 _atom_site_fract_x
 _atom_site_fract_y
 _atom_site_fract_z
 _atom_site_occupancy
  Zn  Zn0  1  0.605831  0.340777  0.162896  1
  Zn  Zn1  1  0.394169  0.840777  0.162896  1
  Cr  Cr2  1  0.753740  0.751717  0.003628  1
  Cr  Cr3  1  0.742886  0.246719  0.506764  1
  Cr  Cr4  1  0.246260  0.251717  0.003628  1
  Cr  Cr5  1  0.257114  0.746719  0.506764  1
  Se  Se6  1  0.089221  0.551773  0.185595  1
  Se  Se7  1  0.910779  0.051773  0.185595  1
  Se  Se8  1  0.574555  0.450993  0.817826  1
  Se  Se9  1  0.322611  0.169291  0.417367  1
  Se  Se10  1  0.059267  0.417868  0.684932  1
  Se  Se11  1  0.425445  0.950993  0.817826  1
  Se  Se12  1  0.677389  0.669291  0.417367  1
  Se  Se13  1  0.940733  0.917868  0.684932  1
  O  O14  1  0.971368  0.711575  0.109220  1
  O  O15  1  0.308042  0.009237  0.988260  1
  O  O16  1  0.165922  0.252108  0.776933  1
  O  O17  1  0.673194  0.458523  0.369040  1
  O  O18  1  0.753326  0.171005  0.272137  1
  O  O19  1  0.195429  0.492766  0.016710  1
  O  O20  1  0.223214  0.514000  0.585979  1
  O  O21  1  0.627134  0.756076  0.224891  1
  O  O22  1  0.724621  0.344182  0.724351  1
  O  O23  1  0.326806  0.958523  0.369040  1
  O  O24  1  0.978002  0.314289  0.519865  1
  O  O25  1  0.483702  0.292594  0.937226  1
  O  O26  1  0.834078  0.752108  0.776933  1
  O  O27  1  0.502472  0.695207  0.522279  1
  O  O28  1  0.275379  0.844182  0.724351  1
  O  O29  1  0.246674  0.671005  0.272137  1
  O  O30  1  0.372866  0.256076  0.224891  1
  O  O31  1  0.028632  0.211575  0.109220  1
  O  O32  1  0.021998  0.814289  0.519865  1
  O  O33  1  0.516298  0.792594  0.937226  1
  O  O34  1  0.691958  0.509236  0.988260  1
  O  O35  1  0.776786  0.014000  0.585979  1
  O  O36  1  0.497528  0.195207  0.522279  1
  O  O37  1  0.804571  0.992766  0.016710  1
