# generated using pymatgen
data_Nd5MnSbO12
_symmetry_space_group_name_H-M   'P 1'
_cell_length_a   7.06888502
_cell_length_b   7.06888638
_cell_length_c   7.61065900
_cell_angle_alpha   74.43121568
_cell_angle_beta   74.43121260
_cell_angle_gamma   50.50359190
_symmetry_Int_Tables_number   1
_chemical_formula_structural   Nd5MnSbO12
_chemical_formula_sum   'Nd5 Mn1 Sb1 O12'
_cell_volume   280.24338607
_cell_formula_units_Z   1
loop_
 _symmetry_equiv_pos_site_id
 _symmetry_equiv_pos_as_xyz
  1  'x, y, z'
loop_
 _atom_site_type_symbol
 _atom_site_label
 _atom_site_symmetry_multiplicity
 _atom_site_fract_x
 _atom_site_fract_y
 _atom_site_fract_z
 _atom_site_occupancy
  Nd  Nd0  1  0.292793  0.314605  0.359135  1
  Nd  Nd1  1  0.685395  0.707207  0.640865  1
  Nd  Nd2  1  0.692379  0.699236  0.165077  1
  Nd  Nd3  1  0.300764  0.307621  0.834923  1
  Nd  Nd4  1  0.000591  0.999409  0.500000  1
  Mn  Mn5  1  0.253983  0.746017  0.000000  1
  Sb  Sb6  1  0.766379  0.233621  0.000000  1
  O  O7  1  0.089663  0.599682  0.578311  1
  O  O8  1  0.013144  0.985233  0.176726  1
  O  O9  1  0.400318  0.910337  0.421689  1
  O  O10  1  0.501546  0.499348  0.173359  1
  O  O11  1  0.103052  0.582456  0.077879  1
  O  O12  1  0.897791  0.406702  0.423750  1
  O  O13  1  0.014767  0.986856  0.823274  1
  O  O14  1  0.593298  0.102208  0.576250  1
  O  O15  1  0.500652  0.498454  0.826641  1
  O  O16  1  0.577347  0.101405  0.079611  1
  O  O17  1  0.417544  0.896948  0.922121  1
  O  O18  1  0.898595  0.422653  0.920389  1
