# generated using pymatgen
data_Sr4ScPtO8
_symmetry_space_group_name_H-M   'P 1'
_cell_length_a   6.99621558
_cell_length_b   6.99621510
_cell_length_c   5.69173700
_cell_angle_alpha   90.00000000
_cell_angle_beta   90.00000000
_cell_angle_gamma   131.99122834
_symmetry_Int_Tables_number   1
_chemical_formula_structural   Sr4ScPtO8
_chemical_formula_sum   'Sr4 Sc1 Pt1 O8'
_cell_volume   207.06394096
_cell_formula_units_Z   1
loop_
 _symmetry_equiv_pos_site_id
 _symmetry_equiv_pos_as_xyz
  1  'x, y, z'
loop_
 _atom_site_type_symbol
 _atom_site_label
 _atom_site_symmetry_multiplicity
 _atom_site_fract_x
 _atom_site_fract_y
 _atom_site_fract_z
 _atom_site_occupancy
  Sr  Sr0  1  0.354597  0.645403  0.000000  1
  Sr  Sr1  1  0.855118  0.144882  0.500000  1
  Sr  Sr2  1  0.144882  0.855118  0.500000  1
  Sr  Sr3  1  0.645403  0.354597  0.000000  1
  Sc  Sc4  1  0.000000  0.000000  0.000000  1
  Pt  Pt5  1  0.500000  0.500000  0.500000  1
  O  O6  1  0.253154  0.253154  0.743869  1
  O  O7  1  0.746846  0.746846  0.256131  1
  O  O8  1  0.746846  0.746846  0.743869  1
  O  O9  1  0.253154  0.253154  0.256131  1
  O  O10  1  0.166140  0.833860  0.000000  1
  O  O11  1  0.661048  0.338952  0.500000  1
  O  O12  1  0.338952  0.661048  0.500000  1
  O  O13  1  0.833860  0.166140  0.000000  1
