# generated using pymatgen
data_Tm3LuZr4F28
_symmetry_space_group_name_H-M   'P 1'
_cell_length_a   5.68569653
_cell_length_b   8.99618507
_cell_length_c   12.10453724
_cell_angle_alpha   62.61141929
_cell_angle_beta   90.00342459
_cell_angle_gamma   90.01844930
_symmetry_Int_Tables_number   1
_chemical_formula_structural   Tm3LuZr4F28
_chemical_formula_sum   'Tm3 Lu1 Zr4 F28'
_cell_volume   549.74051636
_cell_formula_units_Z   1
loop_
 _symmetry_equiv_pos_site_id
 _symmetry_equiv_pos_as_xyz
  1  'x, y, z'
loop_
 _atom_site_type_symbol
 _atom_site_label
 _atom_site_symmetry_multiplicity
 _atom_site_fract_x
 _atom_site_fract_y
 _atom_site_fract_z
 _atom_site_occupancy
  Tm  Tm0  1  0.743663  0.817039  0.266029  1
  Tm  Tm1  1  0.243562  0.182865  0.234022  1
  Tm  Tm2  1  0.256644  0.181639  0.734203  1
  Lu  Lu3  1  0.756852  0.817093  0.765848  1
  Zr  Zr4  1  0.744299  0.274253  0.454850  1
  Zr  Zr5  1  0.243976  0.725561  0.044965  1
  Zr  Zr6  1  0.255480  0.725407  0.545872  1
  Zr  Zr7  1  0.755598  0.274978  0.954368  1
  F  F8  1  0.470466  0.712402  0.919737  1
  F  F9  1  0.970055  0.288120  0.579949  1
  F  F10  1  0.530255  0.288572  0.079669  1
  F  F11  1  0.031130  0.711216  0.420157  1
  F  F12  1  0.450422  0.278710  0.551787  1
  F  F13  1  0.949255  0.722207  0.947581  1
  F  F14  1  0.549030  0.720781  0.448667  1
  F  F15  1  0.049223  0.279212  0.051608  1
  F  F16  1  0.768571  0.529174  0.856866  1
  F  F17  1  0.268004  0.471544  0.642908  1
  F  F18  1  0.232440  0.471953  0.143130  1
  F  F19  1  0.732068  0.528174  0.356840  1
  F  F20  1  0.759449  0.021780  0.058941  1
  F  F21  1  0.259257  0.978408  0.440894  1
  F  F22  1  0.240834  0.978765  0.940452  1
  F  F23  1  0.740227  0.021230  0.560012  1
  F  F24  1  0.982077  0.735703  0.651520  1
  F  F25  1  0.483278  0.265187  0.848276  1
  F  F26  1  0.015242  0.264841  0.348069  1
  F  F27  1  0.514937  0.735308  0.151839  1
  F  F28  1  0.031044  0.747619  0.174173  1
  F  F29  1  0.529932  0.252776  0.326024  1
  F  F30  1  0.969801  0.252123  0.825983  1
  F  F31  1  0.470843  0.748044  0.674397  1
  F  F32  1  0.432691  0.975092  0.235514  1
  F  F33  1  0.932129  0.025261  0.264691  1
  F  F34  1  0.570470  0.023797  0.764747  1
  F  F35  1  0.066798  0.973165  0.735413  1
