# generated using pymatgen
data_Tb5TcOsO12
_symmetry_space_group_name_H-M   'P 1'
_cell_length_a   6.88683372
_cell_length_b   6.88683379
_cell_length_c   7.57597019
_cell_angle_alpha   73.88308572
_cell_angle_beta   73.88308296
_cell_angle_gamma   48.65377999
_symmetry_Int_Tables_number   1
_chemical_formula_structural   Tb5TcOsO12
_chemical_formula_sum   'Tb5 Tc1 Os1 O12'
_cell_volume   256.92780800
_cell_formula_units_Z   1
loop_
 _symmetry_equiv_pos_site_id
 _symmetry_equiv_pos_as_xyz
  1  'x, y, z'
loop_
 _atom_site_type_symbol
 _atom_site_label
 _atom_site_symmetry_multiplicity
 _atom_site_fract_x
 _atom_site_fract_y
 _atom_site_fract_z
 _atom_site_occupancy
  Tb  Tb0  1  0.300661  0.306023  0.357142  1
  Tb  Tb1  1  0.693977  0.699339  0.642858  1
  Tb  Tb2  1  0.312403  0.315464  0.827454  1
  Tb  Tb3  1  0.684536  0.687597  0.172546  1
  Tb  Tb4  1  0.998579  0.001421  0.500000  1
  Tc  Tc5  1  0.789552  0.210448  0.000000  1
  Os  Os6  1  0.219875  0.780125  0.000000  1
  O  O7  1  0.910873  0.414938  0.916950  1
  O  O8  1  0.419728  0.913154  0.915915  1
  O  O9  1  0.086846  0.580272  0.084085  1
  O  O10  1  0.585062  0.089127  0.083050  1
  O  O11  1  0.095894  0.595344  0.574508  1
  O  O12  1  0.594124  0.100163  0.573273  1
  O  O13  1  0.899837  0.405876  0.426727  1
  O  O14  1  0.404656  0.904106  0.425492  1
  O  O15  1  0.002003  0.996796  0.797391  1
  O  O16  1  0.003204  0.997997  0.202609  1
  O  O17  1  0.500057  0.501869  0.825967  1
  O  O18  1  0.498131  0.499943  0.174033  1
