# generated using pymatgen
data_KLi6RuO6
_symmetry_space_group_name_H-M   'P 1'
_cell_length_a   5.33336977
_cell_length_b   5.33337785
_cell_length_c   5.33338707
_cell_angle_alpha   101.38912072
_cell_angle_beta   101.38885597
_cell_angle_gamma   101.38900452
_symmetry_Int_Tables_number   1
_chemical_formula_structural   KLi6RuO6
_chemical_formula_sum   'K1 Li6 Ru1 O6'
_cell_volume   141.30949962
_cell_formula_units_Z   1
loop_
 _symmetry_equiv_pos_site_id
 _symmetry_equiv_pos_as_xyz
  1  'x, y, z'
loop_
 _atom_site_type_symbol
 _atom_site_label
 _atom_site_symmetry_multiplicity
 _atom_site_fract_x
 _atom_site_fract_y
 _atom_site_fract_z
 _atom_site_occupancy
  K  K0  1  0.500000  0.500000  0.500000  1
  Li  Li1  1  0.000002  0.338227  0.661775  1
  Li  Li2  1  0.661773  0.999999  0.338225  1
  Li  Li3  1  0.661772  0.338226  0.999998  1
  Li  Li4  1  0.338227  0.000001  0.661775  1
  Li  Li5  1  0.999998  0.661773  0.338225  1
  Li  Li6  1  0.338228  0.661774  0.000002  1
  Ru  Ru7  1  0.000000  0.000000  0.000000  1
  O  O8  1  0.078321  0.726331  0.726330  1
  O  O9  1  0.726332  0.726331  0.078323  1
  O  O10  1  0.921679  0.273669  0.273670  1
  O  O11  1  0.273668  0.273669  0.921677  1
  O  O12  1  0.273669  0.921679  0.273667  1
  O  O13  1  0.726331  0.078321  0.726333  1
