# generated using pymatgen
data_Yb3Dy(Ga3Pd)6
_symmetry_space_group_name_H-M   'P 1'
_cell_length_a   7.68912400
_cell_length_b   7.68771374
_cell_length_c   9.54578400
_cell_angle_alpha   90.00000000
_cell_angle_beta   90.00000000
_cell_angle_gamma   119.73625370
_symmetry_Int_Tables_number   1
_chemical_formula_structural   Yb3Dy(Ga3Pd)6
_chemical_formula_sum   'Yb3 Dy1 Ga18 Pd6'
_cell_volume   489.96425311
_cell_formula_units_Z   1
loop_
 _symmetry_equiv_pos_site_id
 _symmetry_equiv_pos_as_xyz
  1  'x, y, z'
loop_
 _atom_site_type_symbol
 _atom_site_label
 _atom_site_symmetry_multiplicity
 _atom_site_fract_x
 _atom_site_fract_y
 _atom_site_fract_z
 _atom_site_occupancy
  Yb  Yb0  1  0.997526  0.667320  0.750000  1
  Yb  Yb1  1  0.001077  0.331817  0.250000  1
  Yb  Yb2  1  0.670327  0.999382  0.750000  1
  Dy  Dy3  1  0.331993  0.999776  0.250000  1
  Ga  Ga4  1  0.127153  0.127425  0.750000  1
  Ga  Ga5  1  0.874158  0.872775  0.250000  1
  Ga  Ga6  1  0.998367  0.334539  0.580037  1
  Ga  Ga7  1  0.001036  0.664510  0.418288  1
  Ga  Ga8  1  0.001036  0.664510  0.081712  1
  Ga  Ga9  1  0.334332  0.997677  0.918410  1
  Ga  Ga10  1  0.998367  0.334539  0.919963  1
  Ga  Ga11  1  0.667099  0.002561  0.081794  1
  Ga  Ga12  1  0.667099  0.002561  0.418206  1
  Ga  Ga13  1  0.334332  0.997677  0.581590  1
  Ga  Ga14  1  0.329107  0.329973  0.071526  1
  Ga  Ga15  1  0.669525  0.669676  0.932387  1
  Ga  Ga16  1  0.669525  0.669676  0.567613  1
  Ga  Ga17  1  0.329107  0.329973  0.428474  1
  Ga  Ga18  1  0.337664  0.545592  0.750000  1
  Ga  Ga19  1  0.660163  0.456084  0.250000  1
  Ga  Ga20  1  0.543423  0.338750  0.750000  1
  Ga  Ga21  1  0.458238  0.663848  0.250000  1
  Pd  Pd22  1  0.668941  0.329849  0.499921  1
  Pd  Pd23  1  0.330497  0.670328  0.499329  1
  Pd  Pd24  1  0.330497  0.670328  0.000671  1
  Pd  Pd25  1  0.668941  0.329849  0.000079  1
  Pd  Pd26  1  0.000234  0.999500  0.500086  1
  Pd  Pd27  1  0.000234  0.999500  0.999914  1
