# generated using pymatgen
data_Yb2Zn3Ga
_symmetry_space_group_name_H-M   'P 1'
_cell_length_a   5.72949170
_cell_length_b   5.72949167
_cell_length_c   7.26513112
_cell_angle_alpha   50.73965868
_cell_angle_beta   50.73965990
_cell_angle_gamma   45.91543084
_symmetry_Int_Tables_number   1
_chemical_formula_structural   Yb2Zn3Ga
_chemical_formula_sum   'Yb2 Zn3 Ga1'
_cell_volume   124.43990386
_cell_formula_units_Z   1
loop_
 _symmetry_equiv_pos_site_id
 _symmetry_equiv_pos_as_xyz
  1  'x, y, z'
loop_
 _atom_site_type_symbol
 _atom_site_label
 _atom_site_symmetry_multiplicity
 _atom_site_fract_x
 _atom_site_fract_y
 _atom_site_fract_z
 _atom_site_occupancy
  Yb  Yb0  1  0.457024  0.457024  0.793678  1
  Yb  Yb1  1  0.542238  0.542238  0.205503  1
  Zn  Zn2  1  0.162884  0.162884  0.385355  1
  Zn  Zn3  1  0.164857  0.164857  0.785633  1
  Zn  Zn4  1  0.836140  0.836140  0.222652  1
  Ga  Ga5  1  0.836856  0.836856  0.607180  1
