# generated using pymatgen
data_Zr8Ti12Si15P
_symmetry_space_group_name_H-M   'P 1'
_cell_length_a   6.83508913
_cell_length_b   6.84101003
_cell_length_c   12.54154806
_cell_angle_alpha   89.94735887
_cell_angle_beta   89.93136108
_cell_angle_gamma   90.01625253
_symmetry_Int_Tables_number   1
_chemical_formula_structural   Zr8Ti12Si15P
_chemical_formula_sum   'Zr8 Ti12 Si15 P1'
_cell_volume   586.42846574
_cell_formula_units_Z   1
loop_
 _symmetry_equiv_pos_site_id
 _symmetry_equiv_pos_as_xyz
  1  'x, y, z'
loop_
 _atom_site_type_symbol
 _atom_site_label
 _atom_site_symmetry_multiplicity
 _atom_site_fract_x
 _atom_site_fract_y
 _atom_site_fract_z
 _atom_site_occupancy
  Zr  Zr0  1  0.000738  0.655838  0.032645  1
  Zr  Zr1  1  0.999619  0.347333  0.531110  1
  Zr  Zr2  1  0.656106  0.000557  0.967327  1
  Zr  Zr3  1  0.155662  0.499674  0.781952  1
  Zr  Zr4  1  0.845338  0.501926  0.283301  1
  Zr  Zr5  1  0.499078  0.155756  0.217720  1
  Zr  Zr6  1  0.501276  0.845466  0.717552  1
  Zr  Zr7  1  0.342341  0.997389  0.468028  1
  Ti  Ti8  1  0.342528  0.506582  0.378086  1
  Ti  Ti9  1  0.849970  0.991758  0.374704  1
  Ti  Ti10  1  0.004028  0.152444  0.126917  1
  Ti  Ti11  1  0.996664  0.846364  0.623461  1
  Ti  Ti12  1  0.504464  0.346159  0.622564  1
  Ti  Ti13  1  0.152680  0.004256  0.873409  1
  Ti  Ti14  1  0.673523  0.671570  0.499288  1
  Ti  Ti15  1  0.828537  0.171521  0.749670  1
  Ti  Ti16  1  0.170069  0.826946  0.252132  1
  Ti  Ti17  1  0.328621  0.328451  0.000104  1
  Ti  Ti18  1  0.496150  0.652324  0.123275  1
  Ti  Ti19  1  0.652929  0.496750  0.876769  1
  Si  Si20  1  0.954033  0.292996  0.936186  1
  Si  Si21  1  0.707373  0.047111  0.563581  1
  Si  Si22  1  0.207339  0.453421  0.186338  1
  Si  Si23  1  0.792347  0.546617  0.686227  1
  Si  Si24  1  0.453445  0.207836  0.813739  1
  Si  Si25  1  0.546227  0.792692  0.313686  1
  Si  Si26  1  0.292532  0.953453  0.064336  1
  Si  Si27  1  0.794045  0.865318  0.177811  1
  Si  Si28  1  0.297846  0.634236  0.574463  1
  Si  Si29  1  0.705516  0.364740  0.072512  1
  Si  Si30  1  0.633746  0.293927  0.426841  1
  Si  Si31  1  0.364729  0.705490  0.927696  1
  Si  Si32  1  0.134964  0.205313  0.322040  1
  Si  Si33  1  0.204005  0.135278  0.677404  1
  Si  Si34  1  0.865552  0.795036  0.821233  1
  P  P35  1  0.045977  0.707473  0.435891  1
