# generated using pymatgen
data_TbUPa2(Al3Rh)6
_symmetry_space_group_name_H-M   'P 1'
_cell_length_a   7.60098668
_cell_length_b   7.61945086
_cell_length_c   9.41587300
_cell_angle_alpha   90.00000000
_cell_angle_beta   90.00000000
_cell_angle_gamma   119.60993303
_symmetry_Int_Tables_number   1
_chemical_formula_structural   TbUPa2(Al3Rh)6
_chemical_formula_sum   'Tb1 U1 Pa2 Al18 Rh6'
_cell_volume   474.10933926
_cell_formula_units_Z   1
loop_
 _symmetry_equiv_pos_site_id
 _symmetry_equiv_pos_as_xyz
  1  'x, y, z'
loop_
 _atom_site_type_symbol
 _atom_site_label
 _atom_site_symmetry_multiplicity
 _atom_site_fract_x
 _atom_site_fract_y
 _atom_site_fract_z
 _atom_site_occupancy
  Tb  Tb0  1  0.668836  0.992617  0.250000  1
  U  U1  1  0.328584  0.006270  0.750000  1
  Pa  Pa2  1  0.999905  0.672794  0.250000  1
  Pa  Pa3  1  0.002046  0.329745  0.750000  1
  Al  Al4  1  0.129903  0.126189  0.250000  1
  Al  Al5  1  0.870755  0.872674  0.750000  1
  Al  Al6  1  0.999398  0.332156  0.077516  1
  Al  Al7  1  0.999654  0.667751  0.923726  1
  Al  Al8  1  0.999654  0.667751  0.576274  1
  Al  Al9  1  0.337872  0.003408  0.426183  1
  Al  Al10  1  0.999398  0.332156  0.422484  1
  Al  Al11  1  0.663064  0.996259  0.574409  1
  Al  Al12  1  0.663064  0.996259  0.925591  1
  Al  Al13  1  0.337872  0.003408  0.073817  1
  Al  Al14  1  0.333796  0.334482  0.551101  1
  Al  Al15  1  0.666145  0.666321  0.446347  1
  Al  Al16  1  0.666145  0.666321  0.053653  1
  Al  Al17  1  0.333796  0.334482  0.948899  1
  Al  Al18  1  0.340737  0.546737  0.250000  1
  Al  Al19  1  0.658419  0.452739  0.750000  1
  Al  Al20  1  0.553067  0.341951  0.250000  1
  Al  Al21  1  0.450368  0.659219  0.750000  1
  Rh  Rh22  1  0.674717  0.328944  0.998538  1
  Rh  Rh23  1  0.325446  0.669841  0.001536  1
  Rh  Rh24  1  0.325446  0.669841  0.498464  1
  Rh  Rh25  1  0.674717  0.328944  0.501462  1
  Rh  Rh26  1  0.998598  0.000369  0.000855  1
  Rh  Rh27  1  0.998598  0.000369  0.499145  1
