# generated using pymatgen
data_Sc6TcTe2
_symmetry_space_group_name_H-M   'P 1'
_cell_length_a   7.77256000
_cell_length_b   7.77255928
_cell_length_c   3.89388500
_cell_angle_alpha   90.00000000
_cell_angle_beta   90.00000000
_cell_angle_gamma   120.00001159
_symmetry_Int_Tables_number   1
_chemical_formula_structural   Sc6TcTe2
_chemical_formula_sum   'Sc6 Tc1 Te2'
_cell_volume   203.72382808
_cell_formula_units_Z   1
loop_
 _symmetry_equiv_pos_site_id
 _symmetry_equiv_pos_as_xyz
  1  'x, y, z'
loop_
 _atom_site_type_symbol
 _atom_site_label
 _atom_site_symmetry_multiplicity
 _atom_site_fract_x
 _atom_site_fract_y
 _atom_site_fract_z
 _atom_site_occupancy
  Sc  Sc0  1  0.237567  0.000000  0.000000  1
  Sc  Sc1  1  0.762433  0.762433  0.000000  1
  Sc  Sc2  1  0.000000  0.237567  0.000000  1
  Sc  Sc3  1  0.615278  0.000000  0.500000  1
  Sc  Sc4  1  0.384722  0.384722  0.500000  1
  Sc  Sc5  1  0.000000  0.615278  0.500000  1
  Tc  Tc6  1  0.000000  0.000000  0.500000  1
  Te  Te7  1  0.333333  0.666667  0.000000  1
  Te  Te8  1  0.666667  0.333333  0.000000  1
