# generated using pymatgen
data_Y10(GaBi)3
_symmetry_space_group_name_H-M   'P 1'
_cell_length_a   8.85926400
_cell_length_b   8.89474601
_cell_length_c   6.57995500
_cell_angle_alpha   90.00000000
_cell_angle_beta   90.00000000
_cell_angle_gamma   119.86813664
_symmetry_Int_Tables_number   1
_chemical_formula_structural   Y10(GaBi)3
_chemical_formula_sum   'Y10 Ga3 Bi3'
_cell_volume   449.63517977
_cell_formula_units_Z   1
loop_
 _symmetry_equiv_pos_site_id
 _symmetry_equiv_pos_as_xyz
  1  'x, y, z'
loop_
 _atom_site_type_symbol
 _atom_site_label
 _atom_site_symmetry_multiplicity
 _atom_site_fract_x
 _atom_site_fract_y
 _atom_site_fract_z
 _atom_site_occupancy
  Y  Y0  1  0.324209  0.667861  0.004908  1
  Y  Y1  1  0.656349  0.332139  0.495092  1
  Y  Y2  1  0.656349  0.332139  0.004908  1
  Y  Y3  1  0.324209  0.667861  0.495092  1
  Y  Y4  1  0.233199  0.000000  0.250000  1
  Y  Y5  1  0.243123  0.226730  0.750000  1
  Y  Y6  1  0.016393  0.773270  0.750000  1
  Y  Y7  1  0.017133  0.250370  0.250000  1
  Y  Y8  1  0.766763  0.749630  0.250000  1
  Y  Y9  1  0.754293  0.000000  0.750000  1
  Ga  Ga10  1  0.998504  0.601935  0.250000  1
  Ga  Ga11  1  0.396569  0.398065  0.250000  1
  Ga  Ga12  1  0.400052  0.000000  0.750000  1
  Bi  Bi13  1  0.611696  0.000000  0.250000  1
  Bi  Bi14  1  0.604935  0.608710  0.750000  1
  Bi  Bi15  1  0.996224  0.391290  0.750000  1
