# generated using pymatgen
data_Sc5(TlSi)2
_symmetry_space_group_name_H-M   'P 1'
_cell_length_a   8.41085295
_cell_length_b   8.41085179
_cell_length_c   7.16542300
_cell_angle_alpha   90.00000000
_cell_angle_beta   90.00000000
_cell_angle_gamma   129.39082792
_symmetry_Int_Tables_number   1
_chemical_formula_structural   Sc5(TlSi)2
_chemical_formula_sum   'Sc10 Tl4 Si4'
_cell_volume   391.74975465
_cell_formula_units_Z   2
loop_
 _symmetry_equiv_pos_site_id
 _symmetry_equiv_pos_as_xyz
  1  'x, y, z'
loop_
 _atom_site_type_symbol
 _atom_site_label
 _atom_site_symmetry_multiplicity
 _atom_site_fract_x
 _atom_site_fract_y
 _atom_site_fract_z
 _atom_site_occupancy
  Sc  Sc0  1  0.556003  0.795584  0.173241  1
  Sc  Sc1  1  0.295584  0.056003  0.326759  1
  Sc  Sc2  1  0.204416  0.443997  0.826759  1
  Sc  Sc3  1  0.943997  0.704416  0.673241  1
  Sc  Sc4  1  0.704416  0.943997  0.673241  1
  Sc  Sc5  1  0.443997  0.204416  0.826759  1
  Sc  Sc6  1  0.795584  0.556003  0.173241  1
  Sc  Sc7  1  0.056003  0.295584  0.326759  1
  Sc  Sc8  1  0.500000  0.500000  0.500000  1
  Sc  Sc9  1  0.000000  0.000000  0.000000  1
  Tl  Tl10  1  0.279287  0.720713  0.500000  1
  Tl  Tl11  1  0.220713  0.779287  0.000000  1
  Tl  Tl12  1  0.720713  0.279287  0.500000  1
  Tl  Tl13  1  0.779287  0.220713  0.000000  1
  Si  Si14  1  0.625912  0.625912  0.872885  1
  Si  Si15  1  0.125912  0.125912  0.627115  1
  Si  Si16  1  0.874088  0.874088  0.372885  1
  Si  Si17  1  0.374088  0.374088  0.127115  1
