# generated using pymatgen
data_Pr3Tc2PbO12
_symmetry_space_group_name_H-M   'P 1'
_cell_length_a   10.33123841
_cell_length_b   10.33123754
_cell_length_c   5.67176847
_cell_angle_alpha   75.49143514
_cell_angle_beta   75.49142541
_cell_angle_gamma   69.40216255
_symmetry_Int_Tables_number   1
_chemical_formula_structural   Pr3Tc2PbO12
_chemical_formula_sum   'Pr6 Tc4 Pb2 O24'
_cell_volume   539.72261318
_cell_formula_units_Z   2
loop_
 _symmetry_equiv_pos_site_id
 _symmetry_equiv_pos_as_xyz
  1  'x, y, z'
loop_
 _atom_site_type_symbol
 _atom_site_label
 _atom_site_symmetry_multiplicity
 _atom_site_fract_x
 _atom_site_fract_y
 _atom_site_fract_z
 _atom_site_occupancy
  Pr  Pr0  1  0.109229  0.890771  0.750000  1
  Pr  Pr1  1  0.890771  0.109229  0.250000  1
  Pr  Pr2  1  0.713250  0.940278  0.874954  1
  Pr  Pr3  1  0.286750  0.059722  0.125046  1
  Pr  Pr4  1  0.059722  0.286750  0.625046  1
  Pr  Pr5  1  0.940278  0.713250  0.374954  1
  Tc  Tc6  1  0.502446  0.804466  0.550149  1
  Tc  Tc7  1  0.497554  0.195534  0.449851  1
  Tc  Tc8  1  0.195534  0.497554  0.949851  1
  Tc  Tc9  1  0.804466  0.502446  0.050149  1
  Pb  Pb10  1  0.637677  0.362323  0.750000  1
  Pb  Pb11  1  0.362323  0.637677  0.250000  1
  O  O12  1  0.687841  0.155971  0.583554  1
  O  O13  1  0.312159  0.844029  0.416446  1
  O  O14  1  0.844029  0.312159  0.916446  1
  O  O15  1  0.155971  0.687841  0.083554  1
  O  O16  1  0.386038  0.831935  0.841916  1
  O  O17  1  0.613962  0.168065  0.158084  1
  O  O18  1  0.168065  0.613962  0.658084  1
  O  O19  1  0.831935  0.386038  0.341916  1
  O  O20  1  0.669199  0.794970  0.625129  1
  O  O21  1  0.330801  0.205030  0.374871  1
  O  O22  1  0.205030  0.330801  0.874871  1
  O  O23  1  0.794970  0.669199  0.125129  1
  O  O24  1  0.471230  0.074856  0.742671  1
  O  O25  1  0.528770  0.925144  0.257329  1
  O  O26  1  0.925144  0.528770  0.757329  1
  O  O27  1  0.074856  0.471230  0.242671  1
  O  O28  1  0.539664  0.629476  0.514164  1
  O  O29  1  0.460336  0.370524  0.485836  1
  O  O30  1  0.370524  0.460336  0.985836  1
  O  O31  1  0.629476  0.539664  0.014164  1
  O  O32  1  0.889512  0.924499  0.074921  1
  O  O33  1  0.110488  0.075501  0.925079  1
  O  O34  1  0.075501  0.110488  0.425079  1
  O  O35  1  0.924499  0.889512  0.574921  1
