# generated using pymatgen
data_Sc7Sn23Rh6
_symmetry_space_group_name_H-M   'P 1'
_cell_length_a   9.69036400
_cell_length_b   9.69036179
_cell_length_c   9.99117200
_cell_angle_alpha   90.00000000
_cell_angle_beta   90.00000000
_cell_angle_gamma   119.99999389
_symmetry_Int_Tables_number   1
_chemical_formula_structural   Sc7Sn23Rh6
_chemical_formula_sum   'Sc7 Sn23 Rh6'
_cell_volume   812.50712218
_cell_formula_units_Z   1
loop_
 _symmetry_equiv_pos_site_id
 _symmetry_equiv_pos_as_xyz
  1  'x, y, z'
loop_
 _atom_site_type_symbol
 _atom_site_label
 _atom_site_symmetry_multiplicity
 _atom_site_fract_x
 _atom_site_fract_y
 _atom_site_fract_z
 _atom_site_occupancy
  Sc  Sc0  1  0.000000  0.000000  0.000000  1
  Sc  Sc1  1  0.518668  0.481332  0.690248  1
  Sc  Sc2  1  0.518668  0.037335  0.690248  1
  Sc  Sc3  1  0.962665  0.481332  0.690248  1
  Sc  Sc4  1  0.037335  0.518668  0.309752  1
  Sc  Sc5  1  0.481332  0.962665  0.309752  1
  Sc  Sc6  1  0.481332  0.518668  0.309752  1
  Sn  Sn7  1  0.666667  0.333333  0.177963  1
  Sn  Sn8  1  0.666667  0.333333  0.863076  1
  Sn  Sn9  1  0.333333  0.666667  0.136924  1
  Sn  Sn10  1  0.350710  0.350710  0.000000  1
  Sn  Sn11  1  0.000000  0.649290  0.000000  1
  Sn  Sn12  1  0.649290  0.000000  0.000000  1
  Sn  Sn13  1  0.649290  0.649290  0.000000  1
  Sn  Sn14  1  0.333333  0.666667  0.822037  1
  Sn  Sn15  1  0.447273  0.223637  0.457824  1
  Sn  Sn16  1  0.223637  0.776363  0.542176  1
  Sn  Sn17  1  0.223637  0.447273  0.542176  1
  Sn  Sn18  1  0.552727  0.776363  0.542176  1
  Sn  Sn19  1  0.122642  0.877358  0.281896  1
  Sn  Sn20  1  0.776363  0.552727  0.457824  1
  Sn  Sn21  1  0.776363  0.223637  0.457824  1
  Sn  Sn22  1  0.350710  0.000000  0.000000  1
  Sn  Sn23  1  0.122642  0.245283  0.281896  1
  Sn  Sn24  1  0.754717  0.877358  0.281896  1
  Sn  Sn25  1  0.245283  0.122642  0.718104  1
  Sn  Sn26  1  0.877358  0.754717  0.718104  1
  Sn  Sn27  1  0.877358  0.122642  0.718104  1
  Sn  Sn28  1  0.000000  0.000000  0.500000  1
  Sn  Sn29  1  0.000000  0.350710  0.000000  1
  Rh  Rh30  1  0.169615  0.830385  0.799390  1
  Rh  Rh31  1  0.169615  0.339230  0.799390  1
  Rh  Rh32  1  0.660770  0.830385  0.799390  1
  Rh  Rh33  1  0.339230  0.169615  0.200610  1
  Rh  Rh34  1  0.830385  0.660770  0.200610  1
  Rh  Rh35  1  0.830385  0.169615  0.200610  1
