# generated using pymatgen
data_MgPaBr6
_symmetry_space_group_name_H-M   'P 1'
_cell_length_a   8.13587499
_cell_length_b   8.13587443
_cell_length_c   8.13587442
_cell_angle_alpha   51.03196806
_cell_angle_beta   51.03196128
_cell_angle_gamma   51.03196611
_symmetry_Int_Tables_number   1
_chemical_formula_structural   MgPaBr6
_chemical_formula_sum   'Mg1 Pa1 Br6'
_cell_volume   300.30281963
_cell_formula_units_Z   1
loop_
 _symmetry_equiv_pos_site_id
 _symmetry_equiv_pos_as_xyz
  1  'x, y, z'
loop_
 _atom_site_type_symbol
 _atom_site_label
 _atom_site_symmetry_multiplicity
 _atom_site_fract_x
 _atom_site_fract_y
 _atom_site_fract_z
 _atom_site_occupancy
  Mg  Mg0  1  0.666782  0.666782  0.666782  1
  Pa  Pa1  1  0.333361  0.333361  0.333361  1
  Br  Br2  1  0.434064  0.728199  0.062735  1
  Br  Br3  1  0.284006  0.913018  0.577835  1
  Br  Br4  1  0.577835  0.284006  0.913018  1
  Br  Br5  1  0.062735  0.434064  0.728199  1
  Br  Br6  1  0.913018  0.577835  0.284006  1
  Br  Br7  1  0.728199  0.062735  0.434064  1
