# generated using pymatgen
data_Pr2Pb2O7
_symmetry_space_group_name_H-M   'P 1'
_cell_length_a   7.81206500
_cell_length_b   7.81206370
_cell_length_c   7.81206500
_cell_angle_alpha   120.00000129
_cell_angle_beta   90.00000000
_cell_angle_gamma   120.00000129
_symmetry_Int_Tables_number   1
_chemical_formula_structural   Pr2Pb2O7
_chemical_formula_sum   'Pr4 Pb4 O14'
_cell_volume   337.11840018
_cell_formula_units_Z   2
loop_
 _symmetry_equiv_pos_site_id
 _symmetry_equiv_pos_as_xyz
  1  'x, y, z'
loop_
 _atom_site_type_symbol
 _atom_site_label
 _atom_site_symmetry_multiplicity
 _atom_site_fract_x
 _atom_site_fract_y
 _atom_site_fract_z
 _atom_site_occupancy
  Pr  Pr0  1  0.000000  0.500001  0.000000  1
  Pr  Pr1  1  0.500000  0.000000  0.500000  1
  Pr  Pr2  1  0.000000  0.000000  0.500001  1
  Pr  Pr3  1  0.000000  0.500001  0.500001  1
  Pb  Pb4  1  0.000000  0.000000  0.000000  1
  Pb  Pb5  1  0.500001  0.000000  0.000000  1
  Pb  Pb6  1  0.500001  0.500001  0.000000  1
  Pb  Pb7  1  0.500001  0.500001  0.500001  1
  O  O8  1  0.842574  0.185149  0.092575  1
  O  O9  1  0.407424  0.749999  0.092575  1
  O  O10  1  0.842574  0.749999  0.092575  1
  O  O11  1  0.157425  0.250000  0.342574  1
  O  O12  1  0.592575  0.250000  0.342575  1
  O  O13  1  0.592575  0.685150  0.342575  1
  O  O14  1  0.125000  0.749999  0.374999  1
  O  O15  1  0.874999  0.250000  0.625000  1
  O  O16  1  0.407424  0.314851  0.657424  1
  O  O17  1  0.407424  0.749999  0.657424  1
  O  O18  1  0.842574  0.749999  0.657424  1
  O  O19  1  0.157425  0.250000  0.907424  1
  O  O20  1  0.157425  0.814850  0.907424  1
  O  O21  1  0.592575  0.250000  0.907424  1
