# generated using pymatgen
data_Yb5PrY2(Cu2Sn5)2
_symmetry_space_group_name_H-M   'P 1'
_cell_length_a   4.47052600
_cell_length_b   8.83316200
_cell_length_c   14.12462500
_cell_angle_alpha   90.00000000
_cell_angle_beta   90.00000000
_cell_angle_gamma   90.00000000
_symmetry_Int_Tables_number   1
_chemical_formula_structural   Yb5PrY2(Cu2Sn5)2
_chemical_formula_sum   'Yb5 Pr1 Y2 Cu4 Sn10'
_cell_volume   557.76562708
_cell_formula_units_Z   1
loop_
 _symmetry_equiv_pos_site_id
 _symmetry_equiv_pos_as_xyz
  1  'x, y, z'
loop_
 _atom_site_type_symbol
 _atom_site_label
 _atom_site_symmetry_multiplicity
 _atom_site_fract_x
 _atom_site_fract_y
 _atom_site_fract_z
 _atom_site_occupancy
  Yb  Yb0  1  0.500000  0.791144  0.741766  1
  Yb  Yb1  1  0.000000  0.206891  0.755138  1
  Yb  Yb2  1  0.000000  0.206891  0.244862  1
  Yb  Yb3  1  0.000000  0.864873  0.500000  1
  Yb  Yb4  1  0.500000  0.791144  0.258234  1
  Pr  Pr5  1  0.500000  0.138678  0.000000  1
  Y  Y6  1  0.500000  0.694912  0.000000  1
  Y  Y7  1  0.000000  0.298824  0.500000  1
  Cu  Cu8  1  0.500000  0.379067  0.643995  1
  Cu  Cu9  1  0.000000  0.622830  0.853883  1
  Cu  Cu10  1  0.000000  0.622830  0.146117  1
  Cu  Cu11  1  0.500000  0.379067  0.356005  1
  Sn  Sn12  1  0.500000  0.085130  0.395976  1
  Sn  Sn13  1  0.000000  0.553336  0.663133  1
  Sn  Sn14  1  0.000000  0.412995  0.000000  1
  Sn  Sn15  1  0.500000  0.445131  0.164797  1
  Sn  Sn16  1  0.500000  0.594438  0.500000  1
  Sn  Sn17  1  0.500000  0.445131  0.835203  1
  Sn  Sn18  1  0.000000  0.914112  0.895995  1
  Sn  Sn19  1  0.000000  0.553336  0.336867  1
  Sn  Sn20  1  0.500000  0.085130  0.604024  1
  Sn  Sn21  1  0.000000  0.914112  0.104005  1
