# generated using pymatgen
data_Y2Tm2LuRu2
_symmetry_space_group_name_H-M   'P 1'
_cell_length_a   6.25436085
_cell_length_b   7.26972382
_cell_length_c   8.40803899
_cell_angle_alpha   97.09523417
_cell_angle_beta   111.83453770
_cell_angle_gamma   89.99999714
_symmetry_Int_Tables_number   1
_chemical_formula_structural   Y2Tm2LuRu2
_chemical_formula_sum   'Y4 Tm4 Lu2 Ru4'
_cell_volume   351.71163647
_cell_formula_units_Z   2
loop_
 _symmetry_equiv_pos_site_id
 _symmetry_equiv_pos_as_xyz
  1  'x, y, z'
loop_
 _atom_site_type_symbol
 _atom_site_label
 _atom_site_symmetry_multiplicity
 _atom_site_fract_x
 _atom_site_fract_y
 _atom_site_fract_z
 _atom_site_occupancy
  Y  Y0  1  0.522901  0.081822  0.809933  1
  Y  Y1  1  0.477099  0.918178  0.190067  1
  Y  Y2  1  0.712968  0.418178  0.190067  1
  Y  Y3  1  0.287032  0.581822  0.809933  1
  Tm  Tm4  1  0.300809  0.314520  0.433763  1
  Tm  Tm5  1  0.699191  0.685480  0.566237  1
  Tm  Tm6  1  0.867048  0.185480  0.566237  1
  Tm  Tm7  1  0.132952  0.814520  0.433763  1
  Lu  Lu8  1  0.079596  0.250000  0.000000  1
  Lu  Lu9  1  0.920404  0.750000  0.000000  1
  Ru  Ru10  1  0.314530  0.575173  0.222638  1
  Ru  Ru11  1  0.685470  0.424827  0.777362  1
  Ru  Ru12  1  0.091894  0.924827  0.777362  1
  Ru  Ru13  1  0.908106  0.075173  0.222638  1
