# generated using pymatgen
data_PaSe27
_symmetry_space_group_name_H-M   'P 1'
_cell_length_a   7.57922397
_cell_length_b   10.16457883
_cell_length_c   13.61645138
_cell_angle_alpha   91.61158734
_cell_angle_beta   84.00914927
_cell_angle_gamma   89.69150531
_symmetry_Int_Tables_number   1
_chemical_formula_structural   PaSe27
_chemical_formula_sum   'Pa1 Se27'
_cell_volume   1042.82797613
_cell_formula_units_Z   1
loop_
 _symmetry_equiv_pos_site_id
 _symmetry_equiv_pos_as_xyz
  1  'x, y, z'
loop_
 _atom_site_type_symbol
 _atom_site_label
 _atom_site_symmetry_multiplicity
 _atom_site_fract_x
 _atom_site_fract_y
 _atom_site_fract_z
 _atom_site_occupancy
  Pa  Pa0  1  0.266950  0.479485  0.147569  1
  Se  Se1  1  0.569722  0.509201  0.906062  1
  Se  Se2  1  0.070373  0.841245  0.297879  1
  Se  Se3  1  0.557532  0.103278  0.172361  1
  Se  Se4  1  0.908951  0.966140  0.626722  1
  Se  Se5  1  0.378873  0.005500  0.832347  1
  Se  Se6  1  0.923878  0.495821  0.413012  1
  Se  Se7  1  0.126050  0.553742  0.699025  1
  Se  Se8  1  0.414650  0.586992  0.324311  1
  Se  Se9  1  0.697191  0.398766  0.632178  1
  Se  Se10  1  0.148111  0.211783  0.132890  1
  Se  Se11  1  0.572767  0.963262  0.307905  1
  Se  Se12  1  0.856975  0.933376  0.803476  1
  Se  Se13  1  0.358446  0.107520  0.663979  1
  Se  Se14  1  0.929672  0.373654  0.114089  1
  Se  Se15  1  0.138157  0.658409  0.014959  1
  Se  Se16  1  0.348648  0.760452  0.102472  1
  Se  Se17  1  0.696807  0.114394  0.859684  1
  Se  Se18  1  0.271427  0.385479  0.352540  1
  Se  Se19  1  0.620680  0.609518  0.054920  1
  Se  Se20  1  0.753724  0.596700  0.563302  1
  Se  Se21  1  0.390274  0.324810  0.980899  1
  Se  Se22  1  0.840942  0.975461  0.381016  1
  Se  Se23  1  0.219121  0.933874  0.591264  1
  Se  Se24  1  0.939358  0.628900  0.269206  1
  Se  Se25  1  0.990506  0.361856  0.711076  1
  Se  Se26  1  0.553050  0.323436  0.243960  1
  Se  Se27  1  0.457167  0.796945  0.800897  1
