# generated using pymatgen
data_Gd3Mg2ZrIr3
_symmetry_space_group_name_H-M   'P 1'
_cell_length_a   7.18535900
_cell_length_b   7.33288879
_cell_length_c   4.23466900
_cell_angle_alpha   90.00000000
_cell_angle_beta   90.00000000
_cell_angle_gamma   119.33666909
_symmetry_Int_Tables_number   1
_chemical_formula_structural   Gd3Mg2ZrIr3
_chemical_formula_sum   'Gd3 Mg2 Zr1 Ir3'
_cell_volume   194.50820704
_cell_formula_units_Z   1
loop_
 _symmetry_equiv_pos_site_id
 _symmetry_equiv_pos_as_xyz
  1  'x, y, z'
loop_
 _atom_site_type_symbol
 _atom_site_label
 _atom_site_symmetry_multiplicity
 _atom_site_fract_x
 _atom_site_fract_y
 _atom_site_fract_z
 _atom_site_occupancy
  Gd  Gd0  1  0.398932  0.000000  0.499999  1
  Gd  Gd1  1  0.006826  0.421969  0.499999  1
  Gd  Gd2  1  0.584856  0.578031  0.499999  1
  Mg  Mg3  1  0.247312  0.246033  0.000000  1
  Mg  Mg4  1  0.001280  0.753968  0.000000  1
  Zr  Zr5  1  0.753544  0.000000  0.000000  1
  Ir  Ir6  1  0.676391  0.325670  0.000000  1
  Ir  Ir7  1  0.350719  0.674329  0.000000  1
  Ir  Ir8  1  0.980137  0.000000  0.499999  1
