# generated using pymatgen
data_Sc2Fe8Co4P7
_symmetry_space_group_name_H-M   'P 1'
_cell_length_a   8.89781894
_cell_length_b   8.89553906
_cell_length_c   3.55349100
_cell_angle_alpha   90.00000000
_cell_angle_beta   90.00000000
_cell_angle_gamma   119.86529447
_symmetry_Int_Tables_number   1
_chemical_formula_structural   Sc2Fe8Co4P7
_chemical_formula_sum   'Sc2 Fe8 Co4 P7'
_cell_volume   243.90999166
_cell_formula_units_Z   1
loop_
 _symmetry_equiv_pos_site_id
 _symmetry_equiv_pos_as_xyz
  1  'x, y, z'
loop_
 _atom_site_type_symbol
 _atom_site_label
 _atom_site_symmetry_multiplicity
 _atom_site_fract_x
 _atom_site_fract_y
 _atom_site_fract_z
 _atom_site_occupancy
  Sc  Sc0  1  0.667231  0.333807  0.000000  1
  Sc  Sc1  1  0.998744  0.998729  0.500000  1
  Fe  Fe2  1  0.766170  0.038289  0.000000  1
  Fe  Fe3  1  0.962217  0.728335  0.000000  1
  Fe  Fe4  1  0.717379  0.615805  0.500000  1
  Fe  Fe5  1  0.383480  0.102238  0.500000  1
  Fe  Fe6  1  0.898491  0.283252  0.500000  1
  Fe  Fe7  1  0.553362  0.791306  0.500000  1
  Fe  Fe8  1  0.208922  0.763100  0.500000  1
  Fe  Fe9  1  0.236685  0.442153  0.500000  1
  Co  Co10  1  0.270789  0.233291  0.000000  1
  Co  Co11  1  0.489211  0.546983  0.000000  1
  Co  Co12  1  0.452996  0.942988  0.000000  1
  Co  Co13  1  0.059072  0.511097  0.000000  1
  P  P14  1  0.746579  0.783241  0.000000  1
  P  P15  1  0.216270  0.962033  0.000000  1
  P  P16  1  0.035224  0.253222  0.000000  1
  P  P17  1  0.452773  0.376656  0.500000  1
  P  P18  1  0.625111  0.075626  0.500000  1
  P  P19  1  0.925409  0.550453  0.500000  1
  P  P20  1  0.333884  0.667397  0.000000  1
