# generated using pymatgen
data_ZnBi3Ir2(RhO7)2
_symmetry_space_group_name_H-M   'P 1'
_cell_length_a   7.36245383
_cell_length_b   7.18606702
_cell_length_c   7.35339328
_cell_angle_alpha   59.23499989
_cell_angle_beta   59.95922691
_cell_angle_gamma   59.18465694
_symmetry_Int_Tables_number   1
_chemical_formula_structural   ZnBi3Ir2(RhO7)2
_chemical_formula_sum   'Zn1 Bi3 Ir2 Rh2 O14'
_cell_volume   271.68409100
_cell_formula_units_Z   1
loop_
 _symmetry_equiv_pos_site_id
 _symmetry_equiv_pos_as_xyz
  1  'x, y, z'
loop_
 _atom_site_type_symbol
 _atom_site_label
 _atom_site_symmetry_multiplicity
 _atom_site_fract_x
 _atom_site_fract_y
 _atom_site_fract_z
 _atom_site_occupancy
  Zn  Zn0  1  0.125000  0.625000  0.125000  1
  Bi  Bi1  1  0.125000  0.125000  0.125000  1
  Bi  Bi2  1  0.625000  0.125000  0.125000  1
  Bi  Bi3  1  0.125000  0.125000  0.625000  1
  Ir  Ir4  1  0.625000  0.625000  0.625000  1
  Ir  Ir5  1  0.125000  0.625000  0.625000  1
  Rh  Rh6  1  0.625000  0.625000  0.125000  1
  Rh  Rh7  1  0.625000  0.125000  0.625000  1
  O  O8  1  0.236140  0.289559  0.238162  1
  O  O9  1  0.292295  0.702559  0.298132  1
  O  O10  1  0.959625  0.959656  0.542638  1
  O  O11  1  0.538081  0.959656  0.542638  1
  O  O12  1  0.707014  0.702559  0.298132  1
  O  O13  1  0.949982  0.545759  0.554276  1
  O  O14  1  0.711919  0.290344  0.707362  1
  O  O15  1  0.290375  0.290344  0.707362  1
  O  O16  1  0.711965  0.286034  0.290035  1
  O  O17  1  0.300018  0.704241  0.695724  1
  O  O18  1  0.957705  0.547441  0.951868  1
  O  O19  1  0.542986  0.547441  0.951868  1
  O  O20  1  0.013860  0.960441  0.011838  1
  O  O21  1  0.538035  0.963966  0.959965  1
