# generated using pymatgen
data_Tb15Lu5Si15Os
_symmetry_space_group_name_H-M   'P 1'
_cell_length_a   7.36797547
_cell_length_b   7.74071457
_cell_length_c   14.54729196
_cell_angle_alpha   90.03767327
_cell_angle_beta   90.13537418
_cell_angle_gamma   90.17459807
_symmetry_Int_Tables_number   1
_chemical_formula_structural   Tb15Lu5Si15Os
_chemical_formula_sum   'Tb15 Lu5 Si15 Os1'
_cell_volume   829.67509861
_cell_formula_units_Z   1
loop_
 _symmetry_equiv_pos_site_id
 _symmetry_equiv_pos_as_xyz
  1  'x, y, z'
loop_
 _atom_site_type_symbol
 _atom_site_label
 _atom_site_symmetry_multiplicity
 _atom_site_fract_x
 _atom_site_fract_y
 _atom_site_fract_z
 _atom_site_occupancy
  Tb  Tb0  1  0.190877  0.325671  0.873190  1
  Tb  Tb1  1  0.318140  0.820281  0.124275  1
  Tb  Tb2  1  0.817810  0.677141  0.376429  1
  Tb  Tb3  1  0.319114  0.820847  0.376843  1
  Tb  Tb4  1  0.816558  0.676802  0.124031  1
  Tb  Tb5  1  0.672037  0.185756  0.873027  1
  Tb  Tb6  1  0.192087  0.324885  0.626157  1
  Tb  Tb7  1  0.522479  0.671984  0.598151  1
  Tb  Tb8  1  0.025311  0.817256  0.902179  1
  Tb  Tb9  1  0.473227  0.314917  0.097699  1
  Tb  Tb10  1  0.974333  0.182500  0.402668  1
  Tb  Tb11  1  0.475560  0.315570  0.403867  1
  Tb  Tb12  1  0.973774  0.182721  0.097971  1
  Tb  Tb13  1  0.522445  0.673323  0.900958  1
  Tb  Tb14  1  0.025179  0.816954  0.596612  1
  Lu  Lu15  1  0.670581  0.186682  0.627078  1
  Lu  Lu16  1  0.841148  0.511521  0.748996  1
  Lu  Lu17  1  0.354196  0.990260  0.749500  1
  Lu  Lu18  1  0.151320  0.484421  0.250346  1
  Lu  Lu19  1  0.650563  0.014024  0.250438  1
  Si  Si20  1  0.649545  0.972260  0.462722  1
  Si  Si21  1  0.148098  0.527916  0.040107  1
  Si  Si22  1  0.349194  0.026169  0.960438  1
  Si  Si23  1  0.853238  0.468381  0.539713  1
  Si  Si24  1  0.352537  0.025554  0.540720  1
  Si  Si25  1  0.856290  0.471904  0.959848  1
  Si  Si26  1  0.645878  0.971194  0.039539  1
  Si  Si27  1  0.148370  0.527607  0.459905  1
  Si  Si28  1  0.980108  0.098924  0.748148  1
  Si  Si29  1  0.520689  0.600912  0.250445  1
  Si  Si30  1  0.018070  0.898195  0.250220  1
  Si  Si31  1  0.737978  0.874833  0.748430  1
  Si  Si32  1  0.229628  0.636476  0.749907  1
  Si  Si33  1  0.269580  0.131320  0.250439  1
  Si  Si34  1  0.771792  0.368074  0.250277  1
  Os  Os35  1  0.482261  0.406764  0.748725  1
