# generated using pymatgen
data_Tm4CdPt11
_symmetry_space_group_name_H-M   'P 1'
_cell_length_a   4.16533900
_cell_length_b   5.78940086
_cell_length_c   11.58986702
_cell_angle_alpha   88.33464521
_cell_angle_beta   90.00000000
_cell_angle_gamma   90.00000000
_symmetry_Int_Tables_number   1
_chemical_formula_structural   Tm4CdPt11
_chemical_formula_sum   'Tm4 Cd1 Pt11'
_cell_volume   279.36947320
_cell_formula_units_Z   1
loop_
 _symmetry_equiv_pos_site_id
 _symmetry_equiv_pos_as_xyz
  1  'x, y, z'
loop_
 _atom_site_type_symbol
 _atom_site_label
 _atom_site_symmetry_multiplicity
 _atom_site_fract_x
 _atom_site_fract_y
 _atom_site_fract_z
 _atom_site_occupancy
  Tm  Tm0  1  0.500000  0.754375  0.374822  1
  Tm  Tm1  1  0.500000  0.724596  0.865123  1
  Tm  Tm2  1  0.500000  0.275404  0.134877  1
  Tm  Tm3  1  0.500000  0.245625  0.625178  1
  Cd  Cd4  1  0.000000  0.000000  0.000000  1
  Pt  Pt5  1  0.000000  0.012010  0.250462  1
  Pt  Pt6  1  0.000000  0.987990  0.749538  1
  Pt  Pt7  1  0.000000  0.500000  0.000000  1
  Pt  Pt8  1  0.000000  0.500000  0.500000  1
  Pt  Pt9  1  0.000000  0.513811  0.250141  1
  Pt  Pt10  1  0.000000  0.486189  0.749859  1
  Pt  Pt11  1  0.500000  0.252381  0.377776  1
  Pt  Pt12  1  0.500000  0.234812  0.877813  1
  Pt  Pt13  1  0.500000  0.765188  0.122187  1
  Pt  Pt14  1  0.500000  0.747619  0.622224  1
  Pt  Pt15  1  0.000000  0.000000  0.500000  1
