# generated using pymatgen
data_Lu2VCo3
_symmetry_space_group_name_H-M   'P 1'
_cell_length_a   4.85534677
_cell_length_b   4.85534758
_cell_length_c   4.85534794
_cell_angle_alpha   65.63150095
_cell_angle_beta   65.63149756
_cell_angle_gamma   65.63147916
_symmetry_Int_Tables_number   1
_chemical_formula_structural   Lu2VCo3
_chemical_formula_sum   'Lu2 V1 Co3'
_cell_volume   90.83394924
_cell_formula_units_Z   1
loop_
 _symmetry_equiv_pos_site_id
 _symmetry_equiv_pos_as_xyz
  1  'x, y, z'
loop_
 _atom_site_type_symbol
 _atom_site_label
 _atom_site_symmetry_multiplicity
 _atom_site_fract_x
 _atom_site_fract_y
 _atom_site_fract_z
 _atom_site_occupancy
  Lu  Lu0  1  0.628947  0.628947  0.628947  1
  Lu  Lu1  1  0.371053  0.371053  0.371053  1
  V  V2  1  0.000000  0.000000  0.000000  1
  Co  Co3  1  0.000000  0.500000  0.000000  1
  Co  Co4  1  0.500000  0.000000  0.000000  1
  Co  Co5  1  0.000000  0.000000  0.500000  1
