# generated using pymatgen
data_U2Fe2Ni19B6
_symmetry_space_group_name_H-M   'P 1'
_cell_length_a   7.49049367
_cell_length_b   7.54686803
_cell_length_c   7.54686800
_cell_angle_alpha   60.00000012
_cell_angle_beta   59.75072422
_cell_angle_gamma   59.75072673
_symmetry_Int_Tables_number   1
_chemical_formula_structural   U2Fe2Ni19B6
_chemical_formula_sum   'U2 Fe2 Ni19 B6'
_cell_volume   300.52617861
_cell_formula_units_Z   1
loop_
 _symmetry_equiv_pos_site_id
 _symmetry_equiv_pos_as_xyz
  1  'x, y, z'
loop_
 _atom_site_type_symbol
 _atom_site_label
 _atom_site_symmetry_multiplicity
 _atom_site_fract_x
 _atom_site_fract_y
 _atom_site_fract_z
 _atom_site_occupancy
  U  U0  1  0.233519  0.255494  0.255494  1
  U  U1  1  0.766481  0.744506  0.744506  1
  Fe  Fe2  1  0.875543  0.374819  0.374819  1
  Fe  Fe3  1  0.124457  0.625181  0.625181  1
  Ni  Ni4  1  0.343759  0.996563  0.996563  1
  Ni  Ni5  1  0.656241  0.003437  0.003437  1
  Ni  Ni6  1  0.000000  0.337139  0.662861  1
  Ni  Ni7  1  0.000000  0.662861  0.337139  1
  Ni  Ni8  1  0.000000  0.337139  0.000000  1
  Ni  Ni9  1  0.656241  0.003437  0.336884  1
  Ni  Ni10  1  0.000000  0.662861  0.000000  1
  Ni  Ni11  1  0.343759  0.996563  0.663116  1
  Ni  Ni12  1  0.000000  0.000000  0.337139  1
  Ni  Ni13  1  0.000000  0.000000  0.662861  1
  Ni  Ni14  1  0.656241  0.336884  0.003437  1
  Ni  Ni15  1  0.343759  0.663116  0.996563  1
  Ni  Ni16  1  0.382940  0.388061  0.388061  1
  Ni  Ni17  1  0.617060  0.611939  0.611939  1
  Ni  Ni18  1  0.382940  0.388061  0.840939  1
  Ni  Ni19  1  0.382940  0.840939  0.388061  1
  Ni  Ni20  1  0.617060  0.611939  0.159061  1
  Ni  Ni21  1  0.617060  0.159061  0.611939  1
  Ni  Ni22  1  0.000000  0.000000  0.000000  1
  B  B23  1  0.731515  0.267552  0.267552  1
  B  B24  1  0.268485  0.732448  0.732448  1
  B  B25  1  0.268485  0.732448  0.266619  1
  B  B26  1  0.731515  0.267552  0.733381  1
  B  B27  1  0.268485  0.266619  0.732448  1
  B  B28  1  0.731515  0.733381  0.267552  1
