# generated using pymatgen
data_TiZn5Rh6
_symmetry_space_group_name_H-M   'P 1'
_cell_length_a   5.25170593
_cell_length_b   7.46082905
_cell_length_c   4.29348000
_cell_angle_alpha   90.00001536
_cell_angle_beta   90.00000000
_cell_angle_gamma   89.77975759
_symmetry_Int_Tables_number   1
_chemical_formula_structural   TiZn5Rh6
_chemical_formula_sum   'Ti1 Zn5 Rh6'
_cell_volume   168.22623468
_cell_formula_units_Z   1
loop_
 _symmetry_equiv_pos_site_id
 _symmetry_equiv_pos_as_xyz
  1  'x, y, z'
loop_
 _atom_site_type_symbol
 _atom_site_label
 _atom_site_symmetry_multiplicity
 _atom_site_fract_x
 _atom_site_fract_y
 _atom_site_fract_z
 _atom_site_occupancy
  Ti  Ti0  1  0.113708  0.776744  0.500000  1
  Zn  Zn1  1  0.106771  0.278252  0.000000  1
  Zn  Zn2  1  0.440972  0.611006  0.000000  1
  Zn  Zn3  1  0.780640  0.946928  0.000000  1
  Zn  Zn4  1  0.450704  0.111582  0.500000  1
  Zn  Zn5  1  0.774141  0.441750  0.500000  1
  Rh  Rh6  1  0.606907  0.278552  0.000000  1
  Rh  Rh7  1  0.940123  0.612270  0.000000  1
  Rh  Rh8  1  0.281575  0.944408  0.000000  1
  Rh  Rh9  1  0.950525  0.108545  0.500000  1
  Rh  Rh10  1  0.273833  0.445919  0.500000  1
  Rh  Rh11  1  0.613315  0.777356  0.500000  1
