# generated using pymatgen
data_SnS23
_symmetry_space_group_name_H-M   'P 1'
_cell_length_a   5.59544714
_cell_length_b   9.59366147
_cell_length_c   16.29899500
_cell_angle_alpha   82.42591977
_cell_angle_beta   85.98404499
_cell_angle_gamma   91.36398319
_symmetry_Int_Tables_number   1
_chemical_formula_structural   SnS23
_chemical_formula_sum   'Sn1 S23'
_cell_volume   864.69732289
_cell_formula_units_Z   1
loop_
 _symmetry_equiv_pos_site_id
 _symmetry_equiv_pos_as_xyz
  1  'x, y, z'
loop_
 _atom_site_type_symbol
 _atom_site_label
 _atom_site_symmetry_multiplicity
 _atom_site_fract_x
 _atom_site_fract_y
 _atom_site_fract_z
 _atom_site_occupancy
  Sn  Sn0  1  0.730711  0.190856  0.407105  1
  S  S1  1  0.692799  0.932719  0.398118  1
  S  S2  1  0.023451  0.300071  0.098009  1
  S  S3  1  0.713614  0.226034  0.557145  1
  S  S4  1  0.437925  0.875074  0.494016  1
  S  S5  1  0.174635  0.280260  0.981193  1
  S  S6  1  0.817600  0.738966  0.024617  1
  S  S7  1  0.177239  0.196124  0.368559  1
  S  S8  1  0.619643  0.381012  0.293548  1
  S  S9  1  0.862808  0.108879  0.149201  1
  S  S10  1  0.272857  0.870002  0.115440  1
  S  S11  1  0.703287  0.647016  0.630732  1
  S  S12  1  0.260576  0.438158  0.589405  1
  S  S13  1  0.148273  0.902664  0.859622  1
  S  S14  1  0.732140  0.140822  0.886004  1
  S  S15  1  0.065069  0.690389  0.111357  1
  S  S16  1  0.598863  0.851909  0.605361  1
  S  S17  1  0.365386  0.232709  0.603270  1
  S  S18  1  0.970830  0.715532  0.908426  1
  S  S19  1  0.924526  0.324207  0.894734  1
  S  S20  1  0.277814  0.408621  0.337898  1
  S  S21  1  0.118803  0.983144  0.203497  1
  S  S22  1  0.402269  0.531532  0.683279  1
  S  S23  1  0.908880  0.033298  0.799466  1
