# generated using pymatgen
data_Zr10InSiGeSb5
_symmetry_space_group_name_H-M   'P 1'
_cell_length_a   8.69660009
_cell_length_b   8.69660042
_cell_length_c   5.88105118
_cell_angle_alpha   89.98591909
_cell_angle_beta   89.98591968
_cell_angle_gamma   120.07961094
_symmetry_Int_Tables_number   1
_chemical_formula_structural   Zr10InSiGeSb5
_chemical_formula_sum   'Zr10 In1 Si1 Ge1 Sb5'
_cell_volume   384.88908730
_cell_formula_units_Z   1
loop_
 _symmetry_equiv_pos_site_id
 _symmetry_equiv_pos_as_xyz
  1  'x, y, z'
loop_
 _atom_site_type_symbol
 _atom_site_label
 _atom_site_symmetry_multiplicity
 _atom_site_fract_x
 _atom_site_fract_y
 _atom_site_fract_z
 _atom_site_occupancy
  Zr  Zr0  1  0.668498  0.333282  0.998794  1
  Zr  Zr1  1  0.333282  0.668498  0.998794  1
  Zr  Zr2  1  0.333122  0.668630  0.501243  1
  Zr  Zr3  1  0.668630  0.333122  0.501243  1
  Zr  Zr4  1  0.736641  0.736641  0.754195  1
  Zr  Zr5  1  0.265283  0.998085  0.753969  1
  Zr  Zr6  1  0.998085  0.265283  0.753969  1
  Zr  Zr7  1  0.258650  0.258650  0.246333  1
  Zr  Zr8  1  0.739564  0.999524  0.245891  1
  Zr  Zr9  1  0.999524  0.739564  0.245891  1
  In  In10  1  0.389447  0.389447  0.747911  1
  Si  Si11  1  0.001545  0.001545  0.994730  1
  Ge  Ge12  1  0.001171  0.001171  0.505019  1
  Sb  Sb13  1  0.607549  0.999710  0.749108  1
  Sb  Sb14  1  0.999710  0.607549  0.749108  1
  Sb  Sb15  1  0.600380  0.600380  0.251526  1
  Sb  Sb16  1  0.396416  0.002503  0.251139  1
  Sb  Sb17  1  0.002503  0.396416  0.251139  1
