# generated using pymatgen
data_Na4FeBiO6
_symmetry_space_group_name_H-M   'P 1'
_cell_length_a   5.61276073
_cell_length_b   5.61285070
_cell_length_c   5.85263575
_cell_angle_alpha   99.34183773
_cell_angle_beta   99.34070632
_cell_angle_gamma   119.96171679
_symmetry_Int_Tables_number   1
_chemical_formula_structural   Na4FeBiO6
_chemical_formula_sum   'Na4 Fe1 Bi1 O6'
_cell_volume   151.09754699
_cell_formula_units_Z   1
loop_
 _symmetry_equiv_pos_site_id
 _symmetry_equiv_pos_as_xyz
  1  'x, y, z'
loop_
 _atom_site_type_symbol
 _atom_site_label
 _atom_site_symmetry_multiplicity
 _atom_site_fract_x
 _atom_site_fract_y
 _atom_site_fract_z
 _atom_site_occupancy
  Na  Na0  1  0.500410  0.499563  0.999984  1
  Na  Na1  1  0.993717  0.006282  0.500001  1
  Na  Na2  1  0.660093  0.339903  0.500005  1
  Na  Na3  1  0.343259  0.656744  0.500002  1
  Fe  Fe4  1  0.832877  0.167122  0.000009  1
  Bi  Bi5  1  0.167331  0.832674  0.000002  1
  O  O6  1  0.199255  0.207426  0.213707  1
  O  O7  1  0.581515  0.945819  0.212674  1
  O  O8  1  0.937377  0.562597  0.212790  1
  O  O9  1  0.437384  0.062621  0.787200  1
  O  O10  1  0.054188  0.418493  0.787324  1
  O  O11  1  0.792585  0.800756  0.786299  1
