# generated using pymatgen
data_Tb4Pr5Er7(CdIr)4
_symmetry_space_group_name_H-M   'P 1'
_cell_length_a   9.74143625
_cell_length_b   9.72337545
_cell_length_c   9.72337510
_cell_angle_alpha   59.86204504
_cell_angle_beta   59.93853935
_cell_angle_gamma   59.93853419
_symmetry_Int_Tables_number   1
_chemical_formula_structural   Tb4Pr5Er7(CdIr)4
_chemical_formula_sum   'Tb4 Pr5 Er7 Cd4 Ir4'
_cell_volume   649.95606350
_cell_formula_units_Z   1
loop_
 _symmetry_equiv_pos_site_id
 _symmetry_equiv_pos_as_xyz
  1  'x, y, z'
loop_
 _atom_site_type_symbol
 _atom_site_label
 _atom_site_symmetry_multiplicity
 _atom_site_fract_x
 _atom_site_fract_y
 _atom_site_fract_z
 _atom_site_occupancy
  Tb  Tb0  1  0.349149  0.348652  0.348652  1
  Tb  Tb1  1  0.345268  0.351739  0.957724  1
  Tb  Tb2  1  0.345268  0.957724  0.351739  1
  Tb  Tb3  1  0.953546  0.348652  0.348652  1
  Pr  Pr4  1  0.557098  0.942902  0.942902  1
  Pr  Pr5  1  0.563650  0.936691  0.558814  1
  Pr  Pr6  1  0.940846  0.558814  0.936691  1
  Pr  Pr7  1  0.563650  0.558814  0.936691  1
  Pr  Pr8  1  0.940846  0.936691  0.558814  1
  Er  Er9  1  0.814040  0.185960  0.185960  1
  Er  Er10  1  0.185298  0.814702  0.814702  1
  Er  Er11  1  0.186766  0.812350  0.187310  1
  Er  Er12  1  0.813573  0.187310  0.812350  1
  Er  Er13  1  0.186766  0.187310  0.812350  1
  Er  Er14  1  0.813573  0.812350  0.187310  1
  Er  Er15  1  0.946633  0.553367  0.553367  1
  Cd  Cd16  1  0.582790  0.577990  0.577990  1
  Cd  Cd17  1  0.579220  0.579939  0.261621  1
  Cd  Cd18  1  0.579220  0.261621  0.579939  1
  Cd  Cd19  1  0.261230  0.577990  0.577990  1
  Ir  Ir20  1  0.140157  0.141155  0.141155  1
  Ir  Ir21  1  0.136939  0.147823  0.578297  1
  Ir  Ir22  1  0.136939  0.578297  0.147823  1
  Ir  Ir23  1  0.577532  0.141155  0.141155  1
