# generated using pymatgen
data_ZnPH5
_symmetry_space_group_name_H-M   'P 1'
_cell_length_a   4.06853351
_cell_length_b   4.08138755
_cell_length_c   8.74873105
_cell_angle_alpha   84.93037929
_cell_angle_beta   86.43234746
_cell_angle_gamma   60.12628362
_symmetry_Int_Tables_number   1
_chemical_formula_structural   ZnPH5
_chemical_formula_sum   'Zn1 P1 H5'
_cell_volume   125.45091587
_cell_formula_units_Z   1
loop_
 _symmetry_equiv_pos_site_id
 _symmetry_equiv_pos_as_xyz
  1  'x, y, z'
loop_
 _atom_site_type_symbol
 _atom_site_label
 _atom_site_symmetry_multiplicity
 _atom_site_fract_x
 _atom_site_fract_y
 _atom_site_fract_z
 _atom_site_occupancy
  Zn  Zn0  1  0.235007  0.497357  0.597866  1
  P  P1  1  0.901170  0.160826  0.611465  1
  H  H2  1  0.059450  0.164879  0.098661  1
  H  H3  1  0.685477  0.778210  0.238693  1
  H  H4  1  0.566422  0.872409  0.307524  1
  H  H5  1  0.878525  0.255763  0.055065  1
  H  H6  1  0.897709  0.129191  0.775822  1
