# generated using pymatgen
data_Er8TaTi11Si15Sn
_symmetry_space_group_name_H-M   'P 1'
_cell_length_a   7.08370111
_cell_length_b   7.04821233
_cell_length_c   12.98299385
_cell_angle_alpha   89.95350547
_cell_angle_beta   89.79506029
_cell_angle_gamma   89.96540869
_symmetry_Int_Tables_number   1
_chemical_formula_structural   Er8TaTi11Si15Sn
_chemical_formula_sum   'Er8 Ta1 Ti11 Si15 Sn1'
_cell_volume   648.20303264
_cell_formula_units_Z   1
loop_
 _symmetry_equiv_pos_site_id
 _symmetry_equiv_pos_as_xyz
  1  'x, y, z'
loop_
 _atom_site_type_symbol
 _atom_site_label
 _atom_site_symmetry_multiplicity
 _atom_site_fract_x
 _atom_site_fract_y
 _atom_site_fract_z
 _atom_site_occupancy
  Er  Er0  1  0.342679  0.999052  0.461360  1
  Er  Er1  1  0.505870  0.835003  0.718456  1
  Er  Er2  1  0.501910  0.159528  0.216897  1
  Er  Er3  1  0.840794  0.496834  0.281906  1
  Er  Er4  1  0.159120  0.509511  0.786160  1
  Er  Er5  1  0.661424  0.997014  0.968855  1
  Er  Er6  1  0.992297  0.348488  0.527305  1
  Er  Er7  1  0.999893  0.659004  0.034035  1
  Ta  Ta8  1  0.327151  0.326810  0.001314  1
  Ti  Ti9  1  0.173992  0.826140  0.249681  1
  Ti  Ti10  1  0.816963  0.175107  0.752053  1
  Ti  Ti11  1  0.671983  0.672817  0.499479  1
  Ti  Ti12  1  0.153657  0.008091  0.883304  1
  Ti  Ti13  1  0.492477  0.649271  0.125997  1
  Ti  Ti14  1  0.514428  0.354772  0.626252  1
  Ti  Ti15  1  0.653638  0.493181  0.876509  1
  Ti  Ti16  1  0.347418  0.508905  0.372951  1
  Ti  Ti17  1  0.846691  0.993051  0.375386  1
  Ti  Ti18  1  0.010128  0.151871  0.123419  1
  Ti  Ti19  1  0.979414  0.835606  0.618830  1
  Si  Si20  1  0.371202  0.702883  0.935497  1
  Si  Si21  1  0.627865  0.297380  0.432351  1
  Si  Si22  1  0.704132  0.368929  0.067208  1
  Si  Si23  1  0.296102  0.631250  0.565951  1
  Si  Si24  1  0.797759  0.869304  0.183943  1
  Si  Si25  1  0.129988  0.202607  0.315320  1
  Si  Si26  1  0.870652  0.800146  0.816454  1
  Si  Si27  1  0.294291  0.952120  0.067120  1
  Si  Si28  1  0.548994  0.790130  0.313688  1
  Si  Si29  1  0.460440  0.208682  0.819269  1
  Si  Si30  1  0.794287  0.544512  0.686803  1
  Si  Si31  1  0.207879  0.453213  0.185990  1
  Si  Si32  1  0.705313  0.048465  0.564366  1
  Si  Si33  1  0.953143  0.292667  0.935277  1
  Si  Si34  1  0.047032  0.710243  0.432547  1
  Sn  Sn35  1  0.198993  0.127415  0.678069  1
