# generated using pymatgen
data_Ti10Ge3As3C
_symmetry_space_group_name_H-M   'P 1'
_cell_length_a   7.54584000
_cell_length_b   7.54584075
_cell_length_c   5.21847000
_cell_angle_alpha   90.00000000
_cell_angle_beta   90.00000000
_cell_angle_gamma   119.99999671
_symmetry_Int_Tables_number   1
_chemical_formula_structural   Ti10Ge3As3C
_chemical_formula_sum   'Ti10 Ge3 As3 C1'
_cell_volume   257.32919716
_cell_formula_units_Z   1
loop_
 _symmetry_equiv_pos_site_id
 _symmetry_equiv_pos_as_xyz
  1  'x, y, z'
loop_
 _atom_site_type_symbol
 _atom_site_label
 _atom_site_symmetry_multiplicity
 _atom_site_fract_x
 _atom_site_fract_y
 _atom_site_fract_z
 _atom_site_occupancy
  Ti  Ti0  1  0.000000  0.763447  0.260458  1
  Ti  Ti1  1  0.236553  0.236553  0.260458  1
  Ti  Ti2  1  0.763447  0.000000  0.260458  1
  Ti  Ti3  1  0.000000  0.237412  0.740075  1
  Ti  Ti4  1  0.762588  0.762588  0.740075  1
  Ti  Ti5  1  0.237412  0.000000  0.740075  1
  Ti  Ti6  1  0.333333  0.666667  0.999391  1
  Ti  Ti7  1  0.666667  0.333333  0.999391  1
  Ti  Ti8  1  0.666667  0.333333  0.500625  1
  Ti  Ti9  1  0.333333  0.666667  0.500625  1
  Ge  Ge10  1  0.000000  0.604552  0.753995  1
  Ge  Ge11  1  0.395448  0.395448  0.753995  1
  Ge  Ge12  1  0.604552  0.000000  0.753995  1
  As  As13  1  0.000000  0.396394  0.245120  1
  As  As14  1  0.603606  0.603606  0.245120  1
  As  As15  1  0.396394  0.000000  0.245120  1
  C  C16  1  0.000000  0.000000  0.501024  1
