# generated using pymatgen
data_DyEr5Nb2(Co4P3)4
_symmetry_space_group_name_H-M   'P 1'
_cell_length_a   3.69286600
_cell_length_b   10.60462800
_cell_length_c   12.29951100
_cell_angle_alpha   90.00000000
_cell_angle_beta   90.00000000
_cell_angle_gamma   90.00000000
_symmetry_Int_Tables_number   1
_chemical_formula_structural   DyEr5Nb2(Co4P3)4
_chemical_formula_sum   'Dy1 Er5 Nb2 Co16 P12'
_cell_volume   481.66693330
_cell_formula_units_Z   1
loop_
 _symmetry_equiv_pos_site_id
 _symmetry_equiv_pos_as_xyz
  1  'x, y, z'
loop_
 _atom_site_type_symbol
 _atom_site_label
 _atom_site_symmetry_multiplicity
 _atom_site_fract_x
 _atom_site_fract_y
 _atom_site_fract_z
 _atom_site_occupancy
  Dy  Dy0  1  0.500000  0.000000  0.473888  1
  Er  Er1  1  0.000000  0.500000  0.526011  1
  Er  Er2  1  0.500000  0.820098  0.205311  1
  Er  Er3  1  0.500000  0.179902  0.205311  1
  Er  Er4  1  0.000000  0.679786  0.794667  1
  Er  Er5  1  0.000000  0.320214  0.794667  1
  Nb  Nb6  1  0.500000  0.500000  0.156751  1
  Nb  Nb7  1  0.000000  0.000000  0.843347  1
  Co  Co8  1  0.500000  0.500000  0.701755  1
  Co  Co9  1  0.000000  0.000000  0.297849  1
  Co  Co10  1  0.000000  0.500000  0.985250  1
  Co  Co11  1  0.500000  0.000000  0.014744  1
  Co  Co12  1  0.500000  0.332422  0.991291  1
  Co  Co13  1  0.500000  0.667578  0.991291  1
  Co  Co14  1  0.000000  0.167604  0.008712  1
  Co  Co15  1  0.000000  0.832396  0.008712  1
  Co  Co16  1  0.500000  0.295510  0.432330  1
  Co  Co17  1  0.500000  0.704490  0.432330  1
  Co  Co18  1  0.000000  0.204842  0.567745  1
  Co  Co19  1  0.000000  0.795158  0.567745  1
  Co  Co20  1  0.500000  0.877054  0.704818  1
  Co  Co21  1  0.500000  0.122946  0.704818  1
  Co  Co22  1  0.000000  0.622876  0.295265  1
  Co  Co23  1  0.000000  0.377124  0.295265  1
  P  P24  1  0.500000  0.500000  0.881191  1
  P  P25  1  0.000000  0.000000  0.118774  1
  P  P26  1  0.500000  0.500000  0.355896  1
  P  P27  1  0.000000  0.000000  0.644520  1
  P  P28  1  0.500000  0.311378  0.615746  1
  P  P29  1  0.500000  0.688622  0.615746  1
  P  P30  1  0.000000  0.188962  0.384139  1
  P  P31  1  0.000000  0.811038  0.384139  1
  P  P32  1  0.500000  0.840927  0.893136  1
  P  P33  1  0.500000  0.159073  0.893136  1
  P  P34  1  0.000000  0.659056  0.106852  1
  P  P35  1  0.000000  0.340944  0.106852  1
