# generated using pymatgen
data_CaSc5Pa2(ReB6)4
_symmetry_space_group_name_H-M   'P 1'
_cell_length_a   3.60265500
_cell_length_b   8.98816520
_cell_length_c   11.34485365
_cell_angle_alpha   90.16432972
_cell_angle_beta   90.00000000
_cell_angle_gamma   90.00000000
_symmetry_Int_Tables_number   1
_chemical_formula_structural   CaSc5Pa2(ReB6)4
_chemical_formula_sum   'Ca1 Sc5 Pa2 Re4 B24'
_cell_volume   367.35912534
_cell_formula_units_Z   1
loop_
 _symmetry_equiv_pos_site_id
 _symmetry_equiv_pos_as_xyz
  1  'x, y, z'
loop_
 _atom_site_type_symbol
 _atom_site_label
 _atom_site_symmetry_multiplicity
 _atom_site_fract_x
 _atom_site_fract_y
 _atom_site_fract_z
 _atom_site_occupancy
  Ca  Ca0  1  0.000000  0.821818  0.085274  1
  Sc  Sc1  1  0.000000  0.176054  0.915597  1
  Sc  Sc2  1  0.000000  0.945358  0.371116  1
  Sc  Sc3  1  0.000000  0.054606  0.628330  1
  Sc  Sc4  1  0.000000  0.443457  0.125666  1
  Sc  Sc5  1  0.000000  0.556192  0.874083  1
  Pa  Pa6  1  0.000000  0.319209  0.413447  1
  Pa  Pa7  1  0.000000  0.680945  0.586598  1
  Re  Re8  1  0.000000  0.636889  0.321982  1
  Re  Re9  1  0.000000  0.361398  0.680240  1
  Re  Re10  1  0.000000  0.144214  0.181526  1
  Re  Re11  1  0.000000  0.859516  0.816853  1
  B  B12  1  0.500000  0.554232  0.432563  1
  B  B13  1  0.500000  0.444989  0.568645  1
  B  B14  1  0.500000  0.055564  0.064955  1
  B  B15  1  0.500000  0.947957  0.933010  1
  B  B16  1  0.500000  0.753894  0.417913  1
  B  B17  1  0.500000  0.245652  0.582751  1
  B  B18  1  0.500000  0.252529  0.077890  1
  B  B19  1  0.500000  0.747737  0.919204  1
  B  B20  1  0.500000  0.794234  0.264347  1
  B  B21  1  0.500000  0.205046  0.737655  1
  B  B22  1  0.500000  0.294328  0.233055  1
  B  B23  1  0.500000  0.706514  0.765825  1
  B  B24  1  0.500000  0.629044  0.182768  1
  B  B25  1  0.500000  0.368759  0.819025  1
  B  B26  1  0.500000  0.129843  0.315286  1
  B  B27  1  0.500000  0.871560  0.684076  1
  B  B28  1  0.500000  0.981984  0.212074  1
  B  B29  1  0.500000  0.020485  0.788231  1
  B  B30  1  0.500000  0.481398  0.285443  1
  B  B31  1  0.500000  0.517776  0.715765  1
  B  B32  1  0.500000  0.595308  0.026200  1
  B  B33  1  0.500000  0.401151  0.972683  1
  B  B34  1  0.500000  0.100476  0.472656  1
  B  B35  1  0.500000  0.899881  0.527268  1
