# generated using pymatgen
data_Cs2Si5GeAs6
_symmetry_space_group_name_H-M   'P 1'
_cell_length_a   3.76173500
_cell_length_b   10.29023867
_cell_length_c   21.22311330
_cell_angle_alpha   89.52600422
_cell_angle_beta   90.00000000
_cell_angle_gamma   90.00000000
_symmetry_Int_Tables_number   1
_chemical_formula_structural   Cs2Si5GeAs6
_chemical_formula_sum   'Cs4 Si10 Ge2 As12'
_cell_volume   821.50058481
_cell_formula_units_Z   2
loop_
 _symmetry_equiv_pos_site_id
 _symmetry_equiv_pos_as_xyz
  1  'x, y, z'
loop_
 _atom_site_type_symbol
 _atom_site_label
 _atom_site_symmetry_multiplicity
 _atom_site_fract_x
 _atom_site_fract_y
 _atom_site_fract_z
 _atom_site_occupancy
  Cs  Cs0  1  0.000000  0.293431  0.308081  1
  Cs  Cs1  1  0.000000  0.706569  0.691919  1
  Cs  Cs2  1  0.000000  0.206977  0.807816  1
  Cs  Cs3  1  0.000000  0.793023  0.192184  1
  Si  Si4  1  0.500000  0.407270  0.032464  1
  Si  Si5  1  0.500000  0.592730  0.967536  1
  Si  Si6  1  0.500000  0.092493  0.532748  1
  Si  Si7  1  0.500000  0.907507  0.467252  1
  Si  Si8  1  0.000000  0.389153  0.515662  1
  Si  Si9  1  0.000000  0.610847  0.484338  1
  Si  Si10  1  0.000000  0.182390  0.125463  1
  Si  Si11  1  0.000000  0.817610  0.874537  1
  Si  Si12  1  0.000000  0.321944  0.622615  1
  Si  Si13  1  0.000000  0.678056  0.377385  1
  Ge  Ge14  1  0.000000  0.113715  0.016935  1
  Ge  Ge15  1  0.000000  0.886285  0.983065  1
  As  As16  1  0.500000  0.110440  0.183719  1
  As  As17  1  0.500000  0.889560  0.816281  1
  As  As18  1  0.500000  0.388717  0.682122  1
  As  As19  1  0.500000  0.611283  0.317878  1
  As  As20  1  0.500000  0.284469  0.465092  1
  As  As21  1  0.500000  0.715531  0.534908  1
  As  As22  1  0.500000  0.223894  0.962732  1
  As  As23  1  0.500000  0.776106  0.037268  1
  As  As24  1  0.000000  0.415019  0.104129  1
  As  As25  1  0.000000  0.584981  0.895871  1
  As  As26  1  0.000000  0.087222  0.604228  1
  As  As27  1  0.000000  0.912778  0.395772  1
