# generated using pymatgen
data_Nd16Cd4Pd3Ru
_symmetry_space_group_name_H-M   'P 1'
_cell_length_a   10.03806650
_cell_length_b   10.03806642
_cell_length_c   10.03806763
_cell_angle_alpha   59.52238916
_cell_angle_beta   59.52238805
_cell_angle_gamma   59.52238901
_symmetry_Int_Tables_number   1
_chemical_formula_structural   Nd16Cd4Pd3Ru
_chemical_formula_sum   'Nd16 Cd4 Pd3 Ru1'
_cell_volume   707.44505797
_cell_formula_units_Z   1
loop_
 _symmetry_equiv_pos_site_id
 _symmetry_equiv_pos_as_xyz
  1  'x, y, z'
loop_
 _atom_site_type_symbol
 _atom_site_label
 _atom_site_symmetry_multiplicity
 _atom_site_fract_x
 _atom_site_fract_y
 _atom_site_fract_z
 _atom_site_occupancy
  Nd  Nd0  1  0.351874  0.351874  0.351874  1
  Nd  Nd1  1  0.348324  0.348324  0.948546  1
  Nd  Nd2  1  0.348324  0.948546  0.348324  1
  Nd  Nd3  1  0.948546  0.348324  0.348324  1
  Nd  Nd4  1  0.816991  0.189221  0.189221  1
  Nd  Nd5  1  0.189348  0.808800  0.808800  1
  Nd  Nd6  1  0.189221  0.816991  0.189221  1
  Nd  Nd7  1  0.808800  0.189348  0.808800  1
  Nd  Nd8  1  0.189221  0.189221  0.816991  1
  Nd  Nd9  1  0.808800  0.808800  0.189348  1
  Nd  Nd10  1  0.936075  0.564943  0.564943  1
  Nd  Nd11  1  0.559699  0.936856  0.936856  1
  Nd  Nd12  1  0.564943  0.936075  0.564943  1
  Nd  Nd13  1  0.936856  0.559699  0.936856  1
  Nd  Nd14  1  0.564943  0.564943  0.936075  1
  Nd  Nd15  1  0.936856  0.936856  0.559699  1
  Cd  Cd16  1  0.580019  0.580019  0.580019  1
  Cd  Cd17  1  0.580309  0.580309  0.257809  1
  Cd  Cd18  1  0.580309  0.257809  0.580309  1
  Cd  Cd19  1  0.257809  0.580309  0.580309  1
  Pd  Pd20  1  0.144641  0.144641  0.570294  1
  Pd  Pd21  1  0.144641  0.570294  0.144641  1
  Pd  Pd22  1  0.570294  0.144641  0.144641  1
  Ru  Ru23  1  0.143158  0.143158  0.143158  1
