# generated using pymatgen
data_Tb3Y7(GaSb)4
_symmetry_space_group_name_H-M   'P 1'
_cell_length_a   8.69180727
_cell_length_b   8.68424654
_cell_length_c   7.93863335
_cell_angle_alpha   89.98167170
_cell_angle_beta   89.98724321
_cell_angle_gamma   125.63566749
_symmetry_Int_Tables_number   1
_chemical_formula_structural   Tb3Y7(GaSb)4
_chemical_formula_sum   'Tb3 Y7 Ga4 Sb4'
_cell_volume   487.01079132
_cell_formula_units_Z   1
loop_
 _symmetry_equiv_pos_site_id
 _symmetry_equiv_pos_as_xyz
  1  'x, y, z'
loop_
 _atom_site_type_symbol
 _atom_site_label
 _atom_site_symmetry_multiplicity
 _atom_site_fract_x
 _atom_site_fract_y
 _atom_site_fract_z
 _atom_site_occupancy
  Tb  Tb0  1  0.040096  0.302539  0.331262  1
  Tb  Tb1  1  0.960145  0.697777  0.668673  1
  Tb  Tb2  1  0.460099  0.197874  0.831294  1
  Y  Y3  1  0.800708  0.538938  0.167865  1
  Y  Y4  1  0.539437  0.801523  0.168098  1
  Y  Y5  1  0.199295  0.461158  0.832305  1
  Y  Y6  1  0.699181  0.961098  0.667883  1
  Y  Y7  1  0.300729  0.039009  0.332311  1
  Y  Y8  1  0.999901  0.999879  0.000102  1
  Y  Y9  1  0.500112  0.500180  0.499887  1
  Ga  Ga10  1  0.376118  0.376204  0.123283  1
  Ga  Ga11  1  0.624014  0.623765  0.876641  1
  Ga  Ga12  1  0.123720  0.123807  0.623400  1
  Ga  Ga13  1  0.876131  0.876191  0.376535  1
  Sb  Sb14  1  0.794822  0.205382  0.999232  1
  Sb  Sb15  1  0.205025  0.794161  0.001475  1
  Sb  Sb16  1  0.704812  0.294400  0.498900  1
  Sb  Sb17  1  0.295655  0.706114  0.500854  1
