# generated using pymatgen
data_Ba12Tb3Y5(PS4)16
_symmetry_space_group_name_H-M   'P 1'
_cell_length_a   10.42801701
_cell_length_b   12.85973300
_cell_length_c   19.45969003
_cell_angle_alpha   90.00203751
_cell_angle_beta   89.99442351
_cell_angle_gamma   89.99931663
_symmetry_Int_Tables_number   1
_chemical_formula_structural   Ba12Tb3Y5(PS4)16
_chemical_formula_sum   'Ba12 Tb3 Y5 P16 S64'
_cell_volume   2609.57389048
_cell_formula_units_Z   1
loop_
 _symmetry_equiv_pos_site_id
 _symmetry_equiv_pos_as_xyz
  1  'x, y, z'
loop_
 _atom_site_type_symbol
 _atom_site_label
 _atom_site_symmetry_multiplicity
 _atom_site_fract_x
 _atom_site_fract_y
 _atom_site_fract_z
 _atom_site_occupancy
  Ba  Ba0  1  0.289692  0.106436  0.272714  1
  Ba  Ba1  1  0.116252  0.249999  0.999992  1
  Ba  Ba2  1  0.210267  0.606389  0.227323  1
  Ba  Ba3  1  0.616267  0.250025  0.500006  1
  Ba  Ba4  1  0.710271  0.606388  0.272681  1
  Ba  Ba5  1  0.210312  0.893565  0.772683  1
  Ba  Ba6  1  0.789733  0.393615  0.772686  1
  Ba  Ba7  1  0.789695  0.106448  0.227298  1
  Ba  Ba8  1  0.883744  0.750000  0.000009  1
  Ba  Ba9  1  0.710300  0.893568  0.727277  1
  Ba  Ba10  1  0.289711  0.393583  0.727308  1
  Ba  Ba11  1  0.383735  0.750025  0.500003  1
  Tb  Tb12  1  0.628111  0.112611  0.926519  1
  Tb  Tb13  1  0.371897  0.887391  0.073483  1
  Tb  Tb14  1  0.871919  0.887416  0.426524  1
  Y  Y15  1  0.371686  0.612572  0.926452  1
  Y  Y16  1  0.628312  0.387427  0.073548  1
  Y  Y17  1  0.128303  0.387400  0.426467  1
  Y  Y18  1  0.128327  0.112607  0.573543  1
  Y  Y19  1  0.871677  0.612564  0.573539  1
  P  P20  1  0.996176  0.139862  0.397852  1
  P  P21  1  0.496101  0.360217  0.897845  1
  P  P22  1  0.996130  0.360163  0.602131  1
  P  P23  1  0.503773  0.860129  0.897819  1
  P  P24  1  0.436714  0.048457  0.630994  1
  P  P25  1  0.003821  0.860168  0.602155  1
  P  P26  1  0.003903  0.639786  0.397848  1
  P  P27  1  0.063282  0.548447  0.868998  1
  P  P28  1  0.936792  0.048478  0.869020  1
  P  P29  1  0.436721  0.451552  0.368998  1
  P  P30  1  0.503903  0.639785  0.102157  1
  P  P31  1  0.563205  0.951530  0.369021  1
  P  P32  1  0.063201  0.951524  0.130979  1
  P  P33  1  0.496227  0.139868  0.102182  1
  P  P34  1  0.936718  0.451554  0.131004  1
  P  P35  1  0.563282  0.548452  0.631002  1
  S  S36  1  0.564813  0.730864  0.849546  1
  S  S37  1  0.004729  0.016016  0.332532  1
  S  S38  1  0.385885  0.605248  0.649561  1
  S  S39  1  0.564934  0.768944  0.150580  1
  S  S40  1  0.708707  0.886925  0.308896  1
  S  S41  1  0.614120  0.394749  0.350441  1
  S  S42  1  0.888598  0.098640  0.482861  1
  S  S43  1  0.935253  0.230910  0.650473  1
  S  S44  1  0.179662  0.330260  0.568044  1
  S  S45  1  0.504733  0.016006  0.167464  1
  S  S46  1  0.879746  0.414572  0.032680  1
  S  S47  1  0.379711  0.414569  0.467322  1
  S  S48  1  0.208685  0.886932  0.191101  1
  S  S49  1  0.885839  0.894721  0.149592  1
  S  S50  1  0.569476  0.389410  0.647088  1
  S  S51  1  0.069495  0.110575  0.147064  1
  S  S52  1  0.930504  0.889430  0.852926  1
  S  S53  1  0.430557  0.889406  0.647079  1
  S  S54  1  0.614102  0.105238  0.649550  1
  S  S55  1  0.995589  0.515758  0.332689  1
  S  S56  1  0.619813  0.914580  0.467407  1
  S  S57  1  0.880142  0.085443  0.967403  1
  S  S58  1  0.679797  0.169702  0.068162  1
  S  S59  1  0.430533  0.610589  0.352911  1
  S  S60  1  0.291117  0.386884  0.308985  1
  S  S61  1  0.791104  0.386886  0.191022  1
  S  S62  1  0.888534  0.401616  0.517210  1
  S  S63  1  0.679664  0.330584  0.931971  1
  S  S64  1  0.179677  0.169709  0.431959  1
  S  S65  1  0.708880  0.613113  0.691019  1
  S  S66  1  0.495581  0.515769  0.167317  1
  S  S67  1  0.995565  0.984203  0.667283  1
  S  S68  1  0.111444  0.598449  0.482803  1
  S  S69  1  0.611478  0.598412  0.017207  1
  S  S70  1  0.064944  0.768933  0.349418  1
  S  S71  1  0.504418  0.484229  0.832680  1
  S  S72  1  0.120253  0.585428  0.967319  1
  S  S73  1  0.119854  0.914556  0.032597  1
  S  S74  1  0.111609  0.901590  0.517249  1
  S  S75  1  0.114108  0.394748  0.149555  1
  S  S76  1  0.435069  0.231053  0.849422  1
  S  S77  1  0.885887  0.605249  0.850444  1
  S  S78  1  0.208896  0.613114  0.808979  1
  S  S79  1  0.820325  0.669415  0.431977  1
  S  S80  1  0.935219  0.269124  0.349541  1
  S  S81  1  0.388526  0.401587  0.982793  1
  S  S82  1  0.004393  0.484195  0.667285  1
  S  S83  1  0.379716  0.085457  0.532680  1
  S  S84  1  0.495270  0.983998  0.832535  1
  S  S85  1  0.930537  0.610588  0.147088  1
  S  S86  1  0.320340  0.669418  0.068029  1
  S  S87  1  0.388471  0.098630  0.017211  1
  S  S88  1  0.620272  0.585424  0.532680  1
  S  S89  1  0.611529  0.901370  0.982786  1
  S  S90  1  0.291111  0.113126  0.691030  1
  S  S91  1  0.569504  0.110575  0.352941  1
  S  S92  1  0.435187  0.269135  0.150452  1
  S  S93  1  0.064752  0.730886  0.650453  1
  S  S94  1  0.114157  0.105283  0.850409  1
  S  S95  1  0.069460  0.389411  0.852911  1
  S  S96  1  0.385841  0.894722  0.350412  1
  S  S97  1  0.791298  0.113069  0.808904  1
  S  S98  1  0.320203  0.830300  0.931836  1
  S  S99  1  0.820223  0.830277  0.568175  1
