# generated using pymatgen
data_CeThInRh5
_symmetry_space_group_name_H-M   'P 1'
_cell_length_a   5.86521500
_cell_length_b   5.86521357
_cell_length_c   8.62185400
_cell_angle_alpha   90.00000000
_cell_angle_beta   90.00000000
_cell_angle_gamma   96.26019605
_symmetry_Int_Tables_number   1
_chemical_formula_structural   CeThInRh5
_chemical_formula_sum   'Ce2 Th2 In2 Rh10'
_cell_volume   294.82951579
_cell_formula_units_Z   2
loop_
 _symmetry_equiv_pos_site_id
 _symmetry_equiv_pos_as_xyz
  1  'x, y, z'
loop_
 _atom_site_type_symbol
 _atom_site_label
 _atom_site_symmetry_multiplicity
 _atom_site_fract_x
 _atom_site_fract_y
 _atom_site_fract_z
 _atom_site_occupancy
  Ce  Ce0  1  0.783375  0.216625  0.500000  1
  Ce  Ce1  1  0.216625  0.783375  0.000000  1
  Th  Th2  1  0.218954  0.781046  0.500000  1
  Th  Th3  1  0.781046  0.218954  0.000000  1
  In  In4  1  0.500584  0.500584  0.750000  1
  In  In5  1  0.499416  0.499416  0.250000  1
  Rh  Rh6  1  0.728085  0.725429  0.000176  1
  Rh  Rh7  1  0.725429  0.728085  0.499824  1
  Rh  Rh8  1  0.274571  0.271915  0.999824  1
  Rh  Rh9  1  0.271915  0.274571  0.500176  1
  Rh  Rh10  1  0.499885  0.000176  0.749989  1
  Rh  Rh11  1  0.500115  0.999824  0.249989  1
  Rh  Rh12  1  0.000233  0.000233  0.250000  1
  Rh  Rh13  1  0.999767  0.999767  0.750000  1
  Rh  Rh14  1  0.000176  0.499885  0.750011  1
  Rh  Rh15  1  0.999824  0.500115  0.250011  1
