# generated using pymatgen
data_CaYb19(SiSb3)3
_symmetry_space_group_name_H-M   'P 1'
_cell_length_a   7.99970696
_cell_length_b   9.51988821
_cell_length_c   12.68346087
_cell_angle_alpha   89.97823868
_cell_angle_beta   89.82270675
_cell_angle_gamma   89.98995940
_symmetry_Int_Tables_number   1
_chemical_formula_structural   CaYb19(SiSb3)3
_chemical_formula_sum   'Ca1 Yb19 Si3 Sb9'
_cell_volume   965.92094517
_cell_formula_units_Z   1
loop_
 _symmetry_equiv_pos_site_id
 _symmetry_equiv_pos_as_xyz
  1  'x, y, z'
loop_
 _atom_site_type_symbol
 _atom_site_label
 _atom_site_symmetry_multiplicity
 _atom_site_fract_x
 _atom_site_fract_y
 _atom_site_fract_z
 _atom_site_occupancy
  Ca  Ca0  1  0.820077  0.460410  0.419368  1
  Yb  Yb1  1  0.325107  0.972571  0.074180  1
  Yb  Yb2  1  0.819917  0.039544  0.419356  1
  Yb  Yb3  1  0.676469  0.470713  0.923689  1
  Yb  Yb4  1  0.180662  0.518656  0.583359  1
  Yb  Yb5  1  0.676466  0.029291  0.923680  1
  Yb  Yb6  1  0.180026  0.981468  0.583037  1
  Yb  Yb7  1  0.325143  0.527424  0.074090  1
  Yb  Yb8  1  0.672143  0.750155  0.215533  1
  Yb  Yb9  1  0.176813  0.249854  0.281109  1
  Yb  Yb10  1  0.328098  0.249957  0.783910  1
  Yb  Yb11  1  0.813400  0.749997  0.730224  1
  Yb  Yb12  1  0.159702  0.750094  0.291406  1
  Yb  Yb13  1  0.648372  0.249788  0.196087  1
  Yb  Yb14  1  0.851230  0.249927  0.698309  1
  Yb  Yb15  1  0.348019  0.750039  0.802616  1
  Yb  Yb16  1  0.540180  0.750358  0.500741  1
  Yb  Yb17  1  0.053540  0.249943  0.000427  1
  Yb  Yb18  1  0.446465  0.249787  0.498849  1
  Yb  Yb19  1  0.947652  0.750052  0.002145  1
  Si  Si20  1  0.564218  0.749965  0.988207  1
  Si  Si21  1  0.061659  0.250116  0.508290  1
  Si  Si22  1  0.438963  0.250014  0.008880  1
  Sb  Sb23  1  0.945218  0.006694  0.170711  1
  Sb  Sb24  1  0.443623  0.991663  0.330388  1
  Sb  Sb25  1  0.055590  0.507170  0.830748  1
  Sb  Sb26  1  0.557450  0.492480  0.668747  1
  Sb  Sb27  1  0.055439  0.992882  0.830725  1
  Sb  Sb28  1  0.557664  0.007571  0.668526  1
  Sb  Sb29  1  0.945500  0.493256  0.170429  1
  Sb  Sb30  1  0.443782  0.508138  0.330492  1
  Sb  Sb31  1  0.941412  0.750025  0.491742  1
