# generated using pymatgen
data_Rb4YUTe6
_symmetry_space_group_name_H-M   'P 1'
_cell_length_a   8.19216768
_cell_length_b   8.19216792
_cell_length_c   8.97794752
_cell_angle_alpha   81.10373332
_cell_angle_beta   81.10373600
_cell_angle_gamma   120.01609956
_symmetry_Int_Tables_number   1
_chemical_formula_structural   Rb4YUTe6
_chemical_formula_sum   'Rb4 Y1 U1 Te6'
_cell_volume   496.12283212
_cell_formula_units_Z   1
loop_
 _symmetry_equiv_pos_site_id
 _symmetry_equiv_pos_as_xyz
  1  'x, y, z'
loop_
 _atom_site_type_symbol
 _atom_site_label
 _atom_site_symmetry_multiplicity
 _atom_site_fract_x
 _atom_site_fract_y
 _atom_site_fract_z
 _atom_site_occupancy
  Rb  Rb0  1  0.500035  0.499965  0.000000  1
  Rb  Rb1  1  0.655290  0.344710  0.500000  1
  Rb  Rb2  1  0.344649  0.655351  0.500000  1
  Rb  Rb3  1  0.000048  0.999952  0.500000  1
  Y  Y4  1  0.832360  0.167640  0.000000  1
  U  U5  1  0.167705  0.832295  0.000000  1
  Te  Te6  1  0.814800  0.805751  0.199828  1
  Te  Te7  1  0.194249  0.185200  0.800172  1
  Te  Te8  1  0.422038  0.047830  0.202687  1
  Te  Te9  1  0.559223  0.942567  0.797073  1
  Te  Te10  1  0.952170  0.577962  0.797313  1
  Te  Te11  1  0.057433  0.440777  0.202927  1
