# generated using pymatgen
data_Er5(RhPb2)2
_symmetry_space_group_name_H-M   'P 1'
_cell_length_a   3.71867700
_cell_length_b   8.08725200
_cell_length_c   18.22328100
_cell_angle_alpha   90.00000000
_cell_angle_beta   90.00000000
_cell_angle_gamma   90.00000000
_symmetry_Int_Tables_number   1
_chemical_formula_structural   Er5(RhPb2)2
_chemical_formula_sum   'Er10 Rh4 Pb8'
_cell_volume   548.04472966
_cell_formula_units_Z   2
loop_
 _symmetry_equiv_pos_site_id
 _symmetry_equiv_pos_as_xyz
  1  'x, y, z'
loop_
 _atom_site_type_symbol
 _atom_site_label
 _atom_site_symmetry_multiplicity
 _atom_site_fract_x
 _atom_site_fract_y
 _atom_site_fract_z
 _atom_site_occupancy
  Er  Er0  1  0.000000  0.111697  0.410007  1
  Er  Er1  1  0.000000  0.888303  0.589993  1
  Er  Er2  1  0.000000  0.388303  0.910007  1
  Er  Er3  1  0.000000  0.611697  0.089993  1
  Er  Er4  1  0.000000  0.240694  0.218356  1
  Er  Er5  1  0.000000  0.759306  0.781644  1
  Er  Er6  1  0.000000  0.259306  0.718356  1
  Er  Er7  1  0.000000  0.740694  0.281644  1
  Er  Er8  1  0.000000  0.000000  0.000000  1
  Er  Er9  1  0.000000  0.500000  0.500000  1
  Rh  Rh10  1  0.500000  0.024080  0.304692  1
  Rh  Rh11  1  0.500000  0.975920  0.695308  1
  Rh  Rh12  1  0.500000  0.475920  0.804692  1
  Rh  Rh13  1  0.500000  0.524080  0.195308  1
  Pb  Pb14  1  0.500000  0.414440  0.349049  1
  Pb  Pb15  1  0.500000  0.585560  0.650951  1
  Pb  Pb16  1  0.500000  0.085560  0.849049  1
  Pb  Pb17  1  0.500000  0.914440  0.150951  1
  Pb  Pb18  1  0.500000  0.293556  0.063825  1
  Pb  Pb19  1  0.500000  0.706444  0.936175  1
  Pb  Pb20  1  0.500000  0.206444  0.563825  1
  Pb  Pb21  1  0.500000  0.793556  0.436175  1
