# generated using pymatgen
data_Y3HoAl16GaGeIr6
_symmetry_space_group_name_H-M   'P 1'
_cell_length_a   7.54317200
_cell_length_b   7.54408192
_cell_length_c   9.50172100
_cell_angle_alpha   90.00000000
_cell_angle_beta   90.00000000
_cell_angle_gamma   119.39118586
_symmetry_Int_Tables_number   1
_chemical_formula_structural   Y3HoAl16GaGeIr6
_chemical_formula_sum   'Y3 Ho1 Al16 Ga1 Ge1 Ir6'
_cell_volume   471.11298065
_cell_formula_units_Z   1
loop_
 _symmetry_equiv_pos_site_id
 _symmetry_equiv_pos_as_xyz
  1  'x, y, z'
loop_
 _atom_site_type_symbol
 _atom_site_label
 _atom_site_symmetry_multiplicity
 _atom_site_fract_x
 _atom_site_fract_y
 _atom_site_fract_z
 _atom_site_occupancy
  Y  Y0  1  0.995362  0.675497  0.250000  1
  Y  Y1  1  0.004150  0.322420  0.750000  1
  Y  Y2  1  0.675593  0.995093  0.250000  1
  Ho  Ho3  1  0.322147  0.003810  0.750000  1
  Al  Al4  1  0.002475  0.336405  0.074621  1
  Al  Al5  1  0.999706  0.661905  0.926466  1
  Al  Al6  1  0.999706  0.661905  0.573534  1
  Al  Al7  1  0.336385  0.002570  0.426034  1
  Al  Al8  1  0.002475  0.336405  0.425379  1
  Al  Al9  1  0.661385  0.999644  0.573745  1
  Al  Al10  1  0.661385  0.999644  0.926255  1
  Al  Al11  1  0.336385  0.002570  0.073966  1
  Al  Al12  1  0.335296  0.335148  0.555245  1
  Al  Al13  1  0.665893  0.665917  0.442644  1
  Al  Al14  1  0.665893  0.665917  0.057356  1
  Al  Al15  1  0.335296  0.335148  0.944755  1
  Al  Al16  1  0.338249  0.550743  0.250000  1
  Al  Al17  1  0.662872  0.445389  0.750000  1
  Al  Al18  1  0.550640  0.337896  0.250000  1
  Al  Al19  1  0.445994  0.664098  0.750000  1
  Ga  Ga20  1  0.135354  0.134936  0.250000  1
  Ge  Ge21  1  0.863598  0.862616  0.750000  1
  Ir  Ir22  1  0.672427  0.330046  0.999671  1
  Ir  Ir23  1  0.329988  0.672611  0.999674  1
  Ir  Ir24  1  0.329988  0.672611  0.500326  1
  Ir  Ir25  1  0.672427  0.330046  0.500329  1
  Ir  Ir26  1  0.999464  0.999504  0.996586  1
  Ir  Ir27  1  0.999464  0.999504  0.503414  1
