# generated using pymatgen
data_Dy4YSnBi2
_symmetry_space_group_name_H-M   'P 1'
_cell_length_a   9.13041656
_cell_length_b   9.08793689
_cell_length_c   6.45346600
_cell_angle_alpha   90.00000000
_cell_angle_beta   90.00000000
_cell_angle_gamma   119.84620970
_symmetry_Int_Tables_number   1
_chemical_formula_structural   Dy4YSnBi2
_chemical_formula_sum   'Dy8 Y2 Sn2 Bi4'
_cell_volume   464.46232525
_cell_formula_units_Z   2
loop_
 _symmetry_equiv_pos_site_id
 _symmetry_equiv_pos_as_xyz
  1  'x, y, z'
loop_
 _atom_site_type_symbol
 _atom_site_label
 _atom_site_symmetry_multiplicity
 _atom_site_fract_x
 _atom_site_fract_y
 _atom_site_fract_z
 _atom_site_occupancy
  Dy  Dy0  1  0.756352  0.761628  0.250000  1
  Dy  Dy1  1  0.756352  0.994724  0.750000  1
  Dy  Dy2  1  0.245337  0.245175  0.750000  1
  Dy  Dy3  1  0.245337  0.000162  0.250000  1
  Dy  Dy4  1  0.340125  0.670063  0.500000  1
  Dy  Dy5  1  0.664965  0.332482  0.000000  1
  Dy  Dy6  1  0.664965  0.332482  0.500000  1
  Dy  Dy7  1  0.340125  0.670063  0.000000  1
  Y  Y8  1  0.994720  0.758400  0.750000  1
  Y  Y9  1  0.994720  0.236319  0.250000  1
  Sn  Sn10  1  0.608892  0.606873  0.750000  1
  Sn  Sn11  1  0.608892  0.002021  0.250000  1
  Bi  Bi12  1  0.388713  0.998992  0.750000  1
  Bi  Bi13  1  0.388713  0.389721  0.250000  1
  Bi  Bi14  1  0.000895  0.609843  0.250000  1
  Bi  Bi15  1  0.000895  0.391051  0.750000  1
