# generated using pymatgen
data_Sr4Ho4Tm3LuSe16
_symmetry_space_group_name_H-M   'P 1'
_cell_length_a   4.11825900
_cell_length_b   12.63701410
_cell_length_c   14.89274508
_cell_angle_alpha   89.98697989
_cell_angle_beta   90.00000000
_cell_angle_gamma   90.00000000
_symmetry_Int_Tables_number   1
_chemical_formula_structural   Sr4Ho4Tm3LuSe16
_chemical_formula_sum   'Sr4 Ho4 Tm3 Lu1 Se16'
_cell_volume   775.05562171
_cell_formula_units_Z   1
loop_
 _symmetry_equiv_pos_site_id
 _symmetry_equiv_pos_as_xyz
  1  'x, y, z'
loop_
 _atom_site_type_symbol
 _atom_site_label
 _atom_site_symmetry_multiplicity
 _atom_site_fract_x
 _atom_site_fract_y
 _atom_site_fract_z
 _atom_site_occupancy
  Sr  Sr0  1  0.250000  0.759451  0.333797  1
  Sr  Sr1  1  0.250000  0.259208  0.166656  1
  Sr  Sr2  1  0.750000  0.240461  0.665891  1
  Sr  Sr3  1  0.750000  0.740690  0.833655  1
  Ho  Ho4  1  0.250000  0.438545  0.388990  1
  Ho  Ho5  1  0.250000  0.939225  0.111526  1
  Ho  Ho6  1  0.750000  0.561050  0.611047  1
  Ho  Ho7  1  0.750000  0.061072  0.888987  1
  Tm  Tm8  1  0.250000  0.416879  0.902589  1
  Tm  Tm9  1  0.250000  0.917271  0.597115  1
  Tm  Tm10  1  0.750000  0.583033  0.097448  1
  Lu  Lu11  1  0.750000  0.082808  0.402393  1
  Se  Se12  1  0.250000  0.205327  0.829659  1
  Se  Se13  1  0.250000  0.705466  0.670069  1
  Se  Se14  1  0.750000  0.794733  0.170358  1
  Se  Se15  1  0.750000  0.293555  0.330607  1
  Se  Se16  1  0.250000  0.127407  0.528850  1
  Se  Se17  1  0.250000  0.627590  0.969783  1
  Se  Se18  1  0.750000  0.873485  0.469176  1
  Se  Se19  1  0.750000  0.372389  0.030286  1
  Se  Se20  1  0.250000  0.029243  0.285911  1
  Se  Se21  1  0.250000  0.528500  0.214951  1
  Se  Se22  1  0.750000  0.971438  0.714707  1
  Se  Se23  1  0.750000  0.471269  0.785124  1
  Se  Se24  1  0.250000  0.409241  0.577110  1
  Se  Se25  1  0.250000  0.909381  0.923190  1
  Se  Se26  1  0.750000  0.590563  0.422906  1
  Se  Se27  1  0.750000  0.090721  0.077220  1
