# generated using pymatgen
data_Er10ZnSn6As
_symmetry_space_group_name_H-M   'P 1'
_cell_length_a   9.05232300
_cell_length_b   9.05232179
_cell_length_c   6.57853600
_cell_angle_alpha   90.00000000
_cell_angle_beta   90.00000000
_cell_angle_gamma   120.00000806
_symmetry_Int_Tables_number   1
_chemical_formula_structural   Er10ZnSn6As
_chemical_formula_sum   'Er10 Zn1 Sn6 As1'
_cell_volume   466.85270320
_cell_formula_units_Z   1
loop_
 _symmetry_equiv_pos_site_id
 _symmetry_equiv_pos_as_xyz
  1  'x, y, z'
loop_
 _atom_site_type_symbol
 _atom_site_label
 _atom_site_symmetry_multiplicity
 _atom_site_fract_x
 _atom_site_fract_y
 _atom_site_fract_z
 _atom_site_occupancy
  Er  Er0  1  0.255939  0.000000  0.239974  1
  Er  Er1  1  0.744061  0.000000  0.760026  1
  Er  Er2  1  0.000000  0.255939  0.239974  1
  Er  Er3  1  0.000000  0.744061  0.760026  1
  Er  Er4  1  0.744061  0.744061  0.239974  1
  Er  Er5  1  0.255939  0.255939  0.760026  1
  Er  Er6  1  0.333333  0.666667  0.000000  1
  Er  Er7  1  0.666667  0.333333  0.000000  1
  Er  Er8  1  0.666667  0.333333  0.500000  1
  Er  Er9  1  0.333333  0.666667  0.500000  1
  Zn  Zn10  1  0.000000  0.000000  0.500000  1
  Sn  Sn11  1  0.607268  0.000000  0.249227  1
  Sn  Sn12  1  0.392732  0.000000  0.750773  1
  Sn  Sn13  1  0.000000  0.607268  0.249227  1
  Sn  Sn14  1  0.000000  0.392732  0.750773  1
  Sn  Sn15  1  0.392732  0.392732  0.249227  1
  Sn  Sn16  1  0.607268  0.607268  0.750773  1
  As  As17  1  0.000000  0.000000  0.000000  1
