# generated using pymatgen
data_Ba5Hg2(As2O)2
_symmetry_space_group_name_H-M   'P 1'
_cell_length_a   4.68471702
_cell_length_b   8.93049067
_cell_length_c   9.25287600
_cell_angle_alpha   82.30929919
_cell_angle_beta   75.33606044
_cell_angle_gamma   74.79414466
_symmetry_Int_Tables_number   1
_chemical_formula_structural   Ba5Hg2(As2O)2
_chemical_formula_sum   'Ba5 Hg2 As4 O2'
_cell_volume   360.44639150
_cell_formula_units_Z   1
loop_
 _symmetry_equiv_pos_site_id
 _symmetry_equiv_pos_as_xyz
  1  'x, y, z'
loop_
 _atom_site_type_symbol
 _atom_site_label
 _atom_site_symmetry_multiplicity
 _atom_site_fract_x
 _atom_site_fract_y
 _atom_site_fract_z
 _atom_site_occupancy
  Ba  Ba0  1  0.972205  0.348732  0.706858  1
  Ba  Ba1  1  0.027795  0.651268  0.293142  1
  Ba  Ba2  1  0.720198  0.911131  0.648472  1
  Ba  Ba3  1  0.279802  0.088869  0.351528  1
  Ba  Ba4  1  0.000000  0.000000  0.000000  1
  Hg  Hg5  1  0.736370  0.398763  0.128496  1
  Hg  Hg6  1  0.263630  0.601237  0.871504  1
  As  As7  1  0.639621  0.717566  0.003191  1
  As  As8  1  0.360379  0.282434  0.996809  1
  As  As9  1  0.593484  0.372525  0.440508  1
  As  As10  1  0.406516  0.627475  0.559492  1
  O  O11  1  0.866764  0.952590  0.313882  1
  O  O12  1  0.133236  0.047410  0.686118  1
