# generated using pymatgen
data_Ho7Lu5AlTlCo4
_symmetry_space_group_name_H-M   'P 1'
_cell_length_a   8.24435144
_cell_length_b   8.24452649
_cell_length_c   8.24065115
_cell_angle_alpha   111.67432735
_cell_angle_beta   110.18657209
_cell_angle_gamma   106.61850802
_symmetry_Int_Tables_number   1
_chemical_formula_structural   Ho7Lu5AlTlCo4
_chemical_formula_sum   'Ho7 Lu5 Al1 Tl1 Co4'
_cell_volume   430.17392120
_cell_formula_units_Z   1
loop_
 _symmetry_equiv_pos_site_id
 _symmetry_equiv_pos_as_xyz
  1  'x, y, z'
loop_
 _atom_site_type_symbol
 _atom_site_label
 _atom_site_symmetry_multiplicity
 _atom_site_fract_x
 _atom_site_fract_y
 _atom_site_fract_z
 _atom_site_occupancy
  Ho  Ho0  1  0.440213  0.232080  0.206753  1
  Ho  Ho1  1  0.566330  0.772696  0.794725  1
  Ho  Ho2  1  0.021844  0.228329  0.794578  1
  Ho  Ho3  1  0.974856  0.766660  0.206818  1
  Ho  Ho4  1  0.184885  0.285236  0.470119  1
  Ho  Ho5  1  0.815917  0.715924  0.531792  1
  Ho  Ho6  1  0.185595  0.715465  0.901096  1
  Lu  Lu7  1  0.816598  0.283929  0.100635  1
  Lu  Lu8  1  0.315615  0.621256  0.305596  1
  Lu  Lu9  1  0.684191  0.377181  0.695661  1
  Lu  Lu10  1  0.318503  0.011509  0.695745  1
  Lu  Lu11  1  0.684243  0.989828  0.305482  1
  Al  Al12  1  0.003883  0.001770  0.005588  1
  Tl  Tl13  1  0.498799  0.499706  0.999372  1
  Co  Co14  1  0.370430  0.999426  0.369331  1
  Co  Co15  1  0.622333  0.000644  0.622912  1
  Co  Co16  1  0.111354  0.612669  0.496942  1
  Co  Co17  1  0.884411  0.385692  0.496855  1
