# generated using pymatgen
data_ErLu5MnBi2
_symmetry_space_group_name_H-M   'P 1'
_cell_length_a   8.14237700
_cell_length_b   8.12930126
_cell_length_c   4.22028500
_cell_angle_alpha   90.00000000
_cell_angle_beta   90.00000000
_cell_angle_gamma   120.05321800
_symmetry_Int_Tables_number   1
_chemical_formula_structural   ErLu5MnBi2
_chemical_formula_sum   'Er1 Lu5 Mn1 Bi2'
_cell_volume   241.79298243
_cell_formula_units_Z   1
loop_
 _symmetry_equiv_pos_site_id
 _symmetry_equiv_pos_as_xyz
  1  'x, y, z'
loop_
 _atom_site_type_symbol
 _atom_site_label
 _atom_site_symmetry_multiplicity
 _atom_site_fract_x
 _atom_site_fract_y
 _atom_site_fract_z
 _atom_site_occupancy
  Er  Er0  1  0.613013  0.000000  0.500000  1
  Lu  Lu1  1  0.231164  0.000000  0.000000  1
  Lu  Lu2  1  0.999760  0.615192  0.500000  1
  Lu  Lu3  1  0.384568  0.384808  0.500000  1
  Lu  Lu4  1  0.769484  0.768759  0.000000  1
  Lu  Lu5  1  0.000725  0.231241  0.000000  1
  Mn  Mn6  1  0.002039  0.000000  0.500000  1
  Bi  Bi7  1  0.332515  0.665784  0.000000  1
  Bi  Bi8  1  0.666732  0.334216  0.000000  1
