# generated using pymatgen
data_Fe3Ir8RuO24
_symmetry_space_group_name_H-M   'P 1'
_cell_length_a   4.56341415
_cell_length_b   9.12589829
_cell_length_c   9.45213800
_cell_angle_alpha   90.00000000
_cell_angle_beta   90.00000000
_cell_angle_gamma   90.08123799
_symmetry_Int_Tables_number   1
_chemical_formula_structural   Fe3Ir8RuO24
_chemical_formula_sum   'Fe3 Ir8 Ru1 O24'
_cell_volume   393.63628626
_cell_formula_units_Z   1
loop_
 _symmetry_equiv_pos_site_id
 _symmetry_equiv_pos_as_xyz
  1  'x, y, z'
loop_
 _atom_site_type_symbol
 _atom_site_label
 _atom_site_symmetry_multiplicity
 _atom_site_fract_x
 _atom_site_fract_y
 _atom_site_fract_z
 _atom_site_occupancy
  Fe  Fe0  1  0.499927  0.751180  0.500000  1
  Fe  Fe1  1  0.000000  0.000000  0.000000  1
  Fe  Fe2  1  0.500073  0.248820  0.500000  1
  Ir  Ir3  1  0.000000  0.000000  0.331418  1
  Ir  Ir4  1  0.000000  0.500000  0.333327  1
  Ir  Ir5  1  0.500787  0.251072  0.831831  1
  Ir  Ir6  1  0.499213  0.748928  0.831831  1
  Ir  Ir7  1  0.500787  0.251072  0.168169  1
  Ir  Ir8  1  0.499213  0.748928  0.168169  1
  Ir  Ir9  1  0.000000  0.000000  0.668582  1
  Ir  Ir10  1  0.000000  0.500000  0.666673  1
  Ru  Ru11  1  0.000000  0.500000  0.000000  1
  O  O12  1  0.312058  0.156035  0.000000  1
  O  O13  1  0.305501  0.652613  0.000000  1
  O  O14  1  0.188771  0.404542  0.500000  1
  O  O15  1  0.189972  0.906123  0.500000  1
  O  O16  1  0.810028  0.093877  0.500000  1
  O  O17  1  0.811229  0.595458  0.500000  1
  O  O18  1  0.694499  0.347387  0.000000  1
  O  O19  1  0.687942  0.843965  0.000000  1
  O  O20  1  0.303859  0.152912  0.332345  1
  O  O21  1  0.304828  0.651667  0.333990  1
  O  O22  1  0.193605  0.404138  0.834203  1
  O  O23  1  0.194638  0.901255  0.833334  1
  O  O24  1  0.805362  0.098745  0.833334  1
  O  O25  1  0.806395  0.595862  0.834203  1
  O  O26  1  0.805362  0.098745  0.166666  1
  O  O27  1  0.806395  0.595862  0.165797  1
  O  O28  1  0.193605  0.404138  0.165797  1
  O  O29  1  0.194638  0.901255  0.166666  1
  O  O30  1  0.695172  0.348333  0.333990  1
  O  O31  1  0.696141  0.847088  0.332345  1
  O  O32  1  0.303859  0.152912  0.667655  1
  O  O33  1  0.304828  0.651667  0.666010  1
  O  O34  1  0.695172  0.348333  0.666010  1
  O  O35  1  0.696141  0.847088  0.667655  1
