# generated using pymatgen
data_Ta3Ti5Co8Si13Ge
_symmetry_space_group_name_H-M   'P 1'
_cell_length_a   9.20786468
_cell_length_b   9.20259087
_cell_length_c   9.19539133
_cell_angle_alpha   94.16005623
_cell_angle_beta   94.19732604
_cell_angle_gamma   148.68316925
_symmetry_Int_Tables_number   1
_chemical_formula_structural   Ta3Ti5Co8Si13Ge
_chemical_formula_sum   'Ta3 Ti5 Co8 Si13 Ge1'
_cell_volume   389.95698008
_cell_formula_units_Z   1
loop_
 _symmetry_equiv_pos_site_id
 _symmetry_equiv_pos_as_xyz
  1  'x, y, z'
loop_
 _atom_site_type_symbol
 _atom_site_label
 _atom_site_symmetry_multiplicity
 _atom_site_fract_x
 _atom_site_fract_y
 _atom_site_fract_z
 _atom_site_occupancy
  Ta  Ta0  1  0.132998  0.132903  0.265965  1
  Ta  Ta1  1  0.867578  0.867407  0.734977  1
  Ta  Ta2  1  0.865966  0.133794  0.999805  1
  Ti  Ti3  1  0.134434  0.865304  0.999772  1
  Ti  Ti4  1  0.499394  0.691475  0.190894  1
  Ti  Ti5  1  0.502275  0.307779  0.810152  1
  Ti  Ti6  1  0.308563  0.503315  0.811723  1
  Ti  Ti7  1  0.692157  0.500257  0.192414  1
  Co  Co8  1  0.400131  0.900057  0.799393  1
  Co  Co9  1  0.100054  0.599973  0.200858  1
  Co  Co10  1  0.098747  0.894780  0.497688  1
  Co  Co11  1  0.398999  0.602995  0.497693  1
  Co  Co12  1  0.602814  0.398923  0.497696  1
  Co  Co13  1  0.894733  0.098789  0.497684  1
  Co  Co14  1  0.899325  0.399279  0.799371  1
  Co  Co15  1  0.600834  0.100784  0.200805  1
  Si  Si16  1  0.705561  0.705692  0.411027  1
  Si  Si17  1  0.706286  0.294660  0.000663  1
  Si  Si18  1  0.293639  0.706735  0.000637  1
  Si  Si19  1  0.999574  0.296449  0.295952  1
  Si  Si20  1  0.000765  0.704651  0.705447  1
  Si  Si21  1  0.702959  0.999983  0.702788  1
  Si  Si22  1  0.294485  0.998547  0.293244  1
  Si  Si23  1  0.498972  0.905960  0.404903  1
  Si  Si24  1  0.499834  0.094163  0.594101  1
  Si  Si25  1  0.094428  0.500519  0.594960  1
  Si  Si26  1  0.906201  0.499620  0.405741  1
  Si  Si27  1  0.749669  0.748069  0.000214  1
  Si  Si28  1  0.252136  0.250539  0.000239  1
  Ge  Ge29  1  0.296491  0.296597  0.593192  1
