# generated using pymatgen
data_SmEuTm6(WO6)4
_symmetry_space_group_name_H-M   'P 1'
_cell_length_a   5.38419800
_cell_length_b   7.68879171
_cell_length_c   11.45919313
_cell_angle_alpha   75.26523503
_cell_angle_beta   90.00000000
_cell_angle_gamma   90.00000000
_symmetry_Int_Tables_number   1
_chemical_formula_structural   SmEuTm6(WO6)4
_chemical_formula_sum   'Sm1 Eu1 Tm6 W4 O24'
_cell_volume   458.78652081
_cell_formula_units_Z   1
loop_
 _symmetry_equiv_pos_site_id
 _symmetry_equiv_pos_as_xyz
  1  'x, y, z'
loop_
 _atom_site_type_symbol
 _atom_site_label
 _atom_site_symmetry_multiplicity
 _atom_site_fract_x
 _atom_site_fract_y
 _atom_site_fract_z
 _atom_site_occupancy
  Sm  Sm0  1  0.685184  0.500000  0.750000  1
  Eu  Eu1  1  0.315545  0.500000  0.250000  1
  Tm  Tm2  1  0.742426  0.000000  0.750000  1
  Tm  Tm3  1  0.256560  0.000000  0.250000  1
  Tm  Tm4  1  0.185483  0.796658  0.577664  1
  Tm  Tm5  1  0.815087  0.796748  0.077407  1
  Tm  Tm6  1  0.185483  0.203342  0.922336  1
  Tm  Tm7  1  0.815087  0.203252  0.422593  1
  W  W8  1  0.254471  0.726998  0.884602  1
  W  W9  1  0.745772  0.726674  0.384869  1
  W  W10  1  0.254471  0.273002  0.615398  1
  W  W11  1  0.745772  0.273326  0.115131  1
  O  O12  1  0.041256  0.942644  0.896058  1
  O  O13  1  0.537551  0.846277  0.930279  1
  O  O14  1  0.958661  0.942363  0.395797  1
  O  O15  1  0.457312  0.796009  0.725508  1
  O  O16  1  0.463072  0.846723  0.430358  1
  O  O17  1  0.983157  0.719018  0.768927  1
  O  O18  1  0.543284  0.795157  0.226121  1
  O  O19  1  0.855323  0.639182  0.547455  1
  O  O20  1  0.351536  0.490440  0.886769  1
  O  O21  1  0.015707  0.719558  0.268601  1
  O  O22  1  0.351536  0.509560  0.613231  1
  O  O23  1  0.855323  0.360818  0.952545  1
  O  O24  1  0.143920  0.639280  0.046527  1
  O  O25  1  0.648550  0.489717  0.388611  1
  O  O26  1  0.983157  0.280982  0.731073  1
  O  O27  1  0.648550  0.510283  0.111389  1
  O  O28  1  0.143920  0.360720  0.453473  1
  O  O29  1  0.457312  0.203991  0.774492  1
  O  O30  1  0.015707  0.280442  0.231399  1
  O  O31  1  0.537551  0.153723  0.569721  1
  O  O32  1  0.543284  0.204843  0.273879  1
  O  O33  1  0.041256  0.057356  0.603942  1
  O  O34  1  0.463072  0.153277  0.069642  1
  O  O35  1  0.958661  0.057637  0.104203  1
