# generated using pymatgen
data_Tb3Y5(In3Au10)2
_symmetry_space_group_name_H-M   'P 1'
_cell_length_a   8.60413567
_cell_length_b   8.60268618
_cell_length_c   10.28594230
_cell_angle_alpha   89.97938796
_cell_angle_beta   89.98866150
_cell_angle_gamma   108.13379621
_symmetry_Int_Tables_number   1
_chemical_formula_structural   Tb3Y5(In3Au10)2
_chemical_formula_sum   'Tb3 Y5 In6 Au20'
_cell_volume   723.53718981
_cell_formula_units_Z   1
loop_
 _symmetry_equiv_pos_site_id
 _symmetry_equiv_pos_as_xyz
  1  'x, y, z'
loop_
 _atom_site_type_symbol
 _atom_site_label
 _atom_site_symmetry_multiplicity
 _atom_site_fract_x
 _atom_site_fract_y
 _atom_site_fract_z
 _atom_site_occupancy
  Tb  Tb0  1  0.698417  0.301784  0.999945  1
  Tb  Tb1  1  0.198461  0.801544  0.500034  1
  Tb  Tb2  1  0.803621  0.803711  0.299836  1
  Y  Y3  1  0.303544  0.303702  0.200314  1
  Y  Y4  1  0.801622  0.198386  0.500068  1
  Y  Y5  1  0.301500  0.698374  0.999960  1
  Y  Y6  1  0.696352  0.696516  0.799756  1
  Y  Y7  1  0.196518  0.196474  0.700348  1
  In  In8  1  0.519533  0.019497  0.250066  1
  In  In9  1  0.980481  0.480347  0.750024  1
  In  In10  1  0.000063  0.000071  0.999782  1
  In  In11  1  0.019595  0.519495  0.249963  1
  In  In12  1  0.480408  0.980420  0.750000  1
  In  In13  1  0.500000  0.499860  0.499897  1
  Au  Au14  1  0.152371  0.431127  0.483142  1
  Au  Au15  1  0.903041  0.903034  0.596235  1
  Au  Au16  1  0.568976  0.847574  0.516876  1
  Au  Au17  1  0.885360  0.166728  0.210723  1
  Au  Au18  1  0.385542  0.666858  0.289261  1
  Au  Au19  1  0.666978  0.385516  0.289222  1
  Au  Au20  1  0.403005  0.402989  0.903739  1
  Au  Au21  1  0.930973  0.652313  0.016956  1
  Au  Au22  1  0.333156  0.614527  0.710679  1
  Au  Au23  1  0.347716  0.069046  0.983149  1
  Au  Au24  1  0.596945  0.596956  0.096240  1
  Au  Au25  1  0.652313  0.931061  0.016910  1
  Au  Au26  1  0.096970  0.096953  0.403710  1
  Au  Au27  1  0.614452  0.333200  0.710778  1
  Au  Au28  1  0.114426  0.833058  0.789256  1
  Au  Au29  1  0.068960  0.347624  0.983076  1
  Au  Au30  1  0.847690  0.568982  0.516911  1
  Au  Au31  1  0.166843  0.885414  0.210753  1
  Au  Au32  1  0.431042  0.152364  0.483059  1
  Au  Au33  1  0.833126  0.114494  0.789332  1
