# generated using pymatgen
data_Ca(H3Pd)2
_symmetry_space_group_name_H-M   'P 1'
_cell_length_a   4.93133491
_cell_length_b   4.92969339
_cell_length_c   4.41652906
_cell_angle_alpha   90.06600144
_cell_angle_beta   90.09639013
_cell_angle_gamma   120.07405186
_symmetry_Int_Tables_number   1
_chemical_formula_structural   Ca(H3Pd)2
_chemical_formula_sum   'Ca1 H6 Pd2'
_cell_volume   92.91157243
_cell_formula_units_Z   1
loop_
 _symmetry_equiv_pos_site_id
 _symmetry_equiv_pos_as_xyz
  1  'x, y, z'
loop_
 _atom_site_type_symbol
 _atom_site_label
 _atom_site_symmetry_multiplicity
 _atom_site_fract_x
 _atom_site_fract_y
 _atom_site_fract_z
 _atom_site_occupancy
  Ca  Ca0  1  0.474791  0.394165  0.513828  1
  H  H1  1  0.080423  0.393544  0.219081  1
  H  H2  1  0.474868  0.794274  0.794930  1
  H  H3  1  0.869821  0.788873  0.218814  1
  H  H4  1  0.072340  0.992580  0.795008  1
  H  H5  1  0.475233  0.001600  0.218842  1
  H  H6  1  0.876113  0.394358  0.794740  1
  Pd  Pd7  1  0.141203  0.728011  0.008516  1
  Pd  Pd8  1  0.808343  0.060482  0.008515  1
