# generated using pymatgen
data_Cd2I(BrO4)3
_symmetry_space_group_name_H-M   'P 1'
_cell_length_a   5.51112326
_cell_length_b   5.54423415
_cell_length_c   9.56197400
_cell_angle_alpha   90.28398773
_cell_angle_beta   89.83716114
_cell_angle_gamma   90.27835538
_symmetry_Int_Tables_number   1
_chemical_formula_structural   Cd2I(BrO4)3
_chemical_formula_sum   'Cd2 I1 Br3 O12'
_cell_volume   292.15751520
_cell_formula_units_Z   1
loop_
 _symmetry_equiv_pos_site_id
 _symmetry_equiv_pos_as_xyz
  1  'x, y, z'
loop_
 _atom_site_type_symbol
 _atom_site_label
 _atom_site_symmetry_multiplicity
 _atom_site_fract_x
 _atom_site_fract_y
 _atom_site_fract_z
 _atom_site_occupancy
  Cd  Cd0  1  0.827521  0.727750  0.243206  1
  Cd  Cd1  1  0.316004  0.277386  0.752794  1
  I  I2  1  0.225114  0.228567  0.105035  1
  Br  Br3  1  0.704326  0.235324  0.431688  1
  Br  Br4  1  0.204386  0.769229  0.567072  1
  Br  Br5  1  0.696233  0.772665  0.899407  1
  O  O6  1  0.596133  0.635968  0.047916  1
  O  O7  1  0.104815  0.366050  0.945579  1
  O  O8  1  0.055869  0.874477  0.426928  1
  O  O9  1  0.560003  0.139423  0.576600  1
  O  O10  1  0.575944  0.504042  0.392774  1
  O  O11  1  0.079657  0.494551  0.598772  1
  O  O12  1  0.557619  0.045620  0.906357  1
  O  O13  1  0.068650  0.938056  0.095055  1
  O  O14  1  0.560996  0.618766  0.768742  1
  O  O15  1  0.040265  0.382242  0.236709  1
  O  O16  1  0.585830  0.051024  0.305277  1
  O  O17  1  0.091133  0.938857  0.700089  1
