# generated using pymatgen
data_Nd8Ho12In7Pb9
_symmetry_space_group_name_H-M   'P 1'
_cell_length_a   8.14501600
_cell_length_b   8.39247505
_cell_length_c   15.94379300
_cell_angle_alpha   90.00000000
_cell_angle_beta   90.00000000
_cell_angle_gamma   90.00645155
_symmetry_Int_Tables_number   1
_chemical_formula_structural   Nd8Ho12In7Pb9
_chemical_formula_sum   'Nd8 Ho12 In7 Pb9'
_cell_volume   1089.86735739
_cell_formula_units_Z   1
loop_
 _symmetry_equiv_pos_site_id
 _symmetry_equiv_pos_as_xyz
  1  'x, y, z'
loop_
 _atom_site_type_symbol
 _atom_site_label
 _atom_site_symmetry_multiplicity
 _atom_site_fract_x
 _atom_site_fract_y
 _atom_site_fract_z
 _atom_site_occupancy
  Nd  Nd0  1  0.485627  0.685614  0.596290  1
  Nd  Nd1  1  0.985591  0.814520  0.902635  1
  Nd  Nd2  1  0.511643  0.315763  0.097228  1
  Nd  Nd3  1  0.016252  0.182065  0.405009  1
  Nd  Nd4  1  0.511643  0.315763  0.402772  1
  Nd  Nd5  1  0.016252  0.182065  0.094991  1
  Nd  Nd6  1  0.485627  0.685614  0.903710  1
  Nd  Nd7  1  0.985591  0.814520  0.597365  1
  Ho  Ho8  1  0.640200  0.160950  0.623747  1
  Ho  Ho9  1  0.139493  0.339040  0.875979  1
  Ho  Ho10  1  0.359680  0.840418  0.122572  1
  Ho  Ho11  1  0.858806  0.663300  0.377004  1
  Ho  Ho12  1  0.359680  0.840418  0.377428  1
  Ho  Ho13  1  0.858806  0.663300  0.122996  1
  Ho  Ho14  1  0.640200  0.160950  0.876253  1
  Ho  Ho15  1  0.139493  0.339040  0.624021  1
  Ho  Ho16  1  0.803489  0.494834  0.750000  1
  Ho  Ho17  1  0.303872  0.004457  0.750000  1
  Ho  Ho18  1  0.197968  0.506791  0.250000  1
  Ho  Ho19  1  0.694729  0.991299  0.250000  1
  In  In20  1  0.439478  0.379943  0.750000  1
  In  In21  1  0.940038  0.118863  0.750000  1
  In  In22  1  0.558586  0.621840  0.250000  1
  In  In23  1  0.059952  0.880081  0.250000  1
  In  In24  1  0.685387  0.862098  0.750000  1
  In  In25  1  0.186720  0.638266  0.750000  1
  In  In26  1  0.314865  0.137350  0.250000  1
  Pb  Pb27  1  0.702358  0.960173  0.458046  1
  Pb  Pb28  1  0.199988  0.541289  0.042183  1
  Pb  Pb29  1  0.298776  0.041697  0.957519  1
  Pb  Pb30  1  0.798814  0.458258  0.541427  1
  Pb  Pb31  1  0.298776  0.041697  0.542481  1
  Pb  Pb32  1  0.798814  0.458258  0.958573  1
  Pb  Pb33  1  0.702358  0.960173  0.041954  1
  Pb  Pb34  1  0.199988  0.541289  0.457817  1
  Pb  Pb35  1  0.820466  0.358003  0.250000  1
