# generated using pymatgen
data_SrPr(Al5Os)4
_symmetry_space_group_name_H-M   'P 1'
_cell_length_a   6.91697047
_cell_length_b   6.91697073
_cell_length_c   9.23479400
_cell_angle_alpha   90.00000000
_cell_angle_beta   90.00000000
_cell_angle_gamma   96.43726506
_symmetry_Int_Tables_number   1
_chemical_formula_structural   SrPr(Al5Os)4
_chemical_formula_sum   'Sr1 Pr1 Al20 Os4'
_cell_volume   439.04826771
_cell_formula_units_Z   1
loop_
 _symmetry_equiv_pos_site_id
 _symmetry_equiv_pos_as_xyz
  1  'x, y, z'
loop_
 _atom_site_type_symbol
 _atom_site_label
 _atom_site_symmetry_multiplicity
 _atom_site_fract_x
 _atom_site_fract_y
 _atom_site_fract_z
 _atom_site_occupancy
  Sr  Sr0  1  0.876531  0.123469  0.750000  1
  Pr  Pr1  1  0.124711  0.875289  0.250000  1
  Al  Al2  1  0.519716  0.782441  0.750000  1
  Al  Al3  1  0.780930  0.516672  0.250000  1
  Al  Al4  1  0.483328  0.219070  0.250000  1
  Al  Al5  1  0.217559  0.480284  0.750000  1
  Al  Al6  1  0.622834  0.377166  0.960667  1
  Al  Al7  1  0.377030  0.622970  0.051621  1
  Al  Al8  1  0.622834  0.377166  0.539333  1
  Al  Al9  1  0.377030  0.622970  0.448379  1
  Al  Al10  1  0.410124  0.143059  0.750000  1
  Al  Al11  1  0.143266  0.415510  0.250000  1
  Al  Al12  1  0.584490  0.856734  0.250000  1
  Al  Al13  1  0.856941  0.589876  0.750000  1
  Al  Al14  1  0.842353  0.157647  0.397592  1
  Al  Al15  1  0.163460  0.836540  0.602211  1
  Al  Al16  1  0.842353  0.157647  0.102408  1
  Al  Al17  1  0.163460  0.836540  0.897789  1
  Al  Al18  1  0.772959  0.774544  0.001483  1
  Al  Al19  1  0.772959  0.774544  0.498517  1
  Al  Al20  1  0.225456  0.227041  0.001483  1
  Al  Al21  1  0.225456  0.227041  0.498517  1
  Os  Os22  1  0.498034  0.000926  0.000155  1
  Os  Os23  1  0.999074  0.501966  0.000155  1
  Os  Os24  1  0.498034  0.000926  0.499845  1
  Os  Os25  1  0.999074  0.501966  0.499845  1
