# generated using pymatgen
data_CeYHo(InRh)3
_symmetry_space_group_name_H-M   'P 1'
_cell_length_a   7.36621957
_cell_length_b   7.40194275
_cell_length_c   4.01553900
_cell_angle_alpha   90.00000000
_cell_angle_beta   90.00000000
_cell_angle_gamma   116.98740128
_symmetry_Int_Tables_number   1
_chemical_formula_structural   CeYHo(InRh)3
_chemical_formula_sum   'Ce1 Y1 Ho1 In3 Rh3'
_cell_volume   195.10291544
_cell_formula_units_Z   1
loop_
 _symmetry_equiv_pos_site_id
 _symmetry_equiv_pos_as_xyz
  1  'x, y, z'
loop_
 _atom_site_type_symbol
 _atom_site_label
 _atom_site_symmetry_multiplicity
 _atom_site_fract_x
 _atom_site_fract_y
 _atom_site_fract_z
 _atom_site_occupancy
  Ce  Ce0  1  0.581394  0.581227  0.500000  1
  Y  Y1  1  0.405215  0.998401  0.500000  1
  Ho  Ho2  1  0.997649  0.404666  0.500000  1
  In  In3  1  0.744393  0.008453  0.000000  1
  In  In4  1  0.009389  0.745904  0.000000  1
  In  In5  1  0.242173  0.241845  0.000000  1
  Rh  Rh6  1  0.355574  0.662454  0.000000  1
  Rh  Rh7  1  0.669007  0.359312  0.000000  1
  Rh  Rh8  1  0.995206  0.997737  0.500000  1
