# generated using pymatgen
data_Zr5Mn5Co11(P4W)3
_symmetry_space_group_name_H-M   'P 1'
_cell_length_a   12.01607062
_cell_length_b   11.97517904
_cell_length_c   3.64747100
_cell_angle_alpha   90.00000000
_cell_angle_beta   90.00000000
_cell_angle_gamma   119.78690534
_symmetry_Int_Tables_number   1
_chemical_formula_structural   Zr5Mn5Co11(P4W)3
_chemical_formula_sum   'Zr5 Mn5 Co11 P12 W3'
_cell_volume   455.50748795
_cell_formula_units_Z   1
loop_
 _symmetry_equiv_pos_site_id
 _symmetry_equiv_pos_as_xyz
  1  'x, y, z'
loop_
 _atom_site_type_symbol
 _atom_site_label
 _atom_site_symmetry_multiplicity
 _atom_site_fract_x
 _atom_site_fract_y
 _atom_site_fract_z
 _atom_site_occupancy
  Zr  Zr0  1  0.667342  0.335557  0.000000  1
  Zr  Zr1  1  0.335685  0.668120  0.000000  1
  Zr  Zr2  1  0.818772  0.815839  0.500000  1
  Zr  Zr3  1  0.180129  0.001737  0.500000  1
  Zr  Zr4  1  0.999072  0.178608  0.500000  1
  Mn  Mn5  1  0.198235  0.375942  0.000000  1
  Mn  Mn6  1  0.180219  0.803587  0.000000  1
  Mn  Mn7  1  0.823048  0.624255  0.000000  1
  Mn  Mn8  1  0.121494  0.472513  0.500000  1
  Mn  Mn9  1  0.353650  0.878083  0.500000  1
  Co  Co10  1  0.801581  0.175082  0.000000  1
  Co  Co11  1  0.374806  0.198049  0.000000  1
  Co  Co12  1  0.517205  0.646526  0.500000  1
  Co  Co13  1  0.642132  0.515871  0.500000  1
  Co  Co14  1  0.867309  0.355465  0.500000  1
  Co  Co15  1  0.487168  0.132732  0.500000  1
  Co  Co16  1  0.000414  0.999997  0.000000  1
  Co  Co17  1  0.719466  0.998704  0.500000  1
  Co  Co18  1  0.002094  0.720526  0.500000  1
  Co  Co19  1  0.627930  0.822289  0.000000  1
  Co  Co20  1  0.282477  0.280100  0.500000  1
  P  P21  1  0.646581  0.643892  0.000000  1
  P  P22  1  0.355314  0.004920  0.000000  1
  P  P23  1  0.995081  0.349759  0.000000  1
  P  P24  1  0.482608  0.315919  0.500000  1
  P  P25  1  0.686521  0.167777  0.500000  1
  P  P26  1  0.830864  0.521052  0.500000  1
  P  P27  1  0.518904  0.832491  0.500000  1
  P  P28  1  0.166534  0.682855  0.500000  1
  P  P29  1  0.823906  0.997776  0.000000  1
  P  P30  1  0.999551  0.822345  0.000000  1
  P  P31  1  0.317816  0.483601  0.500000  1
  P  P32  1  0.175556  0.176296  0.000000  1
  W  W33  1  0.447811  0.448405  0.000000  1
  W  W34  1  0.551272  0.999014  0.000000  1
  W  W35  1  0.001451  0.554315  0.000000  1
