# generated using pymatgen
data_Tb8HfTa4Si16W7
_symmetry_space_group_name_H-M   'P 1'
_cell_length_a   6.96660687
_cell_length_b   6.96701879
_cell_length_c   12.96018108
_cell_angle_alpha   90.13465697
_cell_angle_beta   90.04866675
_cell_angle_gamma   90.03921247
_symmetry_Int_Tables_number   1
_chemical_formula_structural   Tb8HfTa4Si16W7
_chemical_formula_sum   'Tb8 Hf1 Ta4 Si16 W7'
_cell_volume   629.03946952
_cell_formula_units_Z   1
loop_
 _symmetry_equiv_pos_site_id
 _symmetry_equiv_pos_as_xyz
  1  'x, y, z'
loop_
 _atom_site_type_symbol
 _atom_site_label
 _atom_site_symmetry_multiplicity
 _atom_site_fract_x
 _atom_site_fract_y
 _atom_site_fract_z
 _atom_site_occupancy
  Tb  Tb0  1  0.999890  0.336343  0.217876  1
  Tb  Tb1  1  0.000924  0.664239  0.719298  1
  Tb  Tb2  1  0.162792  0.500395  0.468150  1
  Tb  Tb3  1  0.499180  0.837116  0.031369  1
  Tb  Tb4  1  0.837139  0.501155  0.969457  1
  Tb  Tb5  1  0.499274  0.163240  0.531302  1
  Tb  Tb6  1  0.335382  0.999114  0.781719  1
  Tb  Tb7  1  0.663887  0.000039  0.281244  1
  Hf  Hf8  1  0.667268  0.332507  0.750196  1
  Ta  Ta9  1  0.167674  0.166338  0.000906  1
  Ta  Ta10  1  0.833158  0.831423  0.499241  1
  Ta  Ta11  1  0.334143  0.666354  0.249231  1
  Ta  Ta12  1  0.160480  0.994258  0.375705  1
  Si  Si13  1  0.376125  0.299021  0.316425  1
  Si  Si14  1  0.625612  0.706378  0.817409  1
  Si  Si15  1  0.203835  0.874014  0.568411  1
  Si  Si16  1  0.124693  0.796917  0.932684  1
  Si  Si17  1  0.795991  0.124008  0.066899  1
  Si  Si18  1  0.872238  0.206548  0.433064  1
  Si  Si19  1  0.293247  0.374548  0.682884  1
  Si  Si20  1  0.703154  0.625566  0.182633  1
  Si  Si21  1  0.292469  0.038397  0.186580  1
  Si  Si22  1  0.708347  0.958405  0.686313  1
  Si  Si23  1  0.463125  0.790103  0.437390  1
  Si  Si24  1  0.209444  0.538181  0.063141  1
  Si  Si25  1  0.536712  0.208438  0.938323  1
  Si  Si26  1  0.792245  0.463197  0.561803  1
  Si  Si27  1  0.041615  0.291085  0.813882  1
  Si  Si28  1  0.960373  0.705861  0.311945  1
  W  W29  1  0.837974  0.006218  0.876183  1
  W  W30  1  0.507043  0.661610  0.625679  1
  W  W31  1  0.336844  0.494349  0.874944  1
  W  W32  1  0.494466  0.337510  0.125575  1
  W  W33  1  0.663766  0.507051  0.373754  1
  W  W34  1  0.993059  0.162330  0.624073  1
  W  W35  1  0.006437  0.837744  0.124312  1
