# generated using pymatgen
data_V3Ni11(B2Rh3)3
_symmetry_space_group_name_H-M   'P 1'
_cell_length_a   7.70679578
_cell_length_b   7.70667943
_cell_length_c   7.73115101
_cell_angle_alpha   59.89319606
_cell_angle_beta   59.88916758
_cell_angle_gamma   60.00015450
_symmetry_Int_Tables_number   1
_chemical_formula_structural   V3Ni11(B2Rh3)3
_chemical_formula_sum   'V3 Ni11 B6 Rh9'
_cell_volume   324.15634381
_cell_formula_units_Z   1
loop_
 _symmetry_equiv_pos_site_id
 _symmetry_equiv_pos_as_xyz
  1  'x, y, z'
loop_
 _atom_site_type_symbol
 _atom_site_label
 _atom_site_symmetry_multiplicity
 _atom_site_fract_x
 _atom_site_fract_y
 _atom_site_fract_z
 _atom_site_occupancy
  V  V0  1  0.000029  0.000043  0.998786  1
  V  V1  1  0.749296  0.749269  0.750773  1
  V  V2  1  0.250690  0.250711  0.249250  1
  Ni  Ni3  1  0.666627  0.999951  0.328307  1
  Ni  Ni4  1  0.999942  0.666611  0.328315  1
  Ni  Ni5  1  0.670204  0.329788  0.999710  1
  Ni  Ni6  1  0.000023  0.333473  0.994898  1
  Ni  Ni7  1  0.999618  0.328986  0.671022  1
  Ni  Ni8  1  0.329761  0.670242  0.999685  1
  Ni  Ni9  1  0.329029  0.999605  0.670989  1
  Ni  Ni10  1  0.333455  0.000039  0.994880  1
  Ni  Ni11  1  0.000011  0.999997  0.671503  1
  Ni  Ni12  1  0.000389  0.670958  0.999600  1
  Ni  Ni13  1  0.670969  0.000407  0.999621  1
  B  B14  1  0.734231  0.734207  0.265374  1
  B  B15  1  0.274641  0.725385  0.265080  1
  B  B16  1  0.725402  0.274651  0.265055  1
  B  B17  1  0.265742  0.265751  0.733913  1
  B  B18  1  0.734087  0.265912  0.735561  1
  B  B19  1  0.265901  0.734085  0.735558  1
  Rh  Rh20  1  0.625346  0.625360  0.125993  1
  Rh  Rh21  1  0.621881  0.128133  0.627968  1
  Rh  Rh22  1  0.128156  0.621876  0.627962  1
  Rh  Rh23  1  0.624401  0.624409  0.626344  1
  Rh  Rh24  1  0.375687  0.375673  0.874970  1
  Rh  Rh25  1  0.378076  0.871889  0.378069  1
  Rh  Rh26  1  0.871860  0.378070  0.378085  1
  Rh  Rh27  1  0.374553  0.374531  0.376679  1
  Rh  Rh28  1  0.999993  0.999988  0.326051  1
