# generated using pymatgen
data_V12Ga6FeCuN4
_symmetry_space_group_name_H-M   'P 1'
_cell_length_a   6.56299611
_cell_length_b   6.56153393
_cell_length_c   6.56321213
_cell_angle_alpha   90.09031232
_cell_angle_beta   89.93353108
_cell_angle_gamma   90.22421431
_symmetry_Int_Tables_number   1
_chemical_formula_structural   V12Ga6FeCuN4
_chemical_formula_sum   'V12 Ga6 Fe1 Cu1 N4'
_cell_volume   282.63101158
_cell_formula_units_Z   1
loop_
 _symmetry_equiv_pos_site_id
 _symmetry_equiv_pos_as_xyz
  1  'x, y, z'
loop_
 _atom_site_type_symbol
 _atom_site_label
 _atom_site_symmetry_multiplicity
 _atom_site_fract_x
 _atom_site_fract_y
 _atom_site_fract_z
 _atom_site_occupancy
  V  V0  1  0.791141  0.960300  0.374459  1
  V  V1  1  0.704344  0.040415  0.874422  1
  V  V2  1  0.211725  0.455271  0.120851  1
  V  V3  1  0.289865  0.536135  0.629094  1
  V  V4  1  0.964138  0.373286  0.789563  1
  V  V5  1  0.044664  0.880629  0.713516  1
  V  V6  1  0.458803  0.126522  0.203987  1
  V  V7  1  0.540453  0.624411  0.291546  1
  V  V8  1  0.375797  0.794979  0.958584  1
  V  V9  1  0.872395  0.707613  0.040033  1
  V  V10  1  0.126857  0.211598  0.465003  1
  V  V11  1  0.620683  0.287300  0.544072  1
  Ga  Ga12  1  0.821061  0.320260  0.179344  1
  Ga  Ga13  1  0.679285  0.680081  0.678143  1
  Ga  Ga14  1  0.560291  0.422415  0.926650  1
  Ga  Ga15  1  0.420172  0.933845  0.568793  1
  Ga  Ga16  1  0.939957  0.579007  0.426638  1
  Ga  Ga17  1  0.078997  0.066007  0.070822  1
  Fe  Fe18  1  0.319086  0.174996  0.820362  1
  Cu  Cu19  1  0.182418  0.822531  0.318780  1
  N  N20  1  0.874827  0.123884  0.626139  1
  N  N21  1  0.622548  0.876269  0.125808  1
  N  N22  1  0.125966  0.626812  0.878032  1
  N  N23  1  0.374528  0.375436  0.375358  1
