# generated using pymatgen
data_LaGeAs3(RuRh2)2
_symmetry_space_group_name_H-M   'P 1'
_cell_length_a   7.23928791
_cell_length_b   7.23928771
_cell_length_c   3.90832100
_cell_angle_alpha   90.00000000
_cell_angle_beta   90.00000000
_cell_angle_gamma   119.47523637
_symmetry_Int_Tables_number   1
_chemical_formula_structural   LaGeAs3(RuRh2)2
_chemical_formula_sum   'La1 Ge1 As3 Ru2 Rh4'
_cell_volume   178.31374993
_cell_formula_units_Z   1
loop_
 _symmetry_equiv_pos_site_id
 _symmetry_equiv_pos_as_xyz
  1  'x, y, z'
loop_
 _atom_site_type_symbol
 _atom_site_label
 _atom_site_symmetry_multiplicity
 _atom_site_fract_x
 _atom_site_fract_y
 _atom_site_fract_z
 _atom_site_occupancy
  La  La0  1  0.000175  0.999825  0.000000  1
  Ge  Ge1  1  0.667499  0.332501  0.000000  1
  As  As2  1  0.191377  0.390226  0.500000  1
  As  As3  1  0.609774  0.808623  0.500000  1
  As  As4  1  0.196303  0.803697  0.500000  1
  Ru  Ru5  1  0.465784  0.927691  0.000000  1
  Ru  Ru6  1  0.072309  0.534216  0.000000  1
  Rh  Rh7  1  0.465505  0.534495  0.000000  1
  Rh  Rh8  1  0.801122  0.601929  0.500000  1
  Rh  Rh9  1  0.398071  0.198878  0.500000  1
  Rh  Rh10  1  0.798743  0.201257  0.500000  1
