# generated using pymatgen
data_Ho5FeBi2
_symmetry_space_group_name_H-M   'P 1'
_cell_length_a   7.93217900
_cell_length_b   8.90067200
_cell_length_c   12.37086200
_cell_angle_alpha   90.00000000
_cell_angle_beta   90.00000000
_cell_angle_gamma   90.00000000
_symmetry_Int_Tables_number   1
_chemical_formula_structural   Ho5FeBi2
_chemical_formula_sum   'Ho20 Fe4 Bi8'
_cell_volume   873.40417868
_cell_formula_units_Z   4
loop_
 _symmetry_equiv_pos_site_id
 _symmetry_equiv_pos_as_xyz
  1  'x, y, z'
loop_
 _atom_site_type_symbol
 _atom_site_label
 _atom_site_symmetry_multiplicity
 _atom_site_fract_x
 _atom_site_fract_y
 _atom_site_fract_z
 _atom_site_occupancy
  Ho  Ho0  1  0.347406  0.750000  0.700758  1
  Ho  Ho1  1  0.652594  0.250000  0.299242  1
  Ho  Ho2  1  0.847406  0.250000  0.799242  1
  Ho  Ho3  1  0.152594  0.750000  0.200758  1
  Ho  Ho4  1  0.884465  0.750000  0.812457  1
  Ho  Ho5  1  0.115535  0.250000  0.187543  1
  Ho  Ho6  1  0.384465  0.250000  0.687543  1
  Ho  Ho7  1  0.615535  0.750000  0.312457  1
  Ho  Ho8  1  0.673746  0.536629  0.562534  1
  Ho  Ho9  1  0.326254  0.463371  0.437466  1
  Ho  Ho10  1  0.173746  0.463371  0.937466  1
  Ho  Ho11  1  0.326254  0.036629  0.437466  1
  Ho  Ho12  1  0.826254  0.536629  0.062534  1
  Ho  Ho13  1  0.673746  0.963371  0.562534  1
  Ho  Ho14  1  0.826254  0.963371  0.062534  1
  Ho  Ho15  1  0.173746  0.036629  0.937466  1
  Ho  Ho16  1  0.056234  0.750000  0.495256  1
  Ho  Ho17  1  0.943766  0.250000  0.504744  1
  Ho  Ho18  1  0.556234  0.250000  0.004744  1
  Ho  Ho19  1  0.443766  0.750000  0.995256  1
  Fe  Fe20  1  0.070994  0.750000  0.990890  1
  Fe  Fe21  1  0.929006  0.250000  0.009110  1
  Fe  Fe22  1  0.570994  0.250000  0.509110  1
  Fe  Fe23  1  0.429006  0.750000  0.490890  1
  Bi  Bi24  1  0.570886  0.507457  0.827006  1
  Bi  Bi25  1  0.429114  0.492543  0.172994  1
  Bi  Bi26  1  0.070886  0.492543  0.672994  1
  Bi  Bi27  1  0.429114  0.007457  0.172994  1
  Bi  Bi28  1  0.929114  0.507457  0.327006  1
  Bi  Bi29  1  0.570886  0.992543  0.827006  1
  Bi  Bi30  1  0.929114  0.992543  0.327006  1
  Bi  Bi31  1  0.070886  0.007457  0.672994  1
