# generated using pymatgen
data_HfZr3Pa6(FeSb3)2
_symmetry_space_group_name_H-M   'P 1'
_cell_length_a   8.97879200
_cell_length_b   8.97879339
_cell_length_c   5.94753600
_cell_angle_alpha   90.00000000
_cell_angle_beta   90.00000000
_cell_angle_gamma   120.00000223
_symmetry_Int_Tables_number   1
_chemical_formula_structural   HfZr3Pa6(FeSb3)2
_chemical_formula_sum   'Hf1 Zr3 Pa6 Fe2 Sb6'
_cell_volume   415.24421496
_cell_formula_units_Z   1
loop_
 _symmetry_equiv_pos_site_id
 _symmetry_equiv_pos_as_xyz
  1  'x, y, z'
loop_
 _atom_site_type_symbol
 _atom_site_label
 _atom_site_symmetry_multiplicity
 _atom_site_fract_x
 _atom_site_fract_y
 _atom_site_fract_z
 _atom_site_occupancy
  Hf  Hf0  1  0.666667  0.333333  0.000000  1
  Zr  Zr1  1  0.333333  0.666667  0.000000  1
  Zr  Zr2  1  0.333333  0.666667  0.500000  1
  Zr  Zr3  1  0.666667  0.333333  0.500000  1
  Pa  Pa4  1  0.755330  0.755178  0.750267  1
  Pa  Pa5  1  0.244822  0.000152  0.750267  1
  Pa  Pa6  1  0.999848  0.244670  0.750267  1
  Pa  Pa7  1  0.244822  0.244670  0.249733  1
  Pa  Pa8  1  0.755330  0.000152  0.249733  1
  Pa  Pa9  1  0.999848  0.755178  0.249733  1
  Fe  Fe10  1  0.000000  0.000000  0.000000  1
  Fe  Fe11  1  0.000000  0.000000  0.500000  1
  Sb  Sb12  1  0.399727  0.399451  0.750164  1
  Sb  Sb13  1  0.600549  0.000277  0.750164  1
  Sb  Sb14  1  0.999723  0.600273  0.750164  1
  Sb  Sb15  1  0.600549  0.600273  0.249836  1
  Sb  Sb16  1  0.399727  0.000277  0.249836  1
  Sb  Sb17  1  0.999723  0.399451  0.249836  1
