# generated using pymatgen
data_Pr2Ho2Zn4Si3Ge
_symmetry_space_group_name_H-M   'P 1'
_cell_length_a   4.21712600
_cell_length_b   4.21712565
_cell_length_c   16.08769500
_cell_angle_alpha   90.00000000
_cell_angle_beta   90.00000000
_cell_angle_gamma   119.99997135
_symmetry_Int_Tables_number   1
_chemical_formula_structural   Pr2Ho2Zn4Si3Ge
_chemical_formula_sum   'Pr2 Ho2 Zn4 Si3 Ge1'
_cell_volume   247.77512252
_cell_formula_units_Z   1
loop_
 _symmetry_equiv_pos_site_id
 _symmetry_equiv_pos_as_xyz
  1  'x, y, z'
loop_
 _atom_site_type_symbol
 _atom_site_label
 _atom_site_symmetry_multiplicity
 _atom_site_fract_x
 _atom_site_fract_y
 _atom_site_fract_z
 _atom_site_occupancy
  Pr  Pr0  1  0.000000  0.000000  0.002087  1
  Pr  Pr1  1  0.000000  0.000000  0.499318  1
  Ho  Ho2  1  0.000000  0.000000  0.250338  1
  Ho  Ho3  1  0.000000  0.000000  0.748343  1
  Zn  Zn4  1  0.333333  0.666667  0.147890  1
  Zn  Zn5  1  0.666667  0.333333  0.848830  1
  Zn  Zn6  1  0.666667  0.333333  0.645569  1
  Zn  Zn7  1  0.333333  0.666667  0.353367  1
  Si  Si8  1  0.333333  0.666667  0.621851  1
  Si  Si9  1  0.666667  0.333333  0.377293  1
  Si  Si10  1  0.666667  0.333333  0.123096  1
  Ge  Ge11  1  0.333333  0.666667  0.882018  1
