# generated using pymatgen
data_RbSi2BO6
_symmetry_space_group_name_H-M   'P 1'
_cell_length_a   4.77684000
_cell_length_b   10.09677300
_cell_length_c   10.56476500
_cell_angle_alpha   90.00000000
_cell_angle_beta   90.00000000
_cell_angle_gamma   90.00000000
_symmetry_Int_Tables_number   1
_chemical_formula_structural   RbSi2BO6
_chemical_formula_sum   'Rb4 Si8 B4 O24'
_cell_volume   509.54568523
_cell_formula_units_Z   4
loop_
 _symmetry_equiv_pos_site_id
 _symmetry_equiv_pos_as_xyz
  1  'x, y, z'
loop_
 _atom_site_type_symbol
 _atom_site_label
 _atom_site_symmetry_multiplicity
 _atom_site_fract_x
 _atom_site_fract_y
 _atom_site_fract_z
 _atom_site_occupancy
  Rb  Rb0  1  0.800031  0.967451  0.812935  1
  Rb  Rb1  1  0.699969  0.032549  0.312935  1
  Rb  Rb2  1  0.300031  0.532549  0.187065  1
  Rb  Rb3  1  0.199969  0.467451  0.687065  1
  Si  Si4  1  0.783555  0.609253  0.935096  1
  Si  Si5  1  0.716445  0.390747  0.435096  1
  Si  Si6  1  0.283555  0.890747  0.064904  1
  Si  Si7  1  0.216445  0.109253  0.564904  1
  Si  Si8  1  0.267102  0.802518  0.574954  1
  Si  Si9  1  0.232898  0.197482  0.074954  1
  Si  Si10  1  0.767102  0.697482  0.425046  1
  Si  Si11  1  0.732898  0.302518  0.925046  1
  B  B12  1  0.286909  0.730848  0.843038  1
  B  B13  1  0.213091  0.269152  0.343038  1
  B  B14  1  0.786909  0.769152  0.156962  1
  B  B15  1  0.713091  0.230848  0.656962  1
  O  O16  1  0.988363  0.691738  0.840969  1
  O  O17  1  0.511637  0.308262  0.340969  1
  O  O18  1  0.488363  0.808262  0.159031  1
  O  O19  1  0.011637  0.191738  0.659031  1
  O  O20  1  0.325679  0.854099  0.915854  1
  O  O21  1  0.174321  0.145901  0.415854  1
  O  O22  1  0.825679  0.645901  0.084146  1
  O  O23  1  0.674321  0.354099  0.584146  1
  O  O24  1  0.456101  0.621330  0.894268  1
  O  O25  1  0.043899  0.378670  0.394268  1
  O  O26  1  0.956101  0.878670  0.105732  1
  O  O27  1  0.543899  0.121330  0.605732  1
  O  O28  1  0.380833  0.757869  0.711559  1
  O  O29  1  0.119167  0.242131  0.211559  1
  O  O30  1  0.880833  0.742131  0.288441  1
  O  O31  1  0.619167  0.257869  0.788441  1
  O  O32  1  0.025741  0.698494  0.526817  1
  O  O33  1  0.474259  0.301506  0.026817  1
  O  O34  1  0.525741  0.801506  0.473183  1
  O  O35  1  0.974259  0.198494  0.973183  1
  O  O36  1  0.130862  0.950754  0.574841  1
  O  O37  1  0.369138  0.049246  0.074841  1
  O  O38  1  0.630862  0.549246  0.425159  1
  O  O39  1  0.869138  0.450754  0.925159  1
