# generated using pymatgen
data_PuThBeB10
_symmetry_space_group_name_H-M   'P 1'
_cell_length_a   4.14086400
_cell_length_b   5.57517394
_cell_length_c   10.98030093
_cell_angle_alpha   90.16671193
_cell_angle_beta   90.00000000
_cell_angle_gamma   90.00000000
_symmetry_Int_Tables_number   1
_chemical_formula_structural   PuThBeB10
_chemical_formula_sum   'Pu2 Th2 Be2 B20'
_cell_volume   253.49056115
_cell_formula_units_Z   2
loop_
 _symmetry_equiv_pos_site_id
 _symmetry_equiv_pos_as_xyz
  1  'x, y, z'
loop_
 _atom_site_type_symbol
 _atom_site_label
 _atom_site_symmetry_multiplicity
 _atom_site_fract_x
 _atom_site_fract_y
 _atom_site_fract_z
 _atom_site_occupancy
  Pu  Pu0  1  0.500000  0.304613  0.866739  1
  Pu  Pu1  1  0.500000  0.695387  0.133261  1
  Th  Th2  1  0.500000  0.803404  0.637776  1
  Th  Th3  1  0.500000  0.196596  0.362224  1
  Be  Be4  1  0.000000  0.500000  0.500000  1
  Be  Be5  1  0.000000  0.000000  0.000000  1
  B  B6  1  0.000000  0.129136  0.539133  1
  B  B7  1  0.000000  0.870864  0.460867  1
  B  B8  1  0.000000  0.628153  0.962140  1
  B  B9  1  0.000000  0.371847  0.037860  1
  B  B10  1  0.000000  0.159836  0.698514  1
  B  B11  1  0.000000  0.840164  0.301486  1
  B  B12  1  0.300215  0.198509  0.109626  1
  B  B13  1  0.300215  0.801491  0.890374  1
  B  B14  1  0.700150  0.697545  0.387441  1
  B  B15  1  0.700150  0.302455  0.612559  1
  B  B16  1  0.699785  0.801491  0.890374  1
  B  B17  1  0.699785  0.198509  0.109626  1
  B  B18  1  0.299850  0.302455  0.612559  1
  B  B19  1  0.299850  0.697545  0.387441  1
  B  B20  1  0.000000  0.028384  0.184930  1
  B  B21  1  0.000000  0.971616  0.815070  1
  B  B22  1  0.000000  0.528778  0.313087  1
  B  B23  1  0.000000  0.471222  0.686913  1
  B  B24  1  0.000000  0.339912  0.195947  1
  B  B25  1  0.000000  0.660088  0.804053  1
