# generated using pymatgen
data_Tl2W3O10
_symmetry_space_group_name_H-M   'P 1'
_cell_length_a   3.88825900
_cell_length_b   11.29373170
_cell_length_c   33.20060200
_cell_angle_alpha   70.70714298
_cell_angle_beta   90.00000000
_cell_angle_gamma   90.00000000
_symmetry_Int_Tables_number   1
_chemical_formula_structural   Tl2W3O10
_chemical_formula_sum   'Tl12 W18 O60'
_cell_volume   1376.06192514
_cell_formula_units_Z   6
loop_
 _symmetry_equiv_pos_site_id
 _symmetry_equiv_pos_as_xyz
  1  'x, y, z'
loop_
 _atom_site_type_symbol
 _atom_site_label
 _atom_site_symmetry_multiplicity
 _atom_site_fract_x
 _atom_site_fract_y
 _atom_site_fract_z
 _atom_site_occupancy
  Tl  Tl0  1  0.517998  0.362500  0.048212  1
  Tl  Tl1  1  0.506306  0.721302  0.652401  1
  Tl  Tl2  1  0.538423  0.108908  0.150050  1
  Tl  Tl3  1  0.538423  0.891092  0.349950  1
  Tl  Tl4  1  0.506306  0.278698  0.847599  1
  Tl  Tl5  1  0.517998  0.637500  0.451788  1
  Tl  Tl6  1  0.482002  0.362500  0.548212  1
  Tl  Tl7  1  0.493694  0.721302  0.152401  1
  Tl  Tl8  1  0.461577  0.108908  0.650050  1
  Tl  Tl9  1  0.461577  0.891092  0.849950  1
  Tl  Tl10  1  0.493694  0.278698  0.347599  1
  Tl  Tl11  1  0.482002  0.637500  0.951788  1
  W  W12  1  0.975314  0.597287  0.848577  1
  W  W13  1  0.024073  0.994376  0.449040  1
  W  W14  1  0.027497  0.153586  0.263512  1
  W  W15  1  0.014684  0.706689  0.554424  1
  W  W16  1  0.020728  0.500000  0.750000  1
  W  W17  1  0.014684  0.293311  0.945576  1
  W  W18  1  0.975314  0.402713  0.651423  1
  W  W19  1  0.027497  0.846414  0.236488  1
  W  W20  1  0.024073  0.005624  0.050960  1
  W  W21  1  0.975927  0.994376  0.949040  1
  W  W22  1  0.972503  0.153586  0.763512  1
  W  W23  1  0.024686  0.597287  0.348577  1
  W  W24  1  0.985316  0.706689  0.054424  1
  W  W25  1  0.979272  0.500000  0.250000  1
  W  W26  1  0.985316  0.293311  0.445576  1
  W  W27  1  0.972503  0.846414  0.736488  1
  W  W28  1  0.975927  0.005624  0.550960  1
  W  W29  1  0.024686  0.402713  0.151423  1
  O  O30  1  0.997397  0.839284  0.589600  1
  O  O31  1  0.487835  0.583288  0.848704  1
  O  O32  1  0.008119  0.334339  0.108832  1
  O  O33  1  0.990023  0.681280  0.730338  1
  O  O34  1  0.011948  0.251958  0.197469  1
  O  O35  1  0.000404  0.879997  0.509245  1
  O  O36  1  0.509347  0.996262  0.452952  1
  O  O37  1  0.516393  0.159023  0.258792  1
  O  O38  1  0.017121  0.076900  0.320716  1
  O  O39  1  0.004806  0.381571  0.981561  1
  O  O40  1  0.992591  0.495551  0.807944  1
  O  O41  1  0.997063  0.419867  0.892513  1
  O  O42  1  0.504148  0.719229  0.556027  1
  O  O43  1  0.007780  0.893850  0.417501  1
  O  O44  1  0.499125  0.500000  0.750000  1
  O  O45  1  0.012526  0.000000  0.250000  1
  O  O46  1  0.504148  0.280771  0.943973  1
  O  O47  1  0.997063  0.580133  0.607487  1
  O  O48  1  0.992591  0.504449  0.692056  1
  O  O49  1  0.007780  0.106150  0.082499  1
  O  O50  1  0.004806  0.618429  0.518439  1
  O  O51  1  0.000404  0.120003  0.990755  1
  O  O52  1  0.990023  0.318720  0.769662  1
  O  O53  1  0.487835  0.416712  0.651296  1
  O  O54  1  0.017121  0.923100  0.179284  1
  O  O55  1  0.516393  0.840977  0.241208  1
  O  O56  1  0.997397  0.160716  0.910400  1
  O  O57  1  0.509347  0.003738  0.047048  1
  O  O58  1  0.011948  0.748042  0.302531  1
  O  O59  1  0.008119  0.665661  0.391168  1
  O  O60  1  0.991881  0.334339  0.608832  1
  O  O61  1  0.988052  0.251958  0.697469  1
  O  O62  1  0.490653  0.996262  0.952952  1
  O  O63  1  0.002603  0.839284  0.089600  1
  O  O64  1  0.483607  0.159023  0.758792  1
  O  O65  1  0.982879  0.076900  0.820716  1
  O  O66  1  0.512165  0.583288  0.348704  1
  O  O67  1  0.009977  0.681280  0.230338  1
  O  O68  1  0.999596  0.879997  0.009245  1
  O  O69  1  0.995194  0.381571  0.481561  1
  O  O70  1  0.992220  0.893850  0.917501  1
  O  O71  1  0.007409  0.495551  0.307944  1
  O  O72  1  0.002937  0.419867  0.392513  1
  O  O73  1  0.495852  0.719229  0.056027  1
  O  O74  1  0.987474  0.000000  0.750000  1
  O  O75  1  0.500875  0.500000  0.250000  1
  O  O76  1  0.992220  0.106150  0.582499  1
  O  O77  1  0.495852  0.280771  0.443973  1
  O  O78  1  0.002937  0.580133  0.107487  1
  O  O79  1  0.007409  0.504449  0.192056  1
  O  O80  1  0.995194  0.618429  0.018439  1
  O  O81  1  0.982879  0.923100  0.679284  1
  O  O82  1  0.483607  0.840977  0.741208  1
  O  O83  1  0.490653  0.003738  0.547048  1
  O  O84  1  0.999596  0.120003  0.490755  1
  O  O85  1  0.988052  0.748042  0.802531  1
  O  O86  1  0.009977  0.318720  0.269662  1
  O  O87  1  0.991881  0.665661  0.891168  1
  O  O88  1  0.512165  0.416712  0.151296  1
  O  O89  1  0.002603  0.160716  0.410400  1
