# generated using pymatgen
data_KCu(PO3)4
_symmetry_space_group_name_H-M   'P 1'
_cell_length_a   10.52392874
_cell_length_b   10.52392925
_cell_length_c   5.18305090
_cell_angle_alpha   81.20439687
_cell_angle_beta   81.20439197
_cell_angle_gamma   72.13653478
_symmetry_Int_Tables_number   1
_chemical_formula_structural   KCu(PO3)4
_chemical_formula_sum   'K2 Cu2 P8 O24'
_cell_volume   536.49947647
_cell_formula_units_Z   2
loop_
 _symmetry_equiv_pos_site_id
 _symmetry_equiv_pos_as_xyz
  1  'x, y, z'
loop_
 _atom_site_type_symbol
 _atom_site_label
 _atom_site_symmetry_multiplicity
 _atom_site_fract_x
 _atom_site_fract_y
 _atom_site_fract_z
 _atom_site_occupancy
  K  K0  1  0.403680  0.403680  0.736553  1
  K  K1  1  0.596320  0.596320  0.263447  1
  Cu  Cu2  1  0.500000  0.000000  0.000000  1
  Cu  Cu3  1  0.000000  0.500000  0.000000  1
  P  P4  1  0.798822  0.354547  0.834644  1
  P  P5  1  0.068225  0.309079  0.529029  1
  P  P6  1  0.309079  0.068225  0.529029  1
  P  P7  1  0.645453  0.201178  0.165356  1
  P  P8  1  0.354547  0.798822  0.834644  1
  P  P9  1  0.690921  0.931775  0.470971  1
  P  P10  1  0.931775  0.690921  0.470971  1
  P  P11  1  0.201178  0.645453  0.165356  1
  O  O12  1  0.430321  0.844809  0.012450  1
  O  O13  1  0.404863  0.099455  0.684053  1
  O  O14  1  0.427679  0.675599  0.708508  1
  O  O15  1  0.155191  0.569679  0.987550  1
  O  O16  1  0.569679  0.155191  0.987550  1
  O  O17  1  0.909556  0.663748  0.766779  1
  O  O18  1  0.213995  0.786005  0.000000  1
  O  O19  1  0.572321  0.324401  0.291492  1
  O  O20  1  0.595137  0.900545  0.315947  1
  O  O21  1  0.708513  0.077305  0.380402  1
  O  O22  1  0.324401  0.572321  0.291492  1
  O  O23  1  0.900545  0.595137  0.315947  1
  O  O24  1  0.844809  0.430321  0.012450  1
  O  O25  1  0.077305  0.708513  0.380402  1
  O  O26  1  0.157602  0.157602  0.607491  1
  O  O27  1  0.099455  0.404863  0.684053  1
  O  O28  1  0.675599  0.427679  0.708508  1
  O  O29  1  0.291487  0.922695  0.619598  1
  O  O30  1  0.786005  0.213995  0.000000  1
  O  O31  1  0.336252  0.090444  0.233221  1
  O  O32  1  0.663748  0.909556  0.766779  1
  O  O33  1  0.842398  0.842398  0.392509  1
  O  O34  1  0.922695  0.291487  0.619598  1
  O  O35  1  0.090444  0.336252  0.233221  1
