# generated using pymatgen
data_Ho6Lu6GaCo4Bi
_symmetry_space_group_name_H-M   'P 1'
_cell_length_a   8.26837189
_cell_length_b   8.24810518
_cell_length_c   8.24810492
_cell_angle_alpha   111.37680528
_cell_angle_beta   109.36033923
_cell_angle_gamma   107.60386282
_symmetry_Int_Tables_number   1
_chemical_formula_structural   Ho6Lu6GaCo4Bi
_chemical_formula_sum   'Ho6 Lu6 Ga1 Co4 Bi1'
_cell_volume   433.05292335
_cell_formula_units_Z   1
loop_
 _symmetry_equiv_pos_site_id
 _symmetry_equiv_pos_as_xyz
  1  'x, y, z'
loop_
 _atom_site_type_symbol
 _atom_site_label
 _atom_site_symmetry_multiplicity
 _atom_site_fract_x
 _atom_site_fract_y
 _atom_site_fract_z
 _atom_site_occupancy
  Ho  Ho0  1  0.564924  0.270214  0.294710  1
  Ho  Ho1  1  0.435076  0.729786  0.705290  1
  Ho  Ho2  1  0.178251  0.777511  0.958697  1
  Ho  Ho3  1  0.821749  0.780446  0.599260  1
  Ho  Ho4  1  0.178251  0.219554  0.400740  1
  Ho  Ho5  1  0.821749  0.222489  0.041303  1
  Lu  Lu6  1  0.974756  0.269952  0.704802  1
  Lu  Lu7  1  0.025244  0.730048  0.295198  1
  Lu  Lu8  1  0.677607  0.858293  0.184934  1
  Lu  Lu9  1  0.322393  0.507328  0.180685  1
  Lu  Lu10  1  0.322393  0.141707  0.815066  1
  Lu  Lu11  1  0.677607  0.492672  0.819315  1
  Ga  Ga12  1  0.000000  0.500000  0.500000  1
  Co  Co13  1  0.113652  0.115842  0.997811  1
  Co  Co14  1  0.886348  0.884158  0.002189  1
  Co  Co15  1  0.655954  0.500482  0.155472  1
  Co  Co16  1  0.344046  0.499518  0.844528  1
  Bi  Bi17  1  0.500000  0.000000  0.500000  1
