# generated using pymatgen
data_Pm4Lu(MoO4)3
_symmetry_space_group_name_H-M   'P 1'
_cell_length_a   5.63311145
_cell_length_b   5.94170328
_cell_length_c   8.15748315
_cell_angle_alpha   90.42319487
_cell_angle_beta   89.78148108
_cell_angle_gamma   90.00811059
_symmetry_Int_Tables_number   1
_chemical_formula_structural   Pm4Lu(MoO4)3
_chemical_formula_sum   'Pm4 Lu1 Mo3 O12'
_cell_volume   273.02378402
_cell_formula_units_Z   1
loop_
 _symmetry_equiv_pos_site_id
 _symmetry_equiv_pos_as_xyz
  1  'x, y, z'
loop_
 _atom_site_type_symbol
 _atom_site_label
 _atom_site_symmetry_multiplicity
 _atom_site_fract_x
 _atom_site_fract_y
 _atom_site_fract_z
 _atom_site_occupancy
  Pm  Pm0  1  0.982954  0.062945  0.252747  1
  Pm  Pm1  1  0.521111  0.561145  0.253317  1
  Pm  Pm2  1  0.478889  0.438855  0.746683  1
  Pm  Pm3  1  0.017045  0.937055  0.747253  1
  Lu  Lu4  1  0.500000  0.000000  0.000000  1
  Mo  Mo5  1  0.000000  0.500001  0.000000  1
  Mo  Mo6  1  0.500000  0.000000  0.500000  1
  Mo  Mo7  1  0.000000  0.500001  0.500000  1
  O  O8  1  0.691468  0.307145  0.067437  1
  O  O9  1  0.813322  0.806252  0.065273  1
  O  O10  1  0.127939  0.444208  0.250244  1
  O  O11  1  0.374679  0.944673  0.252604  1
  O  O12  1  0.689237  0.305760  0.436159  1
  O  O13  1  0.811755  0.805234  0.436166  1
  O  O14  1  0.188246  0.194766  0.563835  1
  O  O15  1  0.310764  0.694240  0.563842  1
  O  O16  1  0.625321  0.055327  0.747396  1
  O  O17  1  0.872062  0.555792  0.749756  1
  O  O18  1  0.186679  0.193748  0.934726  1
  O  O19  1  0.308533  0.692855  0.932562  1
