# generated using pymatgen
data_Zr6Ti2Nb2Al12Ir6Ru
_symmetry_space_group_name_H-M   'P 1'
_cell_length_a   8.85989153
_cell_length_b   8.85989224
_cell_length_c   8.85989200
_cell_angle_alpha   60.00000089
_cell_angle_beta   59.99999823
_cell_angle_gamma   60.00000364
_symmetry_Int_Tables_number   1
_chemical_formula_structural   Zr6Ti2Nb2Al12Ir6Ru
_chemical_formula_sum   'Zr6 Ti2 Nb2 Al12 Ir6 Ru1'
_cell_volume   491.77934437
_cell_formula_units_Z   1
loop_
 _symmetry_equiv_pos_site_id
 _symmetry_equiv_pos_as_xyz
  1  'x, y, z'
loop_
 _atom_site_type_symbol
 _atom_site_label
 _atom_site_symmetry_multiplicity
 _atom_site_fract_x
 _atom_site_fract_y
 _atom_site_fract_z
 _atom_site_occupancy
  Zr  Zr0  1  0.691249  0.692388  0.308960  1
  Zr  Zr1  1  0.307402  0.692388  0.308960  1
  Zr  Zr2  1  0.692806  0.307194  0.307194  1
  Zr  Zr3  1  0.307402  0.308960  0.692388  1
  Zr  Zr4  1  0.691249  0.308960  0.692388  1
  Zr  Zr5  1  0.309254  0.690746  0.690746  1
  Ti  Ti6  1  0.880010  0.881035  0.358943  1
  Ti  Ti7  1  0.880010  0.358943  0.881035  1
  Nb  Nb8  1  0.360487  0.880193  0.880193  1
  Nb  Nb9  1  0.879127  0.880193  0.880193  1
  Al  Al10  1  0.118946  0.123158  0.638950  1
  Al  Al11  1  0.118946  0.638950  0.123158  1
  Al  Al12  1  0.639511  0.121476  0.121476  1
  Al  Al13  1  0.117536  0.121476  0.121476  1
  Al  Al14  1  0.662198  0.657889  0.017713  1
  Al  Al15  1  0.662198  0.017713  0.657889  1
  Al  Al16  1  0.014941  0.660327  0.660327  1
  Al  Al17  1  0.664404  0.660327  0.660327  1
  Al  Al18  1  0.337137  0.336810  0.988918  1
  Al  Al19  1  0.337137  0.988918  0.336810  1
  Al  Al20  1  0.988656  0.337031  0.337031  1
  Al  Al21  1  0.337284  0.337031  0.337031  1
  Ir  Ir22  1  0.998469  0.997486  0.502104  1
  Ir  Ir23  1  0.501941  0.997486  0.502104  1
  Ir  Ir24  1  0.998475  0.501525  0.501525  1
  Ir  Ir25  1  0.501941  0.502104  0.997486  1
  Ir  Ir26  1  0.998469  0.502104  0.997486  1
  Ir  Ir27  1  0.502478  0.997522  0.997522  1
  Ru  Ru28  1  0.000335  0.999665  0.999665  1
