# generated using pymatgen
data_YTm7Sc11Si16Os
_symmetry_space_group_name_H-M   'P 1'
_cell_length_a   6.96615739
_cell_length_b   7.31577472
_cell_length_c   13.79975441
_cell_angle_alpha   90.02780426
_cell_angle_beta   90.00320196
_cell_angle_gamma   90.14204742
_symmetry_Int_Tables_number   1
_chemical_formula_structural   YTm7Sc11Si16Os
_chemical_formula_sum   'Y1 Tm7 Sc11 Si16 Os1'
_cell_volume   703.27240488
_cell_formula_units_Z   1
loop_
 _symmetry_equiv_pos_site_id
 _symmetry_equiv_pos_as_xyz
  1  'x, y, z'
loop_
 _atom_site_type_symbol
 _atom_site_label
 _atom_site_symmetry_multiplicity
 _atom_site_fract_x
 _atom_site_fract_y
 _atom_site_fract_z
 _atom_site_occupancy
  Y  Y0  1  0.011585  0.178236  0.091699  1
  Tm  Tm1  1  0.993466  0.818072  0.901036  1
  Tm  Tm2  1  0.490580  0.673404  0.903115  1
  Tm  Tm3  1  0.993494  0.818208  0.598634  1
  Tm  Tm4  1  0.510985  0.323191  0.093874  1
  Tm  Tm5  1  0.011829  0.179058  0.407678  1
  Tm  Tm6  1  0.511080  0.322844  0.406323  1
  Tm  Tm7  1  0.490449  0.673353  0.596656  1
  Sc  Sc8  1  0.841594  0.496196  0.250236  1
  Sc  Sc9  1  0.342477  0.004079  0.250334  1
  Sc  Sc10  1  0.656526  0.994055  0.749922  1
  Sc  Sc11  1  0.325581  0.175986  0.627499  1
  Sc  Sc12  1  0.671797  0.824758  0.374475  1
  Sc  Sc13  1  0.172542  0.673819  0.377239  1
  Sc  Sc14  1  0.671597  0.824452  0.125942  1
  Sc  Sc15  1  0.824541  0.331464  0.628704  1
  Sc  Sc16  1  0.325708  0.175935  0.872299  1
  Sc  Sc17  1  0.824281  0.331886  0.871034  1
  Sc  Sc18  1  0.172594  0.673573  0.122972  1
  Si  Si19  1  0.027292  0.114799  0.749950  1
  Si  Si20  1  0.973137  0.887241  0.250396  1
  Si  Si21  1  0.469448  0.612912  0.250105  1
  Si  Si22  1  0.513188  0.397807  0.749943  1
  Si  Si23  1  0.285470  0.855278  0.749997  1
  Si  Si24  1  0.716500  0.131549  0.250610  1
  Si  Si25  1  0.216143  0.369937  0.250704  1
  Si  Si26  1  0.795956  0.632599  0.749915  1
  Si  Si27  1  0.157994  0.466484  0.549310  1
  Si  Si28  1  0.841494  0.535969  0.464115  1
  Si  Si29  1  0.344008  0.965173  0.463265  1
  Si  Si30  1  0.841071  0.537327  0.035575  1
  Si  Si31  1  0.660517  0.034103  0.539812  1
  Si  Si32  1  0.158155  0.467427  0.950275  1
  Si  Si33  1  0.660019  0.033882  0.959982  1
  Si  Si34  1  0.345809  0.964188  0.036482  1
  Os  Os35  1  0.151092  0.500760  0.749891  1
