# generated using pymatgen
data_LuZrBRh6
_symmetry_space_group_name_H-M   'P 1'
_cell_length_a   5.74619985
_cell_length_b   5.74619945
_cell_length_c   5.74620000
_cell_angle_alpha   59.99999683
_cell_angle_beta   59.99999913
_cell_angle_gamma   59.99999712
_symmetry_Int_Tables_number   1
_chemical_formula_structural   LuZrBRh6
_chemical_formula_sum   'Lu1 Zr1 B1 Rh6'
_cell_volume   134.16126353
_cell_formula_units_Z   1
loop_
 _symmetry_equiv_pos_site_id
 _symmetry_equiv_pos_as_xyz
  1  'x, y, z'
loop_
 _atom_site_type_symbol
 _atom_site_label
 _atom_site_symmetry_multiplicity
 _atom_site_fract_x
 _atom_site_fract_y
 _atom_site_fract_z
 _atom_site_occupancy
  Lu  Lu0  1  0.750000  0.750000  0.750000  1
  Zr  Zr1  1  0.250000  0.250000  0.250000  1
  B  B2  1  0.000000  0.000000  0.000000  1
  Rh  Rh3  1  0.742712  0.742712  0.257288  1
  Rh  Rh4  1  0.257288  0.742712  0.257288  1
  Rh  Rh5  1  0.742712  0.257288  0.257288  1
  Rh  Rh6  1  0.257288  0.257288  0.742712  1
  Rh  Rh7  1  0.742712  0.257288  0.742712  1
  Rh  Rh8  1  0.257288  0.742712  0.742712  1
