# generated using pymatgen
data_Tb3TmHf3PtF28
_symmetry_space_group_name_H-M   'P 1'
_cell_length_a   5.67541053
_cell_length_b   9.01300381
_cell_length_c   12.11480737
_cell_angle_alpha   62.41477496
_cell_angle_beta   89.95351650
_cell_angle_gamma   89.95665350
_symmetry_Int_Tables_number   1
_chemical_formula_structural   Tb3TmHf3PtF28
_chemical_formula_sum   'Tb3 Tm1 Hf3 Pt1 F28'
_cell_volume   549.25648875
_cell_formula_units_Z   1
loop_
 _symmetry_equiv_pos_site_id
 _symmetry_equiv_pos_as_xyz
  1  'x, y, z'
loop_
 _atom_site_type_symbol
 _atom_site_label
 _atom_site_symmetry_multiplicity
 _atom_site_fract_x
 _atom_site_fract_y
 _atom_site_fract_z
 _atom_site_occupancy
  Tb  Tb0  1  0.257198  0.183394  0.731693  1
  Tb  Tb1  1  0.240922  0.184629  0.238440  1
  Tb  Tb2  1  0.743193  0.812380  0.267512  1
  Tm  Tm3  1  0.757926  0.814355  0.765864  1
  Hf  Hf4  1  0.755855  0.275151  0.955461  1
  Hf  Hf5  1  0.256777  0.725707  0.546746  1
  Hf  Hf6  1  0.244578  0.725707  0.043108  1
  Pt  Pt7  1  0.741255  0.271184  0.456378  1
  F  F8  1  0.464391  0.710555  0.919179  1
  F  F9  1  0.935383  0.294836  0.582146  1
  F  F10  1  0.535899  0.290018  0.079129  1
  F  F11  1  0.041149  0.711610  0.421686  1
  F  F12  1  0.447073  0.279730  0.540888  1
  F  F13  1  0.951740  0.723666  0.948197  1
  F  F14  1  0.548490  0.718310  0.454449  1
  F  F15  1  0.046541  0.278428  0.050070  1
  F  F16  1  0.771226  0.525774  0.859238  1
  F  F17  1  0.267695  0.475323  0.639958  1
  F  F18  1  0.224682  0.476390  0.141465  1
  F  F19  1  0.731021  0.517212  0.358184  1
  F  F20  1  0.758456  0.025654  0.057269  1
  F  F21  1  0.261542  0.974885  0.445735  1
  F  F22  1  0.242784  0.975219  0.940898  1
  F  F23  1  0.743227  0.024715  0.549989  1
  F  F24  1  0.983418  0.733509  0.649576  1
  F  F25  1  0.486933  0.267246  0.850867  1
  F  F26  1  0.027856  0.272162  0.364518  1
  F  F27  1  0.517178  0.731831  0.145693  1
  F  F28  1  0.039311  0.748160  0.170577  1
  F  F29  1  0.553054  0.256399  0.324680  1
  F  F30  1  0.966726  0.254159  0.828804  1
  F  F31  1  0.469080  0.746706  0.673367  1
  F  F32  1  0.421120  0.970752  0.235134  1
  F  F33  1  0.920291  0.029136  0.268894  1
  F  F34  1  0.576700  0.024471  0.762890  1
  F  F35  1  0.069328  0.970638  0.731317  1
