# generated using pymatgen
data_SmGdTa5WO18
_symmetry_space_group_name_H-M   'P 1'
_cell_length_a   7.56221947
_cell_length_b   5.37017789
_cell_length_c   8.33306570
_cell_angle_alpha   87.60411917
_cell_angle_beta   90.10908032
_cell_angle_gamma   89.78136127
_symmetry_Int_Tables_number   1
_chemical_formula_structural   SmGdTa5WO18
_chemical_formula_sum   'Sm1 Gd1 Ta5 W1 O18'
_cell_volume   338.11065509
_cell_formula_units_Z   1
loop_
 _symmetry_equiv_pos_site_id
 _symmetry_equiv_pos_as_xyz
  1  'x, y, z'
loop_
 _atom_site_type_symbol
 _atom_site_label
 _atom_site_symmetry_multiplicity
 _atom_site_fract_x
 _atom_site_fract_y
 _atom_site_fract_z
 _atom_site_occupancy
  Sm  Sm0  1  0.248228  0.965766  0.435507  1
  Gd  Gd1  1  0.752254  0.035290  0.564536  1
  Ta  Ta2  1  0.500042  0.000084  0.999850  1
  Ta  Ta3  1  0.007177  0.529523  0.697320  1
  Ta  Ta4  1  0.494285  0.526594  0.696734  1
  Ta  Ta5  1  0.992291  0.470543  0.302740  1
  Ta  Ta6  1  0.506256  0.473469  0.303346  1
  W  W7  1  0.999949  0.000074  0.999858  1
  O  O8  1  0.246954  0.913951  0.979738  1
  O  O9  1  0.935789  0.851014  0.782464  1
  O  O10  1  0.559717  0.846920  0.788250  1
  O  O11  1  0.958368  0.738340  0.468576  1
  O  O12  1  0.541394  0.738541  0.468154  1
  O  O13  1  0.250621  0.656122  0.658666  1
  O  O14  1  0.948657  0.676542  0.123896  1
  O  O15  1  0.548975  0.679768  0.121802  1
  O  O16  1  0.250248  0.569353  0.313708  1
  O  O17  1  0.749757  0.428388  0.686069  1
  O  O18  1  0.051375  0.323494  0.876168  1
  O  O19  1  0.450997  0.320210  0.878279  1
  O  O20  1  0.749358  0.342525  0.341912  1
  O  O21  1  0.040182  0.262468  0.531691  1
  O  O22  1  0.459880  0.262100  0.532079  1
  O  O23  1  0.063645  0.149551  0.216934  1
  O  O24  1  0.440577  0.153383  0.211412  1
  O  O25  1  0.753024  0.085988  0.020310  1
