# generated using pymatgen
data_Tm2HfBe2Ir5
_symmetry_space_group_name_H-M   'P 1'
_cell_length_a   9.75345400
_cell_length_b   9.75345400
_cell_length_c   3.26065500
_cell_angle_alpha   90.00000000
_cell_angle_beta   90.00000000
_cell_angle_gamma   90.00000000
_symmetry_Int_Tables_number   1
_chemical_formula_structural   Tm2HfBe2Ir5
_chemical_formula_sum   'Tm4 Hf2 Be4 Ir10'
_cell_volume   310.18566973
_cell_formula_units_Z   2
loop_
 _symmetry_equiv_pos_site_id
 _symmetry_equiv_pos_as_xyz
  1  'x, y, z'
loop_
 _atom_site_type_symbol
 _atom_site_label
 _atom_site_symmetry_multiplicity
 _atom_site_fract_x
 _atom_site_fract_y
 _atom_site_fract_z
 _atom_site_occupancy
  Tm  Tm0  1  0.176394  0.676394  0.000000  1
  Tm  Tm1  1  0.323606  0.176394  0.000000  1
  Tm  Tm2  1  0.823606  0.323606  0.000000  1
  Tm  Tm3  1  0.676394  0.823606  0.000000  1
  Hf  Hf4  1  0.500000  0.500000  0.000000  1
  Hf  Hf5  1  0.000000  0.000000  0.000000  1
  Be  Be6  1  0.380369  0.880369  0.000000  1
  Be  Be7  1  0.119631  0.380369  0.000000  1
  Be  Be8  1  0.880369  0.619631  0.000000  1
  Be  Be9  1  0.619631  0.119631  0.000000  1
  Ir  Ir10  1  0.217345  0.931212  0.500000  1
  Ir  Ir11  1  0.931212  0.782655  0.500000  1
  Ir  Ir12  1  0.431212  0.717345  0.500000  1
  Ir  Ir13  1  0.568788  0.282655  0.500000  1
  Ir  Ir14  1  0.717345  0.568788  0.500000  1
  Ir  Ir15  1  0.282655  0.431212  0.500000  1
  Ir  Ir16  1  0.068788  0.217345  0.500000  1
  Ir  Ir17  1  0.000000  0.500000  0.500000  1
  Ir  Ir18  1  0.500000  0.000000  0.500000  1
  Ir  Ir19  1  0.782655  0.068788  0.500000  1
