# generated using pymatgen
data_Pr2AlOsI
_symmetry_space_group_name_H-M   'P 1'
_cell_length_a   4.36699100
_cell_length_b   4.36699199
_cell_length_c   17.59569900
_cell_angle_alpha   90.00000000
_cell_angle_beta   90.00000000
_cell_angle_gamma   120.00000007
_symmetry_Int_Tables_number   1
_chemical_formula_structural   Pr2AlOsI
_chemical_formula_sum   'Pr4 Al2 Os2 I2'
_cell_volume   290.60417401
_cell_formula_units_Z   2
loop_
 _symmetry_equiv_pos_site_id
 _symmetry_equiv_pos_as_xyz
  1  'x, y, z'
loop_
 _atom_site_type_symbol
 _atom_site_label
 _atom_site_symmetry_multiplicity
 _atom_site_fract_x
 _atom_site_fract_y
 _atom_site_fract_z
 _atom_site_occupancy
  Pr  Pr0  1  0.000000  0.000000  0.605058  1
  Pr  Pr1  1  0.000000  0.000000  0.394890  1
  Pr  Pr2  1  0.000000  0.000000  0.105058  1
  Pr  Pr3  1  0.000000  0.000000  0.894890  1
  Al  Al4  1  0.666667  0.333333  0.500334  1
  Al  Al5  1  0.333333  0.666667  0.000334  1
  Os  Os6  1  0.666667  0.333333  0.999938  1
  Os  Os7  1  0.333333  0.666667  0.499938  1
  I  I8  1  0.666667  0.333333  0.249780  1
  I  I9  1  0.333333  0.666667  0.749780  1
