# generated using pymatgen
data_YGaBIr3
_symmetry_space_group_name_H-M   'P 1'
_cell_length_a   5.53747700
_cell_length_b   5.53747660
_cell_length_c   7.03299100
_cell_angle_alpha   90.00000000
_cell_angle_beta   90.00000000
_cell_angle_gamma   120.00000839
_symmetry_Int_Tables_number   1
_chemical_formula_structural   YGaBIr3
_chemical_formula_sum   'Y2 Ga2 B2 Ir6'
_cell_volume   186.76457150
_cell_formula_units_Z   2
loop_
 _symmetry_equiv_pos_site_id
 _symmetry_equiv_pos_as_xyz
  1  'x, y, z'
loop_
 _atom_site_type_symbol
 _atom_site_label
 _atom_site_symmetry_multiplicity
 _atom_site_fract_x
 _atom_site_fract_y
 _atom_site_fract_z
 _atom_site_occupancy
  Y  Y0  1  0.000000  0.000000  0.000000  1
  Y  Y1  1  0.000000  0.000000  0.500000  1
  Ga  Ga2  1  0.666667  0.333333  0.000000  1
  Ga  Ga3  1  0.333333  0.666667  0.000000  1
  B  B4  1  0.666667  0.333333  0.500000  1
  B  B5  1  0.333333  0.666667  0.500000  1
  Ir  Ir6  1  0.500000  0.500000  0.710436  1
  Ir  Ir7  1  0.500000  0.000000  0.710436  1
  Ir  Ir8  1  0.000000  0.500000  0.710436  1
  Ir  Ir9  1  0.500000  0.500000  0.289564  1
  Ir  Ir10  1  0.500000  0.000000  0.289564  1
  Ir  Ir11  1  0.000000  0.500000  0.289564  1
