# generated using pymatgen
data_La4SmYTa2O14
_symmetry_space_group_name_H-M   'P 1'
_cell_length_a   6.69186367
_cell_length_b   6.68985069
_cell_length_c   7.77379500
_cell_angle_alpha   90.00000000
_cell_angle_beta   90.00000000
_cell_angle_gamma   109.13945394
_symmetry_Int_Tables_number   1
_chemical_formula_structural   La4SmYTa2O14
_chemical_formula_sum   'La4 Sm1 Y1 Ta2 O14'
_cell_volume   328.77686527
_cell_formula_units_Z   1
loop_
 _symmetry_equiv_pos_site_id
 _symmetry_equiv_pos_as_xyz
  1  'x, y, z'
loop_
 _atom_site_type_symbol
 _atom_site_label
 _atom_site_symmetry_multiplicity
 _atom_site_fract_x
 _atom_site_fract_y
 _atom_site_fract_z
 _atom_site_occupancy
  La  La0  1  0.480360  0.479595  0.499130  1
  La  La1  1  0.480360  0.479595  0.000870  1
  La  La2  1  0.529418  0.995155  0.750000  1
  La  La3  1  0.995926  0.531927  0.250000  1
  Sm  Sm4  1  0.997960  0.464194  0.750000  1
  Y  Y5  1  0.468240  0.997990  0.250000  1
  Ta  Ta6  1  0.997912  0.998200  0.499007  1
  Ta  Ta7  1  0.997912  0.998200  0.000993  1
  O  O8  1  0.695486  0.946600  0.458862  1
  O  O9  1  0.943288  0.695097  0.537910  1
  O  O10  1  0.695486  0.946600  0.041138  1
  O  O11  1  0.943288  0.695097  0.962090  1
  O  O12  1  0.320083  0.072939  0.517647  1
  O  O13  1  0.075137  0.319929  0.478754  1
  O  O14  1  0.320083  0.072939  0.982353  1
  O  O15  1  0.075137  0.319929  0.021246  1
  O  O16  1  0.945367  0.056034  0.750000  1
  O  O17  1  0.056137  0.945084  0.250000  1
  O  O18  1  0.362743  0.623272  0.750000  1
  O  O19  1  0.620840  0.356062  0.250000  1
  O  O20  1  0.636472  0.361385  0.750000  1
  O  O21  1  0.362367  0.644176  0.250000  1
