# generated using pymatgen
data_EuTi4PbO10
_symmetry_space_group_name_H-M   'P 1'
_cell_length_a   3.72468100
_cell_length_b   5.31315500
_cell_length_c   11.79902400
_cell_angle_alpha   90.00000000
_cell_angle_beta   90.00000000
_cell_angle_gamma   90.00000000
_symmetry_Int_Tables_number   1
_chemical_formula_structural   EuTi4PbO10
_chemical_formula_sum   'Eu1 Ti4 Pb1 O10'
_cell_volume   233.50041339
_cell_formula_units_Z   1
loop_
 _symmetry_equiv_pos_site_id
 _symmetry_equiv_pos_as_xyz
  1  'x, y, z'
loop_
 _atom_site_type_symbol
 _atom_site_label
 _atom_site_symmetry_multiplicity
 _atom_site_fract_x
 _atom_site_fract_y
 _atom_site_fract_z
 _atom_site_occupancy
  Eu  Eu0  1  0.000000  0.879152  0.500000  1
  Ti  Ti1  1  0.000000  0.590796  0.846770  1
  Ti  Ti2  1  0.500000  0.406668  0.649816  1
  Ti  Ti3  1  0.500000  0.406668  0.350184  1
  Ti  Ti4  1  0.000000  0.590796  0.153230  1
  Pb  Pb5  1  0.500000  0.112581  0.000000  1
  O  O6  1  0.500000  0.559112  0.500000  1
  O  O7  1  0.000000  0.456586  0.000000  1
  O  O8  1  0.500000  0.473329  0.821686  1
  O  O9  1  0.000000  0.527589  0.673258  1
  O  O10  1  0.500000  0.473329  0.178314  1
  O  O11  1  0.000000  0.527589  0.326742  1
  O  O12  1  0.000000  0.911284  0.128933  1
  O  O13  1  0.500000  0.086618  0.380675  1
  O  O14  1  0.500000  0.086618  0.619325  1
  O  O15  1  0.000000  0.911284  0.871067  1
