# generated using pymatgen
data_Er4Co15Ni2(P4Ru)3
_symmetry_space_group_name_H-M   'P 1'
_cell_length_a   3.69180300
_cell_length_b   10.36920387
_cell_length_c   11.79875060
_cell_angle_alpha   90.06470759
_cell_angle_beta   90.00000000
_cell_angle_gamma   90.00000000
_symmetry_Int_Tables_number   1
_chemical_formula_structural   Er4Co15Ni2(P4Ru)3
_chemical_formula_sum   'Er4 Co15 Ni2 P12 Ru3'
_cell_volume   451.66836749
_cell_formula_units_Z   1
loop_
 _symmetry_equiv_pos_site_id
 _symmetry_equiv_pos_as_xyz
  1  'x, y, z'
loop_
 _atom_site_type_symbol
 _atom_site_label
 _atom_site_symmetry_multiplicity
 _atom_site_fract_x
 _atom_site_fract_y
 _atom_site_fract_z
 _atom_site_occupancy
  Er  Er0  1  0.250000  0.581710  0.701626  1
  Er  Er1  1  0.250000  0.914725  0.204281  1
  Er  Er2  1  0.750000  0.413621  0.294313  1
  Er  Er3  1  0.750000  0.085609  0.795817  1
  Co  Co4  1  0.250000  0.091186  0.987599  1
  Co  Co5  1  0.750000  0.590444  0.510184  1
  Co  Co6  1  0.750000  0.909350  0.011685  1
  Co  Co7  1  0.250000  0.219086  0.174723  1
  Co  Co8  1  0.250000  0.279721  0.677954  1
  Co  Co9  1  0.750000  0.779273  0.822719  1
  Co  Co10  1  0.750000  0.722301  0.323211  1
  Co  Co11  1  0.250000  0.887151  0.701924  1
  Co  Co12  1  0.250000  0.612380  0.203266  1
  Co  Co13  1  0.750000  0.117328  0.301149  1
  Co  Co14  1  0.750000  0.387561  0.798287  1
  Co  Co15  1  0.250000  0.465716  0.930706  1
  Co  Co16  1  0.250000  0.035867  0.431823  1
  Co  Co17  1  0.750000  0.535537  0.069910  1
  Co  Co18  1  0.750000  0.966146  0.569388  1
  Ni  Ni19  1  0.750000  0.213350  0.513601  1
  Ni  Ni20  1  0.250000  0.406311  0.484504  1
  P  P21  1  0.250000  0.419316  0.112143  1
  P  P22  1  0.250000  0.082473  0.612506  1
  P  P23  1  0.750000  0.580627  0.887388  1
  P  P24  1  0.750000  0.921300  0.387672  1
  P  P25  1  0.250000  0.271226  0.866591  1
  P  P26  1  0.250000  0.227980  0.365531  1
  P  P27  1  0.750000  0.729774  0.133314  1
  P  P28  1  0.750000  0.770324  0.632811  1
  P  P29  1  0.250000  0.597116  0.390044  1
  P  P30  1  0.250000  0.904972  0.889367  1
  P  P31  1  0.750000  0.397744  0.609594  1
  P  P32  1  0.750000  0.095910  0.111000  1
  Ru  Ru33  1  0.250000  0.718333  0.993163  1
  Ru  Ru34  1  0.250000  0.785553  0.492341  1
  Ru  Ru35  1  0.750000  0.282982  0.007862  1
