# generated using pymatgen
data_Tb3TiMn7CoP6
_symmetry_space_group_name_H-M   'P 1'
_cell_length_a   3.68870000
_cell_length_b   10.88572500
_cell_length_c   12.80760500
_cell_angle_alpha   90.00000000
_cell_angle_beta   90.00000000
_cell_angle_gamma   90.00000000
_symmetry_Int_Tables_number   1
_chemical_formula_structural   Tb3TiMn7CoP6
_chemical_formula_sum   'Tb6 Ti2 Mn14 Co2 P12'
_cell_volume   514.27879723
_cell_formula_units_Z   2
loop_
 _symmetry_equiv_pos_site_id
 _symmetry_equiv_pos_as_xyz
  1  'x, y, z'
loop_
 _atom_site_type_symbol
 _atom_site_label
 _atom_site_symmetry_multiplicity
 _atom_site_fract_x
 _atom_site_fract_y
 _atom_site_fract_z
 _atom_site_occupancy
  Tb  Tb0  1  0.000000  0.500000  0.533325  1
  Tb  Tb1  1  0.500000  0.000000  0.466675  1
  Tb  Tb2  1  0.500000  0.824231  0.206232  1
  Tb  Tb3  1  0.500000  0.175769  0.206232  1
  Tb  Tb4  1  0.000000  0.675769  0.793768  1
  Tb  Tb5  1  0.000000  0.324231  0.793768  1
  Ti  Ti6  1  0.500000  0.500000  0.162094  1
  Ti  Ti7  1  0.000000  0.000000  0.837906  1
  Mn  Mn8  1  0.000000  0.500000  0.991218  1
  Mn  Mn9  1  0.500000  0.000000  0.008782  1
  Mn  Mn10  1  0.500000  0.332256  0.996459  1
  Mn  Mn11  1  0.500000  0.667744  0.996459  1
  Mn  Mn12  1  0.000000  0.167744  0.003541  1
  Mn  Mn13  1  0.000000  0.832256  0.003541  1
  Mn  Mn14  1  0.500000  0.296078  0.434284  1
  Mn  Mn15  1  0.500000  0.703922  0.434284  1
  Mn  Mn16  1  0.000000  0.203922  0.565716  1
  Mn  Mn17  1  0.000000  0.796078  0.565716  1
  Mn  Mn18  1  0.500000  0.880695  0.698240  1
  Mn  Mn19  1  0.500000  0.119305  0.698240  1
  Mn  Mn20  1  0.000000  0.619305  0.301760  1
  Mn  Mn21  1  0.000000  0.380695  0.301760  1
  Co  Co22  1  0.500000  0.500000  0.706098  1
  Co  Co23  1  0.000000  0.000000  0.293902  1
  P  P24  1  0.500000  0.500000  0.881020  1
  P  P25  1  0.000000  0.000000  0.118980  1
  P  P26  1  0.500000  0.500000  0.362722  1
  P  P27  1  0.000000  0.000000  0.637278  1
  P  P28  1  0.500000  0.317874  0.617675  1
  P  P29  1  0.500000  0.682126  0.617675  1
  P  P30  1  0.000000  0.182126  0.382325  1
  P  P31  1  0.000000  0.817874  0.382325  1
  P  P32  1  0.500000  0.842607  0.886722  1
  P  P33  1  0.500000  0.157393  0.886722  1
  P  P34  1  0.000000  0.657393  0.113278  1
  P  P35  1  0.000000  0.342607  0.113278  1
