# generated using pymatgen
data_PrY2(AlIr2)3
_symmetry_space_group_name_H-M   'P 1'
_cell_length_a   5.61605200
_cell_length_b   5.61605412
_cell_length_c   15.69126600
_cell_angle_alpha   90.00000000
_cell_angle_beta   90.00000000
_cell_angle_gamma   120.00001104
_symmetry_Int_Tables_number   1
_chemical_formula_structural   PrY2(AlIr2)3
_chemical_formula_sum   'Pr2 Y4 Al6 Ir12'
_cell_volume   428.59882201
_cell_formula_units_Z   2
loop_
 _symmetry_equiv_pos_site_id
 _symmetry_equiv_pos_as_xyz
  1  'x, y, z'
loop_
 _atom_site_type_symbol
 _atom_site_label
 _atom_site_symmetry_multiplicity
 _atom_site_fract_x
 _atom_site_fract_y
 _atom_site_fract_z
 _atom_site_occupancy
  Pr  Pr0  1  0.333333  0.666667  0.750000  1
  Pr  Pr1  1  0.666667  0.333333  0.250000  1
  Y  Y2  1  0.333333  0.666667  0.539104  1
  Y  Y3  1  0.666667  0.333333  0.460896  1
  Y  Y4  1  0.666667  0.333333  0.039104  1
  Y  Y5  1  0.333333  0.666667  0.960896  1
  Al  Al6  1  0.000000  0.000000  0.250000  1
  Al  Al7  1  0.000000  0.000000  0.750000  1
  Al  Al8  1  0.333333  0.666667  0.250000  1
  Al  Al9  1  0.666667  0.333333  0.750000  1
  Al  Al10  1  0.000000  0.000000  0.000000  1
  Al  Al11  1  0.000000  0.000000  0.500000  1
  Ir  Ir12  1  0.168722  0.337443  0.125721  1
  Ir  Ir13  1  0.831278  0.662557  0.874279  1
  Ir  Ir14  1  0.662557  0.831278  0.125721  1
  Ir  Ir15  1  0.831278  0.662557  0.625721  1
  Ir  Ir16  1  0.337443  0.168722  0.874279  1
  Ir  Ir17  1  0.168722  0.337443  0.374279  1
  Ir  Ir18  1  0.168722  0.831278  0.125721  1
  Ir  Ir19  1  0.337443  0.168722  0.625721  1
  Ir  Ir20  1  0.831278  0.168722  0.874279  1
  Ir  Ir21  1  0.662557  0.831278  0.374279  1
  Ir  Ir22  1  0.831278  0.168722  0.625721  1
  Ir  Ir23  1  0.168722  0.831278  0.374279  1
