# generated using pymatgen
data_Dy11HoGaCo5
_symmetry_space_group_name_H-M   'P 1'
_cell_length_a   8.22962581
_cell_length_b   8.22817098
_cell_length_c   8.22816886
_cell_angle_alpha   110.74527610
_cell_angle_beta   110.60810103
_cell_angle_gamma   107.07961465
_symmetry_Int_Tables_number   1
_chemical_formula_structural   Dy11HoGaCo5
_chemical_formula_sum   'Dy11 Ho1 Ga1 Co5'
_cell_volume   428.38737702
_cell_formula_units_Z   1
loop_
 _symmetry_equiv_pos_site_id
 _symmetry_equiv_pos_as_xyz
  1  'x, y, z'
loop_
 _atom_site_type_symbol
 _atom_site_label
 _atom_site_symmetry_multiplicity
 _atom_site_fract_x
 _atom_site_fract_y
 _atom_site_fract_z
 _atom_site_occupancy
  Dy  Dy0  1  0.814573  0.710021  0.524394  1
  Dy  Dy1  1  0.185640  0.290388  0.476229  1
  Dy  Dy2  1  0.185642  0.709406  0.895250  1
  Dy  Dy3  1  0.814574  0.290184  0.104555  1
  Dy  Dy4  1  0.683731  0.380127  0.696777  1
  Dy  Dy5  1  0.316290  0.619561  0.302937  1
  Dy  Dy6  1  0.683732  0.986955  0.303602  1
  Dy  Dy7  1  0.316290  0.013354  0.696731  1
  Dy  Dy8  1  0.595174  0.786216  0.808959  1
  Dy  Dy9  1  0.404603  0.213898  0.190705  1
  Dy  Dy10  1  0.977061  0.786099  0.190963  1
  Ho  Ho11  1  0.022588  0.213679  0.808910  1
  Ga  Ga12  1  0.499766  0.499881  0.999876  1
  Co  Co13  1  0.624098  0.000121  0.623974  1
  Co  Co14  1  0.376183  0.999939  0.376250  1
  Co  Co15  1  0.113308  0.613298  0.500011  1
  Co  Co16  1  0.886885  0.386613  0.500272  1
  Co  Co17  1  0.999862  0.000258  0.999604  1
