# generated using pymatgen
data_Li2Tb7Y(SiB4)4
_symmetry_space_group_name_H-M   'P 1'
_cell_length_a   7.17214301
_cell_length_b   7.17214301
_cell_length_c   7.90066501
_cell_angle_alpha   89.99606944
_cell_angle_beta   90.00393056
_cell_angle_gamma   90.00305173
_symmetry_Int_Tables_number   1
_chemical_formula_structural   Li2Tb7Y(SiB4)4
_chemical_formula_sum   'Li2 Tb7 Y1 Si4 B16'
_cell_volume   406.40732429
_cell_formula_units_Z   1
loop_
 _symmetry_equiv_pos_site_id
 _symmetry_equiv_pos_as_xyz
  1  'x, y, z'
loop_
 _atom_site_type_symbol
 _atom_site_label
 _atom_site_symmetry_multiplicity
 _atom_site_fract_x
 _atom_site_fract_y
 _atom_site_fract_z
 _atom_site_occupancy
  Li  Li0  1  0.000032  0.000047  0.499950  1
  Li  Li1  1  0.499953  0.499968  0.499950  1
  Tb  Tb2  1  0.683485  0.183461  0.235814  1
  Tb  Tb3  1  0.316541  0.816578  0.764222  1
  Tb  Tb4  1  0.316539  0.816515  0.235814  1
  Tb  Tb5  1  0.816551  0.683449  0.235801  1
  Tb  Tb6  1  0.816579  0.683421  0.764223  1
  Tb  Tb7  1  0.683422  0.183459  0.764222  1
  Tb  Tb8  1  0.183441  0.316559  0.764245  1
  Y  Y9  1  0.183406  0.316594  0.235648  1
  Si  Si10  1  0.114642  0.614459  0.499869  1
  Si  Si11  1  0.885541  0.385358  0.499869  1
  Si  Si12  1  0.385302  0.114698  0.499847  1
  Si  Si13  1  0.614510  0.885490  0.499916  1
  B  B14  1  0.173829  0.039944  0.000057  1
  B  B15  1  0.826243  0.960112  0.000074  1
  B  B16  1  0.960088  0.173800  0.000048  1
  B  B17  1  0.326200  0.539912  0.000048  1
  B  B18  1  0.039950  0.826247  0.000081  1
  B  B19  1  0.673753  0.460050  0.000081  1
  B  B20  1  0.539888  0.673757  0.000074  1
  B  B21  1  0.460056  0.326171  0.000057  1
  B  B22  1  0.089041  0.589000  0.999971  1
  B  B23  1  0.911000  0.410959  0.999971  1
  B  B24  1  0.411027  0.088973  0.999903  1
  B  B25  1  0.589007  0.910993  0.000013  1
  B  B26  1  0.000019  0.000051  0.159556  1
  B  B27  1  0.000043  0.000036  0.840562  1
  B  B28  1  0.499964  0.499957  0.840562  1
  B  B29  1  0.499949  0.499981  0.159556  1
