# generated using pymatgen
data_Dy3YEr4(ReC2)4
_symmetry_space_group_name_H-M   'P 1'
_cell_length_a   5.09357500
_cell_length_b   6.56983601
_cell_length_c   9.82929601
_cell_angle_alpha   90.00506475
_cell_angle_beta   90.00000000
_cell_angle_gamma   90.00000000
_symmetry_Int_Tables_number   1
_chemical_formula_structural   Dy3YEr4(ReC2)4
_chemical_formula_sum   'Dy3 Y1 Er4 Re4 C8'
_cell_volume   328.92709286
_cell_formula_units_Z   1
loop_
 _symmetry_equiv_pos_site_id
 _symmetry_equiv_pos_as_xyz
  1  'x, y, z'
loop_
 _atom_site_type_symbol
 _atom_site_label
 _atom_site_symmetry_multiplicity
 _atom_site_fract_x
 _atom_site_fract_y
 _atom_site_fract_z
 _atom_site_occupancy
  Dy  Dy0  1  0.250000  0.967503  0.283797  1
  Dy  Dy1  1  0.750000  0.532493  0.783791  1
  Dy  Dy2  1  0.750000  0.032503  0.716194  1
  Y  Y3  1  0.250000  0.467429  0.216234  1
  Er  Er4  1  0.250000  0.821509  0.942863  1
  Er  Er5  1  0.250000  0.321370  0.557201  1
  Er  Er6  1  0.750000  0.178578  0.057160  1
  Er  Er7  1  0.750000  0.678583  0.442840  1
  Re  Re8  1  0.250000  0.278564  0.866664  1
  Re  Re9  1  0.250000  0.778556  0.633311  1
  Re  Re10  1  0.750000  0.721579  0.133250  1
  Re  Re11  1  0.750000  0.221422  0.366740  1
  C  C12  1  0.250000  0.045846  0.740845  1
  C  C13  1  0.250000  0.545875  0.759153  1
  C  C14  1  0.750000  0.954147  0.259142  1
  C  C15  1  0.750000  0.454138  0.240826  1
  C  C16  1  0.250000  0.674801  0.450065  1
  C  C17  1  0.250000  0.174578  0.049891  1
  C  C18  1  0.750000  0.325218  0.550049  1
  C  C19  1  0.750000  0.825308  0.949984  1
