# generated using pymatgen
data_Cs2ErP2S7
_symmetry_space_group_name_H-M   'P 1'
_cell_length_a   9.75575737
_cell_length_b   9.75575810
_cell_length_c   9.44899983
_cell_angle_alpha   72.03268192
_cell_angle_beta   72.03267568
_cell_angle_gamma   69.63461992
_symmetry_Int_Tables_number   1
_chemical_formula_structural   Cs2ErP2S7
_chemical_formula_sum   'Cs4 Er2 P4 S14'
_cell_volume   781.31543038
_cell_formula_units_Z   2
loop_
 _symmetry_equiv_pos_site_id
 _symmetry_equiv_pos_as_xyz
  1  'x, y, z'
loop_
 _atom_site_type_symbol
 _atom_site_label
 _atom_site_symmetry_multiplicity
 _atom_site_fract_x
 _atom_site_fract_y
 _atom_site_fract_z
 _atom_site_occupancy
  Cs  Cs0  1  0.608068  0.053178  0.165595  1
  Cs  Cs1  1  0.946822  0.391932  0.834405  1
  Cs  Cs2  1  0.391932  0.946822  0.834405  1
  Cs  Cs3  1  0.053178  0.608068  0.165595  1
  Er  Er4  1  0.684677  0.315323  0.500000  1
  Er  Er5  1  0.315323  0.684677  0.500000  1
  P  P6  1  0.947617  0.947617  0.442639  1
  P  P7  1  0.052383  0.052383  0.557361  1
  P  P8  1  0.394768  0.394768  0.810466  1
  P  P9  1  0.605232  0.605232  0.189534  1
  S  S10  1  0.683206  0.377652  0.201835  1
  S  S11  1  0.622348  0.316794  0.798165  1
  S  S12  1  0.316794  0.622348  0.798165  1
  S  S13  1  0.377652  0.683206  0.201835  1
  S  S14  1  0.002841  0.002841  0.216326  1
  S  S15  1  0.997159  0.997159  0.783674  1
  S  S16  1  0.719552  0.022142  0.531754  1
  S  S17  1  0.977858  0.280448  0.468246  1
  S  S18  1  0.280448  0.977858  0.468246  1
  S  S19  1  0.022142  0.719552  0.531754  1
  S  S20  1  0.278694  0.278694  0.992323  1
  S  S21  1  0.721306  0.721306  0.007677  1
  S  S22  1  0.371536  0.371536  0.602752  1
  S  S23  1  0.628464  0.628464  0.397248  1
