# generated using pymatgen
data_Tm2LuGa2Ag3Ge
_symmetry_space_group_name_H-M   'P 1'
_cell_length_a   7.18709350
_cell_length_b   7.18584381
_cell_length_c   4.10335000
_cell_angle_alpha   90.00000000
_cell_angle_beta   90.00000000
_cell_angle_gamma   119.96292823
_symmetry_Int_Tables_number   1
_chemical_formula_structural   Tm2LuGa2Ag3Ge
_chemical_formula_sum   'Tm2 Lu1 Ga2 Ag3 Ge1'
_cell_volume   183.59564534
_cell_formula_units_Z   1
loop_
 _symmetry_equiv_pos_site_id
 _symmetry_equiv_pos_as_xyz
  1  'x, y, z'
loop_
 _atom_site_type_symbol
 _atom_site_label
 _atom_site_symmetry_multiplicity
 _atom_site_fract_x
 _atom_site_fract_y
 _atom_site_fract_z
 _atom_site_occupancy
  Tm  Tm0  1  0.583273  0.002489  0.000000  1
  Tm  Tm1  1  0.997368  0.580754  0.000000  1
  Lu  Lu2  1  0.419080  0.416532  0.000000  1
  Ga  Ga3  1  0.333522  0.666314  0.500000  1
  Ga  Ga4  1  0.000434  0.000455  0.000000  1
  Ag  Ag5  1  0.249140  0.997512  0.500000  1
  Ag  Ag6  1  0.002860  0.251742  0.500000  1
  Ag  Ag7  1  0.747980  0.750642  0.500000  1
  Ge  Ge8  1  0.666344  0.333557  0.500000  1
