# generated using pymatgen
data_Ac5AsSe4
_symmetry_space_group_name_H-M   'P 1'
_cell_length_a   7.76249637
_cell_length_b   7.77346922
_cell_length_c   7.75649803
_cell_angle_alpha   99.68979737
_cell_angle_beta   99.63594494
_cell_angle_gamma   131.56911650
_symmetry_Int_Tables_number   1
_chemical_formula_structural   Ac5AsSe4
_chemical_formula_sum   'Ac5 As1 Se4'
_cell_volume   319.50349761
_cell_formula_units_Z   1
loop_
 _symmetry_equiv_pos_site_id
 _symmetry_equiv_pos_as_xyz
  1  'x, y, z'
loop_
 _atom_site_type_symbol
 _atom_site_label
 _atom_site_symmetry_multiplicity
 _atom_site_fract_x
 _atom_site_fract_y
 _atom_site_fract_z
 _atom_site_occupancy
  Ac  Ac0  1  0.400371  0.794377  0.194793  1
  Ac  Ac1  1  0.000000  0.000000  0.000000  1
  Ac  Ac2  1  0.599628  0.205623  0.805207  1
  Ac  Ac3  1  0.205706  0.400519  0.606203  1
  Ac  Ac4  1  0.794294  0.599481  0.393797  1
  As  As5  1  0.500000  0.500000  0.000000  1
  Se  Se6  1  0.098083  0.698402  0.796396  1
  Se  Se7  1  0.698136  0.901931  0.600053  1
  Se  Se8  1  0.301864  0.098069  0.399947  1
  Se  Se9  1  0.901917  0.301598  0.203604  1
