# generated using pymatgen
data_Te19Pt
_symmetry_space_group_name_H-M   'P 1'
_cell_length_a   9.40800213
_cell_length_b   9.40800215
_cell_length_c   9.40800227
_cell_angle_alpha   84.58189651
_cell_angle_beta   84.58189495
_cell_angle_gamma   84.58190005
_symmetry_Int_Tables_number   1
_chemical_formula_structural   Te19Pt
_chemical_formula_sum   'Te19 Pt1'
_cell_volume   822.20559668
_cell_formula_units_Z   1
loop_
 _symmetry_equiv_pos_site_id
 _symmetry_equiv_pos_as_xyz
  1  'x, y, z'
loop_
 _atom_site_type_symbol
 _atom_site_label
 _atom_site_symmetry_multiplicity
 _atom_site_fract_x
 _atom_site_fract_y
 _atom_site_fract_z
 _atom_site_occupancy
  Te  Te0  1  0.378039  0.557700  0.252076  1
  Te  Te1  1  0.252076  0.378039  0.557700  1
  Te  Te2  1  0.557700  0.252076  0.378039  1
  Te  Te3  1  0.621961  0.442300  0.747924  1
  Te  Te4  1  0.747924  0.621961  0.442300  1
  Te  Te5  1  0.442300  0.747924  0.621961  1
  Te  Te6  1  0.000000  0.000000  0.000000  1
  Te  Te7  1  0.992285  0.334468  0.986986  1
  Te  Te8  1  0.986986  0.992285  0.334468  1
  Te  Te9  1  0.334468  0.986986  0.992285  1
  Te  Te10  1  0.007715  0.665532  0.013014  1
  Te  Te11  1  0.013014  0.007715  0.665532  1
  Te  Te12  1  0.665532  0.013014  0.007715  1
  Te  Te13  1  0.726746  0.677246  0.143018  1
  Te  Te14  1  0.143018  0.726746  0.677246  1
  Te  Te15  1  0.677246  0.143018  0.726746  1
  Te  Te16  1  0.273254  0.322754  0.856982  1
  Te  Te17  1  0.856982  0.273254  0.322754  1
  Te  Te18  1  0.322754  0.856982  0.273254  1
  Pt  Pt19  1  0.500000  0.500000  0.500000  1
