# generated using pymatgen
data_Ac4InSn7Pd12
_symmetry_space_group_name_H-M   'P 1'
_cell_length_a   4.88192800
_cell_length_b   10.47623323
_cell_length_c   10.03827700
_cell_angle_alpha   89.76484904
_cell_angle_beta   90.00000000
_cell_angle_gamma   90.00000000
_symmetry_Int_Tables_number   1
_chemical_formula_structural   Ac4InSn7Pd12
_chemical_formula_sum   'Ac4 In1 Sn7 Pd12'
_cell_volume   513.39548676
_cell_formula_units_Z   1
loop_
 _symmetry_equiv_pos_site_id
 _symmetry_equiv_pos_as_xyz
  1  'x, y, z'
loop_
 _atom_site_type_symbol
 _atom_site_label
 _atom_site_symmetry_multiplicity
 _atom_site_fract_x
 _atom_site_fract_y
 _atom_site_fract_z
 _atom_site_occupancy
  Ac  Ac0  1  0.250000  0.433616  0.739028  1
  Ac  Ac1  1  0.250000  0.066716  0.240417  1
  Ac  Ac2  1  0.750000  0.567507  0.262541  1
  Ac  Ac3  1  0.750000  0.932924  0.760280  1
  In  In4  1  0.750000  0.649324  0.612524  1
  Sn  Sn5  1  0.250000  0.863634  0.517985  1
  Sn  Sn6  1  0.250000  0.631249  0.019626  1
  Sn  Sn7  1  0.750000  0.133013  0.481931  1
  Sn  Sn8  1  0.750000  0.368965  0.980363  1
  Sn  Sn9  1  0.250000  0.150242  0.889865  1
  Sn  Sn10  1  0.250000  0.349169  0.389457  1
  Sn  Sn11  1  0.750000  0.849742  0.109843  1
  Pd  Pd12  1  0.250000  0.138497  0.602278  1
  Pd  Pd13  1  0.250000  0.356966  0.101304  1
  Pd  Pd14  1  0.750000  0.866536  0.393983  1
  Pd  Pd15  1  0.750000  0.645558  0.901849  1
  Pd  Pd16  1  0.250000  0.725611  0.752723  1
  Pd  Pd17  1  0.250000  0.774254  0.252030  1
  Pd  Pd18  1  0.750000  0.274260  0.245679  1
  Pd  Pd19  1  0.750000  0.225725  0.747702  1
  Pd  Pd20  1  0.250000  0.903782  0.982401  1
  Pd  Pd21  1  0.250000  0.594604  0.481114  1
  Pd  Pd22  1  0.750000  0.095938  0.017403  1
  Pd  Pd23  1  0.750000  0.402169  0.517675  1
