# generated using pymatgen
data_Gd6Zn23Se
_symmetry_space_group_name_H-M   'P 1'
_cell_length_a   9.11603931
_cell_length_b   9.11603826
_cell_length_c   9.11603900
_cell_angle_alpha   60.00000095
_cell_angle_beta   60.00000475
_cell_angle_gamma   59.99999936
_symmetry_Int_Tables_number   1
_chemical_formula_structural   Gd6Zn23Se
_chemical_formula_sum   'Gd6 Zn23 Se1'
_cell_volume   535.67764379
_cell_formula_units_Z   1
loop_
 _symmetry_equiv_pos_site_id
 _symmetry_equiv_pos_as_xyz
  1  'x, y, z'
loop_
 _atom_site_type_symbol
 _atom_site_label
 _atom_site_symmetry_multiplicity
 _atom_site_fract_x
 _atom_site_fract_y
 _atom_site_fract_z
 _atom_site_occupancy
  Gd  Gd0  1  0.719591  0.280409  0.280409  1
  Gd  Gd1  1  0.280409  0.719591  0.719591  1
  Gd  Gd2  1  0.280409  0.719591  0.280409  1
  Gd  Gd3  1  0.719591  0.280409  0.719591  1
  Gd  Gd4  1  0.280409  0.280409  0.719591  1
  Gd  Gd5  1  0.719591  0.719591  0.280409  1
  Zn  Zn6  1  0.126477  0.126477  0.126477  1
  Zn  Zn7  1  0.873523  0.873523  0.873523  1
  Zn  Zn8  1  0.126477  0.126477  0.620571  1
  Zn  Zn9  1  0.126477  0.620571  0.126477  1
  Zn  Zn10  1  0.873523  0.873523  0.379429  1
  Zn  Zn11  1  0.873523  0.379429  0.873523  1
  Zn  Zn12  1  0.620571  0.126477  0.126477  1
  Zn  Zn13  1  0.379429  0.873523  0.873523  1
  Zn  Zn14  1  0.500000  0.000000  0.000000  1
  Zn  Zn15  1  0.000000  0.500000  0.500000  1
  Zn  Zn16  1  0.000000  0.500000  0.000000  1
  Zn  Zn17  1  0.500000  0.000000  0.500000  1
  Zn  Zn18  1  0.000000  0.000000  0.500000  1
  Zn  Zn19  1  0.500000  0.500000  0.000000  1
  Zn  Zn20  1  0.328487  0.328487  0.328487  1
  Zn  Zn21  1  0.671513  0.671513  0.671513  1
  Zn  Zn22  1  0.328487  0.328487  0.014538  1
  Zn  Zn23  1  0.328487  0.014538  0.328487  1
  Zn  Zn24  1  0.671513  0.671513  0.985462  1
  Zn  Zn25  1  0.671513  0.985462  0.671513  1
  Zn  Zn26  1  0.014538  0.328487  0.328487  1
  Zn  Zn27  1  0.985462  0.671513  0.671513  1
  Zn  Zn28  1  0.000000  0.000000  0.000000  1
  Se  Se29  1  0.500000  0.500000  0.500000  1
