# generated using pymatgen
data_LaGd(SeO3)3
_symmetry_space_group_name_H-M   'P 1'
_cell_length_a   7.33580287
_cell_length_b   8.38763089
_cell_length_c   9.34683128
_cell_angle_alpha   70.77207497
_cell_angle_beta   70.21471501
_cell_angle_gamma   66.20219777
_symmetry_Int_Tables_number   1
_chemical_formula_structural   LaGd(SeO3)3
_chemical_formula_sum   'La2 Gd2 Se6 O18'
_cell_volume   482.58151166
_cell_formula_units_Z   2
loop_
 _symmetry_equiv_pos_site_id
 _symmetry_equiv_pos_as_xyz
  1  'x, y, z'
loop_
 _atom_site_type_symbol
 _atom_site_label
 _atom_site_symmetry_multiplicity
 _atom_site_fract_x
 _atom_site_fract_y
 _atom_site_fract_z
 _atom_site_occupancy
  La  La0  1  0.332471  0.731090  0.591206  1
  La  La1  1  0.667529  0.268910  0.408794  1
  Gd  Gd2  1  0.739415  0.735167  0.804241  1
  Gd  Gd3  1  0.260585  0.264833  0.195759  1
  Se  Se4  1  0.425572  0.781452  0.194349  1
  Se  Se5  1  0.574428  0.218548  0.805651  1
  Se  Se6  1  0.150028  0.748378  0.967952  1
  Se  Se7  1  0.849972  0.251622  0.032048  1
  Se  Se8  1  0.887229  0.754469  0.422232  1
  Se  Se9  1  0.112771  0.245531  0.577768  1
  O  O10  1  0.641849  0.793155  0.052034  1
  O  O11  1  0.358151  0.206845  0.947966  1
  O  O12  1  0.364591  0.947368  0.292919  1
  O  O13  1  0.635409  0.052632  0.707081  1
  O  O14  1  0.512723  0.602093  0.343215  1
  O  O15  1  0.487277  0.397907  0.656785  1
  O  O16  1  0.170782  0.565965  0.118748  1
  O  O17  1  0.829218  0.434035  0.881252  1
  O  O18  1  0.401615  0.712772  0.855156  1
  O  O19  1  0.598385  0.287228  0.144844  1
  O  O20  1  0.340174  0.247158  0.434656  1
  O  O21  1  0.659826  0.752842  0.565344  1
  O  O22  1  0.974054  0.292638  0.440346  1
  O  O23  1  0.025946  0.707362  0.559654  1
  O  O24  1  0.148694  0.026211  0.656983  1
  O  O25  1  0.851306  0.973789  0.343017  1
  O  O26  1  0.940156  0.300623  0.157666  1
  O  O27  1  0.059844  0.699377  0.842334  1
