# generated using pymatgen
data_Rb2Os(OF2)2
_symmetry_space_group_name_H-M   'P 1'
_cell_length_a   6.19788140
_cell_length_b   6.19788175
_cell_length_c   6.19788165
_cell_angle_alpha   117.46188954
_cell_angle_beta   117.46189371
_cell_angle_gamma   94.45539138
_symmetry_Int_Tables_number   1
_chemical_formula_structural   Rb2Os(OF2)2
_chemical_formula_sum   'Rb2 Os1 O2 F4'
_cell_volume   174.23923415
_cell_formula_units_Z   1
loop_
 _symmetry_equiv_pos_site_id
 _symmetry_equiv_pos_as_xyz
  1  'x, y, z'
loop_
 _atom_site_type_symbol
 _atom_site_label
 _atom_site_symmetry_multiplicity
 _atom_site_fract_x
 _atom_site_fract_y
 _atom_site_fract_z
 _atom_site_occupancy
  Rb  Rb0  1  0.750000  0.250000  0.500000  1
  Rb  Rb1  1  0.250000  0.750000  0.500000  1
  Os  Os2  1  0.000000  0.000000  0.000000  1
  O  O3  1  0.790961  0.790961  0.000000  1
  O  O4  1  0.209039  0.209039  0.000000  1
  F  F5  1  0.779251  0.779251  0.558501  1
  F  F6  1  0.220749  0.220749  0.441499  1
  F  F7  1  0.220749  0.779251  0.000000  1
  F  F8  1  0.779251  0.220749  0.000000  1
