# generated using pymatgen
data_YbTh5(GePd)6
_symmetry_space_group_name_H-M   'P 1'
_cell_length_a   4.46498000
_cell_length_b   7.70558457
_cell_length_c   22.35678786
_cell_angle_alpha   90.30324979
_cell_angle_beta   90.00000000
_cell_angle_gamma   90.00000000
_symmetry_Int_Tables_number   1
_chemical_formula_structural   YbTh5(GePd)6
_chemical_formula_sum   'Yb2 Th10 Ge12 Pd12'
_cell_volume   769.18079546
_cell_formula_units_Z   2
loop_
 _symmetry_equiv_pos_site_id
 _symmetry_equiv_pos_as_xyz
  1  'x, y, z'
loop_
 _atom_site_type_symbol
 _atom_site_label
 _atom_site_symmetry_multiplicity
 _atom_site_fract_x
 _atom_site_fract_y
 _atom_site_fract_z
 _atom_site_occupancy
  Yb  Yb0  1  0.750000  0.217848  0.498741  1
  Yb  Yb1  1  0.250000  0.782152  0.501259  1
  Th  Th2  1  0.250000  0.721517  0.339974  1
  Th  Th3  1  0.750000  0.278483  0.660026  1
  Th  Th4  1  0.750000  0.234683  0.169707  1
  Th  Th5  1  0.250000  0.765317  0.830293  1
  Th  Th6  1  0.250000  0.767524  0.168887  1
  Th  Th7  1  0.750000  0.232476  0.831113  1
  Th  Th8  1  0.750000  0.283266  0.338591  1
  Th  Th9  1  0.250000  0.716734  0.661409  1
  Th  Th10  1  0.250000  0.735726  0.000028  1
  Th  Th11  1  0.750000  0.264274  0.999972  1
  Ge  Ge12  1  0.250000  0.087142  0.081592  1
  Ge  Ge13  1  0.750000  0.912858  0.918408  1
  Ge  Ge14  1  0.750000  0.588215  0.431168  1
  Ge  Ge15  1  0.250000  0.411785  0.568832  1
  Ge  Ge16  1  0.250000  0.086599  0.262087  1
  Ge  Ge17  1  0.750000  0.913401  0.737913  1
  Ge  Ge18  1  0.750000  0.591359  0.248551  1
  Ge  Ge19  1  0.250000  0.408641  0.751449  1
  Ge  Ge20  1  0.250000  0.086597  0.402591  1
  Ge  Ge21  1  0.750000  0.913403  0.597409  1
  Ge  Ge22  1  0.750000  0.584411  0.084774  1
  Ge  Ge23  1  0.250000  0.415589  0.915226  1
  Pd  Pd24  1  0.250000  0.419989  0.244143  1
  Pd  Pd25  1  0.750000  0.580011  0.755857  1
  Pd  Pd26  1  0.750000  0.923222  0.260731  1
  Pd  Pd27  1  0.250000  0.076778  0.739269  1
  Pd  Pd28  1  0.250000  0.416559  0.434700  1
  Pd  Pd29  1  0.750000  0.583441  0.565300  1
  Pd  Pd30  1  0.750000  0.918730  0.077830  1
  Pd  Pd31  1  0.250000  0.081270  0.922170  1
  Pd  Pd32  1  0.250000  0.419461  0.093844  1
  Pd  Pd33  1  0.750000  0.580539  0.906156  1
  Pd  Pd34  1  0.750000  0.920215  0.411473  1
  Pd  Pd35  1  0.250000  0.079785  0.588527  1
