# generated using pymatgen
data_Er4TcI4
_symmetry_space_group_name_H-M   'P 1'
_cell_length_a   11.06847086
_cell_length_b   11.06847085
_cell_length_c   6.18141601
_cell_angle_alpha   90.40379375
_cell_angle_beta   90.40378868
_cell_angle_gamma   89.99309628
_symmetry_Int_Tables_number   1
_chemical_formula_structural   Er4TcI4
_chemical_formula_sum   'Er8 Tc2 I8'
_cell_volume   757.25413433
_cell_formula_units_Z   2
loop_
 _symmetry_equiv_pos_site_id
 _symmetry_equiv_pos_as_xyz
  1  'x, y, z'
loop_
 _atom_site_type_symbol
 _atom_site_label
 _atom_site_symmetry_multiplicity
 _atom_site_fract_x
 _atom_site_fract_y
 _atom_site_fract_z
 _atom_site_occupancy
  Er  Er0  1  0.199442  0.918182  0.002623  1
  Er  Er1  1  0.800558  0.081818  0.997377  1
  Er  Er2  1  0.081818  0.800558  0.497377  1
  Er  Er3  1  0.918182  0.199442  0.502623  1
  Er  Er4  1  0.800570  0.918226  0.496468  1
  Er  Er5  1  0.199430  0.081774  0.503532  1
  Er  Er6  1  0.081774  0.199430  0.003532  1
  Er  Er7  1  0.918226  0.800570  0.996468  1
  Tc  Tc8  1  0.999862  0.000138  0.250000  1
  Tc  Tc9  1  0.000138  0.999862  0.750000  1
  I  I10  1  0.362177  0.847298  0.495177  1
  I  I11  1  0.637823  0.152702  0.504823  1
  I  I12  1  0.152702  0.637823  0.004823  1
  I  I13  1  0.847298  0.362177  0.995177  1
  I  I14  1  0.361992  0.152928  0.013242  1
  I  I15  1  0.638008  0.847072  0.986758  1
  I  I16  1  0.847072  0.638008  0.486758  1
  I  I17  1  0.152928  0.361992  0.513242  1
