# generated using pymatgen
data_GdPaS4
_symmetry_space_group_name_H-M   'P 1'
_cell_length_a   8.00950643
_cell_length_b   8.00950693
_cell_length_c   8.00950600
_cell_angle_alpha   131.60350508
_cell_angle_beta   131.60350824
_cell_angle_gamma   70.85597284
_symmetry_Int_Tables_number   1
_chemical_formula_structural   GdPaS4
_chemical_formula_sum   'Gd2 Pa2 S8'
_cell_volume   281.38285175
_cell_formula_units_Z   2
loop_
 _symmetry_equiv_pos_site_id
 _symmetry_equiv_pos_as_xyz
  1  'x, y, z'
loop_
 _atom_site_type_symbol
 _atom_site_label
 _atom_site_symmetry_multiplicity
 _atom_site_fract_x
 _atom_site_fract_y
 _atom_site_fract_z
 _atom_site_occupancy
  Gd  Gd0  1  0.500000  0.500000  0.000000  1
  Gd  Gd1  1  0.250000  0.750000  0.500000  1
  Pa  Pa2  1  0.000000  0.000000  0.000000  1
  Pa  Pa3  1  0.750000  0.250000  0.500000  1
  S  S4  1  0.375000  0.363704  0.488704  1
  S  S5  1  0.875000  0.886296  0.511296  1
  S  S6  1  0.875000  0.363704  0.988704  1
  S  S7  1  0.636296  0.125000  0.011296  1
  S  S8  1  0.375000  0.886296  0.011296  1
  S  S9  1  0.113704  0.625000  0.988704  1
  S  S10  1  0.113704  0.125000  0.488704  1
  S  S11  1  0.636296  0.625000  0.511296  1
