# generated using pymatgen
data_YbHo8(BiO)5
_symmetry_space_group_name_H-M   'P 1'
_cell_length_a   9.98527600
_cell_length_b   9.98527600
_cell_length_c   8.92374800
_cell_angle_alpha   90.00000000
_cell_angle_beta   90.00000000
_cell_angle_gamma   90.00000000
_symmetry_Int_Tables_number   1
_chemical_formula_structural   YbHo8(BiO)5
_chemical_formula_sum   'Yb2 Ho16 Bi10 O10'
_cell_volume   889.74886932
_cell_formula_units_Z   2
loop_
 _symmetry_equiv_pos_site_id
 _symmetry_equiv_pos_as_xyz
  1  'x, y, z'
loop_
 _atom_site_type_symbol
 _atom_site_label
 _atom_site_symmetry_multiplicity
 _atom_site_fract_x
 _atom_site_fract_y
 _atom_site_fract_z
 _atom_site_occupancy
  Yb  Yb0  1  0.500000  0.000000  0.680552  1
  Yb  Yb1  1  0.000000  0.500000  0.319448  1
  Ho  Ho2  1  0.206469  0.894566  0.334422  1
  Ho  Ho3  1  0.293531  0.605434  0.665578  1
  Ho  Ho4  1  0.706469  0.394566  0.665578  1
  Ho  Ho5  1  0.724324  0.916923  0.001757  1
  Ho  Ho6  1  0.394566  0.293531  0.334422  1
  Ho  Ho7  1  0.105434  0.206469  0.665578  1
  Ho  Ho8  1  0.605434  0.706469  0.334422  1
  Ho  Ho9  1  0.894566  0.793531  0.665578  1
  Ho  Ho10  1  0.275676  0.083077  0.001757  1
  Ho  Ho11  1  0.775676  0.583077  0.998243  1
  Ho  Ho12  1  0.224324  0.416923  0.998243  1
  Ho  Ho13  1  0.793531  0.105434  0.334422  1
  Ho  Ho14  1  0.583077  0.224324  0.001757  1
  Ho  Ho15  1  0.916923  0.275676  0.998243  1
  Ho  Ho16  1  0.083077  0.724324  0.998243  1
  Ho  Ho17  1  0.416923  0.775676  0.001757  1
  Bi  Bi18  1  0.595457  0.692793  0.696807  1
  Bi  Bi19  1  0.904543  0.807207  0.303193  1
  Bi  Bi20  1  0.692793  0.404543  0.303193  1
  Bi  Bi21  1  0.000000  0.500000  0.681764  1
  Bi  Bi22  1  0.192793  0.904543  0.696807  1
  Bi  Bi23  1  0.807207  0.095457  0.696807  1
  Bi  Bi24  1  0.307207  0.595457  0.303193  1
  Bi  Bi25  1  0.404543  0.307207  0.696807  1
  Bi  Bi26  1  0.095457  0.192793  0.303193  1
  Bi  Bi27  1  0.500000  0.000000  0.318236  1
  O  O28  1  0.226244  0.879704  0.084040  1
  O  O29  1  0.726244  0.379704  0.915960  1
  O  O30  1  0.500000  0.000000  0.939117  1
  O  O31  1  0.620296  0.726244  0.084040  1
  O  O32  1  0.000000  0.500000  0.060883  1
  O  O33  1  0.879704  0.773756  0.915960  1
  O  O34  1  0.120296  0.226244  0.915960  1
  O  O35  1  0.379704  0.273756  0.084040  1
  O  O36  1  0.773756  0.120296  0.084040  1
  O  O37  1  0.273756  0.620296  0.915960  1
