# generated using pymatgen
data_Cs8V3Ni2PS16
_symmetry_space_group_name_H-M   'P 1'
_cell_length_a   13.66084048
_cell_length_b   7.52479933
_cell_length_c   9.77514705
_cell_angle_alpha   82.57850552
_cell_angle_beta   90.46353344
_cell_angle_gamma   89.48886481
_symmetry_Int_Tables_number   1
_chemical_formula_structural   Cs8V3Ni2PS16
_chemical_formula_sum   'Cs8 V3 Ni2 P1 S16'
_cell_volume   996.33637756
_cell_formula_units_Z   1
loop_
 _symmetry_equiv_pos_site_id
 _symmetry_equiv_pos_as_xyz
  1  'x, y, z'
loop_
 _atom_site_type_symbol
 _atom_site_label
 _atom_site_symmetry_multiplicity
 _atom_site_fract_x
 _atom_site_fract_y
 _atom_site_fract_z
 _atom_site_occupancy
  Cs  Cs0  1  0.130155  0.815822  0.683190  1
  Cs  Cs1  1  0.633876  0.182372  0.814592  1
  Cs  Cs2  1  0.867668  0.183305  0.315200  1
  Cs  Cs3  1  0.367033  0.819145  0.184692  1
  Cs  Cs4  1  0.346685  0.279230  0.533969  1
  Cs  Cs5  1  0.847606  0.724739  0.964561  1
  Cs  Cs6  1  0.650297  0.729064  0.466278  1
  Cs  Cs7  1  0.151873  0.275616  0.030824  1
  V  V8  1  0.426968  0.743665  0.777131  1
  V  V9  1  0.926443  0.253302  0.725402  1
  V  V10  1  0.572449  0.256996  0.222771  1
  Ni  Ni11  1  0.998832  0.491397  0.508531  1
  Ni  Ni12  1  0.499809  0.500248  0.999997  1
  P  P13  1  0.077862  0.753228  0.269352  1
  S  S14  1  0.079239  0.302169  0.664516  1
  S  S15  1  0.579217  0.687036  0.842207  1
  S  S16  1  0.935487  0.686607  0.338943  1
  S  S17  1  0.420228  0.313926  0.157985  1
  S  S18  1  0.403837  0.747162  0.560353  1
  S  S19  1  0.903327  0.250653  0.941964  1
  S  S20  1  0.595349  0.253267  0.439589  1
  S  S21  1  0.099884  0.751095  0.065949  1
  S  S22  1  0.136193  0.525049  0.389709  1
  S  S23  1  0.644540  0.484093  0.106655  1
  S  S24  1  0.853506  0.481541  0.606318  1
  S  S25  1  0.355227  0.516047  0.893054  1
  S  S26  1  0.374270  0.990683  0.836163  1
  S  S27  1  0.874040  0.007850  0.664735  1
  S  S28  1  0.624906  0.010109  0.163036  1
  S  S29  1  0.123194  0.984581  0.332334  1
