# generated using pymatgen
data_Na5PuO5
_symmetry_space_group_name_H-M   'P 1'
_cell_length_a   5.97971070
_cell_length_b   5.97971103
_cell_length_c   6.61393376
_cell_angle_alpha   72.78958237
_cell_angle_beta   72.78958271
_cell_angle_gamma   45.70473270
_symmetry_Int_Tables_number   1
_chemical_formula_structural   Na5PuO5
_chemical_formula_sum   'Na5 Pu1 O5'
_cell_volume   160.30794620
_cell_formula_units_Z   1
loop_
 _symmetry_equiv_pos_site_id
 _symmetry_equiv_pos_as_xyz
  1  'x, y, z'
loop_
 _atom_site_type_symbol
 _atom_site_label
 _atom_site_symmetry_multiplicity
 _atom_site_fract_x
 _atom_site_fract_y
 _atom_site_fract_z
 _atom_site_occupancy
  Na  Na0  1  0.321341  0.321341  0.859158  1
  Na  Na1  1  0.302222  0.302222  0.325581  1
  Na  Na2  1  0.697778  0.697778  0.674419  1
  Na  Na3  1  0.678659  0.678659  0.140842  1
  Na  Na4  1  0.000000  0.000000  0.500000  1
  Pu  Pu5  1  0.000000  0.000000  0.000000  1
  O  O6  1  0.863289  0.863289  0.839158  1
  O  O7  1  0.851015  0.851015  0.300934  1
  O  O8  1  0.148985  0.148985  0.699066  1
  O  O9  1  0.136711  0.136711  0.160842  1
  O  O10  1  0.500000  0.500000  0.000000  1
