# generated using pymatgen
data_MgNb5(ReSi)6
_symmetry_space_group_name_H-M   'P 1'
_cell_length_a   7.67448951
_cell_length_b   7.58301545
_cell_length_c   7.67448909
_cell_angle_alpha   126.06491854
_cell_angle_beta   128.74148647
_cell_angle_gamma   77.87792861
_symmetry_Int_Tables_number   1
_chemical_formula_structural   MgNb5(ReSi)6
_chemical_formula_sum   'Mg1 Nb5 Re6 Si6'
_cell_volume   272.55985848
_cell_formula_units_Z   1
loop_
 _symmetry_equiv_pos_site_id
 _symmetry_equiv_pos_as_xyz
  1  'x, y, z'
loop_
 _atom_site_type_symbol
 _atom_site_label
 _atom_site_symmetry_multiplicity
 _atom_site_fract_x
 _atom_site_fract_y
 _atom_site_fract_z
 _atom_site_occupancy
  Mg  Mg0  1  0.551535  0.100708  0.049174  1
  Nb  Nb1  1  0.449510  0.489176  0.539666  1
  Nb  Nb2  1  0.950492  0.494110  0.043618  1
  Nb  Nb3  1  0.049706  0.095492  0.545787  1
  Nb  Nb4  1  0.748856  0.898788  0.649932  1
  Nb  Nb5  1  0.245297  0.893743  0.148445  1
  Re  Re6  1  0.500143  0.241353  0.739248  1
  Re  Re7  1  0.002104  0.241353  0.241209  1
  Re  Re8  1  0.124181  0.755997  0.621036  1
  Re  Re9  1  0.877652  0.498117  0.631651  1
  Re  Re10  1  0.634961  0.755997  0.131817  1
  Re  Re11  1  0.366466  0.498117  0.120465  1
  Si  Si12  1  0.748428  0.495855  0.247427  1
  Si  Si13  1  0.253854  0.502110  0.748256  1
  Si  Si14  1  0.336013  0.829638  0.501894  1
  Si  Si15  1  0.664249  0.161004  0.492195  1
  Si  Si16  1  0.827743  0.829638  0.993624  1
  Si  Si17  1  0.168809  0.161004  0.996755  1
