# generated using pymatgen
data_YbMgZnCu2Ir
_symmetry_space_group_name_H-M   'P 1'
_cell_length_a   5.24730688
_cell_length_b   5.24730724
_cell_length_c   5.12759472
_cell_angle_alpha   58.70100674
_cell_angle_beta   58.70100530
_cell_angle_gamma   58.29263061
_symmetry_Int_Tables_number   1
_chemical_formula_structural   YbMgZnCu2Ir
_chemical_formula_sum   'Yb1 Mg1 Zn1 Cu2 Ir1'
_cell_volume   96.55276349
_cell_formula_units_Z   1
loop_
 _symmetry_equiv_pos_site_id
 _symmetry_equiv_pos_as_xyz
  1  'x, y, z'
loop_
 _atom_site_type_symbol
 _atom_site_label
 _atom_site_symmetry_multiplicity
 _atom_site_fract_x
 _atom_site_fract_y
 _atom_site_fract_z
 _atom_site_occupancy
  Yb  Yb0  1  0.250748  0.250748  0.254152  1
  Mg  Mg1  1  0.995186  0.995186  0.996158  1
  Zn  Zn2  1  0.624846  0.624846  0.125399  1
  Cu  Cu3  1  0.626838  0.125428  0.624415  1
  Cu  Cu4  1  0.125428  0.626838  0.624415  1
  Ir  Ir5  1  0.626954  0.626954  0.625460  1
