# generated using pymatgen
data_Tb2Pr8Si5Hg
_symmetry_space_group_name_H-M   'P 1'
_cell_length_a   7.74021444
_cell_length_b   7.74021430
_cell_length_c   9.19829799
_cell_angle_alpha   114.88142193
_cell_angle_beta   114.88142069
_cell_angle_gamma   90.00000252
_symmetry_Int_Tables_number   1
_chemical_formula_structural   Tb2Pr8Si5Hg
_chemical_formula_sum   'Tb2 Pr8 Si5 Hg1'
_cell_volume   442.90835199
_cell_formula_units_Z   1
loop_
 _symmetry_equiv_pos_site_id
 _symmetry_equiv_pos_as_xyz
  1  'x, y, z'
loop_
 _atom_site_type_symbol
 _atom_site_label
 _atom_site_symmetry_multiplicity
 _atom_site_fract_x
 _atom_site_fract_y
 _atom_site_fract_z
 _atom_site_occupancy
  Tb  Tb0  1  0.513718  0.513718  0.027437  1
  Tb  Tb1  1  0.986282  0.986282  0.972563  1
  Pr  Pr2  1  0.973695  0.826730  0.283695  1
  Pr  Pr3  1  0.310000  0.456964  0.283695  1
  Pr  Pr4  1  0.826730  0.310000  0.283695  1
  Pr  Pr5  1  0.456964  0.973695  0.283695  1
  Pr  Pr6  1  0.043036  0.190000  0.716305  1
  Pr  Pr7  1  0.673270  0.526305  0.716305  1
  Pr  Pr8  1  0.190000  0.673270  0.716305  1
  Pr  Pr9  1  0.526305  0.043036  0.716305  1
  Si  Si10  1  0.250000  0.250000  0.500000  1
  Si  Si11  1  0.617488  0.882512  0.000000  1
  Si  Si12  1  0.382512  0.117488  0.000000  1
  Si  Si13  1  0.882512  0.382512  0.000000  1
  Si  Si14  1  0.117488  0.617488  0.000000  1
  Hg  Hg15  1  0.750000  0.750000  0.500000  1
