# generated using pymatgen
data_HoErTcB8Mo
_symmetry_space_group_name_H-M   'P 1'
_cell_length_a   3.59872200
_cell_length_b   5.98297987
_cell_length_c   11.56796707
_cell_angle_alpha   89.90209931
_cell_angle_beta   90.00000000
_cell_angle_gamma   90.00000000
_symmetry_Int_Tables_number   1
_chemical_formula_structural   HoErTcB8Mo
_chemical_formula_sum   'Ho2 Er2 Tc2 B16 Mo2'
_cell_volume   249.07047565
_cell_formula_units_Z   2
loop_
 _symmetry_equiv_pos_site_id
 _symmetry_equiv_pos_as_xyz
  1  'x, y, z'
loop_
 _atom_site_type_symbol
 _atom_site_label
 _atom_site_symmetry_multiplicity
 _atom_site_fract_x
 _atom_site_fract_y
 _atom_site_fract_z
 _atom_site_occupancy
  Ho  Ho0  1  0.000000  0.627364  0.348511  1
  Ho  Ho1  1  0.000000  0.372636  0.651489  1
  Er  Er2  1  0.000000  0.127638  0.148543  1
  Er  Er3  1  0.000000  0.872362  0.851457  1
  Tc  Tc4  1  0.000000  0.634387  0.086412  1
  Tc  Tc5  1  0.000000  0.365613  0.913588  1
  B  B6  1  0.500000  0.785832  0.184339  1
  B  B7  1  0.500000  0.214168  0.815661  1
  B  B8  1  0.500000  0.289495  0.312652  1
  B  B9  1  0.500000  0.710505  0.687348  1
  B  B10  1  0.500000  0.864203  0.030930  1
  B  B11  1  0.500000  0.135797  0.969070  1
  B  B12  1  0.500000  0.367590  0.467596  1
  B  B13  1  0.500000  0.632410  0.532404  1
  B  B14  1  0.500000  0.884933  0.452279  1
  B  B15  1  0.500000  0.115067  0.547721  1
  B  B16  1  0.500000  0.386662  0.047285  1
  B  B17  1  0.500000  0.613338  0.952715  1
  B  B18  1  0.500000  0.975949  0.305047  1
  B  B19  1  0.500000  0.024051  0.694953  1
  B  B20  1  0.500000  0.477248  0.191509  1
  B  B21  1  0.500000  0.522752  0.808491  1
  Mo  Mo22  1  0.000000  0.129663  0.414978  1
  Mo  Mo23  1  0.000000  0.870337  0.585022  1
