# generated using pymatgen
data_Ho3CdIn3CuNi
_symmetry_space_group_name_H-M   'P 1'
_cell_length_a   7.70927800
_cell_length_b   7.70927885
_cell_length_c   3.79336500
_cell_angle_alpha   90.00000000
_cell_angle_beta   90.00000000
_cell_angle_gamma   120.00000492
_symmetry_Int_Tables_number   1
_chemical_formula_structural   Ho3CdIn3CuNi
_chemical_formula_sum   'Ho3 Cd1 In3 Cu1 Ni1'
_cell_volume   195.24625146
_cell_formula_units_Z   1
loop_
 _symmetry_equiv_pos_site_id
 _symmetry_equiv_pos_as_xyz
  1  'x, y, z'
loop_
 _atom_site_type_symbol
 _atom_site_label
 _atom_site_symmetry_multiplicity
 _atom_site_fract_x
 _atom_site_fract_y
 _atom_site_fract_z
 _atom_site_occupancy
  Ho  Ho0  1  0.031216  0.608455  0.500000  1
  Ho  Ho1  1  0.391545  0.422761  0.500000  1
  Ho  Ho2  1  0.577239  0.968784  0.500000  1
  Cd  Cd3  1  0.666667  0.333333  0.000000  1
  In  In4  1  0.747303  0.749371  0.000000  1
  In  In5  1  0.002068  0.252697  0.000000  1
  In  In6  1  0.250629  0.997932  0.000000  1
  Cu  Cu7  1  0.000000  0.000000  0.500000  1
  Ni  Ni8  1  0.333333  0.666667  0.000000  1
