# generated using pymatgen
data_AlV12OsPt2
_symmetry_space_group_name_H-M   'P 1'
_cell_length_a   4.79715600
_cell_length_b   4.80592800
_cell_length_c   9.63582900
_cell_angle_alpha   90.00000000
_cell_angle_beta   90.00000000
_cell_angle_gamma   90.00000000
_symmetry_Int_Tables_number   1
_chemical_formula_structural   AlV12OsPt2
_chemical_formula_sum   'Al1 V12 Os1 Pt2'
_cell_volume   222.15197881
_cell_formula_units_Z   1
loop_
 _symmetry_equiv_pos_site_id
 _symmetry_equiv_pos_as_xyz
  1  'x, y, z'
loop_
 _atom_site_type_symbol
 _atom_site_label
 _atom_site_symmetry_multiplicity
 _atom_site_fract_x
 _atom_site_fract_y
 _atom_site_fract_z
 _atom_site_occupancy
  Al  Al0  1  0.500000  0.500000  0.000557  1
  V  V1  1  0.000000  0.500000  0.129234  1
  V  V2  1  0.000000  0.500000  0.622999  1
  V  V3  1  0.500000  0.250037  0.752797  1
  V  V4  1  0.500000  0.246583  0.248727  1
  V  V5  1  0.752556  0.000000  0.002852  1
  V  V6  1  0.752293  0.000000  0.495412  1
  V  V7  1  0.000000  0.500000  0.870800  1
  V  V8  1  0.000000  0.500000  0.378016  1
  V  V9  1  0.500000  0.749963  0.752797  1
  V  V10  1  0.500000  0.753417  0.248727  1
  V  V11  1  0.247444  0.000000  0.002852  1
  V  V12  1  0.247707  0.000000  0.495412  1
  Os  Os13  1  0.000000  0.000000  0.250155  1
  Pt  Pt14  1  0.500000  0.500000  0.501246  1
  Pt  Pt15  1  0.000000  0.000000  0.747418  1
