# generated using pymatgen
data_Tm10In8HgRh3
_symmetry_space_group_name_H-M   'P 1'
_cell_length_a   3.58104700
_cell_length_b   8.09170743
_cell_length_c   18.20408857
_cell_angle_alpha   90.23342317
_cell_angle_beta   90.00000000
_cell_angle_gamma   90.00000000
_symmetry_Int_Tables_number   1
_chemical_formula_structural   Tm10In8HgRh3
_chemical_formula_sum   'Tm10 In8 Hg1 Rh3'
_cell_volume   527.49157641
_cell_formula_units_Z   1
loop_
 _symmetry_equiv_pos_site_id
 _symmetry_equiv_pos_as_xyz
  1  'x, y, z'
loop_
 _atom_site_type_symbol
 _atom_site_label
 _atom_site_symmetry_multiplicity
 _atom_site_fract_x
 _atom_site_fract_y
 _atom_site_fract_z
 _atom_site_occupancy
  Tm  Tm0  1  0.000000  0.500706  0.502047  1
  Tm  Tm1  1  0.000000  0.000441  0.997626  1
  Tm  Tm2  1  0.000000  0.767509  0.285558  1
  Tm  Tm3  1  0.000000  0.252211  0.721812  1
  Tm  Tm4  1  0.000000  0.754062  0.777785  1
  Tm  Tm5  1  0.000000  0.216850  0.223341  1
  Tm  Tm6  1  0.000000  0.626437  0.074655  1
  Tm  Tm7  1  0.000000  0.384763  0.910249  1
  Tm  Tm8  1  0.000000  0.882517  0.589006  1
  Tm  Tm9  1  0.000000  0.116111  0.416687  1
  In  In10  1  0.500000  0.708896  0.928370  1
  In  In11  1  0.500000  0.292972  0.063465  1
  In  In12  1  0.500000  0.794356  0.435212  1
  In  In13  1  0.500000  0.206206  0.568399  1
  In  In14  1  0.500000  0.571630  0.649813  1
  In  In15  1  0.500000  0.418706  0.354924  1
  In  In16  1  0.500000  0.925844  0.147102  1
  In  In17  1  0.500000  0.072031  0.850538  1
  Hg  Hg18  1  0.500000  0.527045  0.198166  1
  Rh  Rh19  1  0.500000  0.476556  0.803374  1
  Rh  Rh20  1  0.500000  0.977253  0.695695  1
  Rh  Rh21  1  0.500000  0.026897  0.306173  1
