# generated using pymatgen
data_Dy5ThCoNi
_symmetry_space_group_name_H-M   'P 1'
_cell_length_a   6.30465800
_cell_length_b   6.89037700
_cell_length_c   9.55549600
_cell_angle_alpha   90.00000000
_cell_angle_beta   90.00000000
_cell_angle_gamma   90.00000000
_symmetry_Int_Tables_number   1
_chemical_formula_structural   Dy5ThCoNi
_chemical_formula_sum   'Dy10 Th2 Co2 Ni2'
_cell_volume   415.10479737
_cell_formula_units_Z   2
loop_
 _symmetry_equiv_pos_site_id
 _symmetry_equiv_pos_as_xyz
  1  'x, y, z'
loop_
 _atom_site_type_symbol
 _atom_site_label
 _atom_site_symmetry_multiplicity
 _atom_site_fract_x
 _atom_site_fract_y
 _atom_site_fract_z
 _atom_site_occupancy
  Dy  Dy0  1  0.328834  0.675286  0.069201  1
  Dy  Dy1  1  0.171166  0.175286  0.430799  1
  Dy  Dy2  1  0.675645  0.323505  0.568195  1
  Dy  Dy3  1  0.824355  0.823505  0.931805  1
  Dy  Dy4  1  0.675645  0.323505  0.931805  1
  Dy  Dy5  1  0.824355  0.823505  0.568195  1
  Dy  Dy6  1  0.328834  0.675286  0.430799  1
  Dy  Dy7  1  0.171166  0.175286  0.069201  1
  Dy  Dy8  1  0.144506  0.465832  0.750000  1
  Dy  Dy9  1  0.355494  0.965832  0.750000  1
  Th  Th10  1  0.847128  0.550813  0.250000  1
  Th  Th11  1  0.652872  0.050813  0.250000  1
  Co  Co12  1  0.033161  0.872798  0.250000  1
  Co  Co13  1  0.466839  0.372798  0.250000  1
  Ni  Ni14  1  0.943854  0.112975  0.750000  1
  Ni  Ni15  1  0.556146  0.612975  0.750000  1
