# generated using pymatgen
data_Na4OsN4
_symmetry_space_group_name_H-M   'P 1'
_cell_length_a   5.92603860
_cell_length_b   5.94891765
_cell_length_c   8.93949477
_cell_angle_alpha   72.18975976
_cell_angle_beta   81.12471560
_cell_angle_gamma   68.07157318
_symmetry_Int_Tables_number   1
_chemical_formula_structural   Na4OsN4
_chemical_formula_sum   'Na8 Os2 N8'
_cell_volume   278.05064914
_cell_formula_units_Z   2
loop_
 _symmetry_equiv_pos_site_id
 _symmetry_equiv_pos_as_xyz
  1  'x, y, z'
loop_
 _atom_site_type_symbol
 _atom_site_label
 _atom_site_symmetry_multiplicity
 _atom_site_fract_x
 _atom_site_fract_y
 _atom_site_fract_z
 _atom_site_occupancy
  Na  Na0  1  0.746753  0.586114  0.171236  1
  Na  Na1  1  0.253247  0.413886  0.828764  1
  Na  Na2  1  0.750854  0.232091  0.976902  1
  Na  Na3  1  0.249146  0.767909  0.023098  1
  Na  Na4  1  0.730422  0.484577  0.560374  1
  Na  Na5  1  0.269578  0.515423  0.439626  1
  Na  Na6  1  0.235030  0.953015  0.608689  1
  Na  Na7  1  0.764970  0.046985  0.391311  1
  Os  Os8  1  0.722780  0.842877  0.753295  1
  Os  Os9  1  0.277220  0.157123  0.246705  1
  N  N10  1  0.964451  0.713176  0.619331  1
  N  N11  1  0.035549  0.286824  0.380669  1
  N  N12  1  0.859150  0.836176  0.921907  1
  N  N13  1  0.140850  0.163824  0.078093  1
  N  N14  1  0.531361  0.650892  0.806888  1
  N  N15  1  0.468639  0.349108  0.193112  1
  N  N16  1  0.459441  0.840072  0.348302  1
  N  N17  1  0.540559  0.159928  0.651698  1
