# generated using pymatgen
data_Tb11TmCo6Sn
_symmetry_space_group_name_H-M   'P 1'
_cell_length_a   8.37628893
_cell_length_b   8.37628994
_cell_length_c   8.38428227
_cell_angle_alpha   109.46442731
_cell_angle_beta   109.55335823
_cell_angle_gamma   109.35720445
_symmetry_Int_Tables_number   1
_chemical_formula_structural   Tb11TmCo6Sn
_chemical_formula_sum   'Tb11 Tm1 Co6 Sn1'
_cell_volume   453.05767724
_cell_formula_units_Z   1
loop_
 _symmetry_equiv_pos_site_id
 _symmetry_equiv_pos_as_xyz
  1  'x, y, z'
loop_
 _atom_site_type_symbol
 _atom_site_label
 _atom_site_symmetry_multiplicity
 _atom_site_fract_x
 _atom_site_fract_y
 _atom_site_fract_z
 _atom_site_occupancy
  Tb  Tb0  1  0.194089  0.303435  0.497523  1
  Tb  Tb1  1  0.193365  0.696714  0.890080  1
  Tb  Tb2  1  0.805675  0.303706  0.109380  1
  Tb  Tb3  1  0.696713  0.502761  0.805048  1
  Tb  Tb4  1  0.304817  0.498046  0.194959  1
  Tb  Tb5  1  0.696912  0.890143  0.194959  1
  Tb  Tb6  1  0.302288  0.108334  0.805048  1
  Tb  Tb7  1  0.503256  0.805608  0.696500  1
  Tb  Tb8  1  0.498025  0.195311  0.303697  1
  Tb  Tb9  1  0.108385  0.805671  0.303697  1
  Tb  Tb10  1  0.890894  0.193245  0.696500  1
  Tm  Tm11  1  0.806176  0.695276  0.501454  1
  Co  Co12  1  0.886150  0.388205  0.500152  1
  Co  Co13  1  0.111948  0.614003  0.500152  1
  Co  Co14  1  0.387203  0.499650  0.886853  1
  Co  Co15  1  0.613751  0.500333  0.114085  1
  Co  Co16  1  0.500779  0.886964  0.387743  1
  Co  Co17  1  0.499876  0.113025  0.612901  1
  Sn  Sn18  1  0.999696  0.999572  0.999268  1
