# generated using pymatgen
data_SmTm(SeO3)3
_symmetry_space_group_name_H-M   'P 1'
_cell_length_a   7.14902785
_cell_length_b   8.19274871
_cell_length_c   9.11268285
_cell_angle_alpha   71.06880190
_cell_angle_beta   70.15381749
_cell_angle_gamma   66.15584944
_symmetry_Int_Tables_number   1
_chemical_formula_structural   SmTm(SeO3)3
_chemical_formula_sum   'Sm2 Tm2 Se6 O18'
_cell_volume   448.18159940
_cell_formula_units_Z   2
loop_
 _symmetry_equiv_pos_site_id
 _symmetry_equiv_pos_as_xyz
  1  'x, y, z'
loop_
 _atom_site_type_symbol
 _atom_site_label
 _atom_site_symmetry_multiplicity
 _atom_site_fract_x
 _atom_site_fract_y
 _atom_site_fract_z
 _atom_site_occupancy
  Sm  Sm0  1  0.333034  0.729320  0.591875  1
  Sm  Sm1  1  0.666966  0.270680  0.408125  1
  Tm  Tm2  1  0.740906  0.736108  0.800348  1
  Tm  Tm3  1  0.259094  0.263892  0.199652  1
  Se  Se4  1  0.424891  0.781308  0.193801  1
  Se  Se5  1  0.575109  0.218692  0.806199  1
  Se  Se6  1  0.148924  0.747068  0.968543  1
  Se  Se7  1  0.851076  0.252932  0.031457  1
  Se  Se8  1  0.886888  0.755688  0.418916  1
  Se  Se9  1  0.113112  0.244312  0.581084  1
  O  O10  1  0.646348  0.792459  0.046815  1
  O  O11  1  0.353652  0.207541  0.953185  1
  O  O12  1  0.362731  0.950057  0.296725  1
  O  O13  1  0.637269  0.049943  0.703275  1
  O  O14  1  0.514310  0.600377  0.347113  1
  O  O15  1  0.485690  0.399623  0.652887  1
  O  O16  1  0.171325  0.560172  0.121330  1
  O  O17  1  0.828675  0.439828  0.878670  1
  O  O18  1  0.406495  0.710913  0.851236  1
  O  O19  1  0.593505  0.289087  0.148764  1
  O  O20  1  0.342865  0.249445  0.431767  1
  O  O21  1  0.657135  0.750555  0.568233  1
  O  O22  1  0.972221  0.292780  0.439407  1
  O  O23  1  0.027779  0.707220  0.560593  1
  O  O24  1  0.152408  0.019486  0.658172  1
  O  O25  1  0.847592  0.980514  0.341828  1
  O  O26  1  0.939836  0.302813  0.162554  1
  O  O27  1  0.060164  0.697187  0.837446  1
