# generated using pymatgen
data_Tb3Lu5Cd2IrRu
_symmetry_space_group_name_H-M   'P 1'
_cell_length_a   9.52272308
_cell_length_b   9.52272260
_cell_length_c   9.57488800
_cell_angle_alpha   59.81862343
_cell_angle_beta   59.81862509
_cell_angle_gamma   59.66648013
_symmetry_Int_Tables_number   1
_chemical_formula_structural   Tb3Lu5Cd2IrRu
_chemical_formula_sum   'Tb6 Lu10 Cd4 Ir2 Ru2'
_cell_volume   610.72301464
_cell_formula_units_Z   2
loop_
 _symmetry_equiv_pos_site_id
 _symmetry_equiv_pos_as_xyz
  1  'x, y, z'
loop_
 _atom_site_type_symbol
 _atom_site_label
 _atom_site_symmetry_multiplicity
 _atom_site_fract_x
 _atom_site_fract_y
 _atom_site_fract_z
 _atom_site_occupancy
  Tb  Tb0  1  0.189833  0.807222  0.812035  1
  Tb  Tb1  1  0.807222  0.189833  0.190911  1
  Tb  Tb2  1  0.807222  0.189833  0.812035  1
  Tb  Tb3  1  0.189833  0.807222  0.190911  1
  Tb  Tb4  1  0.808857  0.808857  0.191143  1
  Tb  Tb5  1  0.190821  0.190821  0.809179  1
  Lu  Lu6  1  0.597874  0.597874  0.597488  1
  Lu  Lu7  1  0.597874  0.597874  0.206766  1
  Lu  Lu8  1  0.597178  0.211237  0.595793  1
  Lu  Lu9  1  0.211237  0.597178  0.595793  1
  Lu  Lu10  1  0.063559  0.436094  0.438662  1
  Lu  Lu11  1  0.436094  0.063559  0.061684  1
  Lu  Lu12  1  0.436094  0.063559  0.438662  1
  Lu  Lu13  1  0.063559  0.436094  0.061684  1
  Lu  Lu14  1  0.436579  0.436579  0.063421  1
  Lu  Lu15  1  0.060927  0.060927  0.439073  1
  Cd  Cd16  1  0.830154  0.830154  0.829841  1
  Cd  Cd17  1  0.830154  0.830154  0.509852  1
  Cd  Cd18  1  0.830549  0.508020  0.830717  1
  Cd  Cd19  1  0.508020  0.830549  0.830717  1
  Ir  Ir20  1  0.394175  0.827249  0.389288  1
  Ir  Ir21  1  0.827249  0.394175  0.389288  1
  Ru  Ru22  1  0.392469  0.392469  0.387421  1
  Ru  Ru23  1  0.392469  0.392469  0.827642  1
