# generated using pymatgen
data_ErTm3(ScOs)4
_symmetry_space_group_name_H-M   'P 1'
_cell_length_a   4.11145600
_cell_length_b   7.19975121
_cell_length_c   8.58422300
_cell_angle_alpha   90.12156684
_cell_angle_beta   90.00000000
_cell_angle_gamma   90.00000000
_symmetry_Int_Tables_number   1
_chemical_formula_structural   ErTm3(ScOs)4
_chemical_formula_sum   'Er1 Tm3 Sc4 Os4'
_cell_volume   254.10496432
_cell_formula_units_Z   1
loop_
 _symmetry_equiv_pos_site_id
 _symmetry_equiv_pos_as_xyz
  1  'x, y, z'
loop_
 _atom_site_type_symbol
 _atom_site_label
 _atom_site_symmetry_multiplicity
 _atom_site_fract_x
 _atom_site_fract_y
 _atom_site_fract_z
 _atom_site_occupancy
  Er  Er0  1  0.750000  0.527829  0.828210  1
  Tm  Tm1  1  0.250000  0.971499  0.328731  1
  Tm  Tm2  1  0.250000  0.471604  0.171934  1
  Tm  Tm3  1  0.750000  0.028487  0.671410  1
  Sc  Sc4  1  0.250000  0.356868  0.558039  1
  Sc  Sc5  1  0.250000  0.856957  0.941666  1
  Sc  Sc6  1  0.750000  0.643663  0.440878  1
  Sc  Sc7  1  0.750000  0.143131  0.059418  1
  Os  Os8  1  0.250000  0.234830  0.871357  1
  Os  Os9  1  0.250000  0.737505  0.627771  1
  Os  Os10  1  0.750000  0.763561  0.129094  1
  Os  Os11  1  0.750000  0.264068  0.371492  1
