# generated using pymatgen
data_Cs4TlSb3Pt2
_symmetry_space_group_name_H-M   'P 1'
_cell_length_a   8.57734900
_cell_length_b   8.56922264
_cell_length_c   6.95085400
_cell_angle_alpha   90.00000000
_cell_angle_beta   90.00000000
_cell_angle_gamma   124.02204874
_symmetry_Int_Tables_number   1
_chemical_formula_structural   Cs4TlSb3Pt2
_chemical_formula_sum   'Cs4 Tl1 Sb3 Pt2'
_cell_volume   423.44217613
_cell_formula_units_Z   1
loop_
 _symmetry_equiv_pos_site_id
 _symmetry_equiv_pos_as_xyz
  1  'x, y, z'
loop_
 _atom_site_type_symbol
 _atom_site_label
 _atom_site_symmetry_multiplicity
 _atom_site_fract_x
 _atom_site_fract_y
 _atom_site_fract_z
 _atom_site_occupancy
  Cs  Cs0  1  0.551013  0.349345  0.750000  1
  Cs  Cs1  1  0.362659  0.554001  0.250000  1
  Cs  Cs2  1  0.176044  0.787260  0.750000  1
  Cs  Cs3  1  0.800708  0.222279  0.250000  1
  Tl  Tl4  1  0.751133  0.860272  0.750000  1
  Sb  Sb5  1  0.886180  0.757178  0.250000  1
  Sb  Sb6  1  0.282566  0.030798  0.250000  1
  Sb  Sb7  1  0.078389  0.294287  0.750000  1
  Pt  Pt8  1  0.055654  0.072291  0.020931  1
  Pt  Pt9  1  0.055654  0.072291  0.479069  1
