# generated using pymatgen
data_Hf12Zn11RhN4
_symmetry_space_group_name_H-M   'P 1'
_cell_length_a   8.52287403
_cell_length_b   8.52287363
_cell_length_c   8.50419251
_cell_angle_alpha   59.92729568
_cell_angle_beta   59.92729614
_cell_angle_gamma   59.99999740
_symmetry_Int_Tables_number   1
_chemical_formula_structural   Hf12Zn11RhN4
_chemical_formula_sum   'Hf12 Zn11 Rh1 N4'
_cell_volume   436.32697592
_cell_formula_units_Z   1
loop_
 _symmetry_equiv_pos_site_id
 _symmetry_equiv_pos_as_xyz
  1  'x, y, z'
loop_
 _atom_site_type_symbol
 _atom_site_label
 _atom_site_symmetry_multiplicity
 _atom_site_fract_x
 _atom_site_fract_y
 _atom_site_fract_z
 _atom_site_occupancy
  Hf  Hf0  1  0.816756  0.186736  0.179753  1
  Hf  Hf1  1  0.186736  0.816756  0.179753  1
  Hf  Hf2  1  0.816756  0.816756  0.179753  1
  Hf  Hf3  1  0.190048  0.808410  0.811494  1
  Hf  Hf4  1  0.808410  0.190048  0.811494  1
  Hf  Hf5  1  0.190048  0.190048  0.811494  1
  Hf  Hf6  1  0.435485  0.065593  0.063437  1
  Hf  Hf7  1  0.065593  0.435485  0.063437  1
  Hf  Hf8  1  0.435485  0.435485  0.063437  1
  Hf  Hf9  1  0.064509  0.434327  0.436655  1
  Hf  Hf10  1  0.434327  0.064509  0.436655  1
  Hf  Hf11  1  0.064509  0.064509  0.436655  1
  Zn  Zn12  1  0.417855  0.417855  0.420381  1
  Zn  Zn13  1  0.743907  0.417855  0.420381  1
  Zn  Zn14  1  0.417855  0.743907  0.420381  1
  Zn  Zn15  1  0.833096  0.833096  0.500712  1
  Zn  Zn16  1  0.832860  0.832860  0.832675  1
  Zn  Zn17  1  0.501606  0.832860  0.832675  1
  Zn  Zn18  1  0.832860  0.501606  0.832675  1
  Zn  Zn19  1  0.624723  0.624723  0.125830  1
  Zn  Zn20  1  0.628148  0.628148  0.620141  1
  Zn  Zn21  1  0.123563  0.628148  0.620141  1
  Zn  Zn22  1  0.628148  0.123563  0.620141  1
  Rh  Rh23  1  0.409837  0.409837  0.770490  1
  N  N24  1  0.124368  0.124368  0.626897  1
  N  N25  1  0.123844  0.123844  0.127488  1
  N  N26  1  0.624825  0.123844  0.127488  1
  N  N27  1  0.123844  0.624825  0.127488  1
