# generated using pymatgen
data_Pr2Nd6BiPd24
_symmetry_space_group_name_H-M   'P 1'
_cell_length_a   8.52070700
_cell_length_b   8.52176860
_cell_length_c   8.52176800
_cell_angle_alpha   89.97845803
_cell_angle_beta   90.00000000
_cell_angle_gamma   90.00000000
_symmetry_Int_Tables_number   1
_chemical_formula_structural   Pr2Nd6BiPd24
_chemical_formula_sum   'Pr2 Nd6 Bi1 Pd24'
_cell_volume   618.77825700
_cell_formula_units_Z   1
loop_
 _symmetry_equiv_pos_site_id
 _symmetry_equiv_pos_as_xyz
  1  'x, y, z'
loop_
 _atom_site_type_symbol
 _atom_site_label
 _atom_site_symmetry_multiplicity
 _atom_site_fract_x
 _atom_site_fract_y
 _atom_site_fract_z
 _atom_site_occupancy
  Pr  Pr0  1  0.251245  0.251065  0.748935  1
  Pr  Pr1  1  0.251245  0.748935  0.251065  1
  Nd  Nd2  1  0.748801  0.251373  0.251373  1
  Nd  Nd3  1  0.748801  0.748627  0.748627  1
  Nd  Nd4  1  0.748516  0.748847  0.251153  1
  Nd  Nd5  1  0.748516  0.251153  0.748847  1
  Nd  Nd6  1  0.251071  0.748623  0.748623  1
  Nd  Nd7  1  0.251071  0.251377  0.251377  1
  Bi  Bi8  1  0.000493  0.000000  0.000000  1
  Pd  Pd9  1  0.500555  0.500441  0.743855  1
  Pd  Pd10  1  0.500555  0.256145  0.499559  1
  Pd  Pd11  1  0.256057  0.500000  0.500000  1
  Pd  Pd12  1  0.500555  0.499559  0.256145  1
  Pd  Pd13  1  0.500555  0.743855  0.500441  1
  Pd  Pd14  1  0.743687  0.500000  0.500000  1
  Pd  Pd15  1  0.999519  0.999566  0.677897  1
  Pd  Pd16  1  0.999519  0.322103  0.000434  1
  Pd  Pd17  1  0.322835  0.000000  0.000000  1
  Pd  Pd18  1  0.999519  0.000434  0.322103  1
  Pd  Pd19  1  0.999519  0.677897  0.999566  1
  Pd  Pd20  1  0.678591  0.000000  0.000000  1
  Pd  Pd21  1  0.999182  0.500150  0.730332  1
  Pd  Pd22  1  0.500523  0.269683  0.000966  1
  Pd  Pd23  1  0.269694  0.000000  0.500000  1
  Pd  Pd24  1  0.999182  0.269668  0.499850  1
  Pd  Pd25  1  0.500523  0.999034  0.730317  1
  Pd  Pd26  1  0.269694  0.500000  0.000000  1
  Pd  Pd27  1  0.999182  0.499850  0.269668  1
  Pd  Pd28  1  0.500523  0.730317  0.999034  1
  Pd  Pd29  1  0.999182  0.730332  0.500150  1
  Pd  Pd30  1  0.500523  0.000966  0.269683  1
  Pd  Pd31  1  0.730285  0.000000  0.500000  1
  Pd  Pd32  1  0.730285  0.500000  0.000000  1
