# generated using pymatgen
data_HoAgRh2O7
_symmetry_space_group_name_H-M   'P 1'
_cell_length_a   7.18911635
_cell_length_b   7.18911512
_cell_length_c   7.34492100
_cell_angle_alpha   59.28044836
_cell_angle_beta   59.28045422
_cell_angle_gamma   59.36935861
_symmetry_Int_Tables_number   1
_chemical_formula_structural   HoAgRh2O7
_chemical_formula_sum   'Ho2 Ag2 Rh4 O14'
_cell_volume   264.20810441
_cell_formula_units_Z   2
loop_
 _symmetry_equiv_pos_site_id
 _symmetry_equiv_pos_as_xyz
  1  'x, y, z'
loop_
 _atom_site_type_symbol
 _atom_site_label
 _atom_site_symmetry_multiplicity
 _atom_site_fract_x
 _atom_site_fract_y
 _atom_site_fract_z
 _atom_site_occupancy
  Ho  Ho0  1  0.625000  0.625000  0.125000  1
  Ho  Ho1  1  0.625000  0.625000  0.625000  1
  Ag  Ag2  1  0.625000  0.125000  0.625000  1
  Ag  Ag3  1  0.125000  0.625000  0.625000  1
  Rh  Rh4  1  0.125000  0.125000  0.125000  1
  Rh  Rh5  1  0.625000  0.125000  0.125000  1
  Rh  Rh6  1  0.125000  0.625000  0.125000  1
  Rh  Rh7  1  0.125000  0.125000  0.625000  1
  O  O8  1  0.035998  0.456622  0.452101  1
  O  O9  1  0.783995  0.783995  0.216005  1
  O  O10  1  0.793378  0.214002  0.194721  1
  O  O11  1  0.456622  0.035998  0.452101  1
  O  O12  1  0.758418  0.758418  0.741582  1
  O  O13  1  0.049836  0.049836  0.450164  1
  O  O14  1  0.035998  0.456622  0.055279  1
  O  O15  1  0.793378  0.214002  0.797899  1
  O  O16  1  0.214002  0.793378  0.194721  1
  O  O17  1  0.200164  0.200164  0.799836  1
  O  O18  1  0.491582  0.491582  0.508418  1
  O  O19  1  0.456622  0.035998  0.055279  1
  O  O20  1  0.466005  0.466005  0.033995  1
  O  O21  1  0.214002  0.793378  0.797899  1
