# generated using pymatgen
data_Dy11HoIn2(CoSi)2
_symmetry_space_group_name_H-M   'P 1'
_cell_length_a   8.48096426
_cell_length_b   8.47228631
_cell_length_c   8.47228554
_cell_angle_alpha   113.31334128
_cell_angle_beta   110.80145749
_cell_angle_gamma   104.38826584
_symmetry_Int_Tables_number   1
_chemical_formula_structural   Dy11HoIn2(CoSi)2
_chemical_formula_sum   'Dy11 Ho1 In2 Co2 Si2'
_cell_volume   465.87461471
_cell_formula_units_Z   1
loop_
 _symmetry_equiv_pos_site_id
 _symmetry_equiv_pos_as_xyz
  1  'x, y, z'
loop_
 _atom_site_type_symbol
 _atom_site_label
 _atom_site_symmetry_multiplicity
 _atom_site_fract_x
 _atom_site_fract_y
 _atom_site_fract_z
 _atom_site_occupancy
  Dy  Dy0  1  0.558624  0.759520  0.799103  1
  Dy  Dy1  1  0.039795  0.240443  0.799351  1
  Dy  Dy2  1  0.960429  0.759500  0.200929  1
  Dy  Dy3  1  0.187892  0.288222  0.475928  1
  Dy  Dy4  1  0.811957  0.711534  0.523781  1
  Dy  Dy5  1  0.187892  0.711964  0.899670  1
  Dy  Dy6  1  0.811957  0.288175  0.100423  1
  Dy  Dy7  1  0.305456  0.615821  0.310428  1
  Dy  Dy8  1  0.694437  0.383950  0.689142  1
  Dy  Dy9  1  0.305456  0.995029  0.689636  1
  Dy  Dy10  1  0.694437  0.005295  0.310486  1
  Ho  Ho11  1  0.441403  0.240106  0.201298  1
  In  In12  1  0.500017  0.499822  0.000195  1
  In  In13  1  0.000462  0.000305  0.000157  1
  Co  Co14  1  0.107462  0.607448  0.500013  1
  Co  Co15  1  0.892251  0.392506  0.499745  1
  Si  Si16  1  0.363374  0.000346  0.363028  1
  Si  Si17  1  0.636700  0.000012  0.636688  1
