# generated using pymatgen
data_Tb2Dy3PPb3
_symmetry_space_group_name_H-M   'P 1'
_cell_length_a   9.18108214
_cell_length_b   9.18108135
_cell_length_c   6.80492700
_cell_angle_alpha   90.00000000
_cell_angle_beta   90.00000000
_cell_angle_gamma   119.97993084
_symmetry_Int_Tables_number   1
_chemical_formula_structural   Tb2Dy3PPb3
_chemical_formula_sum   'Tb4 Dy6 P2 Pb6'
_cell_volume   496.85492899
_cell_formula_units_Z   2
loop_
 _symmetry_equiv_pos_site_id
 _symmetry_equiv_pos_as_xyz
  1  'x, y, z'
loop_
 _atom_site_type_symbol
 _atom_site_label
 _atom_site_symmetry_multiplicity
 _atom_site_fract_x
 _atom_site_fract_y
 _atom_site_fract_z
 _atom_site_occupancy
  Tb  Tb0  1  0.761868  0.761868  0.750000  1
  Tb  Tb1  1  0.238093  0.999986  0.750000  1
  Tb  Tb2  1  0.999986  0.238093  0.750000  1
  Tb  Tb3  1  0.238072  0.238072  0.250000  1
  Dy  Dy4  1  0.762344  0.999940  0.250000  1
  Dy  Dy5  1  0.999940  0.762344  0.250000  1
  Dy  Dy6  1  0.666714  0.333370  0.000039  1
  Dy  Dy7  1  0.333370  0.666714  0.000039  1
  Dy  Dy8  1  0.333370  0.666714  0.499961  1
  Dy  Dy9  1  0.666714  0.333370  0.499961  1
  P  P10  1  0.999722  0.999722  0.000523  1
  P  P11  1  0.999722  0.999722  0.499477  1
  Pb  Pb12  1  0.399946  0.399946  0.750000  1
  Pb  Pb13  1  0.600032  0.000010  0.750000  1
  Pb  Pb14  1  0.000010  0.600032  0.750000  1
  Pb  Pb15  1  0.600349  0.600349  0.250000  1
  Pb  Pb16  1  0.399881  0.999869  0.250000  1
  Pb  Pb17  1  0.999869  0.399881  0.250000  1
