# generated using pymatgen
data_NdErMgNi9
_symmetry_space_group_name_H-M   'P 1'
_cell_length_a   8.50267728
_cell_length_b   8.50267789
_cell_length_c   8.50267599
_cell_angle_alpha   33.86258801
_cell_angle_beta   33.86257948
_cell_angle_gamma   33.86258600
_symmetry_Int_Tables_number   1
_chemical_formula_structural   NdErMgNi9
_chemical_formula_sum   'Nd1 Er1 Mg1 Ni9'
_cell_volume   170.08098539
_cell_formula_units_Z   1
loop_
 _symmetry_equiv_pos_site_id
 _symmetry_equiv_pos_as_xyz
  1  'x, y, z'
loop_
 _atom_site_type_symbol
 _atom_site_label
 _atom_site_symmetry_multiplicity
 _atom_site_fract_x
 _atom_site_fract_y
 _atom_site_fract_z
 _atom_site_occupancy
  Nd  Nd0  1  0.996502  0.996502  0.996502  1
  Er  Er1  1  0.143750  0.143750  0.143750  1
  Mg  Mg2  1  0.859644  0.859644  0.859644  1
  Ni  Ni3  1  0.500484  0.500484  0.500484  1
  Ni  Ni4  1  0.667415  0.667415  0.667415  1
  Ni  Ni5  1  0.333276  0.333276  0.333276  1
  Ni  Ni6  1  0.415634  0.915798  0.415634  1
  Ni  Ni7  1  0.415634  0.415634  0.915798  1
  Ni  Ni8  1  0.915798  0.415634  0.415634  1
  Ni  Ni9  1  0.584756  0.082350  0.584756  1
  Ni  Ni10  1  0.584756  0.584756  0.082350  1
  Ni  Ni11  1  0.082350  0.584756  0.584756  1
