# generated using pymatgen
data_ScU3Bi5
_symmetry_space_group_name_H-M   'P 1'
_cell_length_a   9.51940200
_cell_length_b   9.51921337
_cell_length_c   6.43111300
_cell_angle_alpha   90.00000000
_cell_angle_beta   90.00000000
_cell_angle_gamma   119.99933918
_symmetry_Int_Tables_number   1
_chemical_formula_structural   ScU3Bi5
_chemical_formula_sum   'Sc2 U6 Bi10'
_cell_volume   504.69661625
_cell_formula_units_Z   2
loop_
 _symmetry_equiv_pos_site_id
 _symmetry_equiv_pos_as_xyz
  1  'x, y, z'
loop_
 _atom_site_type_symbol
 _atom_site_label
 _atom_site_symmetry_multiplicity
 _atom_site_fract_x
 _atom_site_fract_y
 _atom_site_fract_z
 _atom_site_occupancy
  Sc  Sc0  1  0.000000  0.000000  0.000000  1
  Sc  Sc1  1  0.000000  0.000000  0.500000  1
  U  U2  1  0.387462  0.999934  0.750000  1
  U  U3  1  0.387462  0.387528  0.250000  1
  U  U4  1  0.000000  0.612794  0.250000  1
  U  U5  1  0.000000  0.387206  0.750000  1
  U  U6  1  0.612538  0.612472  0.750000  1
  U  U7  1  0.612538  0.000066  0.250000  1
  Bi  Bi8  1  0.666629  0.333314  0.500000  1
  Bi  Bi9  1  0.333371  0.666686  0.000000  1
  Bi  Bi10  1  0.731556  0.000003  0.750000  1
  Bi  Bi11  1  0.731556  0.731554  0.250000  1
  Bi  Bi12  1  0.333371  0.666686  0.500000  1
  Bi  Bi13  1  0.666629  0.333314  0.000000  1
  Bi  Bi14  1  0.268444  0.999997  0.250000  1
  Bi  Bi15  1  0.268444  0.268446  0.750000  1
  Bi  Bi16  1  0.000000  0.731602  0.750000  1
  Bi  Bi17  1  0.000000  0.268398  0.250000  1
