# generated using pymatgen
data_Ag2Sb2O7
_symmetry_space_group_name_H-M   'P 1'
_cell_length_a   7.35687866
_cell_length_b   7.35687829
_cell_length_c   7.35687800
_cell_angle_alpha   60.00000131
_cell_angle_beta   60.00000296
_cell_angle_gamma   60.00000032
_symmetry_Int_Tables_number   1
_chemical_formula_structural   Ag2Sb2O7
_chemical_formula_sum   'Ag4 Sb4 O14'
_cell_volume   281.55661524
_cell_formula_units_Z   2
loop_
 _symmetry_equiv_pos_site_id
 _symmetry_equiv_pos_as_xyz
  1  'x, y, z'
loop_
 _atom_site_type_symbol
 _atom_site_label
 _atom_site_symmetry_multiplicity
 _atom_site_fract_x
 _atom_site_fract_y
 _atom_site_fract_z
 _atom_site_occupancy
  Ag  Ag0  1  0.625000  0.625000  0.625000  1
  Ag  Ag1  1  0.625000  0.125000  0.625000  1
  Ag  Ag2  1  0.625000  0.625000  0.125000  1
  Ag  Ag3  1  0.125000  0.625000  0.625000  1
  Sb  Sb4  1  0.125000  0.625000  0.125000  1
  Sb  Sb5  1  0.125000  0.125000  0.125000  1
  Sb  Sb6  1  0.125000  0.125000  0.625000  1
  Sb  Sb7  1  0.625000  0.125000  0.125000  1
  O  O8  1  0.800052  0.800052  0.199948  1
  O  O9  1  0.800052  0.199948  0.800052  1
  O  O10  1  0.050052  0.050052  0.449948  1
  O  O11  1  0.800052  0.199948  0.199948  1
  O  O12  1  0.449948  0.449948  0.050052  1
  O  O13  1  0.050052  0.449948  0.050052  1
  O  O14  1  0.199948  0.800052  0.800052  1
  O  O15  1  0.449948  0.050052  0.449948  1
  O  O16  1  0.500000  0.500000  0.500000  1
  O  O17  1  0.199948  0.800052  0.199948  1
  O  O18  1  0.199948  0.199948  0.800052  1
  O  O19  1  0.750000  0.750000  0.750000  1
  O  O20  1  0.449948  0.050052  0.050052  1
  O  O21  1  0.050052  0.449948  0.449948  1
