# generated using pymatgen
data_DyThNi2Hg
_symmetry_space_group_name_H-M   'P 1'
_cell_length_a   7.52331175
_cell_length_b   7.52331074
_cell_length_c   3.65824900
_cell_angle_alpha   90.00000000
_cell_angle_beta   90.00000000
_cell_angle_gamma   92.52050066
_symmetry_Int_Tables_number   1
_chemical_formula_structural   DyThNi2Hg
_chemical_formula_sum   'Dy2 Th2 Ni4 Hg2'
_cell_volume   206.85735139
_cell_formula_units_Z   2
loop_
 _symmetry_equiv_pos_site_id
 _symmetry_equiv_pos_as_xyz
  1  'x, y, z'
loop_
 _atom_site_type_symbol
 _atom_site_label
 _atom_site_symmetry_multiplicity
 _atom_site_fract_x
 _atom_site_fract_y
 _atom_site_fract_z
 _atom_site_occupancy
  Dy  Dy0  1  0.173673  0.326327  0.500000  1
  Dy  Dy1  1  0.826327  0.673673  0.500000  1
  Th  Th2  1  0.676289  0.176289  0.500000  1
  Th  Th3  1  0.323711  0.823711  0.500000  1
  Ni  Ni4  1  0.878348  0.378348  0.000000  1
  Ni  Ni5  1  0.121652  0.621652  0.000000  1
  Ni  Ni6  1  0.381757  0.118243  0.000000  1
  Ni  Ni7  1  0.618243  0.881757  0.000000  1
  Hg  Hg8  1  0.500000  0.500000  0.000000  1
  Hg  Hg9  1  0.000000  0.000000  0.000000  1
