# generated using pymatgen
data_La2Pr4Al21Si3Os8
_symmetry_space_group_name_H-M   'P 1'
_cell_length_a   8.83665000
_cell_length_b   8.85376772
_cell_length_c   9.78487854
_cell_angle_alpha   90.03325355
_cell_angle_beta   90.00000000
_cell_angle_gamma   119.93605734
_symmetry_Int_Tables_number   1
_chemical_formula_structural   La2Pr4Al21Si3Os8
_chemical_formula_sum   'La2 Pr4 Al21 Si3 Os8'
_cell_volume   663.40878668
_cell_formula_units_Z   1
loop_
 _symmetry_equiv_pos_site_id
 _symmetry_equiv_pos_as_xyz
  1  'x, y, z'
loop_
 _atom_site_type_symbol
 _atom_site_label
 _atom_site_symmetry_multiplicity
 _atom_site_fract_x
 _atom_site_fract_y
 _atom_site_fract_z
 _atom_site_occupancy
  La  La0  1  0.193304  0.386607  0.249076  1
  La  La1  1  0.806565  0.613130  0.751436  1
  Pr  Pr2  1  0.614822  0.807859  0.248924  1
  Pr  Pr3  1  0.385388  0.191978  0.751607  1
  Pr  Pr4  1  0.193038  0.807859  0.248924  1
  Pr  Pr5  1  0.806590  0.191978  0.751607  1
  Al  Al6  1  0.333778  0.667557  0.485236  1
  Al  Al7  1  0.164272  0.328543  0.572831  1
  Al  Al8  1  0.834833  0.669665  0.425337  1
  Al  Al9  1  0.671597  0.836722  0.571746  1
  Al  Al10  1  0.835098  0.670198  0.075031  1
  Al  Al11  1  0.331112  0.164832  0.426517  1
  Al  Al12  1  0.164973  0.329947  0.924929  1
  Al  Al13  1  0.165126  0.836722  0.571746  1
  Al  Al14  1  0.330644  0.164763  0.074215  1
  Al  Al15  1  0.833720  0.164832  0.426517  1
  Al  Al16  1  0.669408  0.835269  0.925803  1
  Al  Al17  1  0.834118  0.164763  0.074215  1
  Al  Al18  1  0.165861  0.835269  0.925803  1
  Al  Al19  1  0.564667  0.129333  0.249342  1
  Al  Al20  1  0.435906  0.871812  0.748105  1
  Al  Al21  1  0.870312  0.435936  0.249188  1
  Al  Al22  1  0.128201  0.563154  0.748334  1
  Al  Al23  1  0.565624  0.435936  0.249188  1
  Al  Al24  1  0.434952  0.563154  0.748334  1
  Al  Al25  1  0.000323  0.000646  0.249169  1
  Al  Al26  1  0.999717  0.999434  0.749243  1
  Si  Si27  1  0.334085  0.668171  0.028172  1
  Si  Si28  1  0.665950  0.331899  0.969906  1
  Si  Si29  1  0.665596  0.331190  0.531393  1
  Os  Os30  1  0.499649  0.999297  0.998969  1
  Os  Os31  1  0.000823  0.500368  0.999147  1
  Os  Os32  1  0.503993  0.007986  0.500747  1
  Os  Os33  1  0.499546  0.500368  0.999147  1
  Os  Os34  1  0.991826  0.496050  0.500838  1
  Os  Os35  1  0.504224  0.496050  0.500838  1
  Os  Os36  1  0.000088  0.000177  0.999133  1
  Os  Os37  1  0.000271  0.000542  0.499307  1
