# generated using pymatgen
data_Sc12Co3Si12Rh
_symmetry_space_group_name_H-M   'P 1'
_cell_length_a   4.00460600
_cell_length_b   10.07108652
_cell_length_c   11.65332956
_cell_angle_alpha   89.79997260
_cell_angle_beta   90.00000000
_cell_angle_gamma   90.00000000
_symmetry_Int_Tables_number   1
_chemical_formula_structural   Sc12Co3Si12Rh
_chemical_formula_sum   'Sc12 Co3 Si12 Rh1'
_cell_volume   469.98446444
_cell_formula_units_Z   1
loop_
 _symmetry_equiv_pos_site_id
 _symmetry_equiv_pos_as_xyz
  1  'x, y, z'
loop_
 _atom_site_type_symbol
 _atom_site_label
 _atom_site_symmetry_multiplicity
 _atom_site_fract_x
 _atom_site_fract_y
 _atom_site_fract_z
 _atom_site_occupancy
  Sc  Sc0  1  0.250000  0.880220  0.023959  1
  Sc  Sc1  1  0.250000  0.618602  0.522653  1
  Sc  Sc2  1  0.750000  0.123959  0.978992  1
  Sc  Sc3  1  0.750000  0.379846  0.474828  1
  Sc  Sc4  1  0.250000  0.919731  0.601448  1
  Sc  Sc5  1  0.250000  0.579152  0.100869  1
  Sc  Sc6  1  0.750000  0.079410  0.400387  1
  Sc  Sc7  1  0.750000  0.420797  0.901454  1
  Sc  Sc8  1  0.250000  0.652054  0.799422  1
  Sc  Sc9  1  0.250000  0.841960  0.299772  1
  Sc  Sc10  1  0.750000  0.342266  0.200285  1
  Sc  Sc11  1  0.750000  0.164267  0.698900  1
  Co  Co12  1  0.250000  0.389084  0.676023  1
  Co  Co13  1  0.250000  0.110674  0.178011  1
  Co  Co14  1  0.750000  0.609876  0.322604  1
  Si  Si15  1  0.250000  0.016637  0.822643  1
  Si  Si16  1  0.250000  0.493554  0.321381  1
  Si  Si17  1  0.750000  0.993640  0.179199  1
  Si  Si18  1  0.750000  0.503154  0.677961  1
  Si  Si19  1  0.250000  0.256253  0.838123  1
  Si  Si20  1  0.250000  0.247395  0.337373  1
  Si  Si21  1  0.750000  0.747266  0.163121  1
  Si  Si22  1  0.750000  0.746215  0.657384  1
  Si  Si23  1  0.250000  0.199433  0.545232  1
  Si  Si24  1  0.250000  0.301744  0.046948  1
  Si  Si25  1  0.750000  0.799576  0.452333  1
  Si  Si26  1  0.750000  0.694398  0.957114  1
  Rh  Rh27  1  0.750000  0.888834  0.821583  1
