# generated using pymatgen
data_TbEr(Si7Ir3)2
_symmetry_space_group_name_H-M   'P 1'
_cell_length_a   8.04426562
_cell_length_b   8.04426573
_cell_length_c   8.04426527
_cell_angle_alpha   56.48438346
_cell_angle_beta   56.48438076
_cell_angle_gamma   56.48438973
_symmetry_Int_Tables_number   1
_chemical_formula_structural   TbEr(Si7Ir3)2
_chemical_formula_sum   'Tb1 Er1 Si14 Ir6'
_cell_volume   338.16973477
_cell_formula_units_Z   1
loop_
 _symmetry_equiv_pos_site_id
 _symmetry_equiv_pos_as_xyz
  1  'x, y, z'
loop_
 _atom_site_type_symbol
 _atom_site_label
 _atom_site_symmetry_multiplicity
 _atom_site_fract_x
 _atom_site_fract_y
 _atom_site_fract_z
 _atom_site_occupancy
  Tb  Tb0  1  0.500000  0.500000  0.500000  1
  Er  Er1  1  0.000000  0.000000  0.000000  1
  Si  Si2  1  0.850371  0.064025  0.672766  1
  Si  Si3  1  0.672766  0.850371  0.064025  1
  Si  Si4  1  0.064025  0.672766  0.850371  1
  Si  Si5  1  0.649414  0.827522  0.435815  1
  Si  Si6  1  0.249905  0.249905  0.249905  1
  Si  Si7  1  0.750095  0.750095  0.750095  1
  Si  Si8  1  0.172478  0.564185  0.350586  1
  Si  Si9  1  0.564185  0.350586  0.172478  1
  Si  Si10  1  0.350586  0.172478  0.564185  1
  Si  Si11  1  0.935975  0.327234  0.149629  1
  Si  Si12  1  0.327234  0.149629  0.935975  1
  Si  Si13  1  0.149629  0.935975  0.327234  1
  Si  Si14  1  0.827522  0.435815  0.649414  1
  Si  Si15  1  0.435815  0.649414  0.827522  1
  Ir  Ir16  1  0.750718  0.070036  0.428788  1
  Ir  Ir17  1  0.428788  0.750718  0.070036  1
  Ir  Ir18  1  0.070036  0.428788  0.750718  1
  Ir  Ir19  1  0.249282  0.929964  0.571212  1
  Ir  Ir20  1  0.571212  0.249282  0.929964  1
  Ir  Ir21  1  0.929964  0.571212  0.249282  1
