# generated using pymatgen
data_Yb10GaNi4Sb
_symmetry_space_group_name_H-M   'P 1'
_cell_length_a   8.85411547
_cell_length_b   8.85411533
_cell_length_c   8.85411500
_cell_angle_alpha   129.16769694
_cell_angle_beta   129.16769619
_cell_angle_gamma   74.74089438
_symmetry_Int_Tables_number   1
_chemical_formula_structural   Yb10GaNi4Sb
_chemical_formula_sum   'Yb10 Ga1 Ni4 Sb1'
_cell_volume   406.45514601
_cell_formula_units_Z   1
loop_
 _symmetry_equiv_pos_site_id
 _symmetry_equiv_pos_as_xyz
  1  'x, y, z'
loop_
 _atom_site_type_symbol
 _atom_site_label
 _atom_site_symmetry_multiplicity
 _atom_site_fract_x
 _atom_site_fract_y
 _atom_site_fract_z
 _atom_site_occupancy
  Yb  Yb0  1  0.495282  0.495282  0.000000  1
  Yb  Yb1  1  0.004718  0.004718  0.000000  1
  Yb  Yb2  1  0.542408  0.034081  0.842097  1
  Yb  Yb3  1  0.191985  0.700313  0.157903  1
  Yb  Yb4  1  0.034081  0.191985  0.491673  1
  Yb  Yb5  1  0.700313  0.542408  0.508327  1
  Yb  Yb6  1  0.465919  0.957592  0.157903  1
  Yb  Yb7  1  0.799687  0.308015  0.842097  1
  Yb  Yb8  1  0.957592  0.799687  0.491673  1
  Yb  Yb9  1  0.308015  0.465919  0.508327  1
  Ga  Ga10  1  0.750000  0.750000  0.000000  1
  Ni  Ni11  1  0.111862  0.611862  0.723726  1
  Ni  Ni12  1  0.888138  0.388138  0.276274  1
  Ni  Ni13  1  0.611862  0.888138  0.500000  1
  Ni  Ni14  1  0.388138  0.111862  0.500000  1
  Sb  Sb15  1  0.250000  0.250000  0.000000  1
