# generated using pymatgen
data_Er4Al6ReRh
_symmetry_space_group_name_H-M   'P 1'
_cell_length_a   5.47116600
_cell_length_b   5.47116486
_cell_length_c   8.82516900
_cell_angle_alpha   90.00000000
_cell_angle_beta   90.00000000
_cell_angle_gamma   119.99999483
_symmetry_Int_Tables_number   1
_chemical_formula_structural   Er4Al6ReRh
_chemical_formula_sum   'Er4 Al6 Re1 Rh1'
_cell_volume   228.77753587
_cell_formula_units_Z   1
loop_
 _symmetry_equiv_pos_site_id
 _symmetry_equiv_pos_as_xyz
  1  'x, y, z'
loop_
 _atom_site_type_symbol
 _atom_site_label
 _atom_site_symmetry_multiplicity
 _atom_site_fract_x
 _atom_site_fract_y
 _atom_site_fract_z
 _atom_site_occupancy
  Er  Er0  1  0.666667  0.333333  0.052391  1
  Er  Er1  1  0.666667  0.333333  0.444722  1
  Er  Er2  1  0.333334  0.666668  0.555277  1
  Er  Er3  1  0.333334  0.666668  0.947610  1
  Al  Al4  1  0.163209  0.326420  0.248276  1
  Al  Al5  1  0.163210  0.836791  0.248276  1
  Al  Al6  1  0.673580  0.836791  0.248276  1
  Al  Al7  1  0.326419  0.163209  0.751724  1
  Al  Al8  1  0.836791  0.163209  0.751724  1
  Al  Al9  1  0.836792  0.673581  0.751724  1
  Re  Re10  1  0.000000  0.000000  0.499999  1
  Rh  Rh11  1  0.000000  0.000000  0.000000  1
