# generated using pymatgen
data_Er6Tm10Cd4CoIrRu2
_symmetry_space_group_name_H-M   'P 1'
_cell_length_a   9.50484902
_cell_length_b   9.46310928
_cell_length_c   9.55492300
_cell_angle_alpha   59.67853237
_cell_angle_beta   59.82557742
_cell_angle_gamma   59.53148177
_symmetry_Int_Tables_number   1
_chemical_formula_structural   Er6Tm10Cd4CoIrRu2
_chemical_formula_sum   'Er6 Tm10 Cd4 Co1 Ir1 Ru2'
_cell_volume   603.25670244
_cell_formula_units_Z   1
loop_
 _symmetry_equiv_pos_site_id
 _symmetry_equiv_pos_as_xyz
  1  'x, y, z'
loop_
 _atom_site_type_symbol
 _atom_site_label
 _atom_site_symmetry_multiplicity
 _atom_site_fract_x
 _atom_site_fract_y
 _atom_site_fract_z
 _atom_site_occupancy
  Er  Er0  1  0.187201  0.808982  0.815109  1
  Er  Er1  1  0.808479  0.189353  0.189614  1
  Er  Er2  1  0.808479  0.189353  0.812556  1
  Er  Er3  1  0.187201  0.808982  0.188709  1
  Er  Er4  1  0.811775  0.809258  0.189484  1
  Er  Er5  1  0.188347  0.188903  0.811375  1
  Tm  Tm6  1  0.594695  0.603269  0.595149  1
  Tm  Tm7  1  0.594695  0.603269  0.206887  1
  Tm  Tm8  1  0.597223  0.208852  0.596962  1
  Tm  Tm9  1  0.213099  0.601111  0.592895  1
  Tm  Tm10  1  0.062363  0.436766  0.440912  1
  Tm  Tm11  1  0.436456  0.058147  0.066019  1
  Tm  Tm12  1  0.436456  0.058147  0.439378  1
  Tm  Tm13  1  0.062363  0.436766  0.059959  1
  Tm  Tm14  1  0.438049  0.437495  0.062228  1
  Tm  Tm15  1  0.065402  0.055956  0.439321  1
  Cd  Cd16  1  0.831027  0.829999  0.830349  1
  Cd  Cd17  1  0.831027  0.829999  0.508623  1
  Cd  Cd18  1  0.831329  0.506653  0.831008  1
  Cd  Cd19  1  0.506615  0.830678  0.831352  1
  Co  Co20  1  0.395153  0.828194  0.388326  1
  Ir  Ir21  1  0.827095  0.395227  0.388839  1
  Ru  Ru22  1  0.392736  0.392321  0.386683  1
  Ru  Ru23  1  0.392736  0.392321  0.828259  1
