# generated using pymatgen
data_Pr4DyHo3(ScSi4)2
_symmetry_space_group_name_H-M   'P 1'
_cell_length_a   7.38319854
_cell_length_b   7.75405249
_cell_length_c   14.72755529
_cell_angle_alpha   89.98784215
_cell_angle_beta   90.01943613
_cell_angle_gamma   90.03910124
_symmetry_Int_Tables_number   1
_chemical_formula_structural   Pr4DyHo3(ScSi4)2
_chemical_formula_sum   'Pr8 Dy2 Ho6 Sc4 Si16'
_cell_volume   843.14799153
_cell_formula_units_Z   2
loop_
 _symmetry_equiv_pos_site_id
 _symmetry_equiv_pos_as_xyz
  1  'x, y, z'
loop_
 _atom_site_type_symbol
 _atom_site_label
 _atom_site_symmetry_multiplicity
 _atom_site_fract_x
 _atom_site_fract_y
 _atom_site_fract_z
 _atom_site_occupancy
  Pr  Pr0  1  0.017279  0.178843  0.401057  1
  Pr  Pr1  1  0.517271  0.321167  0.401056  1
  Pr  Pr2  1  0.482792  0.678760  0.901142  1
  Pr  Pr3  1  0.482729  0.678833  0.598944  1
  Pr  Pr4  1  0.982721  0.821157  0.598943  1
  Pr  Pr5  1  0.982732  0.821151  0.901123  1
  Pr  Pr6  1  0.517208  0.321240  0.098858  1
  Pr  Pr7  1  0.017268  0.178849  0.098877  1
  Dy  Dy8  1  0.323914  0.177915  0.624735  1
  Dy  Dy9  1  0.676086  0.822085  0.375265  1
  Ho  Ho10  1  0.176081  0.677681  0.375187  1
  Ho  Ho11  1  0.824007  0.322259  0.875249  1
  Ho  Ho12  1  0.823919  0.322319  0.624813  1
  Ho  Ho13  1  0.324053  0.177749  0.875279  1
  Ho  Ho14  1  0.175993  0.677741  0.124751  1
  Ho  Ho15  1  0.675947  0.822251  0.124721  1
  Sc  Sc16  1  0.656737  0.990275  0.750040  1
  Sc  Sc17  1  0.843366  0.490159  0.249939  1
  Sc  Sc18  1  0.343263  0.009725  0.249960  1
  Sc  Sc19  1  0.156634  0.509841  0.750061  1
  Si  Si20  1  0.281518  0.874620  0.750147  1
  Si  Si21  1  0.474427  0.607879  0.249812  1
  Si  Si22  1  0.024871  0.108144  0.750219  1
  Si  Si23  1  0.525573  0.392121  0.750188  1
  Si  Si24  1  0.148086  0.467744  0.539198  1
  Si  Si25  1  0.975129  0.891856  0.249781  1
  Si  Si26  1  0.718482  0.125380  0.249853  1
  Si  Si27  1  0.851487  0.532539  0.039303  1
  Si  Si28  1  0.351517  0.967446  0.039257  1
  Si  Si29  1  0.148513  0.467461  0.960697  1
  Si  Si30  1  0.648761  0.032580  0.539381  1
  Si  Si31  1  0.351239  0.967420  0.460619  1
  Si  Si32  1  0.851914  0.532256  0.460802  1
  Si  Si33  1  0.781528  0.625030  0.750048  1
  Si  Si34  1  0.218472  0.374970  0.249952  1
  Si  Si35  1  0.648483  0.032554  0.960743  1
