# generated using pymatgen
data_Tm8Nb11Si16Tc
_symmetry_space_group_name_H-M   'P 1'
_cell_length_a   6.79898192
_cell_length_b   7.02823083
_cell_length_c   13.31738300
_cell_angle_alpha   90.00000000
_cell_angle_beta   90.00000000
_cell_angle_gamma   89.99207521
_symmetry_Int_Tables_number   1
_chemical_formula_structural   Tm8Nb11Si16Tc
_chemical_formula_sum   'Tm8 Nb11 Si16 Tc1'
_cell_volume   636.36866858
_cell_formula_units_Z   1
loop_
 _symmetry_equiv_pos_site_id
 _symmetry_equiv_pos_as_xyz
  1  'x, y, z'
loop_
 _atom_site_type_symbol
 _atom_site_label
 _atom_site_symmetry_multiplicity
 _atom_site_fract_x
 _atom_site_fract_y
 _atom_site_fract_z
 _atom_site_occupancy
  Tm  Tm0  1  0.004229  0.172413  0.095401  1
  Tm  Tm1  1  0.997642  0.827404  0.904479  1
  Tm  Tm2  1  0.496898  0.672662  0.904543  1
  Tm  Tm3  1  0.997642  0.827404  0.595521  1
  Tm  Tm4  1  0.503805  0.327252  0.095637  1
  Tm  Tm5  1  0.004229  0.172413  0.404599  1
  Tm  Tm6  1  0.503805  0.327252  0.404363  1
  Tm  Tm7  1  0.496898  0.672662  0.595457  1
  Nb  Nb8  1  0.161393  0.492866  0.750000  1
  Nb  Nb9  1  0.838987  0.506764  0.250000  1
  Nb  Nb10  1  0.339042  0.992600  0.250000  1
  Nb  Nb11  1  0.333193  0.171857  0.626525  1
  Nb  Nb12  1  0.664826  0.826079  0.375810  1
  Nb  Nb13  1  0.164744  0.674080  0.374962  1
  Nb  Nb14  1  0.664826  0.826079  0.124190  1
  Nb  Nb15  1  0.833929  0.328032  0.626121  1
  Nb  Nb16  1  0.333193  0.171857  0.873475  1
  Nb  Nb17  1  0.833929  0.328032  0.873879  1
  Nb  Nb18  1  0.164744  0.674080  0.125038  1
  Si  Si19  1  0.030147  0.118679  0.750000  1
  Si  Si20  1  0.961514  0.879228  0.250000  1
  Si  Si21  1  0.462755  0.619795  0.250000  1
  Si  Si22  1  0.539824  0.376493  0.750000  1
  Si  Si23  1  0.301068  0.872312  0.750000  1
  Si  Si24  1  0.707063  0.128979  0.250000  1
  Si  Si25  1  0.207068  0.370630  0.250000  1
  Si  Si26  1  0.794517  0.634351  0.750000  1
  Si  Si27  1  0.163836  0.463898  0.541297  1
  Si  Si28  1  0.836348  0.536149  0.459154  1
  Si  Si29  1  0.335775  0.963402  0.459710  1
  Si  Si30  1  0.836348  0.536149  0.040846  1
  Si  Si31  1  0.662852  0.037774  0.542885  1
  Si  Si32  1  0.163836  0.463898  0.958703  1
  Si  Si33  1  0.662852  0.037774  0.957115  1
  Si  Si34  1  0.335775  0.963402  0.040290  1
  Tc  Tc35  1  0.660468  0.005300  0.750000  1
