# generated using pymatgen
data_Tb2Sc2ReB12Ru
_symmetry_space_group_name_H-M   'P 1'
_cell_length_a   3.58477200
_cell_length_b   8.99410936
_cell_length_c   11.39826725
_cell_angle_alpha   90.09899612
_cell_angle_beta   90.00000000
_cell_angle_gamma   90.00000000
_symmetry_Int_Tables_number   1
_chemical_formula_structural   Tb2Sc2ReB12Ru
_chemical_formula_sum   'Tb4 Sc4 Re2 B24 Ru2'
_cell_volume   367.50046232
_cell_formula_units_Z   2
loop_
 _symmetry_equiv_pos_site_id
 _symmetry_equiv_pos_as_xyz
  1  'x, y, z'
loop_
 _atom_site_type_symbol
 _atom_site_label
 _atom_site_symmetry_multiplicity
 _atom_site_fract_x
 _atom_site_fract_y
 _atom_site_fract_z
 _atom_site_occupancy
  Tb  Tb0  1  0.000000  0.320234  0.413747  1
  Tb  Tb1  1  0.000000  0.679766  0.586253  1
  Tb  Tb2  1  0.000000  0.822477  0.085069  1
  Tb  Tb3  1  0.000000  0.177523  0.914931  1
  Sc  Sc4  1  0.000000  0.945537  0.371298  1
  Sc  Sc5  1  0.000000  0.054463  0.628702  1
  Sc  Sc6  1  0.000000  0.443595  0.128471  1
  Sc  Sc7  1  0.000000  0.556405  0.871529  1
  Re  Re8  1  0.000000  0.140736  0.182146  1
  Re  Re9  1  0.000000  0.859264  0.817854  1
  B  B10  1  0.500000  0.555410  0.432033  1
  B  B11  1  0.500000  0.444590  0.567967  1
  B  B12  1  0.500000  0.054525  0.067581  1
  B  B13  1  0.500000  0.945475  0.932419  1
  B  B14  1  0.500000  0.753728  0.417686  1
  B  B15  1  0.500000  0.246272  0.582314  1
  B  B16  1  0.500000  0.254081  0.081932  1
  B  B17  1  0.500000  0.745919  0.918068  1
  B  B18  1  0.500000  0.793738  0.265273  1
  B  B19  1  0.500000  0.206262  0.734727  1
  B  B20  1  0.500000  0.295018  0.235344  1
  B  B21  1  0.500000  0.704982  0.764656  1
  B  B22  1  0.500000  0.628852  0.183431  1
  B  B23  1  0.500000  0.371148  0.816569  1
  B  B24  1  0.500000  0.129178  0.317221  1
  B  B25  1  0.500000  0.870822  0.682779  1
  B  B26  1  0.500000  0.981676  0.214422  1
  B  B27  1  0.500000  0.018324  0.785578  1
  B  B28  1  0.500000  0.482536  0.286030  1
  B  B29  1  0.500000  0.517464  0.713970  1
  B  B30  1  0.500000  0.596797  0.026265  1
  B  B31  1  0.500000  0.403203  0.973735  1
  B  B32  1  0.500000  0.097324  0.473869  1
  B  B33  1  0.500000  0.902676  0.526131  1
  Ru  Ru34  1  0.000000  0.640432  0.318435  1
  Ru  Ru35  1  0.000000  0.359568  0.681565  1
