# generated using pymatgen
data_Pr11Sm(Si2Rh3)4
_symmetry_space_group_name_H-M   'P 1'
_cell_length_a   5.78538809
_cell_length_b   7.80685548
_cell_length_c   15.07151300
_cell_angle_alpha   90.00000000
_cell_angle_beta   90.00000000
_cell_angle_gamma   90.07042257
_symmetry_Int_Tables_number   1
_chemical_formula_structural   Pr11Sm(Si2Rh3)4
_chemical_formula_sum   'Pr11 Sm1 Si8 Rh12'
_cell_volume   680.71475022
_cell_formula_units_Z   1
loop_
 _symmetry_equiv_pos_site_id
 _symmetry_equiv_pos_as_xyz
  1  'x, y, z'
loop_
 _atom_site_type_symbol
 _atom_site_label
 _atom_site_symmetry_multiplicity
 _atom_site_fract_x
 _atom_site_fract_y
 _atom_site_fract_z
 _atom_site_occupancy
  Pr  Pr0  1  0.142140  0.473029  0.889910  1
  Pr  Pr1  1  0.359082  0.975114  0.890555  1
  Pr  Pr2  1  0.382219  0.664395  0.250000  1
  Pr  Pr3  1  0.641200  0.025599  0.390875  1
  Pr  Pr4  1  0.858907  0.526096  0.108884  1
  Pr  Pr5  1  0.858907  0.526096  0.391116  1
  Pr  Pr6  1  0.359082  0.975114  0.609445  1
  Pr  Pr7  1  0.880928  0.836199  0.750000  1
  Pr  Pr8  1  0.142140  0.473029  0.610090  1
  Pr  Pr9  1  0.641200  0.025599  0.109125  1
  Pr  Pr10  1  0.118227  0.164551  0.250000  1
  Sm  Sm11  1  0.622250  0.336922  0.750000  1
  Si  Si12  1  0.366374  0.372704  0.096992  1
  Si  Si13  1  0.633573  0.626518  0.901997  1
  Si  Si14  1  0.865367  0.127800  0.901622  1
  Si  Si15  1  0.366374  0.372704  0.403008  1
  Si  Si16  1  0.865367  0.127800  0.598378  1
  Si  Si17  1  0.633573  0.626518  0.598003  1
  Si  Si18  1  0.133423  0.872864  0.402911  1
  Si  Si19  1  0.133423  0.872864  0.097089  1
  Rh  Rh20  1  0.601768  0.338303  0.961515  1
  Rh  Rh21  1  0.397307  0.661712  0.037301  1
  Rh  Rh22  1  0.572687  0.318127  0.250000  1
  Rh  Rh23  1  0.397307  0.661712  0.462699  1
  Rh  Rh24  1  0.069596  0.183351  0.750000  1
  Rh  Rh25  1  0.102221  0.161669  0.462788  1
  Rh  Rh26  1  0.431064  0.678146  0.750000  1
  Rh  Rh27  1  0.927647  0.818334  0.250000  1
  Rh  Rh28  1  0.102221  0.161669  0.037212  1
  Rh  Rh29  1  0.601768  0.338303  0.538485  1
  Rh  Rh30  1  0.896329  0.838579  0.538249  1
  Rh  Rh31  1  0.896329  0.838579  0.961751  1
