# generated using pymatgen
data_Li4Tb3Dy(SiO4)4
_symmetry_space_group_name_H-M   'P 1'
_cell_length_a   6.24948152
_cell_length_b   5.45889213
_cell_length_c   10.96667221
_cell_angle_alpha   66.41903720
_cell_angle_beta   90.04535243
_cell_angle_gamma   90.02781380
_symmetry_Int_Tables_number   1
_chemical_formula_structural   Li4Tb3Dy(SiO4)4
_chemical_formula_sum   'Li4 Tb3 Dy1 Si4 O16'
_cell_volume   342.88907753
_cell_formula_units_Z   1
loop_
 _symmetry_equiv_pos_site_id
 _symmetry_equiv_pos_as_xyz
  1  'x, y, z'
loop_
 _atom_site_type_symbol
 _atom_site_label
 _atom_site_symmetry_multiplicity
 _atom_site_fract_x
 _atom_site_fract_y
 _atom_site_fract_z
 _atom_site_occupancy
  Li  Li0  1  0.134054  0.919798  0.429803  1
  Li  Li1  1  0.633715  0.080121  0.070135  1
  Li  Li2  1  0.866262  0.080580  0.569918  1
  Li  Li3  1  0.366164  0.919631  0.929920  1
  Tb  Tb4  1  0.116558  0.445283  0.847807  1
  Tb  Tb5  1  0.883606  0.554427  0.152681  1
  Tb  Tb6  1  0.616293  0.554797  0.652060  1
  Dy  Dy7  1  0.383740  0.445553  0.347932  1
  Si  Si8  1  0.651058  0.904757  0.359119  1
  Si  Si9  1  0.348160  0.095716  0.640378  1
  Si  Si10  1  0.152594  0.094843  0.141386  1
  Si  Si11  1  0.848078  0.904795  0.859146  1
  O  O12  1  0.858474  0.230827  0.776367  1
  O  O13  1  0.640022  0.230962  0.276976  1
  O  O14  1  0.163864  0.185138  0.523917  1
  O  O15  1  0.837243  0.760021  0.752424  1
  O  O16  1  0.142751  0.768630  0.224081  1
  O  O17  1  0.570627  0.225705  0.554953  1
  O  O18  1  0.661645  0.759090  0.252731  1
  O  O19  1  0.428709  0.773264  0.444288  1
  O  O20  1  0.070817  0.774850  0.944399  1
  O  O21  1  0.663317  0.816158  0.975121  1
  O  O22  1  0.163897  0.240699  0.247668  1
  O  O23  1  0.929415  0.224298  0.056331  1
  O  O24  1  0.336756  0.183752  0.024954  1
  O  O25  1  0.337335  0.240108  0.747289  1
  O  O26  1  0.358362  0.769679  0.723299  1
  O  O27  1  0.836484  0.816520  0.474917  1
