# generated using pymatgen
data_Nd8Hf12Si15Ge
_symmetry_space_group_name_H-M   'P 1'
_cell_length_a   7.38834117
_cell_length_b   7.39654206
_cell_length_c   13.59989713
_cell_angle_alpha   89.91194652
_cell_angle_beta   89.98290750
_cell_angle_gamma   89.98095233
_symmetry_Int_Tables_number   1
_chemical_formula_structural   Nd8Hf12Si15Ge
_chemical_formula_sum   'Nd8 Hf12 Si15 Ge1'
_cell_volume   743.20862355
_cell_formula_units_Z   1
loop_
 _symmetry_equiv_pos_site_id
 _symmetry_equiv_pos_as_xyz
  1  'x, y, z'
loop_
 _atom_site_type_symbol
 _atom_site_label
 _atom_site_symmetry_multiplicity
 _atom_site_fract_x
 _atom_site_fract_y
 _atom_site_fract_z
 _atom_site_occupancy
  Nd  Nd0  1  0.993490  0.342880  0.214765  1
  Nd  Nd1  1  0.005855  0.657054  0.715385  1
  Nd  Nd2  1  0.155641  0.496003  0.466170  1
  Nd  Nd3  1  0.506454  0.842349  0.034246  1
  Nd  Nd4  1  0.843065  0.505692  0.965025  1
  Nd  Nd5  1  0.494773  0.156340  0.535550  1
  Nd  Nd6  1  0.342728  0.994348  0.784859  1
  Nd  Nd7  1  0.657824  0.004772  0.284527  1
  Hf  Hf8  1  0.174814  0.175136  0.999841  1
  Hf  Hf9  1  0.825039  0.825377  0.500202  1
  Hf  Hf10  1  0.325071  0.677454  0.249448  1
  Hf  Hf11  1  0.674913  0.325180  0.750038  1
  Hf  Hf12  1  0.149960  0.992852  0.373746  1
  Hf  Hf13  1  0.849107  0.005786  0.873926  1
  Hf  Hf14  1  0.505731  0.651189  0.623977  1
  Hf  Hf15  1  0.348889  0.493951  0.876119  1
  Hf  Hf16  1  0.493789  0.348592  0.122814  1
  Hf  Hf17  1  0.653707  0.508252  0.377042  1
  Hf  Hf18  1  0.994026  0.151188  0.626233  1
  Hf  Hf19  1  0.004990  0.848315  0.125516  1
  Si  Si20  1  0.634285  0.703977  0.814788  1
  Si  Si21  1  0.203728  0.866117  0.564934  1
  Si  Si22  1  0.134248  0.796086  0.934896  1
  Si  Si23  1  0.796122  0.134412  0.064633  1
  Si  Si24  1  0.865832  0.203497  0.435182  1
  Si  Si25  1  0.296288  0.365654  0.685248  1
  Si  Si26  1  0.703180  0.633951  0.185114  1
  Si  Si27  1  0.291498  0.046190  0.183479  1
  Si  Si28  1  0.708493  0.950101  0.685567  1
  Si  Si29  1  0.450369  0.791988  0.435426  1
  Si  Si30  1  0.208219  0.549395  0.064590  1
  Si  Si31  1  0.549542  0.208162  0.935118  1
  Si  Si32  1  0.791336  0.450363  0.565018  1
  Si  Si33  1  0.049541  0.291646  0.814588  1
  Si  Si34  1  0.950760  0.707857  0.314426  1
  Ge  Ge35  1  0.366696  0.297895  0.317562  1
