# generated using pymatgen
data_Rb3LuSb2
_symmetry_space_group_name_H-M   'P 1'
_cell_length_a   10.12323298
_cell_length_b   10.12323352
_cell_length_c   10.12323362
_cell_angle_alpha   128.20087021
_cell_angle_beta   70.42785539
_cell_angle_gamma   135.77227780
_symmetry_Int_Tables_number   1
_chemical_formula_structural   Rb3LuSb2
_chemical_formula_sum   'Rb6 Lu2 Sb4'
_cell_volume   557.47499382
_cell_formula_units_Z   2
loop_
 _symmetry_equiv_pos_site_id
 _symmetry_equiv_pos_as_xyz
  1  'x, y, z'
loop_
 _atom_site_type_symbol
 _atom_site_label
 _atom_site_symmetry_multiplicity
 _atom_site_fract_x
 _atom_site_fract_y
 _atom_site_fract_z
 _atom_site_occupancy
  Rb  Rb0  1  0.250000  0.250000  0.000000  1
  Rb  Rb1  1  0.750000  0.750000  0.000000  1
  Rb  Rb2  1  0.816402  0.298077  0.114480  1
  Rb  Rb3  1  0.683597  0.798078  0.481674  1
  Rb  Rb4  1  0.316402  0.201923  0.518326  1
  Rb  Rb5  1  0.183597  0.701923  0.885520  1
  Lu  Lu6  1  0.750000  0.250000  0.500000  1
  Lu  Lu7  1  0.250000  0.750000  0.500000  1
  Sb  Sb8  1  0.402522  0.808653  0.211175  1
  Sb  Sb9  1  0.097478  0.308653  0.406130  1
  Sb  Sb10  1  0.902522  0.691347  0.593871  1
  Sb  Sb11  1  0.597478  0.191347  0.788825  1
