# generated using pymatgen
data_YbEr5Pa2(ReB6)4
_symmetry_space_group_name_H-M   'P 1'
_cell_length_a   3.68757500
_cell_length_b   9.14523411
_cell_length_c   11.51421689
_cell_angle_alpha   90.37305210
_cell_angle_beta   90.00000000
_cell_angle_gamma   90.00000000
_symmetry_Int_Tables_number   1
_chemical_formula_structural   YbEr5Pa2(ReB6)4
_chemical_formula_sum   'Yb1 Er5 Pa2 Re4 B24'
_cell_volume   388.29418779
_cell_formula_units_Z   1
loop_
 _symmetry_equiv_pos_site_id
 _symmetry_equiv_pos_as_xyz
  1  'x, y, z'
loop_
 _atom_site_type_symbol
 _atom_site_label
 _atom_site_symmetry_multiplicity
 _atom_site_fract_x
 _atom_site_fract_y
 _atom_site_fract_z
 _atom_site_occupancy
  Yb  Yb0  1  0.000000  0.823932  0.085870  1
  Er  Er1  1  0.000000  0.174730  0.915307  1
  Er  Er2  1  0.000000  0.943924  0.371053  1
  Er  Er3  1  0.000000  0.055323  0.627543  1
  Er  Er4  1  0.000000  0.443802  0.127105  1
  Er  Er5  1  0.000000  0.557580  0.873449  1
  Pa  Pa6  1  0.000000  0.320778  0.412684  1
  Pa  Pa7  1  0.000000  0.679447  0.586860  1
  Re  Re8  1  0.000000  0.634548  0.325255  1
  Re  Re9  1  0.000000  0.364621  0.675709  1
  Re  Re10  1  0.000000  0.142181  0.182204  1
  Re  Re11  1  0.000000  0.859371  0.817263  1
  B  B12  1  0.500000  0.553264  0.433019  1
  B  B13  1  0.500000  0.446423  0.567478  1
  B  B14  1  0.500000  0.053562  0.067099  1
  B  B15  1  0.500000  0.946785  0.932822  1
  B  B16  1  0.500000  0.748780  0.419027  1
  B  B17  1  0.500000  0.250874  0.580919  1
  B  B18  1  0.500000  0.248419  0.080105  1
  B  B19  1  0.500000  0.752035  0.919352  1
  B  B20  1  0.500000  0.791351  0.265952  1
  B  B21  1  0.500000  0.208034  0.734420  1
  B  B22  1  0.500000  0.292609  0.233655  1
  B  B23  1  0.500000  0.708067  0.766004  1
  B  B24  1  0.500000  0.631279  0.185704  1
  B  B25  1  0.500000  0.368568  0.814996  1
  B  B26  1  0.500000  0.132318  0.313866  1
  B  B27  1  0.500000  0.868225  0.685658  1
  B  B28  1  0.500000  0.982860  0.211755  1
  B  B29  1  0.500000  0.017805  0.787918  1
  B  B30  1  0.500000  0.482689  0.287256  1
  B  B31  1  0.500000  0.517243  0.713330  1
  B  B32  1  0.500000  0.601284  0.028582  1
  B  B33  1  0.500000  0.397216  0.971109  1
  B  B34  1  0.500000  0.109741  0.469626  1
  B  B35  1  0.500000  0.890332  0.530044  1
