# generated using pymatgen
data_DyZrZn14Cu3
_symmetry_space_group_name_H-M   'P 1'
_cell_length_a   8.73279900
_cell_length_b   8.73279907
_cell_length_c   8.72837600
_cell_angle_alpha   90.00000000
_cell_angle_beta   90.00000000
_cell_angle_gamma   120.00001108
_symmetry_Int_Tables_number   1
_chemical_formula_structural   DyZrZn14Cu3
_chemical_formula_sum   'Dy2 Zr2 Zn28 Cu6'
_cell_volume   576.46236863
_cell_formula_units_Z   2
loop_
 _symmetry_equiv_pos_site_id
 _symmetry_equiv_pos_as_xyz
  1  'x, y, z'
loop_
 _atom_site_type_symbol
 _atom_site_label
 _atom_site_symmetry_multiplicity
 _atom_site_fract_x
 _atom_site_fract_y
 _atom_site_fract_z
 _atom_site_occupancy
  Dy  Dy0  1  0.333333  0.666667  0.750000  1
  Dy  Dy1  1  0.666667  0.333333  0.250000  1
  Zr  Zr2  1  0.000000  0.000000  0.250000  1
  Zr  Zr3  1  0.000000  0.000000  0.750000  1
  Zn  Zn4  1  0.333333  0.666667  0.402580  1
  Zn  Zn5  1  0.666667  0.333333  0.597420  1
  Zn  Zn6  1  0.666667  0.333333  0.902580  1
  Zn  Zn7  1  0.333333  0.666667  0.097420  1
  Zn  Zn8  1  0.329712  0.365040  0.250000  1
  Zn  Zn9  1  0.634960  0.964672  0.250000  1
  Zn  Zn10  1  0.035328  0.670288  0.250000  1
  Zn  Zn11  1  0.634960  0.670288  0.250000  1
  Zn  Zn12  1  0.035328  0.365040  0.250000  1
  Zn  Zn13  1  0.329712  0.964672  0.250000  1
  Zn  Zn14  1  0.670288  0.634960  0.750000  1
  Zn  Zn15  1  0.365040  0.035328  0.750000  1
  Zn  Zn16  1  0.964672  0.329712  0.750000  1
  Zn  Zn17  1  0.365040  0.329712  0.750000  1
  Zn  Zn18  1  0.964672  0.634960  0.750000  1
  Zn  Zn19  1  0.670288  0.035328  0.750000  1
  Zn  Zn20  1  0.162877  0.837123  0.521647  1
  Zn  Zn21  1  0.162877  0.325755  0.521647  1
  Zn  Zn22  1  0.674245  0.837123  0.521647  1
  Zn  Zn23  1  0.837123  0.162877  0.478353  1
  Zn  Zn24  1  0.837123  0.674245  0.478353  1
  Zn  Zn25  1  0.325755  0.162877  0.478353  1
  Zn  Zn26  1  0.837123  0.162877  0.021647  1
  Zn  Zn27  1  0.837123  0.674245  0.021647  1
  Zn  Zn28  1  0.325755  0.162877  0.021647  1
  Zn  Zn29  1  0.162877  0.837123  0.978353  1
  Zn  Zn30  1  0.162877  0.325755  0.978353  1
  Zn  Zn31  1  0.674245  0.837123  0.978353  1
  Cu  Cu32  1  0.500000  0.500000  0.500000  1
  Cu  Cu33  1  0.500000  0.000000  0.500000  1
  Cu  Cu34  1  0.000000  0.500000  0.500000  1
  Cu  Cu35  1  0.500000  0.500000  0.000000  1
  Cu  Cu36  1  0.500000  0.000000  0.000000  1
  Cu  Cu37  1  0.000000  0.500000  0.000000  1
