# generated using pymatgen
data_Er3Sc5Cr2(B12Ir)2
_symmetry_space_group_name_H-M   'P 1'
_cell_length_a   3.48210600
_cell_length_b   8.94212082
_cell_length_c   11.31126100
_cell_angle_alpha   89.90200277
_cell_angle_beta   90.00000000
_cell_angle_gamma   90.00000000
_symmetry_Int_Tables_number   1
_chemical_formula_structural   Er3Sc5Cr2(B12Ir)2
_chemical_formula_sum   'Er3 Sc5 Cr2 B24 Ir2'
_cell_volume   352.20288516
_cell_formula_units_Z   1
loop_
 _symmetry_equiv_pos_site_id
 _symmetry_equiv_pos_as_xyz
  1  'x, y, z'
loop_
 _atom_site_type_symbol
 _atom_site_label
 _atom_site_symmetry_multiplicity
 _atom_site_fract_x
 _atom_site_fract_y
 _atom_site_fract_z
 _atom_site_occupancy
  Er  Er0  1  0.000000  0.815573  0.088894  1
  Er  Er1  1  0.000000  0.184351  0.910749  1
  Er  Er2  1  0.000000  0.324928  0.417304  1
  Sc  Sc3  1  0.000000  0.673978  0.580974  1
  Sc  Sc4  1  0.000000  0.448809  0.128441  1
  Sc  Sc5  1  0.000000  0.552078  0.870930  1
  Sc  Sc6  1  0.000000  0.939287  0.375627  1
  Sc  Sc7  1  0.000000  0.058992  0.625340  1
  Cr  Cr8  1  0.000000  0.640620  0.319446  1
  Cr  Cr9  1  0.000000  0.361168  0.681635  1
  B  B10  1  0.500000  0.054290  0.066028  1
  B  B11  1  0.500000  0.945351  0.933548  1
  B  B12  1  0.500000  0.554773  0.434470  1
  B  B13  1  0.500000  0.448291  0.567331  1
  B  B14  1  0.500000  0.254757  0.079842  1
  B  B15  1  0.500000  0.745323  0.919560  1
  B  B16  1  0.500000  0.750539  0.421287  1
  B  B17  1  0.500000  0.249405  0.581214  1
  B  B18  1  0.500000  0.294846  0.236028  1
  B  B19  1  0.500000  0.704929  0.762420  1
  B  B20  1  0.500000  0.793488  0.266643  1
  B  B21  1  0.500000  0.206591  0.734095  1
  B  B22  1  0.500000  0.128832  0.318730  1
  B  B23  1  0.500000  0.869105  0.680424  1
  B  B24  1  0.500000  0.629460  0.184169  1
  B  B25  1  0.500000  0.371436  0.815753  1
  B  B26  1  0.500000  0.481840  0.287146  1
  B  B27  1  0.500000  0.520498  0.712147  1
  B  B28  1  0.500000  0.979426  0.215090  1
  B  B29  1  0.500000  0.019813  0.784793  1
  B  B30  1  0.500000  0.099744  0.472802  1
  B  B31  1  0.500000  0.897557  0.528046  1
  B  B32  1  0.500000  0.599798  0.026656  1
  B  B33  1  0.500000  0.400592  0.973045  1
  Ir  Ir34  1  0.000000  0.139418  0.180483  1
  Ir  Ir35  1  0.000000  0.860114  0.818909  1
