# generated using pymatgen
data_LiAl(FeRh2)2
_symmetry_space_group_name_H-M   'P 1'
_cell_length_a   7.33309563
_cell_length_b   7.33309673
_cell_length_c   7.33309600
_cell_angle_alpha   131.96956480
_cell_angle_beta   131.96956207
_cell_angle_gamma   70.27710529
_symmetry_Int_Tables_number   1
_chemical_formula_structural   LiAl(FeRh2)2
_chemical_formula_sum   'Li2 Al2 Fe4 Rh8'
_cell_volume   213.64560877
_cell_formula_units_Z   2
loop_
 _symmetry_equiv_pos_site_id
 _symmetry_equiv_pos_as_xyz
  1  'x, y, z'
loop_
 _atom_site_type_symbol
 _atom_site_label
 _atom_site_symmetry_multiplicity
 _atom_site_fract_x
 _atom_site_fract_y
 _atom_site_fract_z
 _atom_site_occupancy
  Li  Li0  1  0.250000  0.250000  0.000000  1
  Li  Li1  1  0.499999  0.000000  0.499999  1
  Al  Al2  1  0.750000  0.750000  0.000000  1
  Al  Al3  1  0.000000  0.499999  0.499999  1
  Fe  Fe4  1  0.500231  0.500231  0.000000  1
  Fe  Fe5  1  0.999769  0.999769  0.000000  1
  Fe  Fe6  1  0.750231  0.250231  0.499999  1
  Fe  Fe7  1  0.249769  0.749769  0.499999  1
  Rh  Rh8  1  0.875000  0.374494  0.999494  1
  Rh  Rh9  1  0.624495  0.124999  0.999494  1
  Rh  Rh10  1  0.125506  0.125000  0.500507  1
  Rh  Rh11  1  0.875000  0.875506  0.500507  1
  Rh  Rh12  1  0.375001  0.374496  0.499496  1
  Rh  Rh13  1  0.624495  0.625000  0.499496  1
  Rh  Rh14  1  0.375000  0.875505  0.000506  1
  Rh  Rh15  1  0.125506  0.625000  0.000506  1
