# generated using pymatgen
data_Tm3Ga3Pd2Au
_symmetry_space_group_name_H-M   'P 1'
_cell_length_a   7.50579900
_cell_length_b   7.50579909
_cell_length_c   7.32655300
_cell_angle_alpha   90.00000000
_cell_angle_beta   90.00000000
_cell_angle_gamma   119.99999520
_symmetry_Int_Tables_number   1
_chemical_formula_structural   Tm3Ga3Pd2Au
_chemical_formula_sum   'Tm6 Ga6 Pd4 Au2'
_cell_volume   357.45733539
_cell_formula_units_Z   2
loop_
 _symmetry_equiv_pos_site_id
 _symmetry_equiv_pos_as_xyz
  1  'x, y, z'
loop_
 _atom_site_type_symbol
 _atom_site_label
 _atom_site_symmetry_multiplicity
 _atom_site_fract_x
 _atom_site_fract_y
 _atom_site_fract_z
 _atom_site_occupancy
  Tm  Tm0  1  0.733672  0.071600  0.000000  1
  Tm  Tm1  1  0.337927  0.266328  0.000000  1
  Tm  Tm2  1  0.928400  0.662073  0.000000  1
  Tm  Tm3  1  0.343133  0.268761  0.500000  1
  Tm  Tm4  1  0.731239  0.074372  0.500000  1
  Tm  Tm5  1  0.925628  0.656867  0.500000  1
  Ga  Ga6  1  0.591912  0.660832  0.750109  1
  Ga  Ga7  1  0.068921  0.408088  0.750109  1
  Ga  Ga8  1  0.339168  0.931079  0.750109  1
  Ga  Ga9  1  0.591912  0.660832  0.249891  1
  Ga  Ga10  1  0.068921  0.408088  0.249891  1
  Ga  Ga11  1  0.339168  0.931079  0.249891  1
  Pd  Pd12  1  0.333333  0.666667  0.000000  1
  Pd  Pd13  1  0.333333  0.666667  0.500000  1
  Pd  Pd14  1  0.666667  0.333333  0.753834  1
  Pd  Pd15  1  0.666667  0.333333  0.246166  1
  Au  Au16  1  0.000000  0.000000  0.253844  1
  Au  Au17  1  0.000000  0.000000  0.746156  1
