# generated using pymatgen
data_Lu4Al18Rh5Au
_symmetry_space_group_name_H-M   'P 1'
_cell_length_a   7.56629426
_cell_length_b   7.56632922
_cell_length_c   9.41763043
_cell_angle_alpha   89.96717817
_cell_angle_beta   89.96962056
_cell_angle_gamma   119.56347885
_symmetry_Int_Tables_number   1
_chemical_formula_structural   Lu4Al18Rh5Au
_chemical_formula_sum   'Lu4 Al18 Rh5 Au1'
_cell_volume   468.95809857
_cell_formula_units_Z   1
loop_
 _symmetry_equiv_pos_site_id
 _symmetry_equiv_pos_as_xyz
  1  'x, y, z'
loop_
 _atom_site_type_symbol
 _atom_site_label
 _atom_site_symmetry_multiplicity
 _atom_site_fract_x
 _atom_site_fract_y
 _atom_site_fract_z
 _atom_site_occupancy
  Lu  Lu0  1  0.995713  0.673107  0.251122  1
  Lu  Lu1  1  0.004287  0.326893  0.748878  1
  Lu  Lu2  1  0.673109  0.995717  0.251120  1
  Lu  Lu3  1  0.326891  0.004283  0.748880  1
  Al  Al4  1  0.133546  0.133546  0.256764  1
  Al  Al5  1  0.866454  0.866454  0.743236  1
  Al  Al6  1  0.000049  0.343794  0.080243  1
  Al  Al7  1  0.999951  0.656206  0.919757  1
  Al  Al8  1  0.001345  0.664482  0.575005  1
  Al  Al9  1  0.335519  0.998656  0.424996  1
  Al  Al10  1  0.998655  0.335518  0.424995  1
  Al  Al11  1  0.664481  0.001344  0.575004  1
  Al  Al12  1  0.656206  0.999951  0.919757  1
  Al  Al13  1  0.343794  0.000049  0.080243  1
  Al  Al14  1  0.332595  0.332594  0.554324  1
  Al  Al15  1  0.667405  0.667406  0.445676  1
  Al  Al16  1  0.658880  0.658880  0.059285  1
  Al  Al17  1  0.341120  0.341120  0.940715  1
  Al  Al18  1  0.338551  0.551133  0.251360  1
  Al  Al19  1  0.661449  0.448867  0.748640  1
  Al  Al20  1  0.551131  0.338549  0.251360  1
  Al  Al21  1  0.448869  0.661451  0.748640  1
  Rh  Rh22  1  0.672080  0.327918  0.000001  1
  Rh  Rh23  1  0.327920  0.672082  0.999999  1
  Rh  Rh24  1  0.327861  0.672150  0.500004  1
  Rh  Rh25  1  0.672139  0.327850  0.499996  1
  Rh  Rh26  1  0.000000  0.000000  0.500000  1
  Au  Au27  1  0.000000  0.000000  0.000000  1
