# generated using pymatgen
data_YHo3(ScRu)4
_symmetry_space_group_name_H-M   'P 1'
_cell_length_a   7.38463572
_cell_length_b   4.22202600
_cell_length_c   8.47006300
_cell_angle_alpha   90.00000000
_cell_angle_beta   90.17314525
_cell_angle_gamma   90.00000000
_symmetry_Int_Tables_number   1
_chemical_formula_structural   YHo3(ScRu)4
_chemical_formula_sum   'Y1 Ho3 Sc4 Ru4'
_cell_volume   264.07946873
_cell_formula_units_Z   1
loop_
 _symmetry_equiv_pos_site_id
 _symmetry_equiv_pos_as_xyz
  1  'x, y, z'
loop_
 _atom_site_type_symbol
 _atom_site_label
 _atom_site_symmetry_multiplicity
 _atom_site_fract_x
 _atom_site_fract_y
 _atom_site_fract_z
 _atom_site_occupancy
  Y  Y0  1  0.027235  0.250000  0.828212  1
  Ho  Ho1  1  0.972151  0.749999  0.172137  1
  Ho  Ho2  1  0.472679  0.749999  0.328798  1
  Ho  Ho3  1  0.527477  0.250000  0.670943  1
  Sc  Sc4  1  0.642205  0.250000  0.060664  1
  Sc  Sc5  1  0.142465  0.250000  0.439522  1
  Sc  Sc6  1  0.857810  0.749999  0.559794  1
  Sc  Sc7  1  0.357202  0.749999  0.940548  1
  Ru  Ru8  1  0.269442  0.250000  0.124221  1
  Ru  Ru9  1  0.769411  0.250000  0.377524  1
  Ru  Ru10  1  0.234385  0.749999  0.620623  1
  Ru  Ru11  1  0.727541  0.749999  0.877010  1
