# generated using pymatgen
data_Ce8Er11ScSi16
_symmetry_space_group_name_H-M   'P 1'
_cell_length_a   7.38595400
_cell_length_b   7.72292300
_cell_length_c   14.65818200
_cell_angle_alpha   90.00000000
_cell_angle_beta   90.00000000
_cell_angle_gamma   90.00379338
_symmetry_Int_Tables_number   1
_chemical_formula_structural   Ce8Er11ScSi16
_chemical_formula_sum   'Ce8 Er11 Sc1 Si16'
_cell_volume   836.11961626
_cell_formula_units_Z   1
loop_
 _symmetry_equiv_pos_site_id
 _symmetry_equiv_pos_as_xyz
  1  'x, y, z'
loop_
 _atom_site_type_symbol
 _atom_site_label
 _atom_site_symmetry_multiplicity
 _atom_site_fract_x
 _atom_site_fract_y
 _atom_site_fract_z
 _atom_site_occupancy
  Ce  Ce0  1  0.982693  0.176789  0.096578  1
  Ce  Ce1  1  0.482606  0.323550  0.403588  1
  Ce  Ce2  1  0.516167  0.677452  0.901841  1
  Ce  Ce3  1  0.017882  0.824239  0.598339  1
  Ce  Ce4  1  0.017882  0.824239  0.901661  1
  Ce  Ce5  1  0.516167  0.677452  0.598159  1
  Ce  Ce6  1  0.482606  0.323550  0.096412  1
  Ce  Ce7  1  0.982693  0.176789  0.403422  1
  Er  Er8  1  0.659317  0.015171  0.250000  1
  Er  Er9  1  0.159368  0.484803  0.250000  1
  Er  Er10  1  0.841537  0.515166  0.750000  1
  Er  Er11  1  0.825663  0.679409  0.122366  1
  Er  Er12  1  0.325630  0.820457  0.377857  1
  Er  Er13  1  0.673610  0.178163  0.875872  1
  Er  Er14  1  0.175510  0.319636  0.623805  1
  Er  Er15  1  0.175510  0.319636  0.876195  1
  Er  Er16  1  0.673610  0.178163  0.624128  1
  Er  Er17  1  0.325630  0.820457  0.122143  1
  Er  Er18  1  0.825663  0.679409  0.377634  1
  Sc  Sc19  1  0.340380  0.984791  0.750000  1
  Si  Si20  1  0.777857  0.378489  0.250000  1
  Si  Si21  1  0.278141  0.121208  0.250000  1
  Si  Si22  1  0.715243  0.877546  0.750000  1
  Si  Si23  1  0.222051  0.628457  0.750000  1
  Si  Si24  1  0.033306  0.890585  0.250000  1
  Si  Si25  1  0.533000  0.608950  0.250000  1
  Si  Si26  1  0.467874  0.392410  0.750000  1
  Si  Si27  1  0.972316  0.104795  0.750000  1
  Si  Si28  1  0.848627  0.469377  0.961030  1
  Si  Si29  1  0.348823  0.029738  0.540149  1
  Si  Si30  1  0.651425  0.969781  0.037601  1
  Si  Si31  1  0.151172  0.530225  0.462412  1
  Si  Si32  1  0.151172  0.530225  0.037588  1
  Si  Si33  1  0.651425  0.969781  0.462399  1
  Si  Si34  1  0.348823  0.029738  0.959851  1
  Si  Si35  1  0.848627  0.469377  0.538970  1
