# generated using pymatgen
data_Er9Tm(SnSb2)2
_symmetry_space_group_name_H-M   'P 1'
_cell_length_a   8.88455674
_cell_length_b   8.87753943
_cell_length_c   6.35501203
_cell_angle_alpha   90.01180781
_cell_angle_beta   89.99410513
_cell_angle_gamma   119.97386364
_symmetry_Int_Tables_number   1
_chemical_formula_structural   Er9Tm(SnSb2)2
_chemical_formula_sum   'Er9 Tm1 Sn2 Sb4'
_cell_volume   434.19987424
_cell_formula_units_Z   1
loop_
 _symmetry_equiv_pos_site_id
 _symmetry_equiv_pos_as_xyz
  1  'x, y, z'
loop_
 _atom_site_type_symbol
 _atom_site_label
 _atom_site_symmetry_multiplicity
 _atom_site_fract_x
 _atom_site_fract_y
 _atom_site_fract_z
 _atom_site_occupancy
  Er  Er0  1  0.001048  0.757740  0.749961  1
  Er  Er1  1  0.001048  0.243309  0.250039  1
  Er  Er2  1  0.756004  0.756777  0.249994  1
  Er  Er3  1  0.756004  0.999226  0.750006  1
  Er  Er4  1  0.243582  0.241893  0.749919  1
  Er  Er5  1  0.243582  0.001689  0.250081  1
  Er  Er6  1  0.665091  0.332545  0.000000  1
  Er  Er7  1  0.665132  0.332566  0.500000  1
  Er  Er8  1  0.334004  0.667002  0.000000  1
  Tm  Tm9  1  0.333939  0.666969  0.500000  1
  Sn  Sn10  1  0.391078  0.998474  0.749601  1
  Sn  Sn11  1  0.391078  0.392604  0.250399  1
  Sb  Sb12  1  0.999666  0.609192  0.250262  1
  Sb  Sb13  1  0.999666  0.390475  0.749738  1
  Sb  Sb14  1  0.609539  0.609585  0.749730  1
  Sb  Sb15  1  0.609539  0.999954  0.250270  1
