# generated using pymatgen
data_Tm16Sc4(IrRh3)3
_symmetry_space_group_name_H-M   'P 1'
_cell_length_a   10.64251122
_cell_length_b   10.64251122
_cell_length_c   6.21278986
_cell_angle_alpha   90.04258760
_cell_angle_beta   90.04258760
_cell_angle_gamma   89.96537509
_symmetry_Int_Tables_number   1
_chemical_formula_structural   Tm16Sc4(IrRh3)3
_chemical_formula_sum   'Tm16 Sc4 Ir3 Rh9'
_cell_volume   703.67898069
_cell_formula_units_Z   1
loop_
 _symmetry_equiv_pos_site_id
 _symmetry_equiv_pos_as_xyz
  1  'x, y, z'
loop_
 _atom_site_type_symbol
 _atom_site_label
 _atom_site_symmetry_multiplicity
 _atom_site_fract_x
 _atom_site_fract_y
 _atom_site_fract_z
 _atom_site_occupancy
  Tm  Tm0  1  0.288605  0.087496  0.376492  1
  Tm  Tm1  1  0.288789  0.912344  0.876685  1
  Tm  Tm2  1  0.711573  0.086074  0.876840  1
  Tm  Tm3  1  0.711329  0.912513  0.376422  1
  Tm  Tm4  1  0.584835  0.787277  0.877503  1
  Tm  Tm5  1  0.584767  0.212030  0.376704  1
  Tm  Tm6  1  0.415229  0.787632  0.376794  1
  Tm  Tm7  1  0.413629  0.212020  0.877673  1
  Tm  Tm8  1  0.212723  0.415165  0.622497  1
  Tm  Tm9  1  0.212368  0.584771  0.123206  1
  Tm  Tm10  1  0.787970  0.415233  0.123296  1
  Tm  Tm11  1  0.787980  0.586371  0.622327  1
  Tm  Tm12  1  0.912504  0.711395  0.123508  1
  Tm  Tm13  1  0.913926  0.288427  0.623160  1
  Tm  Tm14  1  0.087656  0.711211  0.623315  1
  Tm  Tm15  1  0.087487  0.288671  0.123578  1
  Sc  Sc16  1  0.999922  0.999989  0.499663  1
  Sc  Sc17  1  0.000011  0.000078  0.000337  1
  Sc  Sc18  1  0.499477  0.500574  0.000556  1
  Sc  Sc19  1  0.499426  0.500523  0.499444  1
  Ir  Ir20  1  0.650432  0.649579  0.250033  1
  Ir  Ir21  1  0.350421  0.349568  0.249967  1
  Ir  Ir22  1  0.349729  0.650271  0.750000  1
  Rh  Rh23  1  0.850418  0.149582  0.250000  1
  Rh  Rh24  1  0.850867  0.850963  0.750062  1
  Rh  Rh25  1  0.149037  0.149133  0.749938  1
  Rh  Rh26  1  0.148966  0.851034  0.250000  1
  Rh  Rh27  1  0.650643  0.349357  0.750000  1
  Rh  Rh28  1  0.500161  0.000509  0.122281  1
  Rh  Rh29  1  0.500161  0.000533  0.622806  1
  Rh  Rh30  1  0.999467  0.499839  0.877194  1
  Rh  Rh31  1  0.999491  0.499839  0.377719  1
