# generated using pymatgen
data_Hf10Ga3Sb5
_symmetry_space_group_name_H-M   'P 1'
_cell_length_a   8.54717800
_cell_length_b   8.57630914
_cell_length_c   5.78249200
_cell_angle_alpha   90.00000000
_cell_angle_beta   90.00000000
_cell_angle_gamma   119.88770157
_symmetry_Int_Tables_number   1
_chemical_formula_structural   Hf10Ga3Sb5
_chemical_formula_sum   'Hf10 Ga3 Sb5'
_cell_volume   367.50155521
_cell_formula_units_Z   1
loop_
 _symmetry_equiv_pos_site_id
 _symmetry_equiv_pos_as_xyz
  1  'x, y, z'
loop_
 _atom_site_type_symbol
 _atom_site_label
 _atom_site_symmetry_multiplicity
 _atom_site_fract_x
 _atom_site_fract_y
 _atom_site_fract_z
 _atom_site_occupancy
  Hf  Hf0  1  0.732578  0.733602  0.250000  1
  Hf  Hf1  1  0.723277  0.000000  0.750000  1
  Hf  Hf2  1  0.998976  0.266398  0.250000  1
  Hf  Hf3  1  0.012006  0.736770  0.750000  1
  Hf  Hf4  1  0.275237  0.263230  0.750000  1
  Hf  Hf5  1  0.265917  0.000000  0.250000  1
  Hf  Hf6  1  0.334630  0.671803  0.502818  1
  Hf  Hf7  1  0.662828  0.328197  0.997182  1
  Hf  Hf8  1  0.662828  0.328197  0.502818  1
  Hf  Hf9  1  0.334630  0.671803  0.997182  1
  Ga  Ga10  1  0.998666  0.000000  0.994122  1
  Ga  Ga11  1  0.998666  0.000000  0.505878  1
  Ga  Ga12  1  0.388616  0.000000  0.750000  1
  Sb  Sb13  1  0.389551  0.390555  0.250000  1
  Sb  Sb14  1  0.998996  0.609445  0.250000  1
  Sb  Sb15  1  0.001798  0.387365  0.750000  1
  Sb  Sb16  1  0.614433  0.612635  0.750000  1
  Sb  Sb17  1  0.606366  0.000000  0.250000  1
