# generated using pymatgen
data_Tb3Nd(Co2Os)2
_symmetry_space_group_name_H-M   'P 1'
_cell_length_a   5.53608521
_cell_length_b   5.53608493
_cell_length_c   7.14506518
_cell_angle_alpha   90.07877405
_cell_angle_beta   89.92122659
_cell_angle_gamma   122.03914432
_symmetry_Int_Tables_number   1
_chemical_formula_structural   Tb3Nd(Co2Os)2
_chemical_formula_sum   'Tb3 Nd1 Co4 Os2'
_cell_volume   185.62912080
_cell_formula_units_Z   1
loop_
 _symmetry_equiv_pos_site_id
 _symmetry_equiv_pos_as_xyz
  1  'x, y, z'
loop_
 _atom_site_type_symbol
 _atom_site_label
 _atom_site_symmetry_multiplicity
 _atom_site_fract_x
 _atom_site_fract_y
 _atom_site_fract_z
 _atom_site_occupancy
  Tb  Tb0  1  0.661657  0.338343  0.904106  1
  Tb  Tb1  1  0.337765  0.662235  0.099215  1
  Tb  Tb2  1  0.839091  0.160909  0.398025  1
  Nd  Nd3  1  0.163189  0.836811  0.598563  1
  Co  Co4  1  0.662857  0.836283  0.752136  1
  Co  Co5  1  0.834543  0.659928  0.247344  1
  Co  Co6  1  0.340072  0.165457  0.247344  1
  Co  Co7  1  0.163717  0.337143  0.752136  1
  Os  Os8  1  0.499058  0.500942  0.499011  1
  Os  Os9  1  0.998051  0.001949  0.002119  1
