# generated using pymatgen
data_CeCo4Si3Ru
_symmetry_space_group_name_H-M   'P 1'
_cell_length_a   3.76211200
_cell_length_b   10.65761200
_cell_length_c   12.02187700
_cell_angle_alpha   90.00000000
_cell_angle_beta   90.00000000
_cell_angle_gamma   90.00000000
_symmetry_Int_Tables_number   1
_chemical_formula_structural   CeCo4Si3Ru
_chemical_formula_sum   'Ce4 Co16 Si12 Ru4'
_cell_volume   482.01872112
_cell_formula_units_Z   4
loop_
 _symmetry_equiv_pos_site_id
 _symmetry_equiv_pos_as_xyz
  1  'x, y, z'
loop_
 _atom_site_type_symbol
 _atom_site_label
 _atom_site_symmetry_multiplicity
 _atom_site_fract_x
 _atom_site_fract_y
 _atom_site_fract_z
 _atom_site_occupancy
  Ce  Ce0  1  0.250000  0.581500  0.702592  1
  Ce  Ce1  1  0.250000  0.918500  0.202592  1
  Ce  Ce2  1  0.750000  0.418500  0.297408  1
  Ce  Ce3  1  0.750000  0.081500  0.797408  1
  Co  Co4  1  0.250000  0.405055  0.486830  1
  Co  Co5  1  0.250000  0.094945  0.986830  1
  Co  Co6  1  0.750000  0.594945  0.513170  1
  Co  Co7  1  0.750000  0.905055  0.013170  1
  Co  Co8  1  0.250000  0.214897  0.173489  1
  Co  Co9  1  0.250000  0.285103  0.673489  1
  Co  Co10  1  0.750000  0.785103  0.826511  1
  Co  Co11  1  0.750000  0.714897  0.326511  1
  Co  Co12  1  0.250000  0.889814  0.701273  1
  Co  Co13  1  0.250000  0.610186  0.201273  1
  Co  Co14  1  0.750000  0.110186  0.298727  1
  Co  Co15  1  0.750000  0.389814  0.798727  1
  Co  Co16  1  0.250000  0.470856  0.930109  1
  Co  Co17  1  0.250000  0.029144  0.430109  1
  Co  Co18  1  0.750000  0.529144  0.069891  1
  Co  Co19  1  0.750000  0.970856  0.569891  1
  Si  Si20  1  0.250000  0.413505  0.108990  1
  Si  Si21  1  0.250000  0.086495  0.608990  1
  Si  Si22  1  0.750000  0.586495  0.891010  1
  Si  Si23  1  0.750000  0.913505  0.391010  1
  Si  Si24  1  0.250000  0.276412  0.865792  1
  Si  Si25  1  0.250000  0.223588  0.365792  1
  Si  Si26  1  0.750000  0.723588  0.134208  1
  Si  Si27  1  0.750000  0.776412  0.634208  1
  Si  Si28  1  0.250000  0.602796  0.395103  1
  Si  Si29  1  0.250000  0.897204  0.895103  1
  Si  Si30  1  0.750000  0.397204  0.604897  1
  Si  Si31  1  0.750000  0.102796  0.104897  1
  Ru  Ru32  1  0.250000  0.704187  0.991939  1
  Ru  Ru33  1  0.250000  0.795813  0.491939  1
  Ru  Ru34  1  0.750000  0.295813  0.008061  1
  Ru  Ru35  1  0.750000  0.204187  0.508061  1
