# generated using pymatgen
data_TbTm2Hf3(GaPt)6
_symmetry_space_group_name_H-M   'P 1'
_cell_length_a   7.25505100
_cell_length_b   7.26761971
_cell_length_c   7.33290300
_cell_angle_alpha   90.00000000
_cell_angle_beta   90.00000000
_cell_angle_gamma   119.94151896
_symmetry_Int_Tables_number   1
_chemical_formula_structural   TbTm2Hf3(GaPt)6
_chemical_formula_sum   'Tb1 Tm2 Hf3 Ga6 Pt6'
_cell_volume   335.03861241
_cell_formula_units_Z   1
loop_
 _symmetry_equiv_pos_site_id
 _symmetry_equiv_pos_as_xyz
  1  'x, y, z'
loop_
 _atom_site_type_symbol
 _atom_site_label
 _atom_site_symmetry_multiplicity
 _atom_site_fract_x
 _atom_site_fract_y
 _atom_site_fract_z
 _atom_site_occupancy
  Tb  Tb0  1  0.590602  0.000449  0.250000  1
  Tm  Tm1  1  0.408443  0.408323  0.250000  1
  Tm  Tm2  1  0.999182  0.591209  0.250000  1
  Hf  Hf3  1  0.609446  0.999186  0.750000  1
  Hf  Hf4  1  0.389682  0.390405  0.750000  1
  Hf  Hf5  1  0.000904  0.610424  0.750000  1
  Ga  Ga6  1  0.263102  0.000668  0.992134  1
  Ga  Ga7  1  0.263102  0.000668  0.507866  1
  Ga  Ga8  1  0.000191  0.263716  0.507014  1
  Ga  Ga9  1  0.000191  0.263716  0.992986  1
  Ga  Ga10  1  0.737133  0.735641  0.993008  1
  Ga  Ga11  1  0.737133  0.735641  0.506992  1
  Pt  Pt12  1  0.667033  0.334739  0.529217  1
  Pt  Pt13  1  0.999886  0.000006  0.750000  1
  Pt  Pt14  1  0.667033  0.334739  0.970783  1
  Pt  Pt15  1  0.332269  0.665236  0.972728  1
  Pt  Pt16  1  0.332269  0.665236  0.527272  1
  Pt  Pt17  1  0.002399  0.999997  0.250000  1
