# generated using pymatgen
data_Zr8In4Cu4IrAu3
_symmetry_space_group_name_H-M   'P 1'
_cell_length_a   7.43592981
_cell_length_b   7.42304790
_cell_length_c   7.02879559
_cell_angle_alpha   90.12590970
_cell_angle_beta   90.16616426
_cell_angle_gamma   90.39248959
_symmetry_Int_Tables_number   1
_chemical_formula_structural   Zr8In4Cu4IrAu3
_chemical_formula_sum   'Zr8 In4 Cu4 Ir1 Au3'
_cell_volume   387.95859145
_cell_formula_units_Z   1
loop_
 _symmetry_equiv_pos_site_id
 _symmetry_equiv_pos_as_xyz
  1  'x, y, z'
loop_
 _atom_site_type_symbol
 _atom_site_label
 _atom_site_symmetry_multiplicity
 _atom_site_fract_x
 _atom_site_fract_y
 _atom_site_fract_z
 _atom_site_occupancy
  Zr  Zr0  1  0.146384  0.158831  0.009382  1
  Zr  Zr1  1  0.842119  0.852314  0.997249  1
  Zr  Zr2  1  0.650466  0.345570  0.489934  1
  Zr  Zr3  1  0.355361  0.642278  0.490072  1
  Zr  Zr4  1  0.694242  0.305972  0.006585  1
  Zr  Zr5  1  0.312703  0.687459  0.006072  1
  Zr  Zr6  1  0.797077  0.805648  0.499287  1
  Zr  Zr7  1  0.193721  0.203048  0.492830  1
  In  In8  1  0.508491  0.998423  0.247170  1
  In  In9  1  0.508233  0.994295  0.750006  1
  In  In10  1  0.993376  0.498064  0.247243  1
  In  In11  1  0.988056  0.496025  0.748959  1
  Cu  Cu12  1  0.629344  0.625949  0.794558  1
  Cu  Cu13  1  0.631693  0.628391  0.199607  1
  Cu  Cu14  1  0.871792  0.128491  0.703048  1
  Cu  Cu15  1  0.871963  0.125817  0.299485  1
  Ir  Ir16  1  0.379424  0.376813  0.219357  1
  Au  Au17  1  0.378972  0.374147  0.795177  1
  Au  Au18  1  0.121742  0.875950  0.293377  1
  Au  Au19  1  0.124840  0.876514  0.710602  1
