# generated using pymatgen
data_Nd19Er(Ir5Au)2
_symmetry_space_group_name_H-M   'P 1'
_cell_length_a   11.42114403
_cell_length_b   11.33032395
_cell_length_c   6.54561866
_cell_angle_alpha   90.02044796
_cell_angle_beta   89.86625462
_cell_angle_gamma   89.95809552
_symmetry_Int_Tables_number   1
_chemical_formula_structural   Nd19Er(Ir5Au)2
_chemical_formula_sum   'Nd19 Er1 Ir10 Au2'
_cell_volume   847.03490744
_cell_formula_units_Z   1
loop_
 _symmetry_equiv_pos_site_id
 _symmetry_equiv_pos_as_xyz
  1  'x, y, z'
loop_
 _atom_site_type_symbol
 _atom_site_label
 _atom_site_symmetry_multiplicity
 _atom_site_fract_x
 _atom_site_fract_y
 _atom_site_fract_z
 _atom_site_occupancy
  Nd  Nd0  1  0.292740  0.089806  0.376830  1
  Nd  Nd1  1  0.292725  0.910181  0.876514  1
  Nd  Nd2  1  0.697372  0.092945  0.865420  1
  Nd  Nd3  1  0.697479  0.906670  0.364678  1
  Nd  Nd4  1  0.579292  0.788272  0.880079  1
  Nd  Nd5  1  0.579223  0.212985  0.381463  1
  Nd  Nd6  1  0.407510  0.789557  0.380753  1
  Nd  Nd7  1  0.406931  0.209485  0.880499  1
  Nd  Nd8  1  0.211788  0.410289  0.617908  1
  Nd  Nd9  1  0.210923  0.590391  0.118056  1
  Nd  Nd10  1  0.789226  0.418462  0.119886  1
  Nd  Nd11  1  0.788374  0.581182  0.619068  1
  Nd  Nd12  1  0.916214  0.704000  0.136656  1
  Nd  Nd13  1  0.915884  0.295814  0.636690  1
  Nd  Nd14  1  0.097875  0.702332  0.621662  1
  Nd  Nd15  1  0.097595  0.298025  0.121434  1
  Nd  Nd16  1  0.008902  0.998291  0.499374  1
  Nd  Nd17  1  0.009606  0.001465  0.999388  1
  Nd  Nd18  1  0.499339  0.498400  0.000724  1
  Er  Er19  1  0.499153  0.501736  0.500674  1
  Ir  Ir20  1  0.154115  0.154656  0.751362  1
  Ir  Ir21  1  0.154025  0.845201  0.251073  1
  Ir  Ir22  1  0.652807  0.350210  0.744882  1
  Ir  Ir23  1  0.652123  0.649843  0.253904  1
  Ir  Ir24  1  0.350754  0.348587  0.255539  1
  Ir  Ir25  1  0.350949  0.651169  0.746928  1
  Ir  Ir26  1  0.500513  0.999758  0.116476  1
  Ir  Ir27  1  0.500637  0.000216  0.616816  1
  Ir  Ir28  1  0.999317  0.501645  0.883255  1
  Ir  Ir29  1  0.999312  0.498379  0.382981  1
  Au  Au30  1  0.843704  0.155439  0.249505  1
  Au  Au31  1  0.843591  0.844610  0.749528  1
