# generated using pymatgen
data_Ho16TlAg3Ir4
_symmetry_space_group_name_H-M   'P 1'
_cell_length_a   9.53950727
_cell_length_b   9.55012638
_cell_length_c   9.55012700
_cell_angle_alpha   60.00000131
_cell_angle_beta   59.96317107
_cell_angle_gamma   59.96317170
_symmetry_Int_Tables_number   1
_chemical_formula_structural   Ho16TlAg3Ir4
_chemical_formula_sum   'Ho16 Tl1 Ag3 Ir4'
_cell_volume   614.87556539
_cell_formula_units_Z   1
loop_
 _symmetry_equiv_pos_site_id
 _symmetry_equiv_pos_as_xyz
  1  'x, y, z'
loop_
 _atom_site_type_symbol
 _atom_site_label
 _atom_site_symmetry_multiplicity
 _atom_site_fract_x
 _atom_site_fract_y
 _atom_site_fract_z
 _atom_site_occupancy
  Ho  Ho0  1  0.437978  0.436281  0.062870  1
  Ho  Ho1  1  0.650298  0.649151  0.051403  1
  Ho  Ho2  1  0.188710  0.810756  0.189779  1
  Ho  Ho3  1  0.067025  0.436599  0.059778  1
  Ho  Ho4  1  0.188710  0.810756  0.810756  1
  Ho  Ho5  1  0.067025  0.436599  0.436599  1
  Ho  Ho6  1  0.810030  0.190160  0.190160  1
  Ho  Ho7  1  0.650298  0.649151  0.649151  1
  Ho  Ho8  1  0.810030  0.190160  0.809648  1
  Ho  Ho9  1  0.188710  0.189779  0.810756  1
  Ho  Ho10  1  0.051749  0.649417  0.649417  1
  Ho  Ho11  1  0.437978  0.062870  0.062870  1
  Ho  Ho12  1  0.067025  0.059778  0.436599  1
  Ho  Ho13  1  0.650298  0.051403  0.649151  1
  Ho  Ho14  1  0.810030  0.809648  0.190160  1
  Ho  Ho15  1  0.437978  0.062870  0.436281  1
  Tl  Tl16  1  0.740758  0.419747  0.419747  1
  Ag  Ag17  1  0.415136  0.417677  0.417677  1
  Ag  Ag18  1  0.415136  0.417677  0.749513  1
  Ag  Ag19  1  0.415136  0.749513  0.417677  1
  Ir  Ir20  1  0.426794  0.857735  0.857735  1
  Ir  Ir21  1  0.857724  0.857849  0.857849  1
  Ir  Ir22  1  0.857724  0.426577  0.857849  1
  Ir  Ir23  1  0.857724  0.857849  0.426577  1
