# generated using pymatgen
data_Ho3TmRu4F28
_symmetry_space_group_name_H-M   'P 1'
_cell_length_a   5.54600022
_cell_length_b   8.83652316
_cell_length_c   11.88586357
_cell_angle_alpha   63.82182588
_cell_angle_beta   90.02792702
_cell_angle_gamma   89.99978535
_symmetry_Int_Tables_number   1
_chemical_formula_structural   Ho3TmRu4F28
_chemical_formula_sum   'Ho3 Tm1 Ru4 F28'
_cell_volume   522.74617470
_cell_formula_units_Z   1
loop_
 _symmetry_equiv_pos_site_id
 _symmetry_equiv_pos_as_xyz
  1  'x, y, z'
loop_
 _atom_site_type_symbol
 _atom_site_label
 _atom_site_symmetry_multiplicity
 _atom_site_fract_x
 _atom_site_fract_y
 _atom_site_fract_z
 _atom_site_occupancy
  Ho  Ho0  1  0.257962  0.187869  0.730415  1
  Ho  Ho1  1  0.241776  0.189962  0.229955  1
  Ho  Ho2  1  0.741785  0.809541  0.270247  1
  Tm  Tm3  1  0.758294  0.808901  0.770522  1
  Ru  Ru4  1  0.754532  0.273265  0.954467  1
  Ru  Ru5  1  0.254920  0.728064  0.546189  1
  Ru  Ru6  1  0.245656  0.727961  0.043733  1
  Ru  Ru7  1  0.745791  0.271620  0.455462  1
  F  F8  1  0.453653  0.704077  0.918675  1
  F  F9  1  0.951842  0.295725  0.581068  1
  F  F10  1  0.548736  0.296152  0.080255  1
  F  F11  1  0.047571  0.704456  0.420802  1
  F  F12  1  0.452647  0.281228  0.546986  1
  F  F13  1  0.952242  0.718521  0.951499  1
  F  F14  1  0.546814  0.717911  0.454102  1
  F  F15  1  0.047286  0.282633  0.046149  1
  F  F16  1  0.766975  0.513998  0.858312  1
  F  F17  1  0.267813  0.488023  0.641662  1
  F  F18  1  0.232117  0.487779  0.140044  1
  F  F19  1  0.732170  0.512026  0.359731  1
  F  F20  1  0.753099  0.034602  0.047096  1
  F  F21  1  0.253313  0.966607  0.453517  1
  F  F22  1  0.246772  0.966853  0.951547  1
  F  F23  1  0.747325  0.033384  0.547347  1
  F  F24  1  0.969853  0.731560  0.644358  1
  F  F25  1  0.469369  0.269457  0.857263  1
  F  F26  1  0.031761  0.269787  0.358020  1
  F  F27  1  0.530709  0.730934  0.141542  1
  F  F28  1  0.042201  0.751292  0.171757  1
  F  F29  1  0.543377  0.248701  0.327056  1
  F  F30  1  0.957073  0.250089  0.826632  1
  F  F31  1  0.460429  0.751890  0.673543  1
  F  F32  1  0.426430  0.973165  0.233983  1
  F  F33  1  0.926456  0.026440  0.266185  1
  F  F34  1  0.572888  0.022865  0.765690  1
  F  F35  1  0.068363  0.972661  0.734190  1
