# generated using pymatgen
data_Dy3Y3Al24(Ru3Rh)2
_symmetry_space_group_name_H-M   'P 1'
_cell_length_a   8.79548846
_cell_length_b   8.79548820
_cell_length_c   9.54078200
_cell_angle_alpha   90.00000000
_cell_angle_beta   90.00000000
_cell_angle_gamma   119.55149489
_symmetry_Int_Tables_number   1
_chemical_formula_structural   Dy3Y3Al24(Ru3Rh)2
_chemical_formula_sum   'Dy3 Y3 Al24 Ru6 Rh2'
_cell_volume   642.06588529
_cell_formula_units_Z   1
loop_
 _symmetry_equiv_pos_site_id
 _symmetry_equiv_pos_as_xyz
  1  'x, y, z'
loop_
 _atom_site_type_symbol
 _atom_site_label
 _atom_site_symmetry_multiplicity
 _atom_site_fract_x
 _atom_site_fract_y
 _atom_site_fract_z
 _atom_site_occupancy
  Dy  Dy0  1  0.805507  0.194493  0.750000  1
  Dy  Dy1  1  0.810404  0.613341  0.750000  1
  Dy  Dy2  1  0.386659  0.189596  0.750000  1
  Y  Y3  1  0.193695  0.806305  0.250000  1
  Y  Y4  1  0.189255  0.385350  0.250000  1
  Y  Y5  1  0.614650  0.810745  0.250000  1
  Al  Al6  1  0.560843  0.439157  0.250000  1
  Al  Al7  1  0.560306  0.122725  0.250000  1
  Al  Al8  1  0.877275  0.439694  0.250000  1
  Al  Al9  1  0.439254  0.560746  0.750000  1
  Al  Al10  1  0.439770  0.877322  0.750000  1
  Al  Al11  1  0.122678  0.560230  0.750000  1
  Al  Al12  1  0.324000  0.161259  0.422296  1
  Al  Al13  1  0.836745  0.163255  0.422774  1
  Al  Al14  1  0.838741  0.676000  0.422296  1
  Al  Al15  1  0.676297  0.838748  0.578259  1
  Al  Al16  1  0.163087  0.836913  0.577780  1
  Al  Al17  1  0.161252  0.323703  0.578259  1
  Al  Al18  1  0.676297  0.838748  0.921741  1
  Al  Al19  1  0.163087  0.836913  0.922220  1
  Al  Al20  1  0.161252  0.323703  0.921741  1
  Al  Al21  1  0.324000  0.161259  0.077704  1
  Al  Al22  1  0.836745  0.163255  0.077226  1
  Al  Al23  1  0.838741  0.676000  0.077704  1
  Al  Al24  1  0.667801  0.332199  0.519005  1
  Al  Al25  1  0.332100  0.667900  0.482554  1
  Al  Al26  1  0.332100  0.667900  0.017446  1
  Al  Al27  1  0.667801  0.332199  0.980995  1
  Al  Al28  1  0.999463  0.000537  0.250000  1
  Al  Al29  1  0.000706  0.999294  0.750000  1
  Ru  Ru30  1  0.999881  0.000119  0.499580  1
  Ru  Ru31  1  0.999881  0.000119  0.000420  1
  Ru  Ru32  1  0.500058  0.000089  0.500262  1
  Ru  Ru33  1  0.999911  0.499942  0.500262  1
  Ru  Ru34  1  0.500058  0.000089  0.999738  1
  Ru  Ru35  1  0.999911  0.499942  0.999738  1
  Rh  Rh36  1  0.499896  0.500104  0.499970  1
  Rh  Rh37  1  0.499896  0.500104  0.000030  1
