# generated using pymatgen
data_KYbEr2CuSe5
_symmetry_space_group_name_H-M   'P 1'
_cell_length_a   4.09445900
_cell_length_b   7.36003410
_cell_length_c   17.84321600
_cell_angle_alpha   90.00000000
_cell_angle_beta   90.00000000
_cell_angle_gamma   73.84987405
_symmetry_Int_Tables_number   1
_chemical_formula_structural   KYbEr2CuSe5
_chemical_formula_sum   'K2 Yb2 Er4 Cu2 Se10'
_cell_volume   516.49153897
_cell_formula_units_Z   2
loop_
 _symmetry_equiv_pos_site_id
 _symmetry_equiv_pos_as_xyz
  1  'x, y, z'
loop_
 _atom_site_type_symbol
 _atom_site_label
 _atom_site_symmetry_multiplicity
 _atom_site_fract_x
 _atom_site_fract_y
 _atom_site_fract_z
 _atom_site_occupancy
  K  K0  1  0.521941  0.956120  0.250000  1
  K  K1  1  0.478060  0.043880  0.750000  1
  Yb  Yb2  1  0.000000  0.000000  0.000000  1
  Yb  Yb3  1  0.000000  0.000000  0.500000  1
  Er  Er4  1  0.270472  0.459055  0.103158  1
  Er  Er5  1  0.270472  0.459055  0.396842  1
  Er  Er6  1  0.729529  0.540945  0.603158  1
  Er  Er7  1  0.729529  0.540945  0.896843  1
  Cu  Cu8  1  0.795804  0.408394  0.250000  1
  Cu  Cu9  1  0.204197  0.591605  0.750000  1
  Se  Se10  1  0.641568  0.716867  0.047415  1
  Se  Se11  1  0.898733  0.202535  0.138670  1
  Se  Se12  1  0.197780  0.604440  0.250000  1
  Se  Se13  1  0.898733  0.202535  0.361330  1
  Se  Se14  1  0.641568  0.716867  0.452586  1
  Se  Se15  1  0.358433  0.283133  0.547414  1
  Se  Se16  1  0.101267  0.797465  0.638670  1
  Se  Se17  1  0.802221  0.395560  0.750000  1
  Se  Se18  1  0.101267  0.797465  0.861330  1
  Se  Se19  1  0.358433  0.283133  0.952586  1
