# generated using pymatgen
data_Tm8Ti7Si16Tc5
_symmetry_space_group_name_H-M   'P 1'
_cell_length_a   6.88432199
_cell_length_b   6.89339711
_cell_length_c   12.67932317
_cell_angle_alpha   89.80770118
_cell_angle_beta   89.89804297
_cell_angle_gamma   89.94189099
_symmetry_Int_Tables_number   1
_chemical_formula_structural   Tm8Ti7Si16Tc5
_chemical_formula_sum   'Tm8 Ti7 Si16 Tc5'
_cell_volume   601.70994428
_cell_formula_units_Z   1
loop_
 _symmetry_equiv_pos_site_id
 _symmetry_equiv_pos_as_xyz
  1  'x, y, z'
loop_
 _atom_site_type_symbol
 _atom_site_label
 _atom_site_symmetry_multiplicity
 _atom_site_fract_x
 _atom_site_fract_y
 _atom_site_fract_z
 _atom_site_occupancy
  Tm  Tm0  1  0.340171  0.000205  0.470114  1
  Tm  Tm1  1  0.498620  0.840294  0.719915  1
  Tm  Tm2  1  0.499305  0.159191  0.218788  1
  Tm  Tm3  1  0.839366  0.498596  0.279716  1
  Tm  Tm4  1  0.159724  0.498999  0.781834  1
  Tm  Tm5  1  0.659073  0.999714  0.968566  1
  Tm  Tm6  1  0.000427  0.340874  0.531124  1
  Tm  Tm7  1  0.997696  0.658185  0.028897  1
  Ti  Ti8  1  0.494473  0.657661  0.126834  1
  Ti  Ti9  1  0.501034  0.346140  0.628663  1
  Ti  Ti10  1  0.656309  0.497546  0.873599  1
  Ti  Ti11  1  0.346399  0.504316  0.373567  1
  Ti  Ti12  1  0.846318  0.997475  0.376568  1
  Ti  Ti13  1  0.003492  0.155543  0.125994  1
  Ti  Ti14  1  0.996136  0.847007  0.622788  1
  Si  Si15  1  0.197036  0.128587  0.686608  1
  Si  Si16  1  0.375260  0.702130  0.933426  1
  Si  Si17  1  0.628675  0.299291  0.433597  1
  Si  Si18  1  0.700910  0.370918  0.066410  1
  Si  Si19  1  0.299506  0.630080  0.566816  1
  Si  Si20  1  0.799725  0.870391  0.182729  1
  Si  Si21  1  0.129986  0.201344  0.317978  1
  Si  Si22  1  0.874428  0.805335  0.816474  1
  Si  Si23  1  0.290670  0.958979  0.062263  1
  Si  Si24  1  0.546856  0.791801  0.317662  1
  Si  Si25  1  0.446531  0.209884  0.819423  1
  Si  Si26  1  0.791127  0.548157  0.682818  1
  Si  Si27  1  0.208586  0.453930  0.182688  1
  Si  Si28  1  0.708347  0.046565  0.567277  1
  Si  Si29  1  0.962195  0.280081  0.931766  1
  Si  Si30  1  0.045982  0.709393  0.431518  1
  Tc  Tc31  1  0.328801  0.332322  0.001186  1
  Tc  Tc32  1  0.169820  0.830874  0.247371  1
  Tc  Tc33  1  0.826040  0.169967  0.748288  1
  Tc  Tc34  1  0.670062  0.669953  0.500378  1
  Tc  Tc35  1  0.160912  0.988272  0.876360  1
