# generated using pymatgen
data_LiNp2As4Pd
_symmetry_space_group_name_H-M   'P 1'
_cell_length_a   3.91465700
_cell_length_b   3.93160400
_cell_length_c   9.98183300
_cell_angle_alpha   90.00000000
_cell_angle_beta   90.00000000
_cell_angle_gamma   90.00000000
_symmetry_Int_Tables_number   1
_chemical_formula_structural   LiNp2As4Pd
_chemical_formula_sum   'Li1 Np2 As4 Pd1'
_cell_volume   153.62920506
_cell_formula_units_Z   1
loop_
 _symmetry_equiv_pos_site_id
 _symmetry_equiv_pos_as_xyz
  1  'x, y, z'
loop_
 _atom_site_type_symbol
 _atom_site_label
 _atom_site_symmetry_multiplicity
 _atom_site_fract_x
 _atom_site_fract_y
 _atom_site_fract_z
 _atom_site_occupancy
  Li  Li0  1  0.500000  0.500000  0.499837  1
  Np  Np1  1  0.500000  0.000000  0.769783  1
  Np  Np2  1  0.000000  0.500000  0.231237  1
  As  As3  1  0.500000  0.500000  0.000043  1
  As  As4  1  0.000000  0.000000  0.000175  1
  As  As5  1  0.500000  0.000000  0.324521  1
  As  As6  1  0.000000  0.500000  0.674584  1
  Pd  Pd7  1  0.000000  0.000000  0.499820  1
