# generated using pymatgen
data_Hf8Cu3Re4Tc
_symmetry_space_group_name_H-M   'P 1'
_cell_length_a   6.57740300
_cell_length_b   4.60514600
_cell_length_c   9.22404100
_cell_angle_alpha   90.00000000
_cell_angle_beta   90.00115260
_cell_angle_gamma   90.00000000
_symmetry_Int_Tables_number   1
_chemical_formula_structural   Hf8Cu3Re4Tc
_chemical_formula_sum   'Hf8 Cu3 Re4 Tc1'
_cell_volume   279.39528975
_cell_formula_units_Z   1
loop_
 _symmetry_equiv_pos_site_id
 _symmetry_equiv_pos_as_xyz
  1  'x, y, z'
loop_
 _atom_site_type_symbol
 _atom_site_label
 _atom_site_symmetry_multiplicity
 _atom_site_fract_x
 _atom_site_fract_y
 _atom_site_fract_z
 _atom_site_occupancy
  Hf  Hf0  1  0.504550  0.750000  0.124983  1
  Hf  Hf1  1  0.995463  0.750000  0.124979  1
  Hf  Hf2  1  0.501866  0.250001  0.372175  1
  Hf  Hf3  1  0.998144  0.250001  0.372179  1
  Hf  Hf4  1  0.002615  0.750000  0.624997  1
  Hf  Hf5  1  0.497375  0.750000  0.624994  1
  Hf  Hf6  1  0.998143  0.250001  0.877827  1
  Hf  Hf7  1  0.501848  0.250001  0.877834  1
  Cu  Cu8  1  0.250005  0.750000  0.374404  1
  Cu  Cu9  1  0.749998  0.250001  0.625034  1
  Cu  Cu10  1  0.250008  0.750000  0.875565  1
  Re  Re11  1  0.249995  0.250001  0.125011  1
  Re  Re12  1  0.750011  0.750000  0.379286  1
  Re  Re13  1  0.249995  0.250001  0.625008  1
  Re  Re14  1  0.749991  0.750000  0.870729  1
  Tc  Tc15  1  0.749994  0.250001  0.124994  1
