# generated using pymatgen
data_Sm4Tm4Re(TcB8)3
_symmetry_space_group_name_H-M   'P 1'
_cell_length_a   3.69479800
_cell_length_b   9.16863499
_cell_length_c   11.59842801
_cell_angle_alpha   90.02481972
_cell_angle_beta   90.00000000
_cell_angle_gamma   90.00000000
_symmetry_Int_Tables_number   1
_chemical_formula_structural   Sm4Tm4Re(TcB8)3
_chemical_formula_sum   'Sm4 Tm4 Re1 Tc3 B24'
_cell_volume   392.91125895
_cell_formula_units_Z   1
loop_
 _symmetry_equiv_pos_site_id
 _symmetry_equiv_pos_as_xyz
  1  'x, y, z'
loop_
 _atom_site_type_symbol
 _atom_site_label
 _atom_site_symmetry_multiplicity
 _atom_site_fract_x
 _atom_site_fract_y
 _atom_site_fract_z
 _atom_site_occupancy
  Sm  Sm0  1  0.000000  0.323265  0.414456  1
  Sm  Sm1  1  0.000000  0.676868  0.585466  1
  Sm  Sm2  1  0.000000  0.823188  0.085701  1
  Sm  Sm3  1  0.000000  0.177146  0.914550  1
  Tm  Tm4  1  0.000000  0.942893  0.368836  1
  Tm  Tm5  1  0.000000  0.057699  0.630304  1
  Tm  Tm6  1  0.000000  0.442797  0.131150  1
  Tm  Tm7  1  0.000000  0.556123  0.869332  1
  Re  Re8  1  0.000000  0.860204  0.818997  1
  Tc  Tc9  1  0.000000  0.639898  0.318982  1
  Tc  Tc10  1  0.000000  0.360147  0.680995  1
  Tc  Tc11  1  0.000000  0.139866  0.181058  1
  B  B12  1  0.500000  0.554655  0.431291  1
  B  B13  1  0.500000  0.445510  0.568811  1
  B  B14  1  0.500000  0.054628  0.068847  1
  B  B15  1  0.500000  0.945561  0.931401  1
  B  B16  1  0.500000  0.750589  0.416781  1
  B  B17  1  0.500000  0.249745  0.583189  1
  B  B18  1  0.500000  0.250479  0.083264  1
  B  B19  1  0.500000  0.749161  0.916988  1
  B  B20  1  0.500000  0.792089  0.265425  1
  B  B21  1  0.500000  0.207975  0.734426  1
  B  B22  1  0.500000  0.292034  0.234653  1
  B  B23  1  0.500000  0.707614  0.765469  1
  B  B24  1  0.500000  0.629547  0.185508  1
  B  B25  1  0.500000  0.370245  0.814464  1
  B  B26  1  0.500000  0.129607  0.314528  1
  B  B27  1  0.500000  0.870567  0.685294  1
  B  B28  1  0.500000  0.983107  0.212850  1
  B  B29  1  0.500000  0.017221  0.786966  1
  B  B30  1  0.500000  0.483038  0.287196  1
  B  B31  1  0.500000  0.516824  0.712968  1
  B  B32  1  0.500000  0.596444  0.026786  1
  B  B33  1  0.500000  0.403082  0.973478  1
  B  B34  1  0.500000  0.096739  0.473038  1
  B  B35  1  0.500000  0.903447  0.526555  1
