# generated using pymatgen
data_Yb2Dy(YIr)2
_symmetry_space_group_name_H-M   'P 1'
_cell_length_a   6.53488890
_cell_length_b   7.27275031
_cell_length_c   8.53063238
_cell_angle_alpha   97.08534184
_cell_angle_beta   112.52117650
_cell_angle_gamma   89.99999609
_symmetry_Int_Tables_number   1
_chemical_formula_structural   Yb2Dy(YIr)2
_chemical_formula_sum   'Yb4 Dy2 Y4 Ir4'
_cell_volume   371.15913871
_cell_formula_units_Z   2
loop_
 _symmetry_equiv_pos_site_id
 _symmetry_equiv_pos_as_xyz
  1  'x, y, z'
loop_
 _atom_site_type_symbol
 _atom_site_label
 _atom_site_symmetry_multiplicity
 _atom_site_fract_x
 _atom_site_fract_y
 _atom_site_fract_z
 _atom_site_occupancy
  Yb  Yb0  1  0.793220  0.080831  0.816093  1
  Yb  Yb1  1  0.977129  0.419169  0.183907  1
  Yb  Yb2  1  0.206780  0.919169  0.183907  1
  Yb  Yb3  1  0.022871  0.580831  0.816093  1
  Dy  Dy4  1  0.432121  0.250000  0.000000  1
  Dy  Dy5  1  0.567879  0.750000  0.000000  1
  Y  Y6  1  0.209409  0.183834  0.561203  1
  Y  Y7  1  0.648206  0.316166  0.438797  1
  Y  Y8  1  0.790591  0.816166  0.438797  1
  Y  Y9  1  0.351794  0.683834  0.561203  1
  Ir  Ir10  1  0.589660  0.427712  0.774214  1
  Ir  Ir11  1  0.815445  0.072288  0.225786  1
  Ir  Ir12  1  0.410340  0.572288  0.225786  1
  Ir  Ir13  1  0.184555  0.927712  0.774214  1
