# generated using pymatgen
data_Ho20Ir3Pt4Rh5
_symmetry_space_group_name_H-M   'P 1'
_cell_length_a   10.93667862
_cell_length_b   10.94274419
_cell_length_c   6.31215327
_cell_angle_alpha   90.02926212
_cell_angle_beta   89.93529978
_cell_angle_gamma   89.55598953
_symmetry_Int_Tables_number   1
_chemical_formula_structural   Ho20Ir3Pt4Rh5
_chemical_formula_sum   'Ho20 Ir3 Pt4 Rh5'
_cell_volume   755.39804501
_cell_formula_units_Z   1
loop_
 _symmetry_equiv_pos_site_id
 _symmetry_equiv_pos_as_xyz
  1  'x, y, z'
loop_
 _atom_site_type_symbol
 _atom_site_label
 _atom_site_symmetry_multiplicity
 _atom_site_fract_x
 _atom_site_fract_y
 _atom_site_fract_z
 _atom_site_occupancy
  Ho  Ho0  1  0.292648  0.092260  0.378045  1
  Ho  Ho1  1  0.293728  0.910228  0.873716  1
  Ho  Ho2  1  0.705234  0.086719  0.875327  1
  Ho  Ho3  1  0.705817  0.908484  0.374736  1
  Ho  Ho4  1  0.586596  0.789285  0.879706  1
  Ho  Ho5  1  0.584326  0.207389  0.375686  1
  Ho  Ho6  1  0.413650  0.790133  0.379141  1
  Ho  Ho7  1  0.408276  0.208658  0.880869  1
  Ho  Ho8  1  0.210960  0.411572  0.620302  1
  Ho  Ho9  1  0.209497  0.586113  0.120737  1
  Ho  Ho10  1  0.792170  0.415422  0.124754  1
  Ho  Ho11  1  0.791458  0.589902  0.618996  1
  Ho  Ho12  1  0.909080  0.706067  0.124553  1
  Ho  Ho13  1  0.914652  0.293526  0.626017  1
  Ho  Ho14  1  0.091036  0.705064  0.625119  1
  Ho  Ho15  1  0.092852  0.292996  0.122490  1
  Ho  Ho16  1  0.001394  0.000619  0.499728  1
  Ho  Ho17  1  0.001129  0.002094  0.000204  1
  Ho  Ho18  1  0.498545  0.500971  0.999829  1
  Ho  Ho19  1  0.498831  0.501642  0.500077  1
  Ir  Ir20  1  0.654931  0.653942  0.250055  1
  Ir  Ir21  1  0.346246  0.345260  0.249812  1
  Ir  Ir22  1  0.344530  0.655772  0.750488  1
  Pt  Pt23  1  0.844706  0.155085  0.250135  1
  Pt  Pt24  1  0.846162  0.847084  0.750518  1
  Pt  Pt25  1  0.154324  0.845526  0.249932  1
  Pt  Pt26  1  0.655883  0.344505  0.749591  1
  Rh  Rh27  1  0.151940  0.153051  0.749422  1
  Rh  Rh28  1  0.500649  0.000255  0.124504  1
  Rh  Rh29  1  0.499834  0.000647  0.625159  1
  Rh  Rh30  1  0.999724  0.499807  0.874774  1
  Rh  Rh31  1  0.999197  0.499918  0.375574  1
