# generated using pymatgen
data_Y3MgPaInRh3
_symmetry_space_group_name_H-M   'P 1'
_cell_length_a   7.58434749
_cell_length_b   7.47085623
_cell_length_c   4.09392500
_cell_angle_alpha   90.00000000
_cell_angle_beta   90.00000000
_cell_angle_gamma   119.66763570
_symmetry_Int_Tables_number   1
_chemical_formula_structural   Y3MgPaInRh3
_chemical_formula_sum   'Y3 Mg1 Pa1 In1 Rh3'
_cell_volume   201.55979151
_cell_formula_units_Z   1
loop_
 _symmetry_equiv_pos_site_id
 _symmetry_equiv_pos_as_xyz
  1  'x, y, z'
loop_
 _atom_site_type_symbol
 _atom_site_label
 _atom_site_symmetry_multiplicity
 _atom_site_fract_x
 _atom_site_fract_y
 _atom_site_fract_z
 _atom_site_occupancy
  Y  Y0  1  0.000108  0.627718  0.500000  1
  Y  Y1  1  0.437858  0.408050  0.500000  1
  Y  Y2  1  0.560873  0.966786  0.500000  1
  Mg  Mg3  1  0.251918  0.003570  0.000000  1
  Pa  Pa4  1  0.995316  0.265395  0.000000  1
  In  In5  1  0.745469  0.748444  0.000000  1
  Rh  Rh6  1  0.306611  0.627399  0.000000  1
  Rh  Rh7  1  0.011062  0.031228  0.500000  1
  Rh  Rh8  1  0.690785  0.321412  0.000000  1
