# generated using pymatgen
data_SmTh(AlGa)3
_symmetry_space_group_name_H-M   'P 1'
_cell_length_a   6.43852000
_cell_length_b   6.43852097
_cell_length_c   4.62532900
_cell_angle_alpha   90.00000000
_cell_angle_beta   90.00000000
_cell_angle_gamma   119.99999503
_symmetry_Int_Tables_number   1
_chemical_formula_structural   SmTh(AlGa)3
_chemical_formula_sum   'Sm1 Th1 Al3 Ga3'
_cell_volume   166.05251069
_cell_formula_units_Z   1
loop_
 _symmetry_equiv_pos_site_id
 _symmetry_equiv_pos_as_xyz
  1  'x, y, z'
loop_
 _atom_site_type_symbol
 _atom_site_label
 _atom_site_symmetry_multiplicity
 _atom_site_fract_x
 _atom_site_fract_y
 _atom_site_fract_z
 _atom_site_occupancy
  Sm  Sm0  1  0.666667  0.333333  0.250000  1
  Th  Th1  1  0.333333  0.666667  0.750000  1
  Al  Al2  1  0.140784  0.281569  0.250000  1
  Al  Al3  1  0.718431  0.859216  0.250000  1
  Al  Al4  1  0.140784  0.859216  0.250000  1
  Ga  Ga5  1  0.856860  0.713722  0.750000  1
  Ga  Ga6  1  0.286278  0.143140  0.750000  1
  Ga  Ga7  1  0.856860  0.143140  0.750000  1
