# generated using pymatgen
data_Tb4Er6Lu2Co5Bi
_symmetry_space_group_name_H-M   'P 1'
_cell_length_a   8.23317961
_cell_length_b   8.26053737
_cell_length_c   8.23317904
_cell_angle_alpha   111.10323529
_cell_angle_beta   110.38180574
_cell_angle_gamma   106.82908918
_symmetry_Int_Tables_number   1
_chemical_formula_structural   Tb4Er6Lu2Co5Bi
_chemical_formula_sum   'Tb4 Er6 Lu2 Co5 Bi1'
_cell_volume   431.06119751
_cell_formula_units_Z   1
loop_
 _symmetry_equiv_pos_site_id
 _symmetry_equiv_pos_as_xyz
  1  'x, y, z'
loop_
 _atom_site_type_symbol
 _atom_site_label
 _atom_site_symmetry_multiplicity
 _atom_site_fract_x
 _atom_site_fract_y
 _atom_site_fract_z
 _atom_site_occupancy
  Tb  Tb0  1  0.596951  0.792869  0.805626  1
  Tb  Tb1  1  0.403049  0.207131  0.194374  1
  Tb  Tb2  1  0.987244  0.792869  0.195917  1
  Tb  Tb3  1  0.012756  0.207131  0.804083  1
  Er  Er4  1  0.818390  0.711308  0.527698  1
  Er  Er5  1  0.181610  0.288692  0.472302  1
  Er  Er6  1  0.183610  0.711308  0.892919  1
  Er  Er7  1  0.816390  0.288692  0.107081  1
  Er  Er8  1  0.687218  0.377025  0.689806  1
  Er  Er9  1  0.312782  0.622975  0.310194  1
  Lu  Lu10  1  0.687018  0.998363  0.311345  1
  Lu  Lu11  1  0.312982  0.001637  0.688655  1
  Co  Co12  1  0.623201  0.000000  0.623201  1
  Co  Co13  1  0.376799  0.000000  0.376799  1
  Co  Co14  1  0.111785  0.612608  0.500822  1
  Co  Co15  1  0.888215  0.387392  0.499178  1
  Co  Co16  1  0.000000  0.000000  0.000000  1
  Bi  Bi17  1  0.500000  0.500000  0.000000  1
