# generated using pymatgen
data_Tm2HfSn3Rh10
_symmetry_space_group_name_H-M   'P 1'
_cell_length_a   4.25374300
_cell_length_b   5.65300261
_cell_length_c   11.14195075
_cell_angle_alpha   91.49493533
_cell_angle_beta   90.00000000
_cell_angle_gamma   90.00000000
_symmetry_Int_Tables_number   1
_chemical_formula_structural   Tm2HfSn3Rh10
_chemical_formula_sum   'Tm2 Hf1 Sn3 Rh10'
_cell_volume   267.83283869
_cell_formula_units_Z   1
loop_
 _symmetry_equiv_pos_site_id
 _symmetry_equiv_pos_as_xyz
  1  'x, y, z'
loop_
 _atom_site_type_symbol
 _atom_site_label
 _atom_site_symmetry_multiplicity
 _atom_site_fract_x
 _atom_site_fract_y
 _atom_site_fract_z
 _atom_site_occupancy
  Tm  Tm0  1  0.500000  0.832358  0.360249  1
  Tm  Tm1  1  0.500000  0.667856  0.860413  1
  Hf  Hf2  1  0.500000  0.321129  0.142189  1
  Sn  Sn3  1  0.500000  0.168301  0.646653  1
  Sn  Sn4  1  0.000000  0.524716  0.495014  1
  Sn  Sn5  1  0.000000  0.992596  0.000916  1
  Rh  Rh6  1  0.500000  0.185740  0.890655  1
  Rh  Rh7  1  0.500000  0.800306  0.113718  1
  Rh  Rh8  1  0.500000  0.693598  0.612095  1
  Rh  Rh9  1  0.500000  0.319536  0.384941  1
  Rh  Rh10  1  0.000000  0.416224  0.735524  1
  Rh  Rh11  1  0.000000  0.564195  0.246582  1
  Rh  Rh12  1  0.000000  0.035639  0.506326  1
  Rh  Rh13  1  0.000000  0.487237  0.001767  1
  Rh  Rh14  1  0.000000  0.071667  0.247073  1
  Rh  Rh15  1  0.000000  0.918904  0.755886  1
