# generated using pymatgen
data_TbDyAl5Au3
_symmetry_space_group_name_H-M   'P 1'
_cell_length_a   4.21804500
_cell_length_b   4.21821200
_cell_length_c   11.05072400
_cell_angle_alpha   90.00000000
_cell_angle_beta   90.00000000
_cell_angle_gamma   90.00000000
_symmetry_Int_Tables_number   1
_chemical_formula_structural   TbDyAl5Au3
_chemical_formula_sum   'Tb1 Dy1 Al5 Au3'
_cell_volume   196.62120064
_cell_formula_units_Z   1
loop_
 _symmetry_equiv_pos_site_id
 _symmetry_equiv_pos_as_xyz
  1  'x, y, z'
loop_
 _atom_site_type_symbol
 _atom_site_label
 _atom_site_symmetry_multiplicity
 _atom_site_fract_x
 _atom_site_fract_y
 _atom_site_fract_z
 _atom_site_occupancy
  Tb  Tb0  1  0.500000  0.000000  0.747210  1
  Dy  Dy1  1  0.000000  0.500000  0.252770  1
  Al  Al2  1  0.500000  0.500000  0.000020  1
  Al  Al3  1  0.000000  0.000000  0.000021  1
  Al  Al4  1  0.000000  0.500000  0.641924  1
  Al  Al5  1  0.500000  0.000000  0.358026  1
  Al  Al6  1  0.000000  0.000000  0.499999  1
  Au  Au7  1  0.000000  0.500000  0.864482  1
  Au  Au8  1  0.500000  0.000000  0.135596  1
  Au  Au9  1  0.500000  0.500000  0.499953  1
