# generated using pymatgen
data_LuZr(Ga3Ni)6
_symmetry_space_group_name_H-M   'P 1'
_cell_length_a   10.09971993
_cell_length_b   10.09972000
_cell_length_c   10.09971900
_cell_angle_alpha   42.24821824
_cell_angle_beta   42.24822623
_cell_angle_gamma   42.24822755
_symmetry_Int_Tables_number   1
_chemical_formula_structural   LuZr(Ga3Ni)6
_chemical_formula_sum   'Lu1 Zr1 Ga18 Ni6'
_cell_volume   421.47288505
_cell_formula_units_Z   1
loop_
 _symmetry_equiv_pos_site_id
 _symmetry_equiv_pos_as_xyz
  1  'x, y, z'
loop_
 _atom_site_type_symbol
 _atom_site_label
 _atom_site_symmetry_multiplicity
 _atom_site_fract_x
 _atom_site_fract_y
 _atom_site_fract_z
 _atom_site_occupancy
  Lu  Lu0  1  0.832796  0.832796  0.832796  1
  Zr  Zr1  1  0.167415  0.167415  0.167415  1
  Ga  Ga2  1  0.052129  0.052129  0.052129  1
  Ga  Ga3  1  0.715549  0.494966  0.289477  1
  Ga  Ga4  1  0.665725  0.332993  0.001267  1
  Ga  Ga5  1  0.104400  0.434545  0.769990  1
  Ga  Ga6  1  0.434545  0.769990  0.104400  1
  Ga  Ga7  1  0.387185  0.387185  0.387185  1
  Ga  Ga8  1  0.332993  0.001267  0.665725  1
  Ga  Ga9  1  0.613409  0.613409  0.613409  1
  Ga  Ga10  1  0.231604  0.563035  0.896427  1
  Ga  Ga11  1  0.563035  0.896427  0.231604  1
  Ga  Ga12  1  0.494966  0.289477  0.715549  1
  Ga  Ga13  1  0.769990  0.104400  0.434545  1
  Ga  Ga14  1  0.948240  0.948240  0.948240  1
  Ga  Ga15  1  0.289477  0.715549  0.494966  1
  Ga  Ga16  1  0.001267  0.665725  0.332993  1
  Ga  Ga17  1  0.717219  0.717219  0.717219  1
  Ga  Ga18  1  0.281894  0.281894  0.281894  1
  Ga  Ga19  1  0.896427  0.231604  0.563035  1
  Ni  Ni20  1  0.241346  0.920454  0.582129  1
  Ni  Ni21  1  0.920454  0.582129  0.241346  1
  Ni  Ni22  1  0.757784  0.419347  0.078674  1
  Ni  Ni23  1  0.078674  0.757784  0.419347  1
  Ni  Ni24  1  0.419347  0.078674  0.757784  1
  Ni  Ni25  1  0.582129  0.241346  0.920454  1
