# generated using pymatgen
data_Tb2Ho6Hf11Si16Os
_symmetry_space_group_name_H-M   'P 1'
_cell_length_a   7.23520909
_cell_length_b   7.23626049
_cell_length_c   13.22975103
_cell_angle_alpha   89.87692449
_cell_angle_beta   90.13295604
_cell_angle_gamma   90.02776603
_symmetry_Int_Tables_number   1
_chemical_formula_structural   Tb2Ho6Hf11Si16Os
_chemical_formula_sum   'Tb2 Ho6 Hf11 Si16 Os1'
_cell_volume   692.65141926
_cell_formula_units_Z   1
loop_
 _symmetry_equiv_pos_site_id
 _symmetry_equiv_pos_as_xyz
  1  'x, y, z'
loop_
 _atom_site_type_symbol
 _atom_site_label
 _atom_site_symmetry_multiplicity
 _atom_site_fract_x
 _atom_site_fract_y
 _atom_site_fract_z
 _atom_site_occupancy
  Tb  Tb0  1  0.344098  0.997947  0.788370  1
  Tb  Tb1  1  0.654354  0.006076  0.282640  1
  Ho  Ho2  1  0.998507  0.344481  0.211643  1
  Ho  Ho3  1  0.005479  0.653943  0.717333  1
  Ho  Ho4  1  0.155466  0.494897  0.465300  1
  Ho  Ho5  1  0.501617  0.846810  0.032463  1
  Ho  Ho6  1  0.846781  0.501645  0.967397  1
  Ho  Ho7  1  0.494787  0.155452  0.535015  1
  Hf  Hf8  1  0.824758  0.824475  0.499946  1
  Hf  Hf9  1  0.324026  0.675306  0.247624  1
  Hf  Hf10  1  0.675601  0.324216  0.752250  1
  Hf  Hf11  1  0.146351  0.998036  0.371916  1
  Hf  Hf12  1  0.853885  0.004285  0.878845  1
  Hf  Hf13  1  0.503229  0.646488  0.625536  1
  Hf  Hf14  1  0.352713  0.496618  0.876889  1
  Hf  Hf15  1  0.496461  0.352648  0.123056  1
  Hf  Hf16  1  0.646441  0.502866  0.374506  1
  Hf  Hf17  1  0.998246  0.146506  0.628128  1
  Hf  Hf18  1  0.004107  0.853421  0.121161  1
  Si  Si19  1  0.357990  0.296409  0.315517  1
  Si  Si20  1  0.641565  0.704203  0.818776  1
  Si  Si21  1  0.205108  0.860117  0.567114  1
  Si  Si22  1  0.136726  0.792113  0.930749  1
  Si  Si23  1  0.794042  0.137860  0.069363  1
  Si  Si24  1  0.860936  0.205959  0.433370  1
  Si  Si25  1  0.295372  0.359702  0.684122  1
  Si  Si26  1  0.705122  0.639941  0.180932  1
  Si  Si27  1  0.292447  0.054977  0.179619  1
  Si  Si28  1  0.704255  0.950170  0.686012  1
  Si  Si29  1  0.448684  0.796749  0.435063  1
  Si  Si30  1  0.205242  0.547039  0.064033  1
  Si  Si31  1  0.548339  0.205977  0.936083  1
  Si  Si32  1  0.797322  0.449382  0.565281  1
  Si  Si33  1  0.054056  0.294044  0.820026  1
  Si  Si34  1  0.950892  0.702968  0.313763  1
  Os  Os35  1  0.175002  0.176279  0.000154  1
