# generated using pymatgen
data_Th2Zn(SiRh2)3
_symmetry_space_group_name_H-M   'P 1'
_cell_length_a   6.71853041
_cell_length_b   6.71908409
_cell_length_c   6.71852958
_cell_angle_alpha   130.43171976
_cell_angle_beta   113.41538814
_cell_angle_gamma   87.36429700
_symmetry_Int_Tables_number   1
_chemical_formula_structural   Th2Zn(SiRh2)3
_chemical_formula_sum   'Th2 Zn1 Si3 Rh6'
_cell_volume   201.87851556
_cell_formula_units_Z   1
loop_
 _symmetry_equiv_pos_site_id
 _symmetry_equiv_pos_as_xyz
  1  'x, y, z'
loop_
 _atom_site_type_symbol
 _atom_site_label
 _atom_site_symmetry_multiplicity
 _atom_site_fract_x
 _atom_site_fract_y
 _atom_site_fract_z
 _atom_site_occupancy
  Th  Th0  1  0.748854  0.061631  0.312777  1
  Th  Th1  1  0.253486  0.957147  0.703661  1
  Zn  Zn2  1  0.590681  0.400967  0.810286  1
  Si  Si3  1  0.434951  0.629109  0.194158  1
  Si  Si4  1  0.070705  0.266161  0.195456  1
  Si  Si5  1  0.905362  0.708917  0.803555  1
  Rh  Rh6  1  0.207977  0.506625  0.712623  1
  Rh  Rh7  1  0.721465  0.994910  0.726019  1
  Rh  Rh8  1  0.794002  0.506625  0.298648  1
  Rh  Rh9  1  0.268891  0.994910  0.273445  1
  Rh  Rh10  1  0.475386  0.486499  0.458259  1
  Rh  Rh11  1  0.028240  0.486499  0.011113  1
