# generated using pymatgen
data_CoBi2Pt3O8
_symmetry_space_group_name_H-M   'P 1'
_cell_length_a   5.49357089
_cell_length_b   6.02938925
_cell_length_c   6.62660903
_cell_angle_alpha   115.46823233
_cell_angle_beta   96.73647775
_cell_angle_gamma   109.05981561
_symmetry_Int_Tables_number   1
_chemical_formula_structural   CoBi2Pt3O8
_chemical_formula_sum   'Co1 Bi2 Pt3 O8'
_cell_volume   178.55251894
_cell_formula_units_Z   1
loop_
 _symmetry_equiv_pos_site_id
 _symmetry_equiv_pos_as_xyz
  1  'x, y, z'
loop_
 _atom_site_type_symbol
 _atom_site_label
 _atom_site_symmetry_multiplicity
 _atom_site_fract_x
 _atom_site_fract_y
 _atom_site_fract_z
 _atom_site_occupancy
  Co  Co0  1  0.500000  0.500000  0.000000  1
  Bi  Bi1  1  0.858431  0.256072  0.658540  1
  Bi  Bi2  1  0.141569  0.743928  0.341460  1
  Pt  Pt3  1  0.500000  0.500000  0.500000  1
  Pt  Pt4  1  0.500000  0.000000  0.000000  1
  Pt  Pt5  1  0.000000  0.000000  0.000000  1
  O  O6  1  0.638560  0.405829  0.219949  1
  O  O7  1  0.361440  0.594171  0.780051  1
  O  O8  1  0.864870  0.644756  0.994449  1
  O  O9  1  0.135130  0.355244  0.005551  1
  O  O10  1  0.521593  0.855570  0.229621  1
  O  O11  1  0.478407  0.144430  0.770379  1
  O  O12  1  0.843012  0.853822  0.649879  1
  O  O13  1  0.156988  0.146178  0.350121  1
