# generated using pymatgen
data_ThFe2(Re4W)2
_symmetry_space_group_name_H-M   'P 1'
_cell_length_a   5.03413082
_cell_length_b   6.91163926
_cell_length_c   6.91163922
_cell_angle_alpha   98.04675509
_cell_angle_beta   111.46022965
_cell_angle_gamma   68.53976448
_symmetry_Int_Tables_number   1
_chemical_formula_structural   ThFe2(Re4W)2
_chemical_formula_sum   'Th1 Fe2 Re8 W2'
_cell_volume   208.29017126
_cell_formula_units_Z   1
loop_
 _symmetry_equiv_pos_site_id
 _symmetry_equiv_pos_as_xyz
  1  'x, y, z'
loop_
 _atom_site_type_symbol
 _atom_site_label
 _atom_site_symmetry_multiplicity
 _atom_site_fract_x
 _atom_site_fract_y
 _atom_site_fract_z
 _atom_site_occupancy
  Th  Th0  1  0.000000  0.000000  0.000000  1
  Fe  Fe1  1  0.500000  0.000000  0.500000  1
  Fe  Fe2  1  0.500000  0.500000  0.000000  1
  Re  Re3  1  0.710585  0.777458  0.222542  1
  Re  Re4  1  0.289415  0.222542  0.777458  1
  Re  Re5  1  0.500000  0.780362  0.780362  1
  Re  Re6  1  0.500000  0.219638  0.219638  1
  Re  Re7  1  0.000000  0.000000  0.500000  1
  Re  Re8  1  0.000000  0.500000  0.000000  1
  Re  Re9  1  0.635627  0.358718  0.641282  1
  Re  Re10  1  0.364373  0.641282  0.358718  1
  W  W11  1  0.000000  0.356683  0.356683  1
  W  W12  1  0.000000  0.643317  0.643317  1
