# generated using pymatgen
data_La4DyY11(CdNi)4
_symmetry_space_group_name_H-M   'P 1'
_cell_length_a   9.71413946
_cell_length_b   9.70661338
_cell_length_c   9.70661230
_cell_angle_alpha   59.96505522
_cell_angle_beta   59.97434073
_cell_angle_gamma   59.97434617
_symmetry_Int_Tables_number   1
_chemical_formula_structural   La4DyY11(CdNi)4
_chemical_formula_sum   'La4 Dy1 Y11 Cd4 Ni4'
_cell_volume   646.75751854
_cell_formula_units_Z   1
loop_
 _symmetry_equiv_pos_site_id
 _symmetry_equiv_pos_as_xyz
  1  'x, y, z'
loop_
 _atom_site_type_symbol
 _atom_site_label
 _atom_site_symmetry_multiplicity
 _atom_site_fract_x
 _atom_site_fract_y
 _atom_site_fract_z
 _atom_site_occupancy
  La  La0  1  0.599933  0.599896  0.599896  1
  La  La1  1  0.600492  0.600916  0.198100  1
  La  La2  1  0.600492  0.198100  0.600916  1
  La  La3  1  0.200275  0.599896  0.599896  1
  Dy  Dy4  1  0.062980  0.437020  0.437020  1
  Y  Y5  1  0.435730  0.064270  0.064270  1
  Y  Y6  1  0.436070  0.064213  0.436257  1
  Y  Y7  1  0.063460  0.436257  0.064213  1
  Y  Y8  1  0.436070  0.436257  0.064213  1
  Y  Y9  1  0.063460  0.064213  0.436257  1
  Y  Y10  1  0.184024  0.815976  0.815976  1
  Y  Y11  1  0.815572  0.184428  0.184428  1
  Y  Y12  1  0.815665  0.185546  0.815106  1
  Y  Y13  1  0.183683  0.815106  0.185546  1
  Y  Y14  1  0.815665  0.815106  0.185546  1
  Y  Y15  1  0.183683  0.185546  0.815106  1
  Cd  Cd16  1  0.834511  0.831097  0.831097  1
  Cd  Cd17  1  0.833807  0.831267  0.501118  1
  Cd  Cd18  1  0.833807  0.501118  0.831267  1
  Cd  Cd19  1  0.503292  0.831097  0.831097  1
  Ni  Ni20  1  0.389082  0.393138  0.393138  1
  Ni  Ni21  1  0.391802  0.391439  0.824958  1
  Ni  Ni22  1  0.391802  0.824958  0.391439  1
  Ni  Ni23  1  0.824643  0.393138  0.393138  1
