# generated using pymatgen
data_Tm4Hf3O12
_symmetry_space_group_name_H-M   'P 1'
_cell_length_a   6.27325188
_cell_length_b   6.30799985
_cell_length_c   6.48885816
_cell_angle_alpha   99.86978086
_cell_angle_beta   98.52462658
_cell_angle_gamma   99.59542394
_symmetry_Int_Tables_number   1
_chemical_formula_structural   Tm4Hf3O12
_chemical_formula_sum   'Tm4 Hf3 O12'
_cell_volume   245.26901974
_cell_formula_units_Z   1
loop_
 _symmetry_equiv_pos_site_id
 _symmetry_equiv_pos_as_xyz
  1  'x, y, z'
loop_
 _atom_site_type_symbol
 _atom_site_label
 _atom_site_symmetry_multiplicity
 _atom_site_fract_x
 _atom_site_fract_y
 _atom_site_fract_z
 _atom_site_occupancy
  Tm  Tm0  1  0.387580  0.699182  0.866136  1
  Tm  Tm1  1  0.694138  0.864855  0.389216  1
  Tm  Tm2  1  0.612420  0.300818  0.133864  1
  Tm  Tm3  1  0.305862  0.135145  0.610784  1
  Hf  Hf4  1  0.000000  0.000000  0.000000  1
  Hf  Hf5  1  0.849324  0.396447  0.670419  1
  Hf  Hf6  1  0.150676  0.603553  0.329581  1
  O  O7  1  0.026720  0.677727  0.884746  1
  O  O8  1  0.684749  0.931026  0.059258  1
  O  O9  1  0.918964  0.083553  0.694289  1
  O  O10  1  0.973280  0.322273  0.115254  1
  O  O11  1  0.315251  0.068974  0.940742  1
  O  O12  1  0.081036  0.916447  0.305711  1
  O  O13  1  0.587881  0.188360  0.433367  1
  O  O14  1  0.171746  0.427572  0.573388  1
  O  O15  1  0.413964  0.581888  0.179162  1
  O  O16  1  0.412119  0.811640  0.566633  1
  O  O17  1  0.828254  0.572428  0.426612  1
  O  O18  1  0.586036  0.418112  0.820838  1
