# generated using pymatgen
data_Tm12Si12Os3Ru
_symmetry_space_group_name_H-M   'P 1'
_cell_length_a   4.14423800
_cell_length_b   10.64460636
_cell_length_c   12.19811212
_cell_angle_alpha   90.02298943
_cell_angle_beta   90.00000000
_cell_angle_gamma   90.00000000
_symmetry_Int_Tables_number   1
_chemical_formula_structural   Tm12Si12Os3Ru
_chemical_formula_sum   'Tm12 Si12 Os3 Ru1'
_cell_volume   538.10481770
_cell_formula_units_Z   1
loop_
 _symmetry_equiv_pos_site_id
 _symmetry_equiv_pos_as_xyz
  1  'x, y, z'
loop_
 _atom_site_type_symbol
 _atom_site_label
 _atom_site_symmetry_multiplicity
 _atom_site_fract_x
 _atom_site_fract_y
 _atom_site_fract_z
 _atom_site_occupancy
  Tm  Tm0  1  0.250000  0.880061  0.020490  1
  Tm  Tm1  1  0.250000  0.619873  0.520118  1
  Tm  Tm2  1  0.750000  0.120276  0.980082  1
  Tm  Tm3  1  0.750000  0.380154  0.479957  1
  Tm  Tm4  1  0.250000  0.921368  0.604754  1
  Tm  Tm5  1  0.250000  0.578428  0.105532  1
  Tm  Tm6  1  0.750000  0.078703  0.394424  1
  Tm  Tm7  1  0.750000  0.421248  0.894672  1
  Tm  Tm8  1  0.250000  0.661851  0.799866  1
  Tm  Tm9  1  0.250000  0.838838  0.299570  1
  Tm  Tm10  1  0.750000  0.338663  0.200364  1
  Tm  Tm11  1  0.750000  0.161074  0.700064  1
  Si  Si12  1  0.250000  0.013183  0.821664  1
  Si  Si13  1  0.250000  0.488030  0.321338  1
  Si  Si14  1  0.750000  0.987899  0.178402  1
  Si  Si15  1  0.750000  0.511988  0.678795  1
  Si  Si16  1  0.250000  0.249728  0.841700  1
  Si  Si17  1  0.250000  0.250516  0.342124  1
  Si  Si18  1  0.750000  0.749999  0.158277  1
  Si  Si19  1  0.750000  0.749686  0.657341  1
  Si  Si20  1  0.250000  0.200676  0.544390  1
  Si  Si21  1  0.250000  0.299669  0.044468  1
  Si  Si22  1  0.750000  0.799212  0.455212  1
  Si  Si23  1  0.750000  0.698924  0.956821  1
  Os  Os24  1  0.250000  0.389791  0.680046  1
  Os  Os25  1  0.250000  0.110315  0.180436  1
  Os  Os26  1  0.750000  0.610273  0.319962  1
  Ru  Ru27  1  0.750000  0.889576  0.819128  1
