# generated using pymatgen
data_DyEr3Al14(Ga2Ir3)2
_symmetry_space_group_name_H-M   'P 1'
_cell_length_a   7.52309611
_cell_length_b   7.52004648
_cell_length_c   9.53388900
_cell_angle_alpha   90.00000000
_cell_angle_beta   90.00000000
_cell_angle_gamma   119.49956297
_symmetry_Int_Tables_number   1
_chemical_formula_structural   DyEr3Al14(Ga2Ir3)2
_chemical_formula_sum   'Dy1 Er3 Al14 Ga4 Ir6'
_cell_volume   469.44625239
_cell_formula_units_Z   1
loop_
 _symmetry_equiv_pos_site_id
 _symmetry_equiv_pos_as_xyz
  1  'x, y, z'
loop_
 _atom_site_type_symbol
 _atom_site_label
 _atom_site_symmetry_multiplicity
 _atom_site_fract_x
 _atom_site_fract_y
 _atom_site_fract_z
 _atom_site_occupancy
  Dy  Dy0  1  0.329070  0.006789  0.250000  1
  Er  Er1  1  0.996990  0.674251  0.750000  1
  Er  Er2  1  0.002845  0.325701  0.250000  1
  Er  Er3  1  0.671207  0.993341  0.750000  1
  Al  Al4  1  0.000959  0.335337  0.573344  1
  Al  Al5  1  0.998663  0.664361  0.427120  1
  Al  Al6  1  0.998663  0.664361  0.072880  1
  Al  Al7  1  0.335725  0.001669  0.926080  1
  Al  Al8  1  0.000959  0.335337  0.926656  1
  Al  Al9  1  0.664579  0.998225  0.072925  1
  Al  Al10  1  0.664579  0.998225  0.427075  1
  Al  Al11  1  0.335725  0.001669  0.573920  1
  Al  Al12  1  0.333460  0.334138  0.053750  1
  Al  Al13  1  0.666539  0.666185  0.945305  1
  Al  Al14  1  0.666539  0.666185  0.554695  1
  Al  Al15  1  0.333460  0.334138  0.446250  1
  Al  Al16  1  0.550438  0.339579  0.750000  1
  Al  Al17  1  0.449756  0.660045  0.250000  1
  Ga  Ga18  1  0.131200  0.132342  0.750000  1
  Ga  Ga19  1  0.868315  0.867657  0.250000  1
  Ga  Ga20  1  0.339062  0.547286  0.750000  1
  Ga  Ga21  1  0.661473  0.453355  0.250000  1
  Ir  Ir22  1  0.671481  0.327906  0.502658  1
  Ir  Ir23  1  0.328619  0.672112  0.497734  1
  Ir  Ir24  1  0.328619  0.672112  0.002266  1
  Ir  Ir25  1  0.671481  0.327906  0.997342  1
  Ir  Ir26  1  0.999795  0.999893  0.500245  1
  Ir  Ir27  1  0.999795  0.999893  0.999755  1
