# generated using pymatgen
data_Y16Cd4CoNi2Os
_symmetry_space_group_name_H-M   'P 1'
_cell_length_a   9.61623890
_cell_length_b   9.61623890
_cell_length_c   9.62683615
_cell_angle_alpha   59.52090634
_cell_angle_beta   59.52089816
_cell_angle_gamma   59.52847457
_symmetry_Int_Tables_number   1
_chemical_formula_structural   Y16Cd4CoNi2Os
_chemical_formula_sum   'Y16 Cd4 Co1 Ni2 Os1'
_cell_volume   622.65419589
_cell_formula_units_Z   1
loop_
 _symmetry_equiv_pos_site_id
 _symmetry_equiv_pos_as_xyz
  1  'x, y, z'
loop_
 _atom_site_type_symbol
 _atom_site_label
 _atom_site_symmetry_multiplicity
 _atom_site_fract_x
 _atom_site_fract_y
 _atom_site_fract_z
 _atom_site_occupancy
  Y  Y0  1  0.595940  0.595940  0.599929  1
  Y  Y1  1  0.601346  0.601346  0.202790  1
  Y  Y2  1  0.599679  0.204827  0.602923  1
  Y  Y3  1  0.204827  0.599679  0.602923  1
  Y  Y4  1  0.060105  0.438304  0.438658  1
  Y  Y5  1  0.436526  0.064849  0.057840  1
  Y  Y6  1  0.438304  0.060105  0.438658  1
  Y  Y7  1  0.064849  0.436526  0.057840  1
  Y  Y8  1  0.437973  0.437973  0.057488  1
  Y  Y9  1  0.060591  0.060591  0.437435  1
  Y  Y10  1  0.187252  0.812945  0.815379  1
  Y  Y11  1  0.807192  0.188781  0.188958  1
  Y  Y12  1  0.812945  0.187252  0.815379  1
  Y  Y13  1  0.188781  0.807192  0.188958  1
  Y  Y14  1  0.814537  0.814537  0.187219  1
  Y  Y15  1  0.189669  0.189669  0.807659  1
  Cd  Cd16  1  0.829820  0.829820  0.830263  1
  Cd  Cd17  1  0.829935  0.829935  0.506938  1
  Cd  Cd18  1  0.829950  0.506679  0.830185  1
  Cd  Cd19  1  0.506679  0.829950  0.830185  1
  Co  Co20  1  0.392293  0.392293  0.826013  1
  Ni  Ni21  1  0.392178  0.825559  0.392123  1
  Ni  Ni22  1  0.825559  0.392178  0.392123  1
  Os  Os23  1  0.393071  0.393071  0.392131  1
