# generated using pymatgen
data_HoLu3(ReN3)4
_symmetry_space_group_name_H-M   'P 1'
_cell_length_a   7.29737286
_cell_length_b   7.29737311
_cell_length_c   6.22925033
_cell_angle_alpha   72.59582145
_cell_angle_beta   72.59581867
_cell_angle_gamma   81.22915590
_symmetry_Int_Tables_number   1
_chemical_formula_structural   HoLu3(ReN3)4
_chemical_formula_sum   'Ho1 Lu3 Re4 N12'
_cell_volume   301.31584886
_cell_formula_units_Z   1
loop_
 _symmetry_equiv_pos_site_id
 _symmetry_equiv_pos_as_xyz
  1  'x, y, z'
loop_
 _atom_site_type_symbol
 _atom_site_label
 _atom_site_symmetry_multiplicity
 _atom_site_fract_x
 _atom_site_fract_y
 _atom_site_fract_z
 _atom_site_occupancy
  Ho  Ho0  1  0.711157  0.288843  0.250000  1
  Lu  Lu1  1  0.910191  0.089809  0.750000  1
  Lu  Lu2  1  0.287138  0.712862  0.750000  1
  Lu  Lu3  1  0.091693  0.908307  0.250000  1
  Re  Re4  1  0.619087  0.797124  0.276274  1
  Re  Re5  1  0.202876  0.380913  0.223726  1
  Re  Re6  1  0.379674  0.203155  0.724977  1
  Re  Re7  1  0.796845  0.620326  0.775023  1
  N  N8  1  0.339986  0.366864  0.919816  1
  N  N9  1  0.006059  0.216237  0.342036  1
  N  N10  1  0.783763  0.993941  0.157964  1
  N  N11  1  0.219166  0.001952  0.841422  1
  N  N12  1  0.659191  0.636948  0.076769  1
  N  N13  1  0.878075  0.367036  0.837596  1
  N  N14  1  0.121866  0.633968  0.156390  1
  N  N15  1  0.998048  0.780834  0.658578  1
  N  N16  1  0.366032  0.878134  0.343610  1
  N  N17  1  0.633136  0.660014  0.580184  1
  N  N18  1  0.632964  0.121925  0.662404  1
  N  N19  1  0.363052  0.340809  0.423231  1
