# generated using pymatgen
data_CeDy9IrOs3
_symmetry_space_group_name_H-M   'P 1'
_cell_length_a   6.45315241
_cell_length_b   7.27225733
_cell_length_c   8.50387727
_cell_angle_alpha   96.84669902
_cell_angle_beta   112.17372369
_cell_angle_gamma   89.14010804
_symmetry_Int_Tables_number   1
_chemical_formula_structural   CeDy9IrOs3
_chemical_formula_sum   'Ce1 Dy9 Ir1 Os3'
_cell_volume   366.73333221
_cell_formula_units_Z   1
loop_
 _symmetry_equiv_pos_site_id
 _symmetry_equiv_pos_as_xyz
  1  'x, y, z'
loop_
 _atom_site_type_symbol
 _atom_site_label
 _atom_site_symmetry_multiplicity
 _atom_site_fract_x
 _atom_site_fract_y
 _atom_site_fract_z
 _atom_site_occupancy
  Ce  Ce0  1  0.792128  0.096691  0.817209  1
  Dy  Dy1  1  0.977697  0.418756  0.187035  1
  Dy  Dy2  1  0.211146  0.916732  0.187317  1
  Dy  Dy3  1  0.028915  0.582189  0.820848  1
  Dy  Dy4  1  0.203731  0.183228  0.559042  1
  Dy  Dy5  1  0.646434  0.317362  0.435360  1
  Dy  Dy6  1  0.785743  0.815842  0.433789  1
  Dy  Dy7  1  0.354711  0.682630  0.562397  1
  Dy  Dy8  1  0.426144  0.250921  0.003519  1
  Dy  Dy9  1  0.576099  0.749576  0.998956  1
  Ir  Ir10  1  0.165848  0.926036  0.777229  1
  Os  Os11  1  0.612403  0.410641  0.782285  1
  Os  Os12  1  0.824266  0.073586  0.217034  1
  Os  Os13  1  0.394737  0.575810  0.217981  1
