# generated using pymatgen
data_Zr6Ta2Nb4Ga10Os7
_symmetry_space_group_name_H-M   'P 1'
_cell_length_a   8.97343639
_cell_length_b   8.92127497
_cell_length_c   8.92127541
_cell_angle_alpha   59.54661741
_cell_angle_beta   59.80639349
_cell_angle_gamma   59.80638755
_symmetry_Int_Tables_number   1
_chemical_formula_structural   Zr6Ta2Nb4Ga10Os7
_chemical_formula_sum   'Zr6 Ta2 Nb4 Ga10 Os7'
_cell_volume   501.78654407
_cell_formula_units_Z   1
loop_
 _symmetry_equiv_pos_site_id
 _symmetry_equiv_pos_as_xyz
  1  'x, y, z'
loop_
 _atom_site_type_symbol
 _atom_site_label
 _atom_site_symmetry_multiplicity
 _atom_site_fract_x
 _atom_site_fract_y
 _atom_site_fract_z
 _atom_site_occupancy
  Zr  Zr0  1  0.686981  0.700639  0.308790  1
  Zr  Zr1  1  0.303590  0.700639  0.308790  1
  Zr  Zr2  1  0.703224  0.296776  0.296776  1
  Zr  Zr3  1  0.303590  0.308790  0.700639  1
  Zr  Zr4  1  0.686981  0.308790  0.700639  1
  Zr  Zr5  1  0.307461  0.692539  0.692539  1
  Ta  Ta6  1  0.126689  0.127111  0.619511  1
  Ta  Ta7  1  0.126689  0.619511  0.127111  1
  Nb  Nb8  1  0.875039  0.881014  0.368908  1
  Nb  Nb9  1  0.875039  0.368908  0.881014  1
  Nb  Nb10  1  0.376093  0.876621  0.876621  1
  Nb  Nb11  1  0.870666  0.876621  0.876621  1
  Ga  Ga12  1  0.646270  0.118381  0.118381  1
  Ga  Ga13  1  0.116968  0.118381  0.118381  1
  Ga  Ga14  1  0.655420  0.652067  0.037095  1
  Ga  Ga15  1  0.655420  0.037095  0.652067  1
  Ga  Ga16  1  0.029905  0.655980  0.655980  1
  Ga  Ga17  1  0.658136  0.655980  0.655980  1
  Ga  Ga18  1  0.340891  0.337369  0.980848  1
  Ga  Ga19  1  0.340891  0.980848  0.337369  1
  Ga  Ga20  1  0.965731  0.343633  0.343633  1
  Ga  Ga21  1  0.347005  0.343633  0.343633  1
  Os  Os22  1  0.011668  0.988332  0.988332  1
  Os  Os23  1  0.999069  0.999756  0.506069  1
  Os  Os24  1  0.495106  0.999756  0.506069  1
  Os  Os25  1  0.999972  0.500028  0.500028  1
  Os  Os26  1  0.495106  0.506069  0.999756  1
  Os  Os27  1  0.999069  0.506069  0.999756  1
  Os  Os28  1  0.501331  0.998669  0.998669  1
