# generated using pymatgen
data_Cs2VNiS4
_symmetry_space_group_name_H-M   'P 1'
_cell_length_a   14.37024740
_cell_length_b   12.86538612
_cell_length_c   7.47031642
_cell_angle_alpha   85.57815220
_cell_angle_beta   63.20364697
_cell_angle_gamma   31.21820056
_symmetry_Int_Tables_number   1
_chemical_formula_structural   Cs2VNiS4
_chemical_formula_sum   'Cs4 V2 Ni2 S8'
_cell_volume   476.22997683
_cell_formula_units_Z   2
loop_
 _symmetry_equiv_pos_site_id
 _symmetry_equiv_pos_as_xyz
  1  'x, y, z'
loop_
 _atom_site_type_symbol
 _atom_site_label
 _atom_site_symmetry_multiplicity
 _atom_site_fract_x
 _atom_site_fract_y
 _atom_site_fract_z
 _atom_site_occupancy
  Cs  Cs0  1  0.573042  0.573042  0.926958  1
  Cs  Cs1  1  0.926958  0.926958  0.573042  1
  Cs  Cs2  1  0.323042  0.323042  0.676958  1
  Cs  Cs3  1  0.676958  0.676958  0.323042  1
  V  V4  1  0.750000  0.750000  0.750000  1
  V  V5  1  0.500000  0.500000  0.500000  1
  Ni  Ni6  1  0.000000  0.000000  0.000000  1
  Ni  Ni7  1  0.250000  0.250000  0.250000  1
  S  S8  1  0.221411  0.878944  0.605509  1
  S  S9  1  0.294135  0.605509  0.878944  1
  S  S10  1  0.605509  0.294135  0.221411  1
  S  S11  1  0.878944  0.221411  0.294135  1
  S  S12  1  0.371056  0.028589  0.955865  1
  S  S13  1  0.955865  0.644491  0.371056  1
  S  S14  1  0.644491  0.955865  0.028589  1
  S  S15  1  0.028589  0.371056  0.644491  1
