# generated using pymatgen
data_Gd12Ga2Co3Rh
_symmetry_space_group_name_H-M   'P 1'
_cell_length_a   8.42382539
_cell_length_b   8.42383573
_cell_length_c   8.42382500
_cell_angle_alpha   111.95978057
_cell_angle_beta   109.68214501
_cell_angle_gamma   106.81255321
_symmetry_Int_Tables_number   1
_chemical_formula_structural   Gd12Ga2Co3Rh
_chemical_formula_sum   'Gd12 Ga2 Co3 Rh1'
_cell_volume   459.22846630
_cell_formula_units_Z   1
loop_
 _symmetry_equiv_pos_site_id
 _symmetry_equiv_pos_as_xyz
  1  'x, y, z'
loop_
 _atom_site_type_symbol
 _atom_site_label
 _atom_site_symmetry_multiplicity
 _atom_site_fract_x
 _atom_site_fract_y
 _atom_site_fract_z
 _atom_site_occupancy
  Gd  Gd0  1  0.441533  0.247034  0.194511  1
  Gd  Gd1  1  0.569007  0.765923  0.803077  1
  Gd  Gd2  1  0.037154  0.234077  0.803084  1
  Gd  Gd3  1  0.947478  0.752966  0.194499  1
  Gd  Gd4  1  0.180943  0.284340  0.465297  1
  Gd  Gd5  1  0.821162  0.722854  0.543965  1
  Gd  Gd6  1  0.180957  0.715660  0.896602  1
  Gd  Gd7  1  0.821111  0.277146  0.098307  1
  Gd  Gd8  1  0.324776  0.635608  0.313705  1
  Gd  Gd9  1  0.678098  0.364392  0.689169  1
  Gd  Gd10  1  0.324754  0.011084  0.689162  1
  Gd  Gd11  1  0.678079  0.988916  0.313670  1
  Ga  Ga12  1  0.496066  0.500000  0.996066  1
  Ga  Ga13  1  0.009261  0.000000  0.009261  1
  Co  Co14  1  0.657734  0.000000  0.657734  1
  Co  Co15  1  0.112138  0.612891  0.499299  1
  Co  Co16  1  0.886407  0.387109  0.499248  1
  Rh  Rh17  1  0.333342  0.000000  0.333342  1
