# generated using pymatgen
data_Ta3Mn2SiN
_symmetry_space_group_name_H-M   'P 1'
_cell_length_a   8.00943458
_cell_length_b   8.00976755
_cell_length_c   8.00888601
_cell_angle_alpha   60.00274408
_cell_angle_beta   60.00125450
_cell_angle_gamma   60.00344434
_symmetry_Int_Tables_number   1
_chemical_formula_structural   Ta3Mn2SiN
_chemical_formula_sum   'Ta12 Mn8 Si4 N4'
_cell_volume   363.33171903
_cell_formula_units_Z   4
loop_
 _symmetry_equiv_pos_site_id
 _symmetry_equiv_pos_as_xyz
  1  'x, y, z'
loop_
 _atom_site_type_symbol
 _atom_site_label
 _atom_site_symmetry_multiplicity
 _atom_site_fract_x
 _atom_site_fract_y
 _atom_site_fract_z
 _atom_site_occupancy
  Ta  Ta0  1  0.800986  0.800973  0.199011  1
  Ta  Ta1  1  0.198983  0.198995  0.800981  1
  Ta  Ta2  1  0.801020  0.199000  0.800971  1
  Ta  Ta3  1  0.199015  0.800975  0.199017  1
  Ta  Ta4  1  0.198992  0.801019  0.800977  1
  Ta  Ta5  1  0.800979  0.199022  0.199011  1
  Ta  Ta6  1  0.448986  0.448996  0.051033  1
  Ta  Ta7  1  0.051041  0.051033  0.448989  1
  Ta  Ta8  1  0.448958  0.051032  0.449003  1
  Ta  Ta9  1  0.051009  0.448988  0.051026  1
  Ta  Ta10  1  0.051033  0.448961  0.449004  1
  Ta  Ta11  1  0.448981  0.051010  0.051032  1
  Mn  Mn12  1  0.739923  0.420028  0.420023  1
  Mn  Mn13  1  0.420025  0.739936  0.420022  1
  Mn  Mn14  1  0.420006  0.419999  0.739999  1
  Mn  Mn15  1  0.420008  0.420012  0.420001  1
  Mn  Mn16  1  0.510130  0.829964  0.829955  1
  Mn  Mn17  1  0.829966  0.510112  0.829966  1
  Mn  Mn18  1  0.829982  0.829993  0.510037  1
  Mn  Mn19  1  0.829969  0.829959  0.829969  1
  Si  Si20  1  0.125097  0.624967  0.624953  1
  Si  Si21  1  0.624969  0.125104  0.624948  1
  Si  Si22  1  0.624960  0.624952  0.125120  1
  Si  Si23  1  0.624980  0.624972  0.624959  1
  N  N24  1  0.625020  0.124993  0.124994  1
  N  N25  1  0.124994  0.625016  0.124995  1
  N  N26  1  0.124996  0.124997  0.625011  1
  N  N27  1  0.124992  0.124992  0.124992  1
