# generated using pymatgen
data_TbEr5(RuI3)2
_symmetry_space_group_name_H-M   'P 1'
_cell_length_a   4.19624700
_cell_length_b   8.85798174
_cell_length_c   12.30398782
_cell_angle_alpha   94.09989045
_cell_angle_beta   90.00000000
_cell_angle_gamma   90.00000000
_symmetry_Int_Tables_number   1
_chemical_formula_structural   TbEr5(RuI3)2
_chemical_formula_sum   'Tb1 Er5 Ru2 I6'
_cell_volume   456.17228680
_cell_formula_units_Z   1
loop_
 _symmetry_equiv_pos_site_id
 _symmetry_equiv_pos_as_xyz
  1  'x, y, z'
loop_
 _atom_site_type_symbol
 _atom_site_label
 _atom_site_symmetry_multiplicity
 _atom_site_fract_x
 _atom_site_fract_y
 _atom_site_fract_z
 _atom_site_occupancy
  Tb  Tb0  1  0.750000  0.264457  0.602852  1
  Er  Er1  1  0.250000  0.740841  0.397362  1
  Er  Er2  1  0.750000  0.871761  0.625423  1
  Er  Er3  1  0.250000  0.128263  0.373518  1
  Er  Er4  1  0.750000  0.896455  0.187784  1
  Er  Er5  1  0.250000  0.101088  0.812765  1
  Ru  Ru6  1  0.750000  0.945067  0.407842  1
  Ru  Ru7  1  0.250000  0.054848  0.591840  1
  I  I8  1  0.750000  0.424602  0.366102  1
  I  I9  1  0.250000  0.577346  0.633245  1
  I  I10  1  0.750000  0.861802  0.889973  1
  I  I11  1  0.250000  0.135606  0.109527  1
  I  I12  1  0.750000  0.353814  0.865463  1
  I  I13  1  0.250000  0.644049  0.136304  1
