# generated using pymatgen
data_KNd2Cu(SeS)2
_symmetry_space_group_name_H-M   'P 1'
_cell_length_a   4.17877000
_cell_length_b   7.58676923
_cell_length_c   14.17355900
_cell_angle_alpha   90.00000000
_cell_angle_beta   90.00000000
_cell_angle_gamma   74.01423539
_symmetry_Int_Tables_number   1
_chemical_formula_structural   KNd2Cu(SeS)2
_chemical_formula_sum   'K2 Nd4 Cu2 Se4 S4'
_cell_volume   431.97321757
_cell_formula_units_Z   2
loop_
 _symmetry_equiv_pos_site_id
 _symmetry_equiv_pos_as_xyz
  1  'x, y, z'
loop_
 _atom_site_type_symbol
 _atom_site_label
 _atom_site_symmetry_multiplicity
 _atom_site_fract_x
 _atom_site_fract_y
 _atom_site_fract_z
 _atom_site_occupancy
  K  K0  1  0.890703  0.218594  0.250000  1
  K  K1  1  0.109299  0.781405  0.750000  1
  Nd  Nd2  1  0.639035  0.721932  0.059445  1
  Nd  Nd3  1  0.639035  0.721932  0.440555  1
  Nd  Nd4  1  0.360966  0.278069  0.559446  1
  Nd  Nd5  1  0.360966  0.278069  0.940555  1
  Cu  Cu6  1  0.169603  0.660793  0.250000  1
  Cu  Cu7  1  0.830398  0.339206  0.750000  1
  Se  Se8  1  0.000000  0.000000  0.000000  1
  Se  Se9  1  0.569951  0.860100  0.250000  1
  Se  Se10  1  0.000000  0.000000  0.500000  1
  Se  Se11  1  0.430051  0.139899  0.750000  1
  S  S12  1  0.258853  0.482294  0.112922  1
  S  S13  1  0.258853  0.482294  0.387078  1
  S  S14  1  0.741148  0.517706  0.612922  1
  S  S15  1  0.741148  0.517706  0.887077  1
