# generated using pymatgen
data_AcNdCu7Ni3
_symmetry_space_group_name_H-M   'P 1'
_cell_length_a   4.04145400
_cell_length_b   5.13683945
_cell_length_c   8.91648402
_cell_angle_alpha   90.28865505
_cell_angle_beta   90.00000000
_cell_angle_gamma   90.00000000
_symmetry_Int_Tables_number   1
_chemical_formula_structural   AcNdCu7Ni3
_chemical_formula_sum   'Ac1 Nd1 Cu7 Ni3'
_cell_volume   185.10653722
_cell_formula_units_Z   1
loop_
 _symmetry_equiv_pos_site_id
 _symmetry_equiv_pos_as_xyz
  1  'x, y, z'
loop_
 _atom_site_type_symbol
 _atom_site_label
 _atom_site_symmetry_multiplicity
 _atom_site_fract_x
 _atom_site_fract_y
 _atom_site_fract_z
 _atom_site_occupancy
  Ac  Ac0  1  0.000000  0.001681  0.001414  1
  Nd  Nd1  1  0.000000  0.498257  0.499296  1
  Cu  Cu2  1  0.000000  0.998306  0.341784  1
  Cu  Cu3  1  0.000000  0.495484  0.825954  1
  Cu  Cu4  1  0.000000  0.005135  0.659194  1
  Cu  Cu5  1  0.500000  0.498332  0.000439  1
  Cu  Cu6  1  0.500000  0.254003  0.256706  1
  Cu  Cu7  1  0.500000  0.747512  0.742210  1
  Cu  Cu8  1  0.500000  0.745527  0.256000  1
  Ni  Ni9  1  0.000000  0.500174  0.172577  1
  Ni  Ni10  1  0.500000  0.003414  0.500749  1
  Ni  Ni11  1  0.500000  0.252175  0.743678  1
