# generated using pymatgen
data_DyTm7CrOs3C8
_symmetry_space_group_name_H-M   'P 1'
_cell_length_a   5.02627700
_cell_length_b   6.43417350
_cell_length_c   9.65256494
_cell_angle_alpha   90.00796500
_cell_angle_beta   90.00000000
_cell_angle_gamma   90.00000000
_symmetry_Int_Tables_number   1
_chemical_formula_structural   DyTm7CrOs3C8
_chemical_formula_sum   'Dy1 Tm7 Cr1 Os3 C8'
_cell_volume   312.16335131
_cell_formula_units_Z   1
loop_
 _symmetry_equiv_pos_site_id
 _symmetry_equiv_pos_as_xyz
  1  'x, y, z'
loop_
 _atom_site_type_symbol
 _atom_site_label
 _atom_site_symmetry_multiplicity
 _atom_site_fract_x
 _atom_site_fract_y
 _atom_site_fract_z
 _atom_site_occupancy
  Dy  Dy0  1  0.250000  0.031108  0.286603  1
  Tm  Tm1  1  0.250000  0.680573  0.558879  1
  Tm  Tm2  1  0.750000  0.324508  0.445862  1
  Tm  Tm3  1  0.750000  0.819894  0.052960  1
  Tm  Tm4  1  0.250000  0.173823  0.943042  1
  Tm  Tm5  1  0.250000  0.530674  0.213604  1
  Tm  Tm6  1  0.750000  0.470668  0.782312  1
  Tm  Tm7  1  0.750000  0.973133  0.715684  1
  Cr  Cr8  1  0.250000  0.722348  0.864851  1
  Os  Os9  1  0.750000  0.279709  0.132421  1
  Os  Os10  1  0.750000  0.779897  0.366720  1
  Os  Os11  1  0.250000  0.223441  0.635582  1
  C  C12  1  0.250000  0.461048  0.765105  1
  C  C13  1  0.750000  0.545151  0.240982  1
  C  C14  1  0.750000  0.044365  0.257696  1
  C  C15  1  0.250000  0.949853  0.743674  1
  C  C16  1  0.250000  0.815610  0.045269  1
  C  C17  1  0.750000  0.172455  0.945818  1
  C  C18  1  0.750000  0.673152  0.555206  1
  C  C19  1  0.250000  0.328589  0.447727  1
