# generated using pymatgen
data_CaTb(NiAs)2
_symmetry_space_group_name_H-M   'P 1'
_cell_length_a   4.04433300
_cell_length_b   4.04433228
_cell_length_c   16.17692200
_cell_angle_alpha   90.00000000
_cell_angle_beta   90.00000000
_cell_angle_gamma   120.00001406
_symmetry_Int_Tables_number   1
_chemical_formula_structural   CaTb(NiAs)2
_chemical_formula_sum   'Ca2 Tb2 Ni4 As4'
_cell_volume   229.15017779
_cell_formula_units_Z   2
loop_
 _symmetry_equiv_pos_site_id
 _symmetry_equiv_pos_as_xyz
  1  'x, y, z'
loop_
 _atom_site_type_symbol
 _atom_site_label
 _atom_site_symmetry_multiplicity
 _atom_site_fract_x
 _atom_site_fract_y
 _atom_site_fract_z
 _atom_site_occupancy
  Ca  Ca0  1  0.000000  0.000000  0.000000  1
  Ca  Ca1  1  0.000000  0.000000  0.500000  1
  Tb  Tb2  1  0.000000  0.000000  0.250000  1
  Tb  Tb3  1  0.000000  0.000000  0.750000  1
  Ni  Ni4  1  0.333333  0.666667  0.136468  1
  Ni  Ni5  1  0.666667  0.333333  0.863532  1
  Ni  Ni6  1  0.666667  0.333333  0.636468  1
  Ni  Ni7  1  0.333333  0.666667  0.363532  1
  As  As8  1  0.333333  0.666667  0.626185  1
  As  As9  1  0.666667  0.333333  0.373815  1
  As  As10  1  0.666667  0.333333  0.126185  1
  As  As11  1  0.333333  0.666667  0.873815  1
