# generated using pymatgen
data_Sc6Ti3Al13Os6Pt
_symmetry_space_group_name_H-M   'P 1'
_cell_length_a   8.82655560
_cell_length_b   8.82655604
_cell_length_c   8.82655574
_cell_angle_alpha   59.92630058
_cell_angle_beta   59.92629741
_cell_angle_gamma   59.92629845
_symmetry_Int_Tables_number   1
_chemical_formula_structural   Sc6Ti3Al13Os6Pt
_chemical_formula_sum   'Sc6 Ti3 Al13 Os6 Pt1'
_cell_volume   485.43621115
_cell_formula_units_Z   1
loop_
 _symmetry_equiv_pos_site_id
 _symmetry_equiv_pos_as_xyz
  1  'x, y, z'
loop_
 _atom_site_type_symbol
 _atom_site_label
 _atom_site_symmetry_multiplicity
 _atom_site_fract_x
 _atom_site_fract_y
 _atom_site_fract_z
 _atom_site_occupancy
  Sc  Sc0  1  0.711883  0.711883  0.284399  1
  Sc  Sc1  1  0.290053  0.711119  0.290053  1
  Sc  Sc2  1  0.711119  0.290053  0.290053  1
  Sc  Sc3  1  0.290053  0.290053  0.711119  1
  Sc  Sc4  1  0.711883  0.284399  0.711883  1
  Sc  Sc5  1  0.284399  0.711883  0.711883  1
  Ti  Ti6  1  0.877570  0.877570  0.366690  1
  Ti  Ti7  1  0.877570  0.366690  0.877570  1
  Ti  Ti8  1  0.366690  0.877570  0.877570  1
  Al  Al9  1  0.879109  0.879109  0.879109  1
  Al  Al10  1  0.122308  0.122308  0.634983  1
  Al  Al11  1  0.122308  0.634983  0.122308  1
  Al  Al12  1  0.634983  0.122308  0.122308  1
  Al  Al13  1  0.121875  0.121875  0.121875  1
  Al  Al14  1  0.664076  0.664076  0.008427  1
  Al  Al15  1  0.664076  0.008427  0.664076  1
  Al  Al16  1  0.008427  0.664076  0.664076  1
  Al  Al17  1  0.663276  0.663276  0.663276  1
  Al  Al18  1  0.336625  0.336625  0.991057  1
  Al  Al19  1  0.336625  0.991057  0.336625  1
  Al  Al20  1  0.991057  0.336625  0.336625  1
  Al  Al21  1  0.336340  0.336340  0.336340  1
  Os  Os22  1  0.998597  0.998597  0.499004  1
  Os  Os23  1  0.501342  0.997727  0.501342  1
  Os  Os24  1  0.997727  0.501342  0.501342  1
  Os  Os25  1  0.501342  0.501342  0.997727  1
  Os  Os26  1  0.998597  0.499004  0.998597  1
  Os  Os27  1  0.499004  0.998597  0.998597  1
  Pt  Pt28  1  0.001085  0.001085  0.001085  1
