# generated using pymatgen
data_Pa2SbN2
_symmetry_space_group_name_H-M   'P 1'
_cell_length_a   3.92293222
_cell_length_b   3.92293205
_cell_length_c   6.79764792
_cell_angle_alpha   106.77121291
_cell_angle_beta   106.77121326
_cell_angle_gamma   90.00000076
_symmetry_Int_Tables_number   1
_chemical_formula_structural   Pa2SbN2
_chemical_formula_sum   'Pa2 Sb1 N2'
_cell_volume   95.50520455
_cell_formula_units_Z   1
loop_
 _symmetry_equiv_pos_site_id
 _symmetry_equiv_pos_as_xyz
  1  'x, y, z'
loop_
 _atom_site_type_symbol
 _atom_site_label
 _atom_site_symmetry_multiplicity
 _atom_site_fract_x
 _atom_site_fract_y
 _atom_site_fract_z
 _atom_site_occupancy
  Pa  Pa0  1  0.654984  0.654984  0.309967  1
  Pa  Pa1  1  0.345017  0.345017  0.690033  1
  Sb  Sb2  1  0.000000  0.000000  0.000000  1
  N  N3  1  0.750000  0.250000  0.499999  1
  N  N4  1  0.250000  0.750000  0.499999  1
