# generated using pymatgen
data_Sc7Fe3Co5Si14W
_symmetry_space_group_name_H-M   'P 1'
_cell_length_a   9.38880075
_cell_length_b   9.38736666
_cell_length_c   9.39501500
_cell_angle_alpha   94.14049318
_cell_angle_beta   94.20690324
_cell_angle_gamma   148.75742000
_symmetry_Int_Tables_number   1
_chemical_formula_structural   Sc7Fe3Co5Si14W
_chemical_formula_sum   'Sc7 Fe3 Co5 Si14 W1'
_cell_volume   413.48907875
_cell_formula_units_Z   1
loop_
 _symmetry_equiv_pos_site_id
 _symmetry_equiv_pos_as_xyz
  1  'x, y, z'
loop_
 _atom_site_type_symbol
 _atom_site_label
 _atom_site_symmetry_multiplicity
 _atom_site_fract_x
 _atom_site_fract_y
 _atom_site_fract_z
 _atom_site_occupancy
  Sc  Sc0  1  0.863869  0.863800  0.726707  1
  Sc  Sc1  1  0.138417  0.860396  0.999451  1
  Sc  Sc2  1  0.860770  0.139004  0.999731  1
  Sc  Sc3  1  0.303635  0.500122  0.803156  1
  Sc  Sc4  1  0.696541  0.502356  0.198139  1
  Sc  Sc5  1  0.501641  0.695937  0.198791  1
  Sc  Sc6  1  0.500498  0.304361  0.804399  1
  Fe  Fe7  1  0.103091  0.601816  0.204757  1
  Fe  Fe8  1  0.398363  0.897335  0.796376  1
  Fe  Fe9  1  0.898173  0.103196  0.498652  1
  Co  Co10  1  0.600213  0.395769  0.498640  1
  Co  Co11  1  0.602683  0.103702  0.205993  1
  Co  Co12  1  0.897041  0.398036  0.795921  1
  Co  Co13  1  0.101105  0.898082  0.497937  1
  Co  Co14  1  0.397968  0.600359  0.498137  1
  Si  Si15  1  0.284489  0.284803  0.572175  1
  Si  Si16  1  0.711017  0.711116  0.419701  1
  Si  Si17  1  0.291748  0.710876  0.000918  1
  Si  Si18  1  0.709113  0.289947  0.001086  1
  Si  Si19  1  0.090701  0.499105  0.590720  1
  Si  Si20  1  0.911588  0.503502  0.407649  1
  Si  Si21  1  0.501956  0.910387  0.408916  1
  Si  Si22  1  0.494610  0.086298  0.592355  1
  Si  Si23  1  0.250944  0.251081  0.008042  1
  Si  Si24  1  0.757242  0.757650  0.008354  1
  Si  Si25  1  0.295579  0.000228  0.299145  1
  Si  Si26  1  0.696898  0.999385  0.696877  1
  Si  Si27  1  0.002721  0.699324  0.696450  1
  Si  Si28  1  0.002211  0.297020  0.299394  1
  W  W29  1  0.135171  0.135004  0.271428  1
