# generated using pymatgen
data_Er13Lu7(OsPt5)2
_symmetry_space_group_name_H-M   'P 1'
_cell_length_a   10.90974300
_cell_length_b   10.91172310
_cell_length_c   6.34403100
_cell_angle_alpha   90.00482553
_cell_angle_beta   90.00016281
_cell_angle_gamma   90.03520691
_symmetry_Int_Tables_number   1
_chemical_formula_structural   Er13Lu7(OsPt5)2
_chemical_formula_sum   'Er13 Lu7 Os2 Pt10'
_cell_volume   755.21928185
_cell_formula_units_Z   1
loop_
 _symmetry_equiv_pos_site_id
 _symmetry_equiv_pos_as_xyz
  1  'x, y, z'
loop_
 _atom_site_type_symbol
 _atom_site_label
 _atom_site_symmetry_multiplicity
 _atom_site_fract_x
 _atom_site_fract_y
 _atom_site_fract_z
 _atom_site_occupancy
  Er  Er0  1  0.708594  0.912652  0.376329  1
  Er  Er1  1  0.587638  0.792040  0.876126  1
  Er  Er2  1  0.587595  0.207992  0.376180  1
  Er  Er3  1  0.411703  0.792274  0.376200  1
  Er  Er4  1  0.412097  0.207867  0.876178  1
  Er  Er5  1  0.203442  0.414081  0.625083  1
  Er  Er6  1  0.203308  0.585634  0.125154  1
  Er  Er7  1  0.796616  0.414279  0.125165  1
  Er  Er8  1  0.796611  0.585860  0.625293  1
  Er  Er9  1  0.914004  0.703449  0.125285  1
  Er  Er10  1  0.913828  0.296416  0.625773  1
  Er  Er11  1  0.086169  0.703577  0.625243  1
  Er  Er12  1  0.086240  0.296308  0.125334  1
  Lu  Lu13  1  0.292310  0.087380  0.377030  1
  Lu  Lu14  1  0.292236  0.912588  0.877211  1
  Lu  Lu15  1  0.707692  0.087658  0.876918  1
  Lu  Lu16  1  0.000354  0.000168  0.500875  1
  Lu  Lu17  1  0.000100  0.000082  0.000509  1
  Lu  Lu18  1  0.499966  0.499984  0.000659  1
  Lu  Lu19  1  0.499999  0.500089  0.500941  1
  Os  Os20  1  0.000061  0.499915  0.876113  1
  Os  Os21  1  0.999998  0.499851  0.376137  1
  Pt  Pt22  1  0.846065  0.150706  0.248178  1
  Pt  Pt23  1  0.846413  0.849508  0.750063  1
  Pt  Pt24  1  0.154299  0.150107  0.748433  1
  Pt  Pt25  1  0.154168  0.849878  0.248455  1
  Pt  Pt26  1  0.651380  0.345758  0.750199  1
  Pt  Pt27  1  0.651059  0.653322  0.249719  1
  Pt  Pt28  1  0.348793  0.345833  0.250174  1
  Pt  Pt29  1  0.348591  0.654213  0.750149  1
  Pt  Pt30  1  0.499518  0.000209  0.116926  1
  Pt  Pt31  1  0.499153  0.000323  0.617958  1
