# generated using pymatgen
data_Th8Co3Si12Ge
_symmetry_space_group_name_H-M   'P 1'
_cell_length_a   8.11800300
_cell_length_b   8.11800290
_cell_length_c   8.42869300
_cell_angle_alpha   90.00000000
_cell_angle_beta   90.00000000
_cell_angle_gamma   119.99999633
_symmetry_Int_Tables_number   1
_chemical_formula_structural   Th8Co3Si12Ge
_chemical_formula_sum   'Th8 Co3 Si12 Ge1'
_cell_volume   481.04897446
_cell_formula_units_Z   1
loop_
 _symmetry_equiv_pos_site_id
 _symmetry_equiv_pos_as_xyz
  1  'x, y, z'
loop_
 _atom_site_type_symbol
 _atom_site_label
 _atom_site_symmetry_multiplicity
 _atom_site_fract_x
 _atom_site_fract_y
 _atom_site_fract_z
 _atom_site_occupancy
  Th  Th0  1  0.000000  0.000000  0.750126  1
  Th  Th1  1  0.000000  0.000000  0.249900  1
  Th  Th2  1  0.501639  0.498361  0.749303  1
  Th  Th3  1  0.501639  0.003278  0.749303  1
  Th  Th4  1  0.996722  0.498361  0.749303  1
  Th  Th5  1  0.502086  0.497914  0.250925  1
  Th  Th6  1  0.995828  0.497914  0.250925  1
  Th  Th7  1  0.502086  0.004172  0.250925  1
  Co  Co8  1  0.666667  0.333333  0.998143  1
  Co  Co9  1  0.666667  0.333333  0.501445  1
  Co  Co10  1  0.333333  0.666667  0.498222  1
  Si  Si11  1  0.825863  0.174137  0.999710  1
  Si  Si12  1  0.825863  0.651727  0.999710  1
  Si  Si13  1  0.348273  0.174137  0.999710  1
  Si  Si14  1  0.828491  0.171509  0.500345  1
  Si  Si15  1  0.828491  0.656982  0.500345  1
  Si  Si16  1  0.343018  0.171509  0.500345  1
  Si  Si17  1  0.171949  0.828051  0.499708  1
  Si  Si18  1  0.656100  0.828051  0.499708  1
  Si  Si19  1  0.171949  0.343900  0.499708  1
  Si  Si20  1  0.160793  0.839207  0.000370  1
  Si  Si21  1  0.678414  0.839207  0.000370  1
  Si  Si22  1  0.160793  0.321586  0.000370  1
  Ge  Ge23  1  0.333333  0.666667  0.001088  1
