# generated using pymatgen
data_Mn21TcMoC6
_symmetry_space_group_name_H-M   'P 1'
_cell_length_a   7.39629878
_cell_length_b   7.39648198
_cell_length_c   7.39642400
_cell_angle_alpha   60.00209784
_cell_angle_beta   60.00162475
_cell_angle_gamma   60.00210468
_symmetry_Int_Tables_number   1
_chemical_formula_structural   Mn21TcMoC6
_chemical_formula_sum   'Mn21 Tc1 Mo1 C6'
_cell_volume   286.13143784
_cell_formula_units_Z   1
loop_
 _symmetry_equiv_pos_site_id
 _symmetry_equiv_pos_as_xyz
  1  'x, y, z'
loop_
 _atom_site_type_symbol
 _atom_site_label
 _atom_site_symmetry_multiplicity
 _atom_site_fract_x
 _atom_site_fract_y
 _atom_site_fract_z
 _atom_site_occupancy
  Mn  Mn0  1  0.615206  0.615199  0.154385  1
  Mn  Mn1  1  0.382747  0.382756  0.382761  1
  Mn  Mn2  1  0.662682  0.000251  0.336815  1
  Mn  Mn3  1  0.000259  0.000255  0.336811  1
  Mn  Mn4  1  0.336820  0.000247  0.662687  1
  Mn  Mn5  1  0.336822  0.000250  0.000248  1
  Mn  Mn6  1  0.000266  0.336795  0.000259  1
  Mn  Mn7  1  0.662687  0.000243  0.000244  1
  Mn  Mn8  1  0.000262  0.336797  0.662685  1
  Mn  Mn9  1  0.336828  0.662680  0.000245  1
  Mn  Mn10  1  0.615199  0.154391  0.615194  1
  Mn  Mn11  1  0.000246  0.662684  0.000241  1
  Mn  Mn12  1  0.615192  0.615206  0.615198  1
  Mn  Mn13  1  0.154388  0.615200  0.615206  1
  Mn  Mn14  1  0.000045  0.999971  0.999999  1
  Mn  Mn15  1  0.000248  0.000243  0.662690  1
  Mn  Mn16  1  0.382737  0.851773  0.382753  1
  Mn  Mn17  1  0.851746  0.382758  0.382748  1
  Mn  Mn18  1  0.662686  0.336800  0.000256  1
  Mn  Mn19  1  0.000255  0.662674  0.336822  1
  Mn  Mn20  1  0.382736  0.382761  0.851752  1
  Tc  Tc21  1  0.249986  0.249991  0.249993  1
  Mo  Mo22  1  0.749982  0.750046  0.750004  1
  C  C23  1  0.274123  0.725898  0.274113  1
  C  C24  1  0.274129  0.274109  0.725892  1
  C  C25  1  0.274113  0.725888  0.725877  1
  C  C26  1  0.725877  0.274124  0.274128  1
  C  C27  1  0.725870  0.725894  0.274110  1
  C  C28  1  0.725867  0.274113  0.725882  1
