# generated using pymatgen
data_Tb4DyTm7(GaCo2)2
_symmetry_space_group_name_H-M   'P 1'
_cell_length_a   8.23437426
_cell_length_b   8.24669279
_cell_length_c   8.24669303
_cell_angle_alpha   107.08988892
_cell_angle_beta   109.17997343
_cell_angle_gamma   112.24997971
_symmetry_Int_Tables_number   1
_chemical_formula_structural   Tb4DyTm7(GaCo2)2
_chemical_formula_sum   'Tb4 Dy1 Tm7 Ga2 Co4'
_cell_volume   429.85956962
_cell_formula_units_Z   1
loop_
 _symmetry_equiv_pos_site_id
 _symmetry_equiv_pos_as_xyz
  1  'x, y, z'
loop_
 _atom_site_type_symbol
 _atom_site_label
 _atom_site_symmetry_multiplicity
 _atom_site_fract_x
 _atom_site_fract_y
 _atom_site_fract_z
 _atom_site_occupancy
  Tb  Tb0  1  0.699245  0.261107  0.959131  1
  Tb  Tb1  1  0.301166  0.737538  0.040085  1
  Tb  Tb2  1  0.699245  0.740114  0.438139  1
  Tb  Tb3  1  0.301166  0.261082  0.563628  1
  Dy  Dy4  1  0.397945  0.218949  0.178996  1
  Tm  Tm5  1  0.813798  0.140482  0.328605  1
  Tm  Tm6  1  0.813798  0.485193  0.673315  1
  Tm  Tm7  1  0.186976  0.858650  0.671135  1
  Tm  Tm8  1  0.186976  0.515842  0.328326  1
  Tm  Tm9  1  0.601966  0.780626  0.821341  1
  Tm  Tm10  1  0.959124  0.780685  0.178440  1
  Tm  Tm11  1  0.039613  0.219214  0.820399  1
  Ga  Ga12  1  0.500651  0.501302  0.999349  1
  Ga  Ga13  1  0.500033  0.000105  0.499927  1
  Co  Co14  1  0.839898  0.500820  0.339077  1
  Co  Co15  1  0.161738  0.500282  0.661456  1
  Co  Co16  1  0.998330  0.114480  0.114801  1
  Co  Co17  1  0.998330  0.883529  0.883851  1
