# generated using pymatgen
data_Dy3Zn3Hg2Pt
_symmetry_space_group_name_H-M   'P 1'
_cell_length_a   7.73394400
_cell_length_b   7.73394416
_cell_length_c   3.77018800
_cell_angle_alpha   90.00000000
_cell_angle_beta   90.00000000
_cell_angle_gamma   120.00000904
_symmetry_Int_Tables_number   1
_chemical_formula_structural   Dy3Zn3Hg2Pt
_chemical_formula_sum   'Dy3 Zn3 Hg2 Pt1'
_cell_volume   195.29703679
_cell_formula_units_Z   1
loop_
 _symmetry_equiv_pos_site_id
 _symmetry_equiv_pos_as_xyz
  1  'x, y, z'
loop_
 _atom_site_type_symbol
 _atom_site_label
 _atom_site_symmetry_multiplicity
 _atom_site_fract_x
 _atom_site_fract_y
 _atom_site_fract_z
 _atom_site_occupancy
  Dy  Dy0  1  0.024145  0.417557  0.500000  1
  Dy  Dy1  1  0.582443  0.606588  0.500000  1
  Dy  Dy2  1  0.393412  0.975855  0.500000  1
  Zn  Zn3  1  0.005895  0.727272  0.000000  1
  Zn  Zn4  1  0.272728  0.278621  0.000000  1
  Zn  Zn5  1  0.721379  0.994105  0.000000  1
  Hg  Hg6  1  0.666667  0.333333  0.000000  1
  Hg  Hg7  1  0.000000  0.000000  0.500000  1
  Pt  Pt8  1  0.333333  0.666667  0.000000  1
