# generated using pymatgen
data_Dy4PaOs6W
_symmetry_space_group_name_H-M   'P 1'
_cell_length_a   5.31986606
_cell_length_b   5.31986810
_cell_length_c   9.18858900
_cell_angle_alpha   90.00000000
_cell_angle_beta   90.00000000
_cell_angle_gamma   116.37538655
_symmetry_Int_Tables_number   1
_chemical_formula_structural   Dy4PaOs6W
_chemical_formula_sum   'Dy4 Pa1 Os6 W1'
_cell_volume   232.97602307
_cell_formula_units_Z   1
loop_
 _symmetry_equiv_pos_site_id
 _symmetry_equiv_pos_as_xyz
  1  'x, y, z'
loop_
 _atom_site_type_symbol
 _atom_site_label
 _atom_site_symmetry_multiplicity
 _atom_site_fract_x
 _atom_site_fract_y
 _atom_site_fract_z
 _atom_site_occupancy
  Dy  Dy0  1  0.331224  0.668776  0.444892  1
  Dy  Dy1  1  0.665353  0.334647  0.572223  1
  Dy  Dy2  1  0.665353  0.334647  0.927777  1
  Dy  Dy3  1  0.331224  0.668776  0.055108  1
  Pa  Pa4  1  0.844633  0.155367  0.250000  1
  Os  Os5  1  0.005509  0.994491  0.506708  1
  Os  Os6  1  0.005509  0.994491  0.993292  1
  Os  Os7  1  0.830334  0.645860  0.250000  1
  Os  Os8  1  0.354140  0.169666  0.250000  1
  Os  Os9  1  0.171679  0.357947  0.750000  1
  Os  Os10  1  0.642053  0.828321  0.750000  1
  W  W11  1  0.152991  0.847009  0.750000  1
