# generated using pymatgen
data_ThU5(Ni3As4)2
_symmetry_space_group_name_H-M   'P 1'
_cell_length_a   7.76420746
_cell_length_b   7.76420676
_cell_length_c   7.76420700
_cell_angle_alpha   109.59060537
_cell_angle_beta   109.23269074
_cell_angle_gamma   109.59062338
_symmetry_Int_Tables_number   1
_chemical_formula_structural   ThU5(Ni3As4)2
_chemical_formula_sum   'Th1 U5 Ni6 As8'
_cell_volume   360.29963684
_cell_formula_units_Z   1
loop_
 _symmetry_equiv_pos_site_id
 _symmetry_equiv_pos_as_xyz
  1  'x, y, z'
loop_
 _atom_site_type_symbol
 _atom_site_label
 _atom_site_symmetry_multiplicity
 _atom_site_fract_x
 _atom_site_fract_y
 _atom_site_fract_z
 _atom_site_occupancy
  Th  Th0  1  0.875000  0.250000  0.125000  1
  U  U1  1  0.625000  0.750000  0.375000  1
  U  U2  1  0.250116  0.123274  0.876044  1
  U  U3  1  0.752769  0.376726  0.626842  1
  U  U4  1  0.123956  0.874073  0.247231  1
  U  U5  1  0.373158  0.625927  0.749884  1
  Ni  Ni6  1  0.375000  0.250000  0.625000  1
  Ni  Ni7  1  0.125000  0.750000  0.875000  1
  Ni  Ni8  1  0.257351  0.630277  0.378627  1
  Ni  Ni9  1  0.748350  0.869723  0.127074  1
  Ni  Ni10  1  0.621373  0.378725  0.251650  1
  Ni  Ni11  1  0.872926  0.121275  0.742649  1
  As  As12  1  0.660884  0.499529  0.997390  1
  As  As13  1  0.497862  0.000471  0.661356  1
  As  As14  1  0.000829  0.667545  0.501556  1
  As  As15  1  0.834010  0.832455  0.833284  1
  As  As16  1  0.498444  0.999272  0.165990  1
  As  As17  1  0.166716  0.500728  0.999171  1
  As  As18  1  0.002610  0.163494  0.502138  1
  As  As19  1  0.338644  0.336506  0.339116  1
