# generated using pymatgen
data_Er2Tm2P7Ir8
_symmetry_space_group_name_H-M   'P 1'
_cell_length_a   3.93667500
_cell_length_b   12.60112085
_cell_length_c   13.10132401
_cell_angle_alpha   80.73930110
_cell_angle_beta   90.00000000
_cell_angle_gamma   90.00000000
_symmetry_Int_Tables_number   1
_chemical_formula_structural   Er2Tm2P7Ir8
_chemical_formula_sum   'Er4 Tm4 P14 Ir16'
_cell_volume   641.44033390
_cell_formula_units_Z   2
loop_
 _symmetry_equiv_pos_site_id
 _symmetry_equiv_pos_as_xyz
  1  'x, y, z'
loop_
 _atom_site_type_symbol
 _atom_site_label
 _atom_site_symmetry_multiplicity
 _atom_site_fract_x
 _atom_site_fract_y
 _atom_site_fract_z
 _atom_site_occupancy
  Er  Er0  1  0.750000  0.720056  0.899305  1
  Er  Er1  1  0.250000  0.101779  0.789436  1
  Er  Er2  1  0.750000  0.898221  0.210564  1
  Er  Er3  1  0.250000  0.279944  0.100695  1
  Tm  Tm4  1  0.750000  0.790730  0.562276  1
  Tm  Tm5  1  0.250000  0.209270  0.437724  1
  Tm  Tm6  1  0.750000  0.479512  0.706771  1
  Tm  Tm7  1  0.250000  0.520488  0.293229  1
  P  P8  1  0.250000  0.906623  0.412726  1
  P  P9  1  0.750000  0.471069  0.129691  1
  P  P10  1  0.250000  0.528931  0.870309  1
  P  P11  1  0.750000  0.093377  0.587274  1
  P  P12  1  0.250000  0.741499  0.079382  1
  P  P13  1  0.750000  0.258501  0.920618  1
  P  P14  1  0.750000  0.157602  0.281241  1
  P  P15  1  0.250000  0.842398  0.718759  1
  P  P16  1  0.250000  0.051741  0.101022  1
  P  P17  1  0.750000  0.948259  0.898978  1
  P  P18  1  0.250000  0.311786  0.690134  1
  P  P19  1  0.750000  0.688214  0.309866  1
  P  P20  1  0.250000  0.608225  0.566628  1
  P  P21  1  0.750000  0.391775  0.433372  1
  Ir  Ir22  1  0.250000  0.991238  0.576008  1
  Ir  Ir23  1  0.750000  0.008762  0.423992  1
  Ir  Ir24  1  0.250000  0.661524  0.728765  1
  Ir  Ir25  1  0.750000  0.338476  0.271235  1
  Ir  Ir26  1  0.250000  0.553651  0.045940  1
  Ir  Ir27  1  0.750000  0.446349  0.954060  1
  Ir  Ir28  1  0.250000  0.060983  0.273459  1
  Ir  Ir29  1  0.750000  0.939017  0.726541  1
  Ir  Ir30  1  0.250000  0.421169  0.523169  1
  Ir  Ir31  1  0.750000  0.578831  0.476831  1
  Ir  Ir32  1  0.250000  0.915031  0.997690  1
  Ir  Ir33  1  0.750000  0.084969  0.002310  1
  Ir  Ir34  1  0.250000  0.729443  0.394449  1
  Ir  Ir35  1  0.750000  0.270557  0.605551  1
  Ir  Ir36  1  0.250000  0.342110  0.857992  1
  Ir  Ir37  1  0.750000  0.657890  0.142008  1
