# generated using pymatgen
data_Na16Sr6Au
_symmetry_space_group_name_H-M   'P 1'
_cell_length_a   10.70462783
_cell_length_b   10.70462856
_cell_length_c   10.70462800
_cell_angle_alpha   109.47121769
_cell_angle_beta   109.47121907
_cell_angle_gamma   109.47122082
_symmetry_Int_Tables_number   1
_chemical_formula_structural   Na16Sr6Au
_chemical_formula_sum   'Na16 Sr6 Au1'
_cell_volume   944.26281346
_cell_formula_units_Z   1
loop_
 _symmetry_equiv_pos_site_id
 _symmetry_equiv_pos_as_xyz
  1  'x, y, z'
loop_
 _atom_site_type_symbol
 _atom_site_label
 _atom_site_symmetry_multiplicity
 _atom_site_fract_x
 _atom_site_fract_y
 _atom_site_fract_z
 _atom_site_occupancy
  Na  Na0  1  0.500000  0.500000  0.500000  1
  Na  Na1  1  0.000000  0.000000  0.500000  1
  Na  Na2  1  0.500000  0.000000  0.000000  1
  Na  Na3  1  0.000000  0.500000  0.000000  1
  Na  Na4  1  0.344471  0.688942  0.344471  1
  Na  Na5  1  0.655529  0.000000  0.344471  1
  Na  Na6  1  0.344471  0.000000  0.655529  1
  Na  Na7  1  0.655529  0.344471  0.000000  1
  Na  Na8  1  0.344471  0.344471  0.688942  1
  Na  Na9  1  0.688942  0.344471  0.344471  1
  Na  Na10  1  0.000000  0.344471  0.655529  1
  Na  Na11  1  0.311058  0.655529  0.655529  1
  Na  Na12  1  0.344471  0.655529  0.000000  1
  Na  Na13  1  0.000000  0.655529  0.344471  1
  Na  Na14  1  0.655529  0.655529  0.311058  1
  Na  Na15  1  0.655529  0.311058  0.655529  1
  Sr  Sr16  1  0.254701  0.254701  0.000000  1
  Sr  Sr17  1  0.000000  0.254701  0.254701  1
  Sr  Sr18  1  0.000000  0.745299  0.745299  1
  Sr  Sr19  1  0.745299  0.000000  0.745299  1
  Sr  Sr20  1  0.254701  0.000000  0.254701  1
  Sr  Sr21  1  0.745299  0.745299  0.000000  1
  Au  Au22  1  0.000000  0.000000  0.000000  1
