# generated using pymatgen
data_Ac7Yb11(PrSi8)2
_symmetry_space_group_name_H-M   'P 1'
_cell_length_a   8.08040193
_cell_length_b   8.08445237
_cell_length_c   15.00431729
_cell_angle_alpha   90.26561377
_cell_angle_beta   89.81885073
_cell_angle_gamma   90.20317248
_symmetry_Int_Tables_number   1
_chemical_formula_structural   Ac7Yb11(PrSi8)2
_chemical_formula_sum   'Ac7 Yb11 Pr2 Si16'
_cell_volume   980.14485369
_cell_formula_units_Z   1
loop_
 _symmetry_equiv_pos_site_id
 _symmetry_equiv_pos_as_xyz
  1  'x, y, z'
loop_
 _atom_site_type_symbol
 _atom_site_label
 _atom_site_symmetry_multiplicity
 _atom_site_fract_x
 _atom_site_fract_y
 _atom_site_fract_z
 _atom_site_occupancy
  Ac  Ac0  1  0.372670  0.011284  0.452222  1
  Ac  Ac1  1  0.487121  0.870636  0.705143  1
  Ac  Ac2  1  0.512163  0.129125  0.204249  1
  Ac  Ac3  1  0.867308  0.487591  0.291263  1
  Ac  Ac4  1  0.128957  0.513451  0.798228  1
  Ac  Ac5  1  0.628611  0.986838  0.956529  1
  Ac  Ac6  1  0.010199  0.371585  0.544814  1
  Yb  Yb7  1  0.312334  0.320160  0.999790  1
  Yb  Yb8  1  0.186995  0.804750  0.247981  1
  Yb  Yb9  1  0.808757  0.191679  0.752511  1
  Yb  Yb10  1  0.684502  0.683309  0.498366  1
  Yb  Yb11  1  0.995067  0.621068  0.048682  1
  Yb  Yb12  1  0.129457  0.990181  0.877157  1
  Yb  Yb13  1  0.509800  0.631739  0.124323  1
  Yb  Yb14  1  0.490987  0.368353  0.625299  1
  Yb  Yb15  1  0.633849  0.510195  0.877786  1
  Yb  Yb16  1  0.369810  0.492673  0.374162  1
  Yb  Yb17  1  0.869154  0.007505  0.374066  1
  Pr  Pr18  1  0.997349  0.126117  0.124442  1
  Pr  Pr19  1  0.004513  0.874494  0.624079  1
  Si  Si20  1  0.205442  0.158585  0.696287  1
  Si  Si21  1  0.338201  0.704199  0.946149  1
  Si  Si22  1  0.659695  0.295371  0.444455  1
  Si  Si23  1  0.709142  0.339273  0.057252  1
  Si  Si24  1  0.293664  0.662620  0.554136  1
  Si  Si25  1  0.795919  0.841463  0.192238  1
  Si  Si26  1  0.158498  0.207254  0.305676  1
  Si  Si27  1  0.837982  0.796839  0.802887  1
  Si  Si28  1  0.283262  0.918622  0.058327  1
  Si  Si29  1  0.581763  0.786737  0.307201  1
  Si  Si30  1  0.419487  0.214414  0.809458  1
  Si  Si31  1  0.786993  0.580945  0.691216  1
  Si  Si32  1  0.214517  0.417967  0.191863  1
  Si  Si33  1  0.715431  0.081776  0.557763  1
  Si  Si34  1  0.920629  0.288571  0.942959  1
  Si  Si35  1  0.079775  0.712632  0.441043  1
