# generated using pymatgen
data_LaTa4(NbCl9)2
_symmetry_space_group_name_H-M   'P 1'
_cell_length_a   10.30149663
_cell_length_b   10.29939114
_cell_length_c   10.29776800
_cell_angle_alpha   55.89443244
_cell_angle_beta   55.90593549
_cell_angle_gamma   55.90586252
_symmetry_Int_Tables_number   1
_chemical_formula_structural   LaTa4(NbCl9)2
_chemical_formula_sum   'La1 Ta4 Nb2 Cl18'
_cell_volume   699.19576926
_cell_formula_units_Z   1
loop_
 _symmetry_equiv_pos_site_id
 _symmetry_equiv_pos_as_xyz
  1  'x, y, z'
loop_
 _atom_site_type_symbol
 _atom_site_label
 _atom_site_symmetry_multiplicity
 _atom_site_fract_x
 _atom_site_fract_y
 _atom_site_fract_z
 _atom_site_occupancy
  La  La0  1  0.999602  0.999577  0.000872  1
  Ta  Ta1  1  0.412225  0.302771  0.646351  1
  Ta  Ta2  1  0.353646  0.588161  0.696915  1
  Ta  Ta3  1  0.698117  0.352944  0.587973  1
  Ta  Ta4  1  0.302603  0.647198  0.411124  1
  Nb  Nb5  1  0.647790  0.411657  0.301210  1
  Nb  Nb6  1  0.588904  0.698335  0.352053  1
  Cl  Cl7  1  0.567127  0.165278  0.443415  1
  Cl  Cl8  1  0.227801  0.371122  0.902133  1
  Cl  Cl9  1  0.903712  0.226480  0.373048  1
  Cl  Cl10  1  0.368303  0.903033  0.227666  1
  Cl  Cl11  1  0.773666  0.630000  0.094995  1
  Cl  Cl12  1  0.097908  0.771989  0.628862  1
  Cl  Cl13  1  0.694037  0.955830  0.166432  1
  Cl  Cl14  1  0.950956  0.167265  0.694642  1
  Cl  Cl15  1  0.168501  0.692700  0.951185  1
  Cl  Cl16  1  0.305925  0.049628  0.832237  1
  Cl  Cl17  1  0.047577  0.831037  0.307991  1
  Cl  Cl18  1  0.834551  0.304939  0.044613  1
  Cl  Cl19  1  0.559216  0.430973  0.833025  1
  Cl  Cl20  1  0.167067  0.440998  0.568812  1
  Cl  Cl21  1  0.437980  0.570734  0.166925  1
  Cl  Cl22  1  0.429285  0.832980  0.561883  1
  Cl  Cl23  1  0.834695  0.556494  0.433106  1
  Cl  Cl24  1  0.628806  0.097876  0.772534  1
