# generated using pymatgen
data_TmZrCo6Ni6As7
_symmetry_space_group_name_H-M   'P 1'
_cell_length_a   9.33059300
_cell_length_b   9.33059326
_cell_length_c   3.72402000
_cell_angle_alpha   90.00000000
_cell_angle_beta   90.00000000
_cell_angle_gamma   120.00000973
_symmetry_Int_Tables_number   1
_chemical_formula_structural   TmZrCo6Ni6As7
_chemical_formula_sum   'Tm1 Zr1 Co6 Ni6 As7'
_cell_volume   280.77672082
_cell_formula_units_Z   1
loop_
 _symmetry_equiv_pos_site_id
 _symmetry_equiv_pos_as_xyz
  1  'x, y, z'
loop_
 _atom_site_type_symbol
 _atom_site_label
 _atom_site_symmetry_multiplicity
 _atom_site_fract_x
 _atom_site_fract_y
 _atom_site_fract_z
 _atom_site_occupancy
  Tm  Tm0  1  0.333333  0.666667  0.500000  1
  Zr  Zr1  1  0.000000  0.000000  0.000000  1
  Co  Co2  1  0.821357  0.613838  0.000000  1
  Co  Co3  1  0.386162  0.207520  0.000000  1
  Co  Co4  1  0.792480  0.178643  0.000000  1
  Co  Co5  1  0.045148  0.763481  0.500000  1
  Co  Co6  1  0.236519  0.281667  0.500000  1
  Co  Co7  1  0.718333  0.954852  0.500000  1
  Ni  Ni8  1  0.108157  0.391195  0.000000  1
  Ni  Ni9  1  0.608805  0.716962  0.000000  1
  Ni  Ni10  1  0.283038  0.891843  0.000000  1
  Ni  Ni11  1  0.877725  0.423155  0.500000  1
  Ni  Ni12  1  0.576845  0.454570  0.500000  1
  Ni  Ni13  1  0.545430  0.122275  0.500000  1
  As  As14  1  0.666667  0.333333  0.000000  1
  As  As15  1  0.784068  0.745136  0.500000  1
  As  As16  1  0.254864  0.038932  0.500000  1
  As  As17  1  0.961068  0.215932  0.500000  1
  As  As18  1  0.069822  0.619371  0.000000  1
  As  As19  1  0.380629  0.450451  0.000000  1
  As  As20  1  0.549549  0.930178  0.000000  1
