# generated using pymatgen
data_InAgI4
_symmetry_space_group_name_H-M   'P 1'
_cell_length_a   7.88465672
_cell_length_b   7.88465650
_cell_length_c   7.88465686
_cell_angle_alpha   127.23562110
_cell_angle_beta   127.23562746
_cell_angle_gamma   77.86659784
_symmetry_Int_Tables_number   1
_chemical_formula_structural   InAgI4
_chemical_formula_sum   'In1 Ag1 I4'
_cell_volume   301.15032870
_cell_formula_units_Z   1
loop_
 _symmetry_equiv_pos_site_id
 _symmetry_equiv_pos_as_xyz
  1  'x, y, z'
loop_
 _atom_site_type_symbol
 _atom_site_label
 _atom_site_symmetry_multiplicity
 _atom_site_fract_x
 _atom_site_fract_y
 _atom_site_fract_z
 _atom_site_occupancy
  In  In0  1  0.250000  0.750000  0.500000  1
  Ag  Ag1  1  0.500000  0.500000  0.000000  1
  I  I2  1  0.602678  0.113818  0.965883  1
  I  I3  1  0.886182  0.852064  0.488859  1
  I  I4  1  0.363205  0.397322  0.511141  1
  I  I5  1  0.147936  0.636795  0.034117  1
