# generated using pymatgen
data_Cs2ZnGe3O8
_symmetry_space_group_name_H-M   'P 1'
_cell_length_a   5.65208251
_cell_length_b   7.24691136
_cell_length_c   7.38947509
_cell_angle_alpha   79.93475265
_cell_angle_beta   67.74450657
_cell_angle_gamma   67.45638334
_symmetry_Int_Tables_number   1
_chemical_formula_structural   Cs2ZnGe3O8
_chemical_formula_sum   'Cs2 Zn1 Ge3 O8'
_cell_volume   258.56618010
_cell_formula_units_Z   1
loop_
 _symmetry_equiv_pos_site_id
 _symmetry_equiv_pos_as_xyz
  1  'x, y, z'
loop_
 _atom_site_type_symbol
 _atom_site_label
 _atom_site_symmetry_multiplicity
 _atom_site_fract_x
 _atom_site_fract_y
 _atom_site_fract_z
 _atom_site_occupancy
  Cs  Cs0  1  0.960848  0.294274  0.818753  1
  Cs  Cs1  1  0.054379  0.692575  0.186283  1
  Zn  Zn2  1  0.682626  0.887788  0.771277  1
  Ge  Ge3  1  0.326593  0.080633  0.249914  1
  Ge  Ge4  1  0.657417  0.275751  0.409816  1
  Ge  Ge5  1  0.345257  0.714634  0.604157  1
  O  O6  1  0.999605  0.276424  0.270915  1
  O  O7  1  0.615138  0.678959  0.680079  1
  O  O8  1  0.568563  0.195349  0.231814  1
  O  O9  1  0.041865  0.714754  0.788792  1
  O  O10  1  0.251908  0.956133  0.481336  1
  O  O11  1  0.602044  0.157691  0.638274  1
  O  O12  1  0.437632  0.940765  0.049302  1
  O  O13  1  0.456123  0.536272  0.417290  1
