# generated using pymatgen
data_DyEr2RuI3
_symmetry_space_group_name_H-M   'P 1'
_cell_length_a   4.20221000
_cell_length_b   8.87376561
_cell_length_c   12.28546762
_cell_angle_alpha   94.70937794
_cell_angle_beta   90.00000000
_cell_angle_gamma   90.00000000
_symmetry_Int_Tables_number   1
_chemical_formula_structural   DyEr2RuI3
_chemical_formula_sum   'Dy2 Er4 Ru2 I6'
_cell_volume   456.57141898
_cell_formula_units_Z   2
loop_
 _symmetry_equiv_pos_site_id
 _symmetry_equiv_pos_as_xyz
  1  'x, y, z'
loop_
 _atom_site_type_symbol
 _atom_site_label
 _atom_site_symmetry_multiplicity
 _atom_site_fract_x
 _atom_site_fract_y
 _atom_site_fract_z
 _atom_site_occupancy
  Dy  Dy0  1  0.750000  0.267021  0.604351  1
  Dy  Dy1  1  0.250000  0.732979  0.395649  1
  Er  Er2  1  0.750000  0.876164  0.625670  1
  Er  Er3  1  0.250000  0.123836  0.374330  1
  Er  Er4  1  0.750000  0.892810  0.185402  1
  Er  Er5  1  0.250000  0.107190  0.814598  1
  Ru  Ru6  1  0.750000  0.940682  0.406569  1
  Ru  Ru7  1  0.250000  0.059318  0.593431  1
  I  I8  1  0.750000  0.419582  0.365826  1
  I  I9  1  0.250000  0.580418  0.634174  1
  I  I10  1  0.750000  0.866267  0.889459  1
  I  I11  1  0.250000  0.133733  0.110541  1
  I  I12  1  0.750000  0.360017  0.868179  1
  I  I13  1  0.250000  0.639983  0.131821  1
