# generated using pymatgen
data_NpUO5
_symmetry_space_group_name_H-M   'P 1'
_cell_length_a   5.72615706
_cell_length_b   5.72615612
_cell_length_c   8.09803385
_cell_angle_alpha   69.41497472
_cell_angle_beta   69.41498033
_cell_angle_gamma   71.72051783
_symmetry_Int_Tables_number   1
_chemical_formula_structural   NpUO5
_chemical_formula_sum   'Np2 U2 O10'
_cell_volume   227.16452371
_cell_formula_units_Z   2
loop_
 _symmetry_equiv_pos_site_id
 _symmetry_equiv_pos_as_xyz
  1  'x, y, z'
loop_
 _atom_site_type_symbol
 _atom_site_label
 _atom_site_symmetry_multiplicity
 _atom_site_fract_x
 _atom_site_fract_y
 _atom_site_fract_z
 _atom_site_occupancy
  Np  Np0  1  0.963222  0.036778  0.250000  1
  Np  Np1  1  0.036778  0.963222  0.750000  1
  U  U2  1  0.500000  0.500000  0.000000  1
  U  U3  1  0.500000  0.500000  0.500000  1
  O  O4  1  0.398423  0.601577  0.750000  1
  O  O5  1  0.262700  0.202187  0.636880  1
  O  O6  1  0.737300  0.797813  0.363120  1
  O  O7  1  0.202187  0.262700  0.136880  1
  O  O8  1  0.601577  0.398423  0.250000  1
  O  O9  1  0.797813  0.737300  0.863120  1
  O  O10  1  0.212500  0.805563  0.037329  1
  O  O11  1  0.805563  0.212500  0.537329  1
  O  O12  1  0.787500  0.194437  0.962671  1
  O  O13  1  0.194437  0.787500  0.462671  1
