# generated using pymatgen
data_Y2VPdF14
_symmetry_space_group_name_H-M   'P 1'
_cell_length_a   5.52765623
_cell_length_b   8.87705391
_cell_length_c   11.88673223
_cell_angle_alpha   62.75640060
_cell_angle_beta   90.32052104
_cell_angle_gamma   90.13151243
_symmetry_Int_Tables_number   1
_chemical_formula_structural   Y2VPdF14
_chemical_formula_sum   'Y4 V2 Pd2 F28'
_cell_volume   518.56197362
_cell_formula_units_Z   2
loop_
 _symmetry_equiv_pos_site_id
 _symmetry_equiv_pos_as_xyz
  1  'x, y, z'
loop_
 _atom_site_type_symbol
 _atom_site_label
 _atom_site_symmetry_multiplicity
 _atom_site_fract_x
 _atom_site_fract_y
 _atom_site_fract_z
 _atom_site_occupancy
  Y  Y0  1  0.259329  0.809487  0.265547  1
  Y  Y1  1  0.740671  0.190513  0.734453  1
  Y  Y2  1  0.761614  0.185421  0.233507  1
  Y  Y3  1  0.238386  0.814579  0.766493  1
  V  V4  1  0.754196  0.725991  0.043101  1
  V  V5  1  0.245804  0.274009  0.956899  1
  Pd  Pd6  1  0.259750  0.273281  0.454917  1
  Pd  Pd7  1  0.740250  0.726719  0.545083  1
  F  F8  1  0.929202  0.700223  0.417764  1
  F  F9  1  0.070798  0.299777  0.582236  1
  F  F10  1  0.453679  0.289420  0.078471  1
  F  F11  1  0.546321  0.710580  0.921529  1
  F  F12  1  0.481693  0.736173  0.135434  1
  F  F13  1  0.518307  0.263827  0.864566  1
  F  F14  1  0.965873  0.277480  0.361862  1
  F  F15  1  0.034127  0.722520  0.638138  1
  F  F16  1  0.958149  0.748448  0.165072  1
  F  F17  1  0.041851  0.251552  0.834928  1
  F  F18  1  0.445232  0.256714  0.321354  1
  F  F19  1  0.554768  0.743286  0.678646  1
  F  F20  1  0.766508  0.494004  0.134859  1
  F  F21  1  0.233492  0.505996  0.865141  1
  F  F22  1  0.274947  0.519459  0.355924  1
  F  F23  1  0.725053  0.480541  0.644076  1
  F  F24  1  0.964906  0.282753  0.047895  1
  F  F25  1  0.035094  0.717247  0.952105  1
  F  F26  1  0.439558  0.719533  0.461125  1
  F  F27  1  0.560442  0.280467  0.538875  1
  F  F28  1  0.743923  0.972195  0.452814  1
  F  F29  1  0.256077  0.027805  0.547186  1
  F  F30  1  0.240791  0.042326  0.048617  1
  F  F31  1  0.759209  0.957674  0.951383  1
  F  F32  1  0.586261  0.967099  0.232029  1
  F  F33  1  0.413739  0.032901  0.767971  1
  F  F34  1  0.084841  0.025397  0.271066  1
  F  F35  1  0.915159  0.974603  0.728934  1
