# generated using pymatgen
data_Y4HoCo16(P4Os)3
_symmetry_space_group_name_H-M   'P 1'
_cell_length_a   12.00660606
_cell_length_b   12.00868364
_cell_length_c   3.72141300
_cell_angle_alpha   90.00000000
_cell_angle_beta   90.00000000
_cell_angle_gamma   120.00572740
_symmetry_Int_Tables_number   1
_chemical_formula_structural   Y4HoCo16(P4Os)3
_chemical_formula_sum   'Y4 Ho1 Co16 P12 Os3'
_cell_volume   464.65337957
_cell_formula_units_Z   1
loop_
 _symmetry_equiv_pos_site_id
 _symmetry_equiv_pos_as_xyz
  1  'x, y, z'
loop_
 _atom_site_type_symbol
 _atom_site_label
 _atom_site_symmetry_multiplicity
 _atom_site_fract_x
 _atom_site_fract_y
 _atom_site_fract_z
 _atom_site_occupancy
  Y  Y0  1  0.666673  0.333275  0.000000  1
  Y  Y1  1  0.333327  0.666602  0.000000  1
  Y  Y2  1  0.815330  0.815447  0.500000  1
  Y  Y3  1  0.184670  0.000118  0.500000  1
  Ho  Ho4  1  0.000000  0.184742  0.500000  1
  Co  Co5  1  0.874687  0.359233  0.500000  1
  Co  Co6  1  0.640524  0.515123  0.500000  1
  Co  Co7  1  0.484810  0.125376  0.500000  1
  Co  Co8  1  0.359476  0.874599  0.500000  1
  Co  Co9  1  0.515190  0.640565  0.500000  1
  Co  Co10  1  0.125313  0.484546  0.500000  1
  Co  Co11  1  0.803812  0.179963  0.000000  1
  Co  Co12  1  0.820067  0.623388  0.000000  1
  Co  Co13  1  0.376429  0.196669  0.000000  1
  Co  Co14  1  0.179933  0.803322  0.000000  1
  Co  Co15  1  0.623571  0.820241  0.000000  1
  Co  Co16  1  0.196188  0.376151  0.000000  1
  Co  Co17  1  0.283325  0.283601  0.500000  1
  Co  Co18  1  0.716675  0.000276  0.500000  1
  Co  Co19  1  0.000000  0.716260  0.500000  1
  Co  Co20  1  0.000000  0.000444  0.000000  1
  P  P21  1  0.687725  0.166123  0.500000  1
  P  P22  1  0.833870  0.521541  0.500000  1
  P  P23  1  0.478300  0.312225  0.500000  1
  P  P24  1  0.166130  0.687671  0.500000  1
  P  P25  1  0.521700  0.833925  0.500000  1
  P  P26  1  0.312275  0.478399  0.500000  1
  P  P27  1  0.179077  0.179656  0.000000  1
  P  P28  1  0.820923  0.000579  0.000000  1
  P  P29  1  0.000000  0.820526  0.000000  1
  P  P30  1  0.637207  0.637221  0.000000  1
  P  P31  1  0.362793  0.000015  0.000000  1
  P  P32  1  0.000000  0.362289  0.000000  1
  Os  Os33  1  0.446025  0.446113  0.000000  1
  Os  Os34  1  0.553975  0.000088  0.000000  1
  Os  Os35  1  0.000000  0.553688  0.000000  1
