# generated using pymatgen
data_Tb12Dy5Er3(CoBi2)4
_symmetry_space_group_name_H-M   'P 1'
_cell_length_a   8.02596650
_cell_length_b   8.89559102
_cell_length_c   12.45627792
_cell_angle_alpha   90.05197406
_cell_angle_beta   89.96319179
_cell_angle_gamma   89.98306689
_symmetry_Int_Tables_number   1
_chemical_formula_structural   Tb12Dy5Er3(CoBi2)4
_chemical_formula_sum   'Tb12 Dy5 Er3 Co4 Bi8'
_cell_volume   889.32428619
_cell_formula_units_Z   1
loop_
 _symmetry_equiv_pos_site_id
 _symmetry_equiv_pos_as_xyz
  1  'x, y, z'
loop_
 _atom_site_type_symbol
 _atom_site_label
 _atom_site_symmetry_multiplicity
 _atom_site_fract_x
 _atom_site_fract_y
 _atom_site_fract_z
 _atom_site_occupancy
  Tb  Tb0  1  0.849179  0.749663  0.801673  1
  Tb  Tb1  1  0.150921  0.250331  0.198337  1
  Tb  Tb2  1  0.349014  0.250226  0.698399  1
  Tb  Tb3  1  0.651262  0.749861  0.301545  1
  Tb  Tb4  1  0.380299  0.749902  0.689282  1
  Tb  Tb5  1  0.620498  0.250264  0.310803  1
  Tb  Tb6  1  0.879815  0.250578  0.810909  1
  Tb  Tb7  1  0.120116  0.749323  0.188879  1
  Tb  Tb8  1  0.952135  0.749590  0.502508  1
  Tb  Tb9  1  0.046216  0.250293  0.497550  1
  Tb  Tb10  1  0.452792  0.250632  0.997460  1
  Tb  Tb11  1  0.547167  0.749378  0.002496  1
  Dy  Dy12  1  0.676102  0.034469  0.562963  1
  Dy  Dy13  1  0.323999  0.966166  0.437322  1
  Dy  Dy14  1  0.176165  0.965859  0.937130  1
  Dy  Dy15  1  0.324261  0.534035  0.437206  1
  Dy  Dy16  1  0.823921  0.033975  0.062825  1
  Er  Er17  1  0.674180  0.465375  0.562906  1
  Er  Er18  1  0.826070  0.465707  0.062731  1
  Er  Er19  1  0.173909  0.534473  0.937229  1
  Co  Co20  1  0.559768  0.749549  0.507815  1
  Co  Co21  1  0.442022  0.250578  0.492465  1
  Co  Co22  1  0.058444  0.250981  0.992500  1
  Co  Co23  1  0.941436  0.748996  0.007489  1
  Bi  Bi24  1  0.569856  0.492455  0.825791  1
  Bi  Bi25  1  0.430408  0.507472  0.174045  1
  Bi  Bi26  1  0.070181  0.507598  0.674105  1
  Bi  Bi27  1  0.429374  0.992365  0.174195  1
  Bi  Bi28  1  0.929410  0.492316  0.325572  1
  Bi  Bi29  1  0.570795  0.007691  0.825971  1
  Bi  Bi30  1  0.929525  0.007573  0.325737  1
  Bi  Bi31  1  0.070759  0.992326  0.674162  1
