# generated using pymatgen
data_Ta9(BeS3)2
_symmetry_space_group_name_H-M   'P 1'
_cell_length_a   9.97464900
_cell_length_b   9.97464925
_cell_length_c   3.42796900
_cell_angle_alpha   90.00000000
_cell_angle_beta   90.00000000
_cell_angle_gamma   119.99999587
_symmetry_Int_Tables_number   1
_chemical_formula_structural   Ta9(BeS3)2
_chemical_formula_sum   'Ta9 Be2 S6'
_cell_volume   295.36755676
_cell_formula_units_Z   1
loop_
 _symmetry_equiv_pos_site_id
 _symmetry_equiv_pos_as_xyz
  1  'x, y, z'
loop_
 _atom_site_type_symbol
 _atom_site_label
 _atom_site_symmetry_multiplicity
 _atom_site_fract_x
 _atom_site_fract_y
 _atom_site_fract_z
 _atom_site_occupancy
  Ta  Ta0  1  0.466266  0.270857  0.500000  1
  Ta  Ta1  1  0.550535  0.550535  0.000000  1
  Ta  Ta2  1  0.804591  0.533734  0.500000  1
  Ta  Ta3  1  0.195409  0.729143  0.500000  1
  Ta  Ta4  1  0.533734  0.804591  0.500000  1
  Ta  Ta5  1  0.270857  0.466266  0.500000  1
  Ta  Ta6  1  0.449465  0.000000  0.000000  1
  Ta  Ta7  1  0.729143  0.195409  0.500000  1
  Ta  Ta8  1  0.000000  0.449465  0.000000  1
  Be  Be9  1  0.333333  0.666667  0.000000  1
  Be  Be10  1  0.666667  0.333333  0.000000  1
  S  S11  1  0.704529  0.000000  0.000000  1
  S  S12  1  0.262395  0.000000  0.500000  1
  S  S13  1  0.737605  0.737605  0.500000  1
  S  S14  1  0.000000  0.262395  0.500000  1
  S  S15  1  0.000000  0.704529  0.000000  1
  S  S16  1  0.295471  0.295471  0.000000  1
