# generated using pymatgen
data_PrNd3Al18ZnIr5
_symmetry_space_group_name_H-M   'P 1'
_cell_length_a   7.64598201
_cell_length_b   7.64617798
_cell_length_c   9.60375246
_cell_angle_alpha   89.91561636
_cell_angle_beta   89.93219221
_cell_angle_gamma   119.37061720
_symmetry_Int_Tables_number   1
_chemical_formula_structural   PrNd3Al18ZnIr5
_chemical_formula_sum   'Pr1 Nd3 Al18 Zn1 Ir5'
_cell_volume   489.29107556
_cell_formula_units_Z   1
loop_
 _symmetry_equiv_pos_site_id
 _symmetry_equiv_pos_as_xyz
  1  'x, y, z'
loop_
 _atom_site_type_symbol
 _atom_site_label
 _atom_site_symmetry_multiplicity
 _atom_site_fract_x
 _atom_site_fract_y
 _atom_site_fract_z
 _atom_site_occupancy
  Pr  Pr0  1  0.995113  0.675228  0.248648  1
  Nd  Nd1  1  0.004879  0.324758  0.751235  1
  Nd  Nd2  1  0.675130  0.995158  0.248767  1
  Nd  Nd3  1  0.324806  0.004862  0.751246  1
  Al  Al4  1  0.138372  0.138759  0.258264  1
  Al  Al5  1  0.861774  0.861845  0.741779  1
  Al  Al6  1  0.004235  0.345382  0.077066  1
  Al  Al7  1  0.995759  0.654088  0.922232  1
  Al  Al8  1  0.999546  0.664033  0.570209  1
  Al  Al9  1  0.336413  0.000874  0.430501  1
  Al  Al10  1  0.000448  0.335574  0.430484  1
  Al  Al11  1  0.664042  0.999563  0.569805  1
  Al  Al12  1  0.654168  0.995799  0.922590  1
  Al  Al13  1  0.346361  0.004670  0.077126  1
  Al  Al14  1  0.333583  0.333589  0.546901  1
  Al  Al15  1  0.666041  0.666398  0.453463  1
  Al  Al16  1  0.655020  0.655414  0.056243  1
  Al  Al17  1  0.344532  0.344537  0.943390  1
  Al  Al18  1  0.339399  0.549086  0.251633  1
  Al  Al19  1  0.660944  0.450774  0.748369  1
  Al  Al20  1  0.548607  0.338565  0.251628  1
  Al  Al21  1  0.450800  0.660978  0.748372  1
  Zn  Zn22  1  0.999989  0.000106  0.999893  1
  Ir  Ir23  1  0.670838  0.328835  0.999819  1
  Ir  Ir24  1  0.329172  0.671022  0.999813  1
  Ir  Ir25  1  0.329514  0.670608  0.500164  1
  Ir  Ir26  1  0.670460  0.329237  0.500172  1
  Ir  Ir27  1  0.000055  0.000260  0.500186  1
