# generated using pymatgen
data_CaN4
_symmetry_space_group_name_H-M   'P 1'
_cell_length_a   3.82866275
_cell_length_b   4.95273502
_cell_length_c   7.08742071
_cell_angle_alpha   70.11931892
_cell_angle_beta   85.91987045
_cell_angle_gamma   129.39452329
_symmetry_Int_Tables_number   1
_chemical_formula_structural   CaN4
_chemical_formula_sum   'Ca1 N4'
_cell_volume   89.73200208
_cell_formula_units_Z   1
loop_
 _symmetry_equiv_pos_site_id
 _symmetry_equiv_pos_as_xyz
  1  'x, y, z'
loop_
 _atom_site_type_symbol
 _atom_site_label
 _atom_site_symmetry_multiplicity
 _atom_site_fract_x
 _atom_site_fract_y
 _atom_site_fract_z
 _atom_site_occupancy
  Ca  Ca0  1  0.769371  0.448691  0.298838  1
  N  N1  1  0.564420  0.845501  0.300260  1
  N  N2  1  0.974426  0.051871  0.297333  1
  N  N3  1  0.174327  0.856325  0.891561  1
  N  N4  1  0.363575  0.042342  0.706150  1
