# generated using pymatgen
data_NdBi7(RuO6)4
_symmetry_space_group_name_H-M   'P 1'
_cell_length_a   5.40906065
_cell_length_b   9.30689399
_cell_length_c   10.07964112
_cell_angle_alpha   90.22235071
_cell_angle_beta   89.95681031
_cell_angle_gamma   89.95457767
_symmetry_Int_Tables_number   1
_chemical_formula_structural   NdBi7(RuO6)4
_chemical_formula_sum   'Nd1 Bi7 Ru4 O24'
_cell_volume   507.42067213
_cell_formula_units_Z   1
loop_
 _symmetry_equiv_pos_site_id
 _symmetry_equiv_pos_as_xyz
  1  'x, y, z'
loop_
 _atom_site_type_symbol
 _atom_site_label
 _atom_site_symmetry_multiplicity
 _atom_site_fract_x
 _atom_site_fract_y
 _atom_site_fract_z
 _atom_site_occupancy
  Nd  Nd0  1  0.463573  0.781738  0.364601  1
  Bi  Bi1  1  0.024964  0.098987  0.463181  1
  Bi  Bi2  1  0.524753  0.398185  0.537599  1
  Bi  Bi3  1  0.978998  0.603989  0.038090  1
  Bi  Bi4  1  0.477070  0.898477  0.963714  1
  Bi  Bi5  1  0.033280  0.213547  0.860425  1
  Bi  Bi6  1  0.530375  0.286015  0.137814  1
  Bi  Bi7  1  0.970631  0.713593  0.639201  1
  Ru  Ru8  1  0.540279  0.001967  0.646429  1
  Ru  Ru9  1  0.036756  0.495005  0.353709  1
  Ru  Ru10  1  0.462873  0.501598  0.855350  1
  Ru  Ru11  1  0.957753  0.000760  0.144772  1
  O  O12  1  0.259087  0.418339  0.999816  1
  O  O13  1  0.758887  0.084686  0.998584  1
  O  O14  1  0.746890  0.917937  0.502739  1
  O  O15  1  0.245607  0.583142  0.497822  1
  O  O16  1  0.232085  0.113175  0.065213  1
  O  O17  1  0.730555  0.388367  0.934809  1
  O  O18  1  0.769460  0.609329  0.435424  1
  O  O19  1  0.269331  0.887660  0.565132  1
  O  O20  1  0.320159  0.362126  0.323585  1
  O  O21  1  0.819225  0.137422  0.674891  1
  O  O22  1  0.678716  0.868143  0.171835  1
  O  O23  1  0.182541  0.636262  0.825902  1
  O  O24  1  0.162175  0.950951  0.291588  1
  O  O25  1  0.668886  0.548519  0.706906  1
  O  O26  1  0.828859  0.451263  0.205849  1
  O  O27  1  0.330542  0.048526  0.794020  1
  O  O28  1  0.179790  0.637289  0.239066  1
  O  O29  1  0.684300  0.861782  0.760183  1
  O  O30  1  0.811315  0.140113  0.259119  1
  O  O31  1  0.316508  0.361968  0.740812  1
  O  O32  1  0.086419  0.845559  0.027922  1
  O  O33  1  0.585543  0.655542  0.972533  1
  O  O34  1  0.918127  0.343464  0.471790  1
  O  O35  1  0.413690  0.154575  0.529576  1
