# generated using pymatgen
data_YEr11Ru7
_symmetry_space_group_name_H-M   'P 1'
_cell_length_a   11.22137700
_cell_length_b   8.29463102
_cell_length_c   11.16381244
_cell_angle_alpha   56.64588540
_cell_angle_beta   90.00000000
_cell_angle_gamma   90.00000000
_symmetry_Int_Tables_number   1
_chemical_formula_structural   YEr11Ru7
_chemical_formula_sum   'Y2 Er22 Ru14'
_cell_volume   867.94505287
_cell_formula_units_Z   2
loop_
 _symmetry_equiv_pos_site_id
 _symmetry_equiv_pos_as_xyz
  1  'x, y, z'
loop_
 _atom_site_type_symbol
 _atom_site_label
 _atom_site_symmetry_multiplicity
 _atom_site_fract_x
 _atom_site_fract_y
 _atom_site_fract_z
 _atom_site_occupancy
  Y  Y0  1  0.704171  0.243002  0.531822  1
  Y  Y1  1  0.204171  0.756998  0.968178  1
  Er  Er2  1  0.845042  0.508742  0.655190  1
  Er  Er3  1  0.345042  0.491258  0.844810  1
  Er  Er4  1  0.155190  0.491633  0.345728  1
  Er  Er5  1  0.655190  0.508367  0.154272  1
  Er  Er6  1  0.007034  0.853114  0.361831  1
  Er  Er7  1  0.507034  0.146886  0.138169  1
  Er  Er8  1  0.993330  0.148300  0.637818  1
  Er  Er9  1  0.493330  0.851700  0.862182  1
  Er  Er10  1  0.794586  0.244145  0.030743  1
  Er  Er11  1  0.294586  0.755855  0.469257  1
  Er  Er12  1  0.930039  0.777668  0.091158  1
  Er  Er13  1  0.430039  0.222332  0.408842  1
  Er  Er14  1  0.068789  0.222277  0.909843  1
  Er  Er15  1  0.568789  0.777723  0.590157  1
  Er  Er16  1  0.301976  0.240440  0.675016  1
  Er  Er17  1  0.801976  0.759560  0.824984  1
  Er  Er18  1  0.698400  0.759886  0.324994  1
  Er  Er19  1  0.198400  0.240114  0.175006  1
  Er  Er20  1  0.925404  0.280838  0.293447  1
  Er  Er21  1  0.425404  0.719162  0.206553  1
  Er  Er22  1  0.074665  0.719596  0.706002  1
  Er  Er23  1  0.574665  0.280404  0.793998  1
  Ru  Ru24  1  0.498531  0.501375  0.500115  1
  Ru  Ru25  1  0.998531  0.498625  0.999885  1
  Ru  Ru26  1  0.647110  0.924885  0.033667  1
  Ru  Ru27  1  0.147110  0.075115  0.466333  1
  Ru  Ru28  1  0.352861  0.075632  0.966665  1
  Ru  Ru29  1  0.852861  0.924368  0.533335  1
  Ru  Ru30  1  0.399510  0.481617  0.103947  1
  Ru  Ru31  1  0.899510  0.518383  0.396053  1
  Ru  Ru32  1  0.601640  0.516511  0.896351  1
  Ru  Ru33  1  0.101640  0.483489  0.603649  1
  Ru  Ru34  1  0.821401  0.100238  0.850064  1
  Ru  Ru35  1  0.321401  0.899762  0.649936  1
  Ru  Ru36  1  0.180320  0.900184  0.152738  1
  Ru  Ru37  1  0.680320  0.099816  0.347262  1
