# generated using pymatgen
data_EuGa2NiRh2
_symmetry_space_group_name_H-M   'P 1'
_cell_length_a   5.72006800
_cell_length_b   5.46387882
_cell_length_c   3.86537000
_cell_angle_alpha   90.00000000
_cell_angle_beta   90.00000000
_cell_angle_gamma   121.56353351
_symmetry_Int_Tables_number   1
_chemical_formula_structural   EuGa2NiRh2
_chemical_formula_sum   'Eu1 Ga2 Ni1 Rh2'
_cell_volume   102.93513343
_cell_formula_units_Z   1
loop_
 _symmetry_equiv_pos_site_id
 _symmetry_equiv_pos_as_xyz
  1  'x, y, z'
loop_
 _atom_site_type_symbol
 _atom_site_label
 _atom_site_symmetry_multiplicity
 _atom_site_fract_x
 _atom_site_fract_y
 _atom_site_fract_z
 _atom_site_occupancy
  Eu  Eu0  1  0.000000  0.000000  0.000000  1
  Ga  Ga1  1  0.340432  0.680864  0.000000  1
  Ga  Ga2  1  0.659568  0.319136  0.000000  1
  Ni  Ni3  1  0.500000  0.000000  0.500000  1
  Rh  Rh4  1  0.000000  0.500000  0.500000  1
  Rh  Rh5  1  0.500000  0.500000  0.500000  1
