# generated using pymatgen
data_La4Nd2In7Sn3
_symmetry_space_group_name_H-M   'P 1'
_cell_length_a   6.65461700
_cell_length_b   6.67731124
_cell_length_c   10.44638900
_cell_angle_alpha   90.00000000
_cell_angle_beta   90.00000000
_cell_angle_gamma   102.42306665
_symmetry_Int_Tables_number   1
_chemical_formula_structural   La4Nd2In7Sn3
_chemical_formula_sum   'La4 Nd2 In7 Sn3'
_cell_volume   453.31622290
_cell_formula_units_Z   1
loop_
 _symmetry_equiv_pos_site_id
 _symmetry_equiv_pos_as_xyz
  1  'x, y, z'
loop_
 _atom_site_type_symbol
 _atom_site_label
 _atom_site_symmetry_multiplicity
 _atom_site_fract_x
 _atom_site_fract_y
 _atom_site_fract_z
 _atom_site_occupancy
  La  La0  1  0.204521  0.790489  0.503055  1
  La  La1  1  0.204521  0.790489  0.996945  1
  La  La2  1  0.796325  0.210613  0.501884  1
  La  La3  1  0.796325  0.210613  0.998116  1
  Nd  Nd4  1  0.631646  0.623239  0.250000  1
  Nd  Nd5  1  0.368856  0.373755  0.750000  1
  In  In6  1  0.008442  0.014013  0.250000  1
  In  In7  1  0.984296  0.987163  0.750000  1
  In  In8  1  0.310520  0.302942  0.051080  1
  In  In9  1  0.690722  0.697706  0.953418  1
  In  In10  1  0.310520  0.302942  0.448920  1
  In  In11  1  0.690722  0.697706  0.546582  1
  In  In12  1  0.496843  0.063859  0.250000  1
  Sn  Sn13  1  0.925255  0.508918  0.750000  1
  Sn  Sn14  1  0.504941  0.930252  0.750000  1
  Sn  Sn15  1  0.075546  0.495303  0.250000  1
