# generated using pymatgen
data_YbEr3Ga18(PdRh2)2
_symmetry_space_group_name_H-M   'P 1'
_cell_length_a   7.59227779
_cell_length_b   7.60053998
_cell_length_c   9.49407900
_cell_angle_alpha   90.00000000
_cell_angle_beta   90.00000000
_cell_angle_gamma   119.91465211
_symmetry_Int_Tables_number   1
_chemical_formula_structural   YbEr3Ga18(PdRh2)2
_chemical_formula_sum   'Yb1 Er3 Ga18 Pd2 Rh4'
_cell_volume   474.86796364
_cell_formula_units_Z   1
loop_
 _symmetry_equiv_pos_site_id
 _symmetry_equiv_pos_as_xyz
  1  'x, y, z'
loop_
 _atom_site_type_symbol
 _atom_site_label
 _atom_site_symmetry_multiplicity
 _atom_site_fract_x
 _atom_site_fract_y
 _atom_site_fract_z
 _atom_site_occupancy
  Yb  Yb0  1  0.996791  0.668754  0.250000  1
  Er  Er1  1  0.003008  0.331435  0.750000  1
  Er  Er2  1  0.668188  0.996135  0.250000  1
  Er  Er3  1  0.330715  0.002926  0.750000  1
  Ga  Ga4  1  0.128393  0.128493  0.250000  1
  Ga  Ga5  1  0.871942  0.871685  0.750000  1
  Ga  Ga6  1  0.999157  0.337994  0.080823  1
  Ga  Ga7  1  0.000717  0.662890  0.919635  1
  Ga  Ga8  1  0.000717  0.662890  0.580365  1
  Ga  Ga9  1  0.336804  0.998371  0.419088  1
  Ga  Ga10  1  0.999157  0.337994  0.419177  1
  Ga  Ga11  1  0.662724  0.001173  0.581141  1
  Ga  Ga12  1  0.662724  0.001173  0.918859  1
  Ga  Ga13  1  0.336804  0.998371  0.080912  1
  Ga  Ga14  1  0.335666  0.335647  0.567045  1
  Ga  Ga15  1  0.664696  0.663918  0.433126  1
  Ga  Ga16  1  0.664696  0.663918  0.066874  1
  Ga  Ga17  1  0.335666  0.335647  0.932955  1
  Ga  Ga18  1  0.337424  0.547681  0.250000  1
  Ga  Ga19  1  0.662851  0.452664  0.750000  1
  Ga  Ga20  1  0.547657  0.337267  0.250000  1
  Ga  Ga21  1  0.452939  0.663231  0.750000  1
  Pd  Pd22  1  0.000032  0.000321  0.999651  1
  Pd  Pd23  1  0.000032  0.000321  0.500349  1
  Rh  Rh24  1  0.671133  0.327962  0.999528  1
  Rh  Rh25  1  0.329117  0.671590  0.999103  1
  Rh  Rh26  1  0.329117  0.671590  0.500897  1
  Rh  Rh27  1  0.671133  0.327962  0.500472  1
