# generated using pymatgen
data_CaEr2Co9(GeB2)2
_symmetry_space_group_name_H-M   'P 1'
_cell_length_a   5.14369400
_cell_length_b   5.14369428
_cell_length_c   9.45170200
_cell_angle_alpha   90.00000000
_cell_angle_beta   90.00000000
_cell_angle_gamma   119.99999818
_symmetry_Int_Tables_number   1
_chemical_formula_structural   CaEr2Co9(GeB2)2
_chemical_formula_sum   'Ca1 Er2 Co9 Ge2 B4'
_cell_volume   216.56632791
_cell_formula_units_Z   1
loop_
 _symmetry_equiv_pos_site_id
 _symmetry_equiv_pos_as_xyz
  1  'x, y, z'
loop_
 _atom_site_type_symbol
 _atom_site_label
 _atom_site_symmetry_multiplicity
 _atom_site_fract_x
 _atom_site_fract_y
 _atom_site_fract_z
 _atom_site_occupancy
  Ca  Ca0  1  0.000000  0.000000  0.000000  1
  Er  Er1  1  0.000000  0.000000  0.662129  1
  Er  Er2  1  0.000000  0.000000  0.337871  1
  Co  Co3  1  0.500000  0.500000  0.500000  1
  Co  Co4  1  0.500000  0.000000  0.500000  1
  Co  Co5  1  0.000000  0.500000  0.500000  1
  Co  Co6  1  0.500000  0.500000  0.795121  1
  Co  Co7  1  0.500000  0.000000  0.795121  1
  Co  Co8  1  0.000000  0.500000  0.795121  1
  Co  Co9  1  0.500000  0.500000  0.204879  1
  Co  Co10  1  0.500000  0.000000  0.204879  1
  Co  Co11  1  0.000000  0.500000  0.204879  1
  Ge  Ge12  1  0.666667  0.333333  0.000000  1
  Ge  Ge13  1  0.333333  0.666667  0.000000  1
  B  B14  1  0.666667  0.333333  0.651408  1
  B  B15  1  0.333333  0.666667  0.651408  1
  B  B16  1  0.333333  0.666667  0.348592  1
  B  B17  1  0.666667  0.333333  0.348592  1
