# generated using pymatgen
data_Er16In4CoRu3
_symmetry_space_group_name_H-M   'P 1'
_cell_length_a   9.51361811
_cell_length_b   9.51671559
_cell_length_c   9.51361800
_cell_angle_alpha   60.01076651
_cell_angle_beta   60.00000039
_cell_angle_gamma   60.01076638
_symmetry_Int_Tables_number   1
_chemical_formula_structural   Er16In4CoRu3
_chemical_formula_sum   'Er16 In4 Co1 Ru3'
_cell_volume   609.16392048
_cell_formula_units_Z   1
loop_
 _symmetry_equiv_pos_site_id
 _symmetry_equiv_pos_as_xyz
  1  'x, y, z'
loop_
 _atom_site_type_symbol
 _atom_site_label
 _atom_site_symmetry_multiplicity
 _atom_site_fract_x
 _atom_site_fract_y
 _atom_site_fract_z
 _atom_site_occupancy
  Er  Er0  1  0.057969  0.057647  0.442193  1
  Er  Er1  1  0.649021  0.052937  0.649021  1
  Er  Er2  1  0.190959  0.809058  0.190959  1
  Er  Er3  1  0.442193  0.057647  0.442193  1
  Er  Er4  1  0.187339  0.192548  0.810057  1
  Er  Er5  1  0.655019  0.646461  0.655019  1
  Er  Er6  1  0.043503  0.646461  0.655019  1
  Er  Er7  1  0.442193  0.057647  0.057969  1
  Er  Er8  1  0.655019  0.646461  0.043503  1
  Er  Er9  1  0.190959  0.809058  0.809024  1
  Er  Er10  1  0.810057  0.192548  0.810057  1
  Er  Er11  1  0.810057  0.192548  0.187339  1
  Er  Er12  1  0.809024  0.809058  0.190959  1
  Er  Er13  1  0.061163  0.441240  0.436434  1
  Er  Er14  1  0.436434  0.441240  0.061163  1
  Er  Er15  1  0.061163  0.441240  0.061163  1
  In  In16  1  0.748154  0.418819  0.416514  1
  In  In17  1  0.416514  0.418819  0.748154  1
  In  In18  1  0.417031  0.748907  0.417031  1
  In  In19  1  0.416514  0.418819  0.416514  1
  Co  Co20  1  0.860043  0.419871  0.860043  1
  Ru  Ru21  1  0.858329  0.860324  0.858329  1
  Ru  Ru22  1  0.423020  0.860324  0.858329  1
  Ru  Ru23  1  0.858329  0.860324  0.423020  1
