# generated using pymatgen
data_K3GdRhO6
_symmetry_space_group_name_H-M   'P 1'
_cell_length_a   7.22787777
_cell_length_b   7.22613736
_cell_length_c   7.22684977
_cell_angle_alpha   94.04374158
_cell_angle_beta   94.03279888
_cell_angle_gamma   94.03792233
_symmetry_Int_Tables_number   1
_chemical_formula_structural   K3GdRhO6
_chemical_formula_sum   'K6 Gd2 Rh2 O12'
_cell_volume   374.50463731
_cell_formula_units_Z   2
loop_
 _symmetry_equiv_pos_site_id
 _symmetry_equiv_pos_as_xyz
  1  'x, y, z'
loop_
 _atom_site_type_symbol
 _atom_site_label
 _atom_site_symmetry_multiplicity
 _atom_site_fract_x
 _atom_site_fract_y
 _atom_site_fract_z
 _atom_site_occupancy
  K  K0  1  0.749987  0.382967  0.116991  1
  K  K1  1  0.617011  0.883003  0.249985  1
  K  K2  1  0.117015  0.750025  0.382964  1
  K  K3  1  0.882985  0.249975  0.617036  1
  K  K4  1  0.382989  0.116996  0.750015  1
  K  K5  1  0.250013  0.617033  0.883009  1
  Gd  Gd6  1  0.249974  0.250018  0.250043  1
  Gd  Gd7  1  0.750026  0.749982  0.749957  1
  Rh  Rh8  1  0.000000  0.000000  0.000000  1
  Rh  Rh9  1  0.500001  0.500000  0.500001  1
  O  O10  1  0.912268  0.738097  0.032840  1
  O  O11  1  0.262030  0.967302  0.087849  1
  O  O12  1  0.412161  0.532787  0.238042  1
  O  O13  1  0.967218  0.087694  0.261933  1
  O  O14  1  0.532780  0.238174  0.412288  1
  O  O15  1  0.762003  0.587751  0.467276  1
  O  O16  1  0.237997  0.412249  0.532724  1
  O  O17  1  0.467220  0.761825  0.587712  1
  O  O18  1  0.032782  0.912306  0.738067  1
  O  O19  1  0.587839  0.467212  0.761958  1
  O  O20  1  0.737971  0.032698  0.912151  1
  O  O21  1  0.087732  0.261903  0.967160  1
