# generated using pymatgen
data_Tb3YTm8Co5Sn
_symmetry_space_group_name_H-M   'P 1'
_cell_length_a   8.20100221
_cell_length_b   8.21018139
_cell_length_c   8.21018208
_cell_angle_alpha   107.05962012
_cell_angle_beta   110.84096612
_cell_angle_gamma   110.58821814
_symmetry_Int_Tables_number   1
_chemical_formula_structural   Tb3YTm8Co5Sn
_chemical_formula_sum   'Tb3 Y1 Tm8 Co5 Sn1'
_cell_volume   424.72521151
_cell_formula_units_Z   1
loop_
 _symmetry_equiv_pos_site_id
 _symmetry_equiv_pos_as_xyz
  1  'x, y, z'
loop_
 _atom_site_type_symbol
 _atom_site_label
 _atom_site_symmetry_multiplicity
 _atom_site_fract_x
 _atom_site_fract_y
 _atom_site_fract_z
 _atom_site_occupancy
  Tb  Tb0  1  0.104292  0.291560  0.812733  1
  Tb  Tb1  1  0.895815  0.708293  0.187522  1
  Tb  Tb2  1  0.520857  0.708830  0.812027  1
  Y  Y3  1  0.479457  0.290758  0.188700  1
  Tm  Tm4  1  0.307329  0.621098  0.313941  1
  Tm  Tm5  1  0.307329  0.993389  0.686231  1
  Tm  Tm6  1  0.693026  0.379037  0.686318  1
  Tm  Tm7  1  0.693026  0.006708  0.313989  1
  Tm  Tm8  1  0.192430  0.208552  0.401089  1
  Tm  Tm9  1  0.807942  0.791454  0.599382  1
  Tm  Tm10  1  0.192430  0.791342  0.983878  1
  Tm  Tm11  1  0.807942  0.208561  0.016489  1
  Co  Co12  1  0.499426  0.613645  0.112624  1
  Co  Co13  1  0.499426  0.386802  0.885781  1
  Co  Co14  1  0.376722  0.000425  0.376297  1
  Co  Co15  1  0.623170  0.999986  0.623184  1
  Co  Co16  1  0.999902  0.999799  0.000102  1
  Sn  Sn17  1  0.999476  0.499764  0.499713  1
