# generated using pymatgen
data_Li4La3NdAu4
_symmetry_space_group_name_H-M   'P 1'
_cell_length_a   7.53651345
_cell_length_b   4.28155500
_cell_length_c   8.97606600
_cell_angle_alpha   90.00000000
_cell_angle_beta   89.74704369
_cell_angle_gamma   90.00000000
_symmetry_Int_Tables_number   1
_chemical_formula_structural   Li4La3NdAu4
_chemical_formula_sum   'Li4 La3 Nd1 Au4'
_cell_volume   289.63684657
_cell_formula_units_Z   1
loop_
 _symmetry_equiv_pos_site_id
 _symmetry_equiv_pos_as_xyz
  1  'x, y, z'
loop_
 _atom_site_type_symbol
 _atom_site_label
 _atom_site_symmetry_multiplicity
 _atom_site_fract_x
 _atom_site_fract_y
 _atom_site_fract_z
 _atom_site_occupancy
  Li  Li0  1  0.872112  0.250000  0.557641  1
  Li  Li1  1  0.376963  0.250000  0.941672  1
  Li  Li2  1  0.125544  0.750000  0.444079  1
  Li  Li3  1  0.624658  0.750000  0.054922  1
  La  La4  1  0.955495  0.250000  0.186991  1
  La  La5  1  0.458100  0.250000  0.315291  1
  La  La6  1  0.042559  0.750000  0.810567  1
  Nd  Nd7  1  0.543111  0.750000  0.686912  1
  Au  Au8  1  0.746427  0.250000  0.882142  1
  Au  Au9  1  0.251588  0.250000  0.617487  1
  Au  Au10  1  0.252433  0.750000  0.115395  1
  Au  Au11  1  0.751009  0.750000  0.386901  1
