# generated using pymatgen
data_La12Ir(AuI4)3
_symmetry_space_group_name_H-M   'P 1'
_cell_length_a   11.05270814
_cell_length_b   11.05270785
_cell_length_c   11.05270812
_cell_angle_alpha   109.09734925
_cell_angle_beta   109.09734811
_cell_angle_gamma   109.09735210
_symmetry_Int_Tables_number   1
_chemical_formula_structural   La12Ir(AuI4)3
_chemical_formula_sum   'La12 Ir1 Au3 I12'
_cell_volume   1053.54555583
_cell_formula_units_Z   1
loop_
 _symmetry_equiv_pos_site_id
 _symmetry_equiv_pos_as_xyz
  1  'x, y, z'
loop_
 _atom_site_type_symbol
 _atom_site_label
 _atom_site_symmetry_multiplicity
 _atom_site_fract_x
 _atom_site_fract_y
 _atom_site_fract_z
 _atom_site_occupancy
  La  La0  1  0.461745  0.473874  0.237044  1
  La  La1  1  0.750000  0.235720  0.264280  1
  La  La2  1  0.750000  0.014693  0.485307  1
  La  La3  1  0.237044  0.461745  0.473874  1
  La  La4  1  0.264280  0.750000  0.235720  1
  La  La5  1  0.038255  0.262956  0.026126  1
  La  La6  1  0.026126  0.038255  0.262956  1
  La  La7  1  0.485307  0.750000  0.014693  1
  La  La8  1  0.473874  0.237044  0.461745  1
  La  La9  1  0.014693  0.485307  0.750000  1
  La  La10  1  0.262956  0.026126  0.038255  1
  La  La11  1  0.235720  0.264280  0.750000  1
  Ir  Ir12  1  0.250000  0.250000  0.250000  1
  Au  Au13  1  0.500440  0.999560  0.250000  1
  Au  Au14  1  0.999560  0.250000  0.500440  1
  Au  Au15  1  0.250000  0.500440  0.999560  1
  I  I16  1  0.250000  0.757737  0.742263  1
  I  I17  1  0.518556  0.509716  0.760375  1
  I  I18  1  0.981444  0.739625  0.990284  1
  I  I19  1  0.742263  0.250000  0.757737  1
  I  I20  1  0.990284  0.981444  0.739625  1
  I  I21  1  0.250000  0.990659  0.509341  1
  I  I22  1  0.760375  0.518556  0.509716  1
  I  I23  1  0.509341  0.250000  0.990659  1
  I  I24  1  0.757737  0.742263  0.250000  1
  I  I25  1  0.739625  0.990284  0.981444  1
  I  I26  1  0.990659  0.509341  0.250000  1
  I  I27  1  0.509716  0.760375  0.518556  1
