# generated using pymatgen
data_Ho3Lu5(CdIr)2
_symmetry_space_group_name_H-M   'P 1'
_cell_length_a   9.48031021
_cell_length_b   9.48326866
_cell_length_c   9.48524300
_cell_angle_alpha   60.05569449
_cell_angle_beta   60.04178787
_cell_angle_gamma   60.01813979
_symmetry_Int_Tables_number   1
_chemical_formula_structural   Ho3Lu5(CdIr)2
_chemical_formula_sum   'Ho6 Lu10 Cd4 Ir4'
_cell_volume   603.52213871
_cell_formula_units_Z   2
loop_
 _symmetry_equiv_pos_site_id
 _symmetry_equiv_pos_as_xyz
  1  'x, y, z'
loop_
 _atom_site_type_symbol
 _atom_site_label
 _atom_site_symmetry_multiplicity
 _atom_site_fract_x
 _atom_site_fract_y
 _atom_site_fract_z
 _atom_site_occupancy
  Ho  Ho0  1  0.189578  0.810548  0.810313  1
  Ho  Ho1  1  0.810441  0.189694  0.189437  1
  Ho  Ho2  1  0.810696  0.189611  0.810308  1
  Ho  Ho3  1  0.189573  0.810516  0.189386  1
  Ho  Ho4  1  0.810624  0.810479  0.189531  1
  Ho  Ho5  1  0.189558  0.189536  0.810406  1
  Lu  Lu6  1  0.599120  0.598982  0.599010  1
  Lu  Lu7  1  0.599359  0.599503  0.201869  1
  Lu  Lu8  1  0.598945  0.202443  0.599386  1
  Lu  Lu9  1  0.202658  0.598873  0.599182  1
  Lu  Lu10  1  0.061646  0.438237  0.438364  1
  Lu  Lu11  1  0.438262  0.061604  0.061898  1
  Lu  Lu12  1  0.438127  0.061549  0.438434  1
  Lu  Lu13  1  0.061488  0.438381  0.061783  1
  Lu  Lu14  1  0.438340  0.438431  0.061652  1
  Lu  Lu15  1  0.061617  0.061565  0.438575  1
  Cd  Cd16  1  0.830595  0.831198  0.830988  1
  Cd  Cd17  1  0.830530  0.831349  0.507723  1
  Cd  Cd18  1  0.830802  0.508055  0.830659  1
  Cd  Cd19  1  0.508139  0.830701  0.830501  1
  Ir  Ir20  1  0.392306  0.391793  0.391680  1
  Ir  Ir21  1  0.391778  0.391533  0.825041  1
  Ir  Ir22  1  0.391743  0.823841  0.391898  1
  Ir  Ir23  1  0.824078  0.391579  0.391975  1
