# generated using pymatgen
data_Al3Zn3(Pd2Pt3)2
_symmetry_space_group_name_H-M   'P 1'
_cell_length_a   4.06060300
_cell_length_b   5.49390816
_cell_length_c   10.66572457
_cell_angle_alpha   90.09925981
_cell_angle_beta   90.00000000
_cell_angle_gamma   90.00000000
_symmetry_Int_Tables_number   1
_chemical_formula_structural   Al3Zn3(Pd2Pt3)2
_chemical_formula_sum   'Al3 Zn3 Pd4 Pt6'
_cell_volume   237.93681238
_cell_formula_units_Z   1
loop_
 _symmetry_equiv_pos_site_id
 _symmetry_equiv_pos_as_xyz
  1  'x, y, z'
loop_
 _atom_site_type_symbol
 _atom_site_label
 _atom_site_symmetry_multiplicity
 _atom_site_fract_x
 _atom_site_fract_y
 _atom_site_fract_z
 _atom_site_occupancy
  Al  Al0  1  0.000000  0.990586  0.002715  1
  Al  Al1  1  0.000000  0.498307  0.499248  1
  Al  Al2  1  0.500000  0.334397  0.859119  1
  Zn  Zn3  1  0.500000  0.166690  0.359282  1
  Zn  Zn4  1  0.500000  0.834367  0.637654  1
  Zn  Zn5  1  0.500000  0.667822  0.140811  1
  Pd  Pd6  1  0.000000  0.001536  0.501626  1
  Pd  Pd7  1  0.000000  0.493144  0.996390  1
  Pd  Pd8  1  0.000000  0.412280  0.262855  1
  Pd  Pd9  1  0.000000  0.593803  0.735363  1
  Pt  Pt10  1  0.500000  0.188050  0.102948  1
  Pt  Pt11  1  0.500000  0.808288  0.891756  1
  Pt  Pt12  1  0.500000  0.683857  0.393960  1
  Pt  Pt13  1  0.500000  0.316728  0.609811  1
  Pt  Pt14  1  0.000000  0.912885  0.236383  1
  Pt  Pt15  1  0.000000  0.097258  0.770080  1
