# generated using pymatgen
data_Th2SiIrI2
_symmetry_space_group_name_H-M   'P 1'
_cell_length_a   4.28470700
_cell_length_b   4.28470752
_cell_length_c   12.04888100
_cell_angle_alpha   90.00000000
_cell_angle_beta   90.00000000
_cell_angle_gamma   119.99998826
_symmetry_Int_Tables_number   1
_chemical_formula_structural   Th2SiIrI2
_chemical_formula_sum   'Th2 Si1 Ir1 I2'
_cell_volume   191.56656374
_cell_formula_units_Z   1
loop_
 _symmetry_equiv_pos_site_id
 _symmetry_equiv_pos_as_xyz
  1  'x, y, z'
loop_
 _atom_site_type_symbol
 _atom_site_label
 _atom_site_symmetry_multiplicity
 _atom_site_fract_x
 _atom_site_fract_y
 _atom_site_fract_z
 _atom_site_occupancy
  Th  Th0  1  0.000000  0.000000  0.150391  1
  Th  Th1  1  0.000000  0.000000  0.844508  1
  Si  Si2  1  0.666667  0.333333  0.986482  1
  Ir  Ir3  1  0.333333  0.666667  0.015954  1
  I  I4  1  0.333333  0.666667  0.662545  1
  I  I5  1  0.666667  0.333333  0.340122  1
