# generated using pymatgen
data_Hf3ScSi6Ir6Rh
_symmetry_space_group_name_H-M   'P 1'
_cell_length_a   6.98495134
_cell_length_b   6.99834973
_cell_length_c   6.98407468
_cell_angle_alpha   109.53221394
_cell_angle_beta   109.45447325
_cell_angle_gamma   109.47094207
_symmetry_Int_Tables_number   1
_chemical_formula_structural   Hf3ScSi6Ir6Rh
_chemical_formula_sum   'Hf3 Sc1 Si6 Ir6 Rh1'
_cell_volume   262.66969197
_cell_formula_units_Z   1
loop_
 _symmetry_equiv_pos_site_id
 _symmetry_equiv_pos_as_xyz
  1  'x, y, z'
loop_
 _atom_site_type_symbol
 _atom_site_label
 _atom_site_symmetry_multiplicity
 _atom_site_fract_x
 _atom_site_fract_y
 _atom_site_fract_z
 _atom_site_occupancy
  Hf  Hf0  1  0.000217  0.999766  0.499991  1
  Hf  Hf1  1  0.499738  0.999738  0.999476  1
  Hf  Hf2  1  0.499774  0.500225  0.499991  1
  Sc  Sc3  1  0.000149  0.500149  0.000299  1
  Si  Si4  1  0.682767  0.680378  0.999982  1
  Si  Si5  1  0.318333  0.998220  0.317857  1
  Si  Si6  1  0.999524  0.319637  0.317857  1
  Si  Si7  1  0.317215  0.319604  0.999982  1
  Si  Si8  1  0.682533  0.002666  0.682163  1
  Si  Si9  1  0.999630  0.679497  0.682163  1
  Ir  Ir10  1  0.749094  0.499398  0.251136  1
  Ir  Ir11  1  0.499004  0.249369  0.748894  1
  Ir  Ir12  1  0.249890  0.499525  0.748894  1
  Ir  Ir13  1  0.250775  0.750775  0.501548  1
  Ir  Ir14  1  0.502041  0.751738  0.251136  1
  Ir  Ir15  1  0.999991  0.999991  0.999982  1
  Rh  Rh16  1  0.749324  0.249324  0.498650  1
