# generated using pymatgen
data_Pr5NdAl2SiSe14
_symmetry_space_group_name_H-M   'P 1'
_cell_length_a   10.61275521
_cell_length_b   10.60137496
_cell_length_c   6.22315225
_cell_angle_alpha   90.05280333
_cell_angle_beta   90.01664724
_cell_angle_gamma   120.02015863
_symmetry_Int_Tables_number   1
_chemical_formula_structural   Pr5NdAl2SiSe14
_chemical_formula_sum   'Pr5 Nd1 Al2 Si1 Se14'
_cell_volume   606.23749991
_cell_formula_units_Z   1
loop_
 _symmetry_equiv_pos_site_id
 _symmetry_equiv_pos_as_xyz
  1  'x, y, z'
loop_
 _atom_site_type_symbol
 _atom_site_label
 _atom_site_symmetry_multiplicity
 _atom_site_fract_x
 _atom_site_fract_y
 _atom_site_fract_z
 _atom_site_occupancy
  Pr  Pr0  1  0.893840  0.196527  0.523148  1
  Pr  Pr1  1  0.302675  0.106184  0.523170  1
  Pr  Pr2  1  0.522390  0.965597  0.042629  1
  Pr  Pr3  1  0.443414  0.477716  0.042493  1
  Pr  Pr4  1  0.034252  0.556742  0.042548  1
  Nd  Nd5  1  0.803286  0.697228  0.522280  1
  Al  Al6  1  0.666758  0.333553  0.317062  1
  Al  Al7  1  0.333544  0.666764  0.450908  1
  Si  Si8  1  0.999898  0.999845  0.942940  1
  Se  Se9  1  0.999521  0.999228  0.309623  1
  Se  Se10  1  0.333299  0.666660  0.830328  1
  Se  Se11  1  0.082982  0.854527  0.799359  1
  Se  Se12  1  0.771326  0.915434  0.799322  1
  Se  Se13  1  0.144941  0.228752  0.800443  1
  Se  Se14  1  0.240290  0.814056  0.303748  1
  Se  Se15  1  0.574166  0.759732  0.304145  1
  Se  Se16  1  0.185923  0.426089  0.303733  1
  Se  Se17  1  0.908711  0.485348  0.545730  1
  Se  Se18  1  0.575610  0.091037  0.545711  1
  Se  Se19  1  0.516358  0.425333  0.545856  1
  Se  Se20  1  0.430628  0.191894  0.081787  1
  Se  Se21  1  0.761473  0.569762  0.083305  1
  Se  Se22  1  0.808046  0.238660  0.081743  1
