# generated using pymatgen
data_Ac(PrSn4)3
_symmetry_space_group_name_H-M   'P 1'
_cell_length_a   12.32878238
_cell_length_b   12.32878257
_cell_length_c   12.32878264
_cell_angle_alpha   31.48693218
_cell_angle_beta   31.48693167
_cell_angle_gamma   31.48693306
_symmetry_Int_Tables_number   1
_chemical_formula_structural   Ac(PrSn4)3
_chemical_formula_sum   'Ac1 Pr3 Sn12'
_cell_volume   453.85140212
_cell_formula_units_Z   1
loop_
 _symmetry_equiv_pos_site_id
 _symmetry_equiv_pos_as_xyz
  1  'x, y, z'
loop_
 _atom_site_type_symbol
 _atom_site_label
 _atom_site_symmetry_multiplicity
 _atom_site_fract_x
 _atom_site_fract_y
 _atom_site_fract_z
 _atom_site_occupancy
  Ac  Ac0  1  0.293156  0.293156  0.293156  1
  Pr  Pr1  1  0.878280  0.878280  0.878280  1
  Pr  Pr2  1  0.121766  0.121766  0.121766  1
  Pr  Pr3  1  0.706122  0.706122  0.706122  1
  Sn  Sn4  1  0.294078  0.791206  0.791206  1
  Sn  Sn5  1  0.791206  0.791206  0.294078  1
  Sn  Sn6  1  0.856185  0.385029  0.385029  1
  Sn  Sn7  1  0.385029  0.385029  0.856185  1
  Sn  Sn8  1  0.385029  0.856185  0.385029  1
  Sn  Sn9  1  0.616444  0.139098  0.616444  1
  Sn  Sn10  1  0.139098  0.616444  0.616444  1
  Sn  Sn11  1  0.616444  0.616444  0.139098  1
  Sn  Sn12  1  0.791206  0.294078  0.791206  1
  Sn  Sn13  1  0.208407  0.709143  0.208407  1
  Sn  Sn14  1  0.208407  0.208407  0.709143  1
  Sn  Sn15  1  0.709143  0.208407  0.208407  1
