# generated using pymatgen
data_Be8V2FeRe
_symmetry_space_group_name_H-M   'P 1'
_cell_length_a   4.28392400
_cell_length_b   4.28392312
_cell_length_c   7.02346500
_cell_angle_alpha   90.00000000
_cell_angle_beta   90.00000000
_cell_angle_gamma   120.00000677
_symmetry_Int_Tables_number   1
_chemical_formula_structural   Be8V2FeRe
_chemical_formula_sum   'Be8 V2 Fe1 Re1'
_cell_volume   111.62602269
_cell_formula_units_Z   1
loop_
 _symmetry_equiv_pos_site_id
 _symmetry_equiv_pos_as_xyz
  1  'x, y, z'
loop_
 _atom_site_type_symbol
 _atom_site_label
 _atom_site_symmetry_multiplicity
 _atom_site_fract_x
 _atom_site_fract_y
 _atom_site_fract_z
 _atom_site_occupancy
  Be  Be0  1  0.000000  0.000000  0.997730  1
  Be  Be1  1  0.000000  0.000000  0.504317  1
  Be  Be2  1  0.830516  0.661032  0.246734  1
  Be  Be3  1  0.169821  0.830179  0.753237  1
  Be  Be4  1  0.660358  0.830179  0.753237  1
  Be  Be5  1  0.338968  0.169484  0.246734  1
  Be  Be6  1  0.830516  0.169484  0.246734  1
  Be  Be7  1  0.169821  0.339642  0.753237  1
  V  V8  1  0.333333  0.666667  0.058566  1
  V  V9  1  0.666667  0.333333  0.565341  1
  Fe  Fe10  1  0.666667  0.333333  0.936051  1
  Re  Re11  1  0.333333  0.666667  0.438083  1
