# generated using pymatgen
data_Ca2CoO4
_symmetry_space_group_name_H-M   'P 1'
_cell_length_a   5.28163000
_cell_length_b   6.86419100
_cell_length_c   11.49463400
_cell_angle_alpha   90.00000000
_cell_angle_beta   90.00000000
_cell_angle_gamma   90.00000000
_symmetry_Int_Tables_number   1
_chemical_formula_structural   Ca2CoO4
_chemical_formula_sum   'Ca8 Co4 O16'
_cell_volume   416.72780719
_cell_formula_units_Z   4
loop_
 _symmetry_equiv_pos_site_id
 _symmetry_equiv_pos_as_xyz
  1  'x, y, z'
loop_
 _atom_site_type_symbol
 _atom_site_label
 _atom_site_symmetry_multiplicity
 _atom_site_fract_x
 _atom_site_fract_y
 _atom_site_fract_z
 _atom_site_occupancy
  Ca  Ca0  1  0.005473  0.750000  0.721782  1
  Ca  Ca1  1  0.994527  0.250000  0.278218  1
  Ca  Ca2  1  0.505473  0.250000  0.778218  1
  Ca  Ca3  1  0.494527  0.750000  0.221782  1
  Ca  Ca4  1  0.500000  0.500000  0.500000  1
  Ca  Ca5  1  0.000000  0.000000  0.000000  1
  Ca  Ca6  1  0.000000  0.500000  0.000000  1
  Ca  Ca7  1  0.500000  0.000000  0.500000  1
  Co  Co8  1  0.430195  0.250000  0.095773  1
  Co  Co9  1  0.930195  0.750000  0.404227  1
  Co  Co10  1  0.569805  0.750000  0.904227  1
  Co  Co11  1  0.069805  0.250000  0.595773  1
  O  O12  1  0.782251  0.750000  0.547979  1
  O  O13  1  0.779732  0.541777  0.335925  1
  O  O14  1  0.720268  0.541777  0.835925  1
  O  O15  1  0.730736  0.250000  0.592999  1
  O  O16  1  0.717749  0.750000  0.047979  1
  O  O17  1  0.279732  0.458223  0.164075  1
  O  O18  1  0.220268  0.458223  0.664075  1
  O  O19  1  0.269264  0.750000  0.407001  1
  O  O20  1  0.779732  0.958223  0.335925  1
  O  O21  1  0.230736  0.750000  0.907001  1
  O  O22  1  0.217749  0.250000  0.452021  1
  O  O23  1  0.720268  0.958223  0.835925  1
  O  O24  1  0.220268  0.041777  0.664075  1
  O  O25  1  0.282251  0.250000  0.952021  1
  O  O26  1  0.279732  0.041777  0.164075  1
  O  O27  1  0.769264  0.250000  0.092999  1
