# generated using pymatgen
data_TmTh(ZnIr)2
_symmetry_space_group_name_H-M   'P 1'
_cell_length_a   4.00704100
_cell_length_b   7.06939619
_cell_length_c   8.36102267
_cell_angle_alpha   89.67101830
_cell_angle_beta   90.00000000
_cell_angle_gamma   90.00000000
_symmetry_Int_Tables_number   1
_chemical_formula_structural   TmTh(ZnIr)2
_chemical_formula_sum   'Tm2 Th2 Zn4 Ir4'
_cell_volume   236.84179791
_cell_formula_units_Z   2
loop_
 _symmetry_equiv_pos_site_id
 _symmetry_equiv_pos_as_xyz
  1  'x, y, z'
loop_
 _atom_site_type_symbol
 _atom_site_label
 _atom_site_symmetry_multiplicity
 _atom_site_fract_x
 _atom_site_fract_y
 _atom_site_fract_z
 _atom_site_occupancy
  Tm  Tm0  1  0.750000  0.950788  0.679797  1
  Tm  Tm1  1  0.250000  0.049212  0.320203  1
  Th  Th2  1  0.250000  0.547715  0.189981  1
  Th  Th3  1  0.750000  0.452285  0.810019  1
  Zn  Zn4  1  0.250000  0.643618  0.560287  1
  Zn  Zn5  1  0.750000  0.356382  0.439713  1
  Zn  Zn6  1  0.750000  0.882434  0.062152  1
  Zn  Zn7  1  0.250000  0.117566  0.937848  1
  Ir  Ir8  1  0.250000  0.743883  0.872862  1
  Ir  Ir9  1  0.750000  0.256117  0.127138  1
  Ir  Ir10  1  0.750000  0.755959  0.370103  1
  Ir  Ir11  1  0.250000  0.244041  0.629897  1
