# generated using pymatgen
data_NaCe2CuF11
_symmetry_space_group_name_H-M   'P 1'
_cell_length_a   5.74927285
_cell_length_b   6.11429472
_cell_length_c   8.13754437
_cell_angle_alpha   108.90882259
_cell_angle_beta   96.61937063
_cell_angle_gamma   106.24754454
_symmetry_Int_Tables_number   1
_chemical_formula_structural   NaCe2CuF11
_chemical_formula_sum   'Na1 Ce2 Cu1 F11'
_cell_volume   253.04501396
_cell_formula_units_Z   1
loop_
 _symmetry_equiv_pos_site_id
 _symmetry_equiv_pos_as_xyz
  1  'x, y, z'
loop_
 _atom_site_type_symbol
 _atom_site_label
 _atom_site_symmetry_multiplicity
 _atom_site_fract_x
 _atom_site_fract_y
 _atom_site_fract_z
 _atom_site_occupancy
  Na  Na0  1  0.000000  0.000000  0.000000  1
  Ce  Ce1  1  0.482108  0.267901  0.761528  1
  Ce  Ce2  1  0.517892  0.732099  0.238472  1
  Cu  Cu3  1  0.000000  0.500000  0.500000  1
  F  F4  1  0.243465  0.825612  0.111420  1
  F  F5  1  0.182658  0.936563  0.717873  1
  F  F6  1  0.771618  0.486752  0.651365  1
  F  F7  1  0.756535  0.174388  0.888580  1
  F  F8  1  0.339981  0.332635  0.025647  1
  F  F9  1  0.817342  0.063437  0.282127  1
  F  F10  1  0.789188  0.596452  0.355618  1
  F  F11  1  0.210812  0.403548  0.644382  1
  F  F12  1  0.228382  0.513248  0.348635  1
  F  F13  1  0.500000  0.000000  0.500000  1
  F  F14  1  0.660019  0.667365  0.974353  1
