# generated using pymatgen
data_Sr3Np4PaH24
_symmetry_space_group_name_H-M   'P 1'
_cell_length_a   6.73930500
_cell_length_b   6.85501700
_cell_length_c   6.86236700
_cell_angle_alpha   90.00000000
_cell_angle_beta   90.00000000
_cell_angle_gamma   90.00000000
_symmetry_Int_Tables_number   1
_chemical_formula_structural   Sr3Np4PaH24
_chemical_formula_sum   'Sr3 Np4 Pa1 H24'
_cell_volume   317.02797614
_cell_formula_units_Z   1
loop_
 _symmetry_equiv_pos_site_id
 _symmetry_equiv_pos_as_xyz
  1  'x, y, z'
loop_
 _atom_site_type_symbol
 _atom_site_label
 _atom_site_symmetry_multiplicity
 _atom_site_fract_x
 _atom_site_fract_y
 _atom_site_fract_z
 _atom_site_occupancy
  Sr  Sr0  1  0.246785  0.000000  0.499049  1
  Sr  Sr1  1  0.753215  0.000000  0.499049  1
  Sr  Sr2  1  0.000000  0.500000  0.248575  1
  Np  Np3  1  0.000000  0.000000  0.996406  1
  Np  Np4  1  0.000000  0.500000  0.752432  1
  Np  Np5  1  0.500000  0.751302  0.999623  1
  Np  Np6  1  0.500000  0.248698  0.999623  1
  Pa  Pa7  1  0.500000  0.500000  0.504845  1
  H  H8  1  0.000000  0.149414  0.277184  1
  H  H9  1  0.500000  0.225840  0.666796  1
  H  H10  1  0.500000  0.773045  0.334481  1
  H  H11  1  0.794725  0.643141  0.521266  1
  H  H12  1  0.205275  0.643141  0.521266  1
  H  H13  1  0.348785  0.500000  0.799960  1
  H  H14  1  0.651215  0.500000  0.799960  1
  H  H15  1  0.315860  0.000000  0.141408  1
  H  H16  1  0.159926  0.292674  0.981198  1
  H  H17  1  0.840074  0.707326  0.981198  1
  H  H18  1  0.316967  0.000000  0.857932  1
  H  H19  1  0.840074  0.292674  0.981198  1
  H  H20  1  0.684140  0.000000  0.141408  1
  H  H21  1  0.683033  0.000000  0.857932  1
  H  H22  1  0.159926  0.707326  0.981198  1
  H  H23  1  0.000000  0.833524  0.718103  1
  H  H24  1  0.000000  0.166476  0.718103  1
  H  H25  1  0.000000  0.850586  0.277184  1
  H  H26  1  0.640124  0.500000  0.199406  1
  H  H27  1  0.359876  0.500000  0.199406  1
  H  H28  1  0.794725  0.356859  0.521266  1
  H  H29  1  0.205275  0.356859  0.521266  1
  H  H30  1  0.500000  0.774160  0.666796  1
  H  H31  1  0.500000  0.226955  0.334481  1
