# generated using pymatgen
data_Pr2Nd2Al18Ir5Au
_symmetry_space_group_name_H-M   'P 1'
_cell_length_a   7.65833248
_cell_length_b   7.65992771
_cell_length_c   9.62979384
_cell_angle_alpha   89.93067431
_cell_angle_beta   89.95149342
_cell_angle_gamma   119.46090753
_symmetry_Int_Tables_number   1
_chemical_formula_structural   Pr2Nd2Al18Ir5Au
_chemical_formula_sum   'Pr2 Nd2 Al18 Ir5 Au1'
_cell_volume   491.85745015
_cell_formula_units_Z   1
loop_
 _symmetry_equiv_pos_site_id
 _symmetry_equiv_pos_as_xyz
  1  'x, y, z'
loop_
 _atom_site_type_symbol
 _atom_site_label
 _atom_site_symmetry_multiplicity
 _atom_site_fract_x
 _atom_site_fract_y
 _atom_site_fract_z
 _atom_site_occupancy
  Pr  Pr0  1  0.995579  0.673340  0.250066  1
  Pr  Pr1  1  0.004421  0.326660  0.749934  1
  Nd  Nd2  1  0.673224  0.995612  0.250117  1
  Nd  Nd3  1  0.326776  0.004388  0.749883  1
  Al  Al4  1  0.137652  0.138081  0.257307  1
  Al  Al5  1  0.862348  0.861919  0.742693  1
  Al  Al6  1  0.003750  0.344004  0.076828  1
  Al  Al7  1  0.996250  0.655996  0.923172  1
  Al  Al8  1  0.998852  0.664779  0.571966  1
  Al  Al9  1  0.336398  0.001763  0.428636  1
  Al  Al10  1  0.001148  0.335221  0.428034  1
  Al  Al11  1  0.663602  0.998237  0.571364  1
  Al  Al12  1  0.654800  0.995760  0.923635  1
  Al  Al13  1  0.345200  0.004240  0.076365  1
  Al  Al14  1  0.334687  0.334195  0.547947  1
  Al  Al15  1  0.665313  0.665805  0.452053  1
  Al  Al16  1  0.655996  0.656467  0.055088  1
  Al  Al17  1  0.344004  0.343533  0.944912  1
  Al  Al18  1  0.340198  0.548625  0.251135  1
  Al  Al19  1  0.659802  0.451375  0.748865  1
  Al  Al20  1  0.547757  0.338748  0.251114  1
  Al  Al21  1  0.452243  0.661252  0.748886  1
  Ir  Ir22  1  0.670841  0.328816  0.999987  1
  Ir  Ir23  1  0.329159  0.671184  0.000013  1
  Ir  Ir24  1  0.329302  0.671079  0.499968  1
  Ir  Ir25  1  0.670698  0.328921  0.500032  1
  Ir  Ir26  1  0.000000  0.000000  0.500000  1
  Au  Au27  1  0.000000  0.000000  0.000000  1
