# generated using pymatgen
data_CdCu3Pd3O8
_symmetry_space_group_name_H-M   'P 1'
_cell_length_a   6.73115482
_cell_length_b   6.65454984
_cell_length_c   6.70099295
_cell_angle_alpha   60.52841276
_cell_angle_beta   59.39433372
_cell_angle_gamma   59.99557460
_symmetry_Int_Tables_number   1
_chemical_formula_structural   CdCu3Pd3O8
_chemical_formula_sum   'Cd1 Cu3 Pd3 O8'
_cell_volume   212.06988918
_cell_formula_units_Z   1
loop_
 _symmetry_equiv_pos_site_id
 _symmetry_equiv_pos_as_xyz
  1  'x, y, z'
loop_
 _atom_site_type_symbol
 _atom_site_label
 _atom_site_symmetry_multiplicity
 _atom_site_fract_x
 _atom_site_fract_y
 _atom_site_fract_z
 _atom_site_occupancy
  Cd  Cd0  1  0.000000  0.000000  0.000000  1
  Cu  Cu1  1  0.500000  0.000000  0.500000  1
  Cu  Cu2  1  0.000000  0.500000  0.000000  1
  Cu  Cu3  1  0.500000  0.500000  0.000000  1
  Pd  Pd4  1  0.500000  0.000000  0.000000  1
  Pd  Pd5  1  0.000000  0.000000  0.500000  1
  Pd  Pd6  1  0.000000  0.500000  0.500000  1
  O  O7  1  0.848986  0.434292  0.867945  1
  O  O8  1  0.135160  0.156193  0.134646  1
  O  O9  1  0.864840  0.843807  0.865354  1
  O  O10  1  0.565708  0.151014  0.151224  1
  O  O11  1  0.843807  0.864840  0.425998  1
  O  O12  1  0.434292  0.848986  0.848776  1
  O  O13  1  0.156193  0.135160  0.574002  1
  O  O14  1  0.151014  0.565708  0.132055  1
