# generated using pymatgen
data_Nd4Al3NiI2
_symmetry_space_group_name_H-M   'P 1'
_cell_length_a   4.32809700
_cell_length_b   4.32809816
_cell_length_c   17.10862100
_cell_angle_alpha   90.00000000
_cell_angle_beta   90.00000000
_cell_angle_gamma   119.99999880
_symmetry_Int_Tables_number   1
_chemical_formula_structural   Nd4Al3NiI2
_chemical_formula_sum   'Nd4 Al3 Ni1 I2'
_cell_volume   277.54904016
_cell_formula_units_Z   1
loop_
 _symmetry_equiv_pos_site_id
 _symmetry_equiv_pos_as_xyz
  1  'x, y, z'
loop_
 _atom_site_type_symbol
 _atom_site_label
 _atom_site_symmetry_multiplicity
 _atom_site_fract_x
 _atom_site_fract_y
 _atom_site_fract_z
 _atom_site_occupancy
  Nd  Nd0  1  0.000000  0.000000  0.102557  1
  Nd  Nd1  1  0.000000  0.000000  0.380046  1
  Nd  Nd2  1  0.000000  0.000000  0.620281  1
  Nd  Nd3  1  0.000000  0.000000  0.895087  1
  Al  Al4  1  0.333333  0.666666  0.493152  1
  Al  Al5  1  0.666668  0.333334  0.507227  1
  Al  Al6  1  0.666668  0.333334  0.997432  1
  Ni  Ni7  1  0.333333  0.666666  0.002999  1
  I  I8  1  0.666668  0.333334  0.249448  1
  I  I9  1  0.333333  0.666666  0.751770  1
