# generated using pymatgen
data_Er2Be24CuNi
_symmetry_space_group_name_H-M   'P 1'
_cell_length_a   7.24373119
_cell_length_b   7.30223032
_cell_length_c   7.22185185
_cell_angle_alpha   59.83021074
_cell_angle_beta   59.76209017
_cell_angle_gamma   59.53382939
_symmetry_Int_Tables_number   1
_chemical_formula_structural   Er2Be24CuNi
_chemical_formula_sum   'Er2 Be24 Cu1 Ni1'
_cell_volume   268.32556433
_cell_formula_units_Z   1
loop_
 _symmetry_equiv_pos_site_id
 _symmetry_equiv_pos_as_xyz
  1  'x, y, z'
loop_
 _atom_site_type_symbol
 _atom_site_label
 _atom_site_symmetry_multiplicity
 _atom_site_fract_x
 _atom_site_fract_y
 _atom_site_fract_z
 _atom_site_occupancy
  Er  Er0  1  0.250002  0.250702  0.252254  1
  Er  Er1  1  0.747746  0.752957  0.749998  1
  Be  Be2  1  0.502589  0.501052  0.497411  1
  Be  Be3  1  0.999280  0.001497  0.000720  1
  Be  Be4  1  0.567595  0.788667  0.432405  1
  Be  Be5  1  0.433810  0.208609  0.566190  1
  Be  Be6  1  0.293113  0.935702  0.706887  1
  Be  Be7  1  0.706426  0.063716  0.293574  1
  Be  Be8  1  0.929561  0.282848  0.070439  1
  Be  Be9  1  0.066398  0.719426  0.933602  1
  Be  Be10  1  0.206763  0.801092  0.558207  1
  Be  Be11  1  0.792979  0.202939  0.439401  1
  Be  Be12  1  0.441793  0.566061  0.793237  1
  Be  Be13  1  0.560599  0.435320  0.207021  1
  Be  Be14  1  0.710426  0.284615  0.935837  1
  Be  Be15  1  0.289200  0.714252  0.063618  1
  Be  Be16  1  0.064163  0.930876  0.289574  1
  Be  Be17  1  0.936382  0.067071  0.710800  1
  Be  Be18  1  0.565017  0.206762  0.792795  1
  Be  Be19  1  0.437269  0.791268  0.206844  1
  Be  Be20  1  0.793156  0.435381  0.562731  1
  Be  Be21  1  0.207205  0.564574  0.434983  1
  Be  Be22  1  0.936814  0.709457  0.290304  1
  Be  Be23  1  0.063239  0.288536  0.707325  1
  Be  Be24  1  0.292675  0.059100  0.936761  1
  Be  Be25  1  0.709696  0.936575  0.063186  1
  Cu  Cu26  1  0.195594  0.441952  0.804406  1
  Ni  Ni27  1  0.800509  0.558992  0.199491  1
