# generated using pymatgen
data_Ag10Te4Cl3
_symmetry_space_group_name_H-M   'P 1'
_cell_length_a   10.90660900
_cell_length_b   10.90660910
_cell_length_c   13.60643000
_cell_angle_alpha   90.00000000
_cell_angle_beta   90.00000000
_cell_angle_gamma   91.31675781
_symmetry_Int_Tables_number   1
_chemical_formula_structural   Ag10Te4Cl3
_chemical_formula_sum   'Ag40 Te16 Cl12'
_cell_volume   1618.11351331
_cell_formula_units_Z   4
loop_
 _symmetry_equiv_pos_site_id
 _symmetry_equiv_pos_as_xyz
  1  'x, y, z'
loop_
 _atom_site_type_symbol
 _atom_site_label
 _atom_site_symmetry_multiplicity
 _atom_site_fract_x
 _atom_site_fract_y
 _atom_site_fract_z
 _atom_site_occupancy
  Ag  Ag0  1  0.836671  0.364818  0.098117  1
  Ag  Ag1  1  0.375630  0.624370  0.250000  1
  Ag  Ag2  1  0.850389  0.374772  0.632335  1
  Ag  Ag3  1  0.850389  0.374772  0.867665  1
  Ag  Ag4  1  0.394825  0.319404  0.642042  1
  Ag  Ag5  1  0.319404  0.394825  0.142042  1
  Ag  Ag6  1  0.935040  0.872294  0.750000  1
  Ag  Ag7  1  0.163329  0.635182  0.901883  1
  Ag  Ag8  1  0.635182  0.163329  0.401883  1
  Ag  Ag9  1  0.858862  0.141138  0.750000  1
  Ag  Ag10  1  0.364818  0.836671  0.598117  1
  Ag  Ag11  1  0.181626  0.022459  0.073814  1
  Ag  Ag12  1  0.977541  0.818374  0.426186  1
  Ag  Ag13  1  0.394825  0.319404  0.857958  1
  Ag  Ag14  1  0.364818  0.836671  0.901883  1
  Ag  Ag15  1  0.149611  0.625228  0.132335  1
  Ag  Ag16  1  0.624370  0.375630  0.750000  1
  Ag  Ag17  1  0.818374  0.977541  0.573814  1
  Ag  Ag18  1  0.127706  0.064960  0.750000  1
  Ag  Ag19  1  0.141138  0.858862  0.250000  1
  Ag  Ag20  1  0.374772  0.850389  0.367665  1
  Ag  Ag21  1  0.022459  0.181626  0.573814  1
  Ag  Ag22  1  0.625228  0.149611  0.867665  1
  Ag  Ag23  1  0.977541  0.818374  0.073814  1
  Ag  Ag24  1  0.872294  0.935040  0.250000  1
  Ag  Ag25  1  0.374772  0.850389  0.132335  1
  Ag  Ag26  1  0.605175  0.680596  0.357958  1
  Ag  Ag27  1  0.149611  0.625228  0.367665  1
  Ag  Ag28  1  0.319404  0.394825  0.357958  1
  Ag  Ag29  1  0.163329  0.635182  0.598117  1
  Ag  Ag30  1  0.181626  0.022459  0.426186  1
  Ag  Ag31  1  0.625228  0.149611  0.632335  1
  Ag  Ag32  1  0.818374  0.977541  0.926186  1
  Ag  Ag33  1  0.680596  0.605175  0.642042  1
  Ag  Ag34  1  0.635182  0.163329  0.098117  1
  Ag  Ag35  1  0.064960  0.127706  0.250000  1
  Ag  Ag36  1  0.680596  0.605175  0.857958  1
  Ag  Ag37  1  0.022459  0.181626  0.926186  1
  Ag  Ag38  1  0.836671  0.364818  0.401883  1
  Ag  Ag39  1  0.605175  0.680596  0.142042  1
  Te  Te40  1  0.683243  0.945191  0.750000  1
  Te  Te41  1  0.291324  0.521064  0.750000  1
  Te  Te42  1  0.382702  0.617298  0.454433  1
  Te  Te43  1  0.886776  0.113224  0.409346  1
  Te  Te44  1  0.945191  0.683243  0.250000  1
  Te  Te45  1  0.054809  0.316757  0.750000  1
  Te  Te46  1  0.478936  0.708676  0.750000  1
  Te  Te47  1  0.316757  0.054809  0.250000  1
  Te  Te48  1  0.617298  0.382702  0.545567  1
  Te  Te49  1  0.521064  0.291324  0.250000  1
  Te  Te50  1  0.886776  0.113224  0.090654  1
  Te  Te51  1  0.382702  0.617298  0.045567  1
  Te  Te52  1  0.113224  0.886776  0.909346  1
  Te  Te53  1  0.113224  0.886776  0.590654  1
  Te  Te54  1  0.617298  0.382702  0.954433  1
  Te  Te55  1  0.708676  0.478936  0.250000  1
  Cl  Cl56  1  0.249297  0.249297  0.500000  1
  Cl  Cl57  1  0.890633  0.636168  0.750000  1
  Cl  Cl58  1  0.249297  0.249297  0.000000  1
  Cl  Cl59  1  0.750703  0.750703  0.500000  1
  Cl  Cl60  1  0.109367  0.363832  0.250000  1
  Cl  Cl61  1  0.000000  0.500000  0.500000  1
  Cl  Cl62  1  0.750703  0.750703  0.000000  1
  Cl  Cl63  1  0.363832  0.109367  0.750000  1
  Cl  Cl64  1  0.000000  0.500000  0.000000  1
  Cl  Cl65  1  0.636168  0.890633  0.250000  1
  Cl  Cl66  1  0.500000  0.000000  0.500000  1
  Cl  Cl67  1  0.500000  0.000000  0.000000  1
