# generated using pymatgen
data_DyPa3F15
_symmetry_space_group_name_H-M   'P 1'
_cell_length_a   8.70956074
_cell_length_b   8.70956139
_cell_length_c   8.71495277
_cell_angle_alpha   79.53089093
_cell_angle_beta   79.53087921
_cell_angle_gamma   100.02951860
_symmetry_Int_Tables_number   1
_chemical_formula_structural   DyPa3F15
_chemical_formula_sum   'Dy2 Pa6 F30'
_cell_volume   624.41466467
_cell_formula_units_Z   2
loop_
 _symmetry_equiv_pos_site_id
 _symmetry_equiv_pos_as_xyz
  1  'x, y, z'
loop_
 _atom_site_type_symbol
 _atom_site_label
 _atom_site_symmetry_multiplicity
 _atom_site_fract_x
 _atom_site_fract_y
 _atom_site_fract_z
 _atom_site_occupancy
  Dy  Dy0  1  0.178546  0.821454  0.250000  1
  Dy  Dy1  1  0.821454  0.178546  0.750000  1
  Pa  Pa2  1  0.749821  0.250179  0.250000  1
  Pa  Pa3  1  0.250179  0.749821  0.750000  1
  Pa  Pa4  1  0.754399  0.679969  0.672989  1
  Pa  Pa5  1  0.320031  0.245601  0.827011  1
  Pa  Pa6  1  0.245601  0.320031  0.327011  1
  Pa  Pa7  1  0.679969  0.754399  0.172989  1
  F  F8  1  0.472114  0.527886  0.250000  1
  F  F9  1  0.750902  0.967809  0.964226  1
  F  F10  1  0.032191  0.249098  0.535774  1
  F  F11  1  0.249098  0.032191  0.035774  1
  F  F12  1  0.967809  0.750902  0.464226  1
  F  F13  1  0.527886  0.472114  0.750000  1
  F  F14  1  0.217282  0.488208  0.778814  1
  F  F15  1  0.222958  0.725548  0.009573  1
  F  F16  1  0.987489  0.722920  0.783924  1
  F  F17  1  0.722920  0.987489  0.283924  1
  F  F18  1  0.725548  0.222958  0.509573  1
  F  F19  1  0.488208  0.217282  0.278814  1
  F  F20  1  0.782719  0.511792  0.221186  1
  F  F21  1  0.777042  0.274452  0.990427  1
  F  F22  1  0.012511  0.277080  0.216076  1
  F  F23  1  0.277080  0.012511  0.716076  1
  F  F24  1  0.274452  0.777042  0.490427  1
  F  F25  1  0.511792  0.782718  0.721186  1
  F  F26  1  0.552546  0.162236  0.815207  1
  F  F27  1  0.186559  0.053665  0.341841  1
  F  F28  1  0.653209  0.683424  0.446212  1
  F  F29  1  0.683424  0.653209  0.946212  1
  F  F30  1  0.053665  0.186559  0.841841  1
  F  F31  1  0.162236  0.552546  0.315207  1
  F  F32  1  0.447454  0.837764  0.184793  1
  F  F33  1  0.813441  0.946335  0.658159  1
  F  F34  1  0.346791  0.316576  0.553788  1
  F  F35  1  0.316576  0.346791  0.053788  1
  F  F36  1  0.946335  0.813441  0.158159  1
  F  F37  1  0.837764  0.447454  0.684793  1
