# generated using pymatgen
data_Na4GdRuO6
_symmetry_space_group_name_H-M   'P 1'
_cell_length_a   5.71059518
_cell_length_b   5.71058944
_cell_length_c   5.80830174
_cell_angle_alpha   99.36692660
_cell_angle_beta   99.36525524
_cell_angle_gamma   120.08229474
_symmetry_Int_Tables_number   1
_chemical_formula_structural   Na4GdRuO6
_chemical_formula_sum   'Na4 Gd1 Ru1 O6'
_cell_volume   154.95320949
_cell_formula_units_Z   1
loop_
 _symmetry_equiv_pos_site_id
 _symmetry_equiv_pos_as_xyz
  1  'x, y, z'
loop_
 _atom_site_type_symbol
 _atom_site_label
 _atom_site_symmetry_multiplicity
 _atom_site_fract_x
 _atom_site_fract_y
 _atom_site_fract_z
 _atom_site_occupancy
  Na  Na0  1  0.499036  0.500967  0.999999  1
  Na  Na1  1  0.014518  0.985482  0.499999  1
  Na  Na2  1  0.656138  0.343861  0.500000  1
  Na  Na3  1  0.335976  0.664026  0.500000  1
  Gd  Gd4  1  0.833334  0.166674  0.000003  1
  Ru  Ru5  1  0.167015  0.832979  0.000000  1
  O  O6  1  0.951166  0.605519  0.208063  1
  O  O7  1  0.531918  0.917500  0.215092  1
  O  O8  1  0.223734  0.189810  0.214843  1
  O  O9  1  0.810191  0.776271  0.785159  1
  O  O10  1  0.082502  0.468085  0.784912  1
  O  O11  1  0.394479  0.048835  0.791935  1
