# generated using pymatgen
data_TbCuP3Rh4
_symmetry_space_group_name_H-M   'P 1'
_cell_length_a   3.95122700
_cell_length_b   10.72759000
_cell_length_c   12.64495600
_cell_angle_alpha   90.00000000
_cell_angle_beta   90.00000000
_cell_angle_gamma   90.00000000
_symmetry_Int_Tables_number   1
_chemical_formula_structural   TbCuP3Rh4
_chemical_formula_sum   'Tb4 Cu4 P12 Rh16'
_cell_volume   535.98356140
_cell_formula_units_Z   4
loop_
 _symmetry_equiv_pos_site_id
 _symmetry_equiv_pos_as_xyz
  1  'x, y, z'
loop_
 _atom_site_type_symbol
 _atom_site_label
 _atom_site_symmetry_multiplicity
 _atom_site_fract_x
 _atom_site_fract_y
 _atom_site_fract_z
 _atom_site_occupancy
  Tb  Tb0  1  0.250000  0.570667  0.702467  1
  Tb  Tb1  1  0.250000  0.929333  0.202467  1
  Tb  Tb2  1  0.750000  0.429333  0.297533  1
  Tb  Tb3  1  0.750000  0.070667  0.797533  1
  Cu  Cu4  1  0.250000  0.720039  0.993533  1
  Cu  Cu5  1  0.250000  0.779961  0.493533  1
  Cu  Cu6  1  0.750000  0.279961  0.006467  1
  Cu  Cu7  1  0.750000  0.220039  0.506467  1
  P  P8  1  0.250000  0.433513  0.118423  1
  P  P9  1  0.250000  0.066487  0.618423  1
  P  P10  1  0.750000  0.566487  0.881577  1
  P  P11  1  0.750000  0.933513  0.381577  1
  P  P12  1  0.250000  0.258021  0.856444  1
  P  P13  1  0.250000  0.241979  0.356444  1
  P  P14  1  0.750000  0.741979  0.143556  1
  P  P15  1  0.750000  0.758021  0.643556  1
  P  P16  1  0.250000  0.605279  0.391389  1
  P  P17  1  0.250000  0.894721  0.891389  1
  P  P18  1  0.750000  0.394721  0.608611  1
  P  P19  1  0.750000  0.105279  0.108611  1
  Rh  Rh20  1  0.250000  0.407627  0.475817  1
  Rh  Rh21  1  0.250000  0.092373  0.975817  1
  Rh  Rh22  1  0.750000  0.592373  0.524183  1
  Rh  Rh23  1  0.750000  0.907627  0.024183  1
  Rh  Rh24  1  0.250000  0.234144  0.170302  1
  Rh  Rh25  1  0.250000  0.265856  0.670302  1
  Rh  Rh26  1  0.750000  0.765856  0.829698  1
  Rh  Rh27  1  0.750000  0.734144  0.329698  1
  Rh  Rh28  1  0.250000  0.871237  0.700946  1
  Rh  Rh29  1  0.250000  0.628763  0.200946  1
  Rh  Rh30  1  0.750000  0.128763  0.299054  1
  Rh  Rh31  1  0.750000  0.371237  0.799054  1
  Rh  Rh32  1  0.250000  0.456903  0.934282  1
  Rh  Rh33  1  0.250000  0.043097  0.434282  1
  Rh  Rh34  1  0.750000  0.543097  0.065718  1
  Rh  Rh35  1  0.750000  0.956903  0.565718  1
