# generated using pymatgen
data_TbPr2Dy2(Sn5Rh2)2
_symmetry_space_group_name_H-M   'P 1'
_cell_length_a   14.16656100
_cell_length_b   14.16656100
_cell_length_c   4.56826000
_cell_angle_alpha   90.00000000
_cell_angle_beta   90.00000000
_cell_angle_gamma   90.00000000
_symmetry_Int_Tables_number   1
_chemical_formula_structural   TbPr2Dy2(Sn5Rh2)2
_chemical_formula_sum   'Tb2 Pr4 Dy4 Sn20 Rh8'
_cell_volume   916.81072597
_cell_formula_units_Z   2
loop_
 _symmetry_equiv_pos_site_id
 _symmetry_equiv_pos_as_xyz
  1  'x, y, z'
loop_
 _atom_site_type_symbol
 _atom_site_label
 _atom_site_symmetry_multiplicity
 _atom_site_fract_x
 _atom_site_fract_y
 _atom_site_fract_z
 _atom_site_occupancy
  Tb  Tb0  1  0.500000  0.500000  0.000000  1
  Tb  Tb1  1  0.000000  0.000000  0.000000  1
  Pr  Pr2  1  0.888049  0.388049  0.500000  1
  Pr  Pr3  1  0.111951  0.611951  0.500000  1
  Pr  Pr4  1  0.388049  0.111951  0.500000  1
  Pr  Pr5  1  0.611951  0.888049  0.500000  1
  Dy  Dy6  1  0.677293  0.177293  0.500000  1
  Dy  Dy7  1  0.322707  0.822707  0.500000  1
  Dy  Dy8  1  0.177293  0.322707  0.500000  1
  Dy  Dy9  1  0.822707  0.677293  0.500000  1
  Sn  Sn10  1  0.570377  0.070377  0.000000  1
  Sn  Sn11  1  0.429623  0.929623  0.000000  1
  Sn  Sn12  1  0.070377  0.429623  0.000000  1
  Sn  Sn13  1  0.929623  0.570377  0.000000  1
  Sn  Sn14  1  0.654230  0.698140  0.000000  1
  Sn  Sn15  1  0.345770  0.301860  0.000000  1
  Sn  Sn16  1  0.154230  0.801860  0.000000  1
  Sn  Sn17  1  0.845770  0.198140  0.000000  1
  Sn  Sn18  1  0.301860  0.654230  0.000000  1
  Sn  Sn19  1  0.698140  0.345770  0.000000  1
  Sn  Sn20  1  0.198140  0.154230  0.000000  1
  Sn  Sn21  1  0.801860  0.845770  0.000000  1
  Sn  Sn22  1  0.661393  0.505736  0.500000  1
  Sn  Sn23  1  0.338607  0.494264  0.500000  1
  Sn  Sn24  1  0.161393  0.994264  0.500000  1
  Sn  Sn25  1  0.838607  0.005736  0.500000  1
  Sn  Sn26  1  0.494264  0.661393  0.500000  1
  Sn  Sn27  1  0.505736  0.338607  0.500000  1
  Sn  Sn28  1  0.005736  0.161393  0.500000  1
  Sn  Sn29  1  0.994264  0.838607  0.500000  1
  Rh  Rh30  1  0.746131  0.529496  0.000000  1
  Rh  Rh31  1  0.253869  0.470504  0.000000  1
  Rh  Rh32  1  0.246131  0.970504  0.000000  1
  Rh  Rh33  1  0.753869  0.029496  0.000000  1
  Rh  Rh34  1  0.470504  0.746131  0.000000  1
  Rh  Rh35  1  0.529496  0.253869  0.000000  1
  Rh  Rh36  1  0.029496  0.246131  0.000000  1
  Rh  Rh37  1  0.970504  0.753869  0.000000  1
