# generated using pymatgen
data_LaNd2Er(MoO6)2
_symmetry_space_group_name_H-M   'P 1'
_cell_length_a   10.22570613
_cell_length_b   10.22570693
_cell_length_c   5.52052508
_cell_angle_alpha   74.99300473
_cell_angle_beta   74.99299830
_cell_angle_gamma   68.53423678
_symmetry_Int_Tables_number   1
_chemical_formula_structural   LaNd2Er(MoO6)2
_chemical_formula_sum   'La2 Nd4 Er2 Mo4 O24'
_cell_volume   510.16313402
_cell_formula_units_Z   2
loop_
 _symmetry_equiv_pos_site_id
 _symmetry_equiv_pos_as_xyz
  1  'x, y, z'
loop_
 _atom_site_type_symbol
 _atom_site_label
 _atom_site_symmetry_multiplicity
 _atom_site_fract_x
 _atom_site_fract_y
 _atom_site_fract_z
 _atom_site_occupancy
  La  La0  1  0.860837  0.139163  0.250000  1
  La  La1  1  0.139163  0.860837  0.750000  1
  Nd  Nd2  1  0.214536  0.446943  0.878131  1
  Nd  Nd3  1  0.446943  0.214536  0.378131  1
  Nd  Nd4  1  0.785464  0.553057  0.121869  1
  Nd  Nd5  1  0.553057  0.785464  0.621869  1
  Er  Er6  1  0.400667  0.599333  0.250000  1
  Er  Er7  1  0.599333  0.400667  0.750000  1
  Mo  Mo8  1  0.992041  0.700176  0.434674  1
  Mo  Mo9  1  0.299824  0.007959  0.065326  1
  Mo  Mo10  1  0.007959  0.299824  0.565326  1
  Mo  Mo11  1  0.700176  0.992041  0.934674  1
  O  O12  1  0.431386  0.394137  0.573808  1
  O  O13  1  0.605863  0.568614  0.926192  1
  O  O14  1  0.568614  0.605863  0.426192  1
  O  O15  1  0.394137  0.431386  0.073808  1
  O  O16  1  0.196412  0.659774  0.555803  1
  O  O17  1  0.340226  0.803588  0.944197  1
  O  O18  1  0.803588  0.340226  0.444197  1
  O  O19  1  0.659774  0.196412  0.055803  1
  O  O20  1  0.109850  0.667261  0.125293  1
  O  O21  1  0.332739  0.890150  0.374707  1
  O  O22  1  0.890150  0.332739  0.874707  1
  O  O23  1  0.667261  0.109850  0.625293  1
  O  O24  1  0.708649  0.821620  0.868886  1
  O  O25  1  0.178380  0.291351  0.631114  1
  O  O26  1  0.291351  0.178380  0.131114  1
  O  O27  1  0.821620  0.708649  0.368886  1
  O  O28  1  0.880424  0.955807  0.978557  1
  O  O29  1  0.044193  0.119576  0.521443  1
  O  O30  1  0.977065  0.573135  0.738870  1
  O  O31  1  0.955807  0.880424  0.478557  1
  O  O32  1  0.573135  0.977065  0.238870  1
  O  O33  1  0.022935  0.426865  0.261130  1
  O  O34  1  0.426865  0.022935  0.761130  1
  O  O35  1  0.119576  0.044193  0.021443  1
