# generated using pymatgen
data_Tm8Nb11Si16Mo
_symmetry_space_group_name_H-M   'P 1'
_cell_length_a   6.81782572
_cell_length_b   7.02325980
_cell_length_c   13.30688001
_cell_angle_alpha   90.03506425
_cell_angle_beta   89.94059735
_cell_angle_gamma   89.91056253
_symmetry_Int_Tables_number   1
_chemical_formula_structural   Tm8Nb11Si16Mo
_chemical_formula_sum   'Tm8 Nb11 Si16 Mo1'
_cell_volume   637.17690466
_cell_formula_units_Z   1
loop_
 _symmetry_equiv_pos_site_id
 _symmetry_equiv_pos_as_xyz
  1  'x, y, z'
loop_
 _atom_site_type_symbol
 _atom_site_label
 _atom_site_symmetry_multiplicity
 _atom_site_fract_x
 _atom_site_fract_y
 _atom_site_fract_z
 _atom_site_occupancy
  Tm  Tm0  1  0.503238  0.327785  0.095805  1
  Tm  Tm1  1  0.001347  0.172981  0.404324  1
  Tm  Tm2  1  0.496821  0.672429  0.595371  1
  Tm  Tm3  1  0.997897  0.827719  0.903797  1
  Tm  Tm4  1  0.497075  0.672100  0.903381  1
  Tm  Tm5  1  0.997866  0.827554  0.595585  1
  Tm  Tm6  1  0.502723  0.327654  0.405578  1
  Tm  Tm7  1  0.003234  0.172693  0.096005  1
  Nb  Nb8  1  0.838113  0.325054  0.624647  1
  Nb  Nb9  1  0.337768  0.174587  0.873393  1
  Nb  Nb10  1  0.163088  0.674988  0.125715  1
  Nb  Nb11  1  0.660927  0.826772  0.375293  1
  Nb  Nb12  1  0.165038  0.675463  0.376177  1
  Nb  Nb13  1  0.663347  0.825146  0.125690  1
  Nb  Nb14  1  0.836825  0.324489  0.873119  1
  Nb  Nb15  1  0.661975  0.007271  0.748886  1
  Nb  Nb16  1  0.161634  0.492719  0.749051  1
  Nb  Nb17  1  0.337978  0.994579  0.250737  1
  Nb  Nb18  1  0.838051  0.506806  0.250322  1
  Si  Si19  1  0.660381  0.036639  0.542059  1
  Si  Si20  1  0.164043  0.463845  0.958867  1
  Si  Si21  1  0.336012  0.964306  0.040673  1
  Si  Si22  1  0.835997  0.536322  0.459042  1
  Si  Si23  1  0.333656  0.966080  0.461922  1
  Si  Si24  1  0.835929  0.535666  0.040194  1
  Si  Si25  1  0.664293  0.035592  0.959388  1
  Si  Si26  1  0.166243  0.459621  0.541996  1
  Si  Si27  1  0.538582  0.377490  0.747854  1
  Si  Si28  1  0.043117  0.121148  0.748598  1
  Si  Si29  1  0.460225  0.620594  0.250421  1
  Si  Si30  1  0.959570  0.878881  0.250654  1
  Si  Si31  1  0.794212  0.629882  0.749420  1
  Si  Si32  1  0.296472  0.870747  0.749254  1
  Si  Si33  1  0.205345  0.370216  0.250619  1
  Si  Si34  1  0.704354  0.131009  0.250044  1
  Mo  Mo35  1  0.336622  0.173174  0.626120  1
