# generated using pymatgen
data_TbGa3Cu
_symmetry_space_group_name_H-M   'P 1'
_cell_length_a   4.08555269
_cell_length_b   4.08555339
_cell_length_c   6.13875940
_cell_angle_alpha   70.56320936
_cell_angle_beta   70.56320781
_cell_angle_gamma   89.99999987
_symmetry_Int_Tables_number   1
_chemical_formula_structural   TbGa3Cu
_chemical_formula_sum   'Tb1 Ga3 Cu1'
_cell_volume   90.41088460
_cell_formula_units_Z   1
loop_
 _symmetry_equiv_pos_site_id
 _symmetry_equiv_pos_as_xyz
  1  'x, y, z'
loop_
 _atom_site_type_symbol
 _atom_site_label
 _atom_site_symmetry_multiplicity
 _atom_site_fract_x
 _atom_site_fract_y
 _atom_site_fract_z
 _atom_site_occupancy
  Tb  Tb0  1  0.993941  0.993941  0.012117  1
  Ga  Ga1  1  0.744220  0.244220  0.511560  1
  Ga  Ga2  1  0.244220  0.744220  0.511560  1
  Ga  Ga3  1  0.400088  0.400088  0.199825  1
  Cu  Cu4  1  0.617531  0.617531  0.764937  1
