# generated using pymatgen
data_LiUTc2Sn5
_symmetry_space_group_name_H-M   'P 1'
_cell_length_a   6.58784400
_cell_length_b   6.74156000
_cell_length_c   8.75257600
_cell_angle_alpha   90.00000000
_cell_angle_beta   90.00000000
_cell_angle_gamma   90.00000000
_symmetry_Int_Tables_number   1
_chemical_formula_structural   LiUTc2Sn5
_chemical_formula_sum   'Li2 U2 Tc4 Sn10'
_cell_volume   388.72243017
_cell_formula_units_Z   2
loop_
 _symmetry_equiv_pos_site_id
 _symmetry_equiv_pos_as_xyz
  1  'x, y, z'
loop_
 _atom_site_type_symbol
 _atom_site_label
 _atom_site_symmetry_multiplicity
 _atom_site_fract_x
 _atom_site_fract_y
 _atom_site_fract_z
 _atom_site_occupancy
  Li  Li0  1  0.005773  0.000445  0.500000  1
  Li  Li1  1  0.494227  0.500445  0.500000  1
  U  U2  1  0.796057  0.309072  0.000000  1
  U  U3  1  0.703943  0.809072  0.000000  1
  Tc  Tc4  1  0.515290  0.510593  0.161112  1
  Tc  Tc5  1  0.515290  0.510593  0.838888  1
  Tc  Tc6  1  0.984710  0.010593  0.161112  1
  Tc  Tc7  1  0.984710  0.010593  0.838888  1
  Sn  Sn8  1  0.654511  0.162893  0.325917  1
  Sn  Sn9  1  0.339888  0.841096  0.315670  1
  Sn  Sn10  1  0.160112  0.341096  0.684330  1
  Sn  Sn11  1  0.160112  0.341096  0.315670  1
  Sn  Sn12  1  0.339888  0.841096  0.684330  1
  Sn  Sn13  1  0.163612  0.661319  0.000000  1
  Sn  Sn14  1  0.336388  0.161319  0.000000  1
  Sn  Sn15  1  0.654511  0.162893  0.674083  1
  Sn  Sn16  1  0.845489  0.662893  0.325917  1
  Sn  Sn17  1  0.845489  0.662893  0.674083  1
