# generated using pymatgen
data_Dy6TmCo17P12
_symmetry_space_group_name_H-M   'P 1'
_cell_length_a   3.71645700
_cell_length_b   10.59371500
_cell_length_c   12.34504500
_cell_angle_alpha   90.00000000
_cell_angle_beta   90.00000000
_cell_angle_gamma   90.00000000
_symmetry_Int_Tables_number   1
_chemical_formula_structural   Dy6TmCo17P12
_chemical_formula_sum   'Dy6 Tm1 Co17 P12'
_cell_volume   486.03783167
_cell_formula_units_Z   1
loop_
 _symmetry_equiv_pos_site_id
 _symmetry_equiv_pos_as_xyz
  1  'x, y, z'
loop_
 _atom_site_type_symbol
 _atom_site_label
 _atom_site_symmetry_multiplicity
 _atom_site_fract_x
 _atom_site_fract_y
 _atom_site_fract_z
 _atom_site_occupancy
  Dy  Dy0  1  0.000000  0.500000  0.531126  1
  Dy  Dy1  1  0.500000  0.000000  0.478398  1
  Dy  Dy2  1  0.500000  0.822687  0.208111  1
  Dy  Dy3  1  0.500000  0.177313  0.208111  1
  Dy  Dy4  1  0.000000  0.683453  0.795083  1
  Dy  Dy5  1  0.000000  0.316547  0.795083  1
  Tm  Tm6  1  0.500000  0.500000  0.154642  1
  Co  Co7  1  0.000000  0.000000  0.835052  1
  Co  Co8  1  0.500000  0.500000  0.703304  1
  Co  Co9  1  0.000000  0.000000  0.295441  1
  Co  Co10  1  0.000000  0.500000  0.981648  1
  Co  Co11  1  0.500000  0.000000  0.013171  1
  Co  Co12  1  0.500000  0.324135  0.986604  1
  Co  Co13  1  0.500000  0.675865  0.986604  1
  Co  Co14  1  0.000000  0.159281  0.998971  1
  Co  Co15  1  0.000000  0.840719  0.998971  1
  Co  Co16  1  0.500000  0.293085  0.436150  1
  Co  Co17  1  0.500000  0.706915  0.436150  1
  Co  Co18  1  0.000000  0.201080  0.571052  1
  Co  Co19  1  0.000000  0.798920  0.571052  1
  Co  Co20  1  0.500000  0.880962  0.707264  1
  Co  Co21  1  0.500000  0.119038  0.707264  1
  Co  Co22  1  0.000000  0.622726  0.303229  1
  Co  Co23  1  0.000000  0.377274  0.303229  1
  P  P24  1  0.500000  0.500000  0.881915  1
  P  P25  1  0.000000  0.000000  0.115795  1
  P  P26  1  0.500000  0.500000  0.364469  1
  P  P27  1  0.000000  0.000000  0.654425  1
  P  P28  1  0.500000  0.307948  0.618487  1
  P  P29  1  0.500000  0.692052  0.618487  1
  P  P30  1  0.000000  0.187905  0.387489  1
  P  P31  1  0.000000  0.812095  0.387489  1
  P  P32  1  0.500000  0.853925  0.887053  1
  P  P33  1  0.500000  0.146075  0.887053  1
  P  P34  1  0.000000  0.668373  0.095814  1
  P  P35  1  0.000000  0.331627  0.095814  1
