# generated using pymatgen
data_UMn2SnSe6
_symmetry_space_group_name_H-M   'P 1'
_cell_length_a   6.39935398
_cell_length_b   6.39935373
_cell_length_c   9.45993380
_cell_angle_alpha   90.12282463
_cell_angle_beta   89.87717700
_cell_angle_gamma   144.71894818
_symmetry_Int_Tables_number   1
_chemical_formula_structural   UMn2SnSe6
_chemical_formula_sum   'U1 Mn2 Sn1 Se6'
_cell_volume   223.75728162
_cell_formula_units_Z   1
loop_
 _symmetry_equiv_pos_site_id
 _symmetry_equiv_pos_as_xyz
  1  'x, y, z'
loop_
 _atom_site_type_symbol
 _atom_site_label
 _atom_site_symmetry_multiplicity
 _atom_site_fract_x
 _atom_site_fract_y
 _atom_site_fract_z
 _atom_site_occupancy
  U  U0  1  0.247036  0.752964  0.749392  1
  Mn  Mn1  1  0.998732  0.001268  0.502534  1
  Mn  Mn2  1  0.998513  0.001487  0.997612  1
  Sn  Sn3  1  0.736296  0.263704  0.250458  1
  Se  Se4  1  0.922514  0.077486  0.750213  1
  Se  Se5  1  0.070349  0.929651  0.250105  1
  Se  Se6  1  0.648458  0.351542  0.938610  1
  Se  Se7  1  0.364785  0.635215  0.032335  1
  Se  Se8  1  0.365148  0.634852  0.467467  1
  Se  Se9  1  0.648169  0.351831  0.561273  1
