# generated using pymatgen
data_V9Ga4Tc2Pt
_symmetry_space_group_name_H-M   'P 1'
_cell_length_a   4.76944600
_cell_length_b   4.78454614
_cell_length_c   9.70594441
_cell_angle_alpha   89.82752460
_cell_angle_beta   90.00000000
_cell_angle_gamma   90.00000000
_symmetry_Int_Tables_number   1
_chemical_formula_structural   V9Ga4Tc2Pt
_chemical_formula_sum   'V9 Ga4 Tc2 Pt1'
_cell_volume   221.48509977
_cell_formula_units_Z   1
loop_
 _symmetry_equiv_pos_site_id
 _symmetry_equiv_pos_as_xyz
  1  'x, y, z'
loop_
 _atom_site_type_symbol
 _atom_site_label
 _atom_site_symmetry_multiplicity
 _atom_site_fract_x
 _atom_site_fract_y
 _atom_site_fract_z
 _atom_site_occupancy
  V  V0  1  0.500000  0.758251  0.500864  1
  V  V1  1  0.744465  0.000594  0.249222  1
  V  V2  1  0.751041  0.998594  0.749266  1
  V  V3  1  0.000000  0.502874  0.115311  1
  V  V4  1  0.000000  0.497553  0.635263  1
  V  V5  1  0.500000  0.251021  0.000650  1
  V  V6  1  0.500000  0.238871  0.501619  1
  V  V7  1  0.255535  0.000594  0.249222  1
  V  V8  1  0.248959  0.998594  0.749266  1
  Ga  Ga9  1  0.500000  0.497487  0.246209  1
  Ga  Ga10  1  0.500000  0.497485  0.745928  1
  Ga  Ga11  1  0.000000  0.005414  0.003013  1
  Ga  Ga12  1  0.000000  0.998787  0.505912  1
  Tc  Tc13  1  0.000000  0.502290  0.874265  1
  Tc  Tc14  1  0.500000  0.752427  0.999312  1
  Pt  Pt15  1  0.000000  0.499160  0.374673  1
