# generated using pymatgen
data_Cs2TiCdSe4
_symmetry_space_group_name_H-M   'P 1'
_cell_length_a   14.96933105
_cell_length_b   13.31741369
_cell_length_c   8.14601994
_cell_angle_alpha   84.80903989
_cell_angle_beta   62.37456514
_cell_angle_gamma   32.81640338
_symmetry_Int_Tables_number   1
_chemical_formula_structural   Cs2TiCdSe4
_chemical_formula_sum   'Cs4 Ti2 Cd2 Se8'
_cell_volume   609.84984338
_cell_formula_units_Z   2
loop_
 _symmetry_equiv_pos_site_id
 _symmetry_equiv_pos_as_xyz
  1  'x, y, z'
loop_
 _atom_site_type_symbol
 _atom_site_label
 _atom_site_symmetry_multiplicity
 _atom_site_fract_x
 _atom_site_fract_y
 _atom_site_fract_z
 _atom_site_occupancy
  Cs  Cs0  1  0.678640  0.678640  0.321360  1
  Cs  Cs1  1  0.321360  0.321360  0.678640  1
  Cs  Cs2  1  0.928640  0.928640  0.571360  1
  Cs  Cs3  1  0.571360  0.571360  0.928640  1
  Ti  Ti4  1  0.750000  0.750000  0.750000  1
  Ti  Ti5  1  0.500000  0.500000  0.500000  1
  Cd  Cd6  1  0.000000  0.000000  0.000000  1
  Cd  Cd7  1  0.250000  0.250000  0.250000  1
  Se  Se8  1  0.383191  0.009192  0.926272  1
  Se  Se9  1  0.681347  0.926272  0.009192  1
  Se  Se10  1  0.926272  0.681347  0.383191  1
  Se  Se11  1  0.009192  0.383191  0.681347  1
  Se  Se12  1  0.240808  0.866809  0.568653  1
  Se  Se13  1  0.568653  0.323728  0.240808  1
  Se  Se14  1  0.323728  0.568653  0.866809  1
  Se  Se15  1  0.866809  0.240808  0.323728  1
