# generated using pymatgen
data_DyCdCuNi2Pt
_symmetry_space_group_name_H-M   'P 1'
_cell_length_a   5.06850747
_cell_length_b   5.02509398
_cell_length_c   5.19956332
_cell_angle_alpha   60.35269914
_cell_angle_beta   60.83032523
_cell_angle_gamma   59.71379647
_symmetry_Int_Tables_number   1
_chemical_formula_structural   DyCdCuNi2Pt
_chemical_formula_sum   'Dy1 Cd1 Cu1 Ni2 Pt1'
_cell_volume   94.25882430
_cell_formula_units_Z   1
loop_
 _symmetry_equiv_pos_site_id
 _symmetry_equiv_pos_as_xyz
  1  'x, y, z'
loop_
 _atom_site_type_symbol
 _atom_site_label
 _atom_site_symmetry_multiplicity
 _atom_site_fract_x
 _atom_site_fract_y
 _atom_site_fract_z
 _atom_site_occupancy
  Dy  Dy0  1  0.247915  0.252284  0.251887  1
  Cd  Cd1  1  0.005350  0.003205  0.986097  1
  Cu  Cu2  1  0.624406  0.122816  0.628374  1
  Ni  Ni3  1  0.121992  0.623941  0.628873  1
  Ni  Ni4  1  0.625195  0.623941  0.628873  1
  Pt  Pt5  1  0.625144  0.623816  0.125896  1
