# generated using pymatgen
data_Sm4Er2Al24GaOs7
_symmetry_space_group_name_H-M   'P 1'
_cell_length_a   8.90841325
_cell_length_b   8.90841230
_cell_length_c   9.58967010
_cell_angle_alpha   90.17394101
_cell_angle_beta   89.82605990
_cell_angle_gamma   120.02867188
_symmetry_Int_Tables_number   1
_chemical_formula_structural   Sm4Er2Al24GaOs7
_chemical_formula_sum   'Sm4 Er2 Al24 Ga1 Os7'
_cell_volume   658.88064109
_cell_formula_units_Z   1
loop_
 _symmetry_equiv_pos_site_id
 _symmetry_equiv_pos_as_xyz
  1  'x, y, z'
loop_
 _atom_site_type_symbol
 _atom_site_label
 _atom_site_symmetry_multiplicity
 _atom_site_fract_x
 _atom_site_fract_y
 _atom_site_fract_z
 _atom_site_occupancy
  Sm  Sm0  1  0.191829  0.382485  0.244817  1
  Sm  Sm1  1  0.808171  0.617515  0.755183  1
  Sm  Sm2  1  0.617515  0.808171  0.244817  1
  Sm  Sm3  1  0.382485  0.191829  0.755183  1
  Er  Er4  1  0.195442  0.804558  0.255726  1
  Er  Er5  1  0.804558  0.195442  0.744274  1
  Al  Al6  1  0.326642  0.673358  0.020591  1
  Al  Al7  1  0.673358  0.326642  0.979409  1
  Al  Al8  1  0.666042  0.333958  0.517656  1
  Al  Al9  1  0.333958  0.666042  0.482344  1
  Al  Al10  1  0.161629  0.325938  0.571592  1
  Al  Al11  1  0.838371  0.674062  0.428408  1
  Al  Al12  1  0.674062  0.838371  0.571592  1
  Al  Al13  1  0.854047  0.678823  0.082500  1
  Al  Al14  1  0.325938  0.161629  0.428408  1
  Al  Al15  1  0.145953  0.321177  0.917500  1
  Al  Al16  1  0.162904  0.837096  0.575024  1
  Al  Al17  1  0.321177  0.145953  0.082500  1
  Al  Al18  1  0.837096  0.162904  0.424976  1
  Al  Al19  1  0.678823  0.854047  0.917500  1
  Al  Al20  1  0.836698  0.163302  0.075339  1
  Al  Al21  1  0.163302  0.836698  0.924661  1
  Al  Al22  1  0.561358  0.120765  0.249490  1
  Al  Al23  1  0.438642  0.879235  0.750510  1
  Al  Al24  1  0.879235  0.438642  0.249490  1
  Al  Al25  1  0.120765  0.561358  0.750510  1
  Al  Al26  1  0.566747  0.433253  0.258878  1
  Al  Al27  1  0.433253  0.566747  0.741122  1
  Al  Al28  1  0.001039  0.998961  0.250810  1
  Al  Al29  1  0.998961  0.001039  0.749190  1
  Ga  Ga30  1  0.500000  0.500000  0.000000  1
  Os  Os31  1  0.500000  0.000000  0.000000  1
  Os  Os32  1  0.000000  0.500000  0.000000  1
  Os  Os33  1  0.500000  0.000000  0.500000  1
  Os  Os34  1  0.000000  0.500000  0.500000  1
  Os  Os35  1  0.500000  0.500000  0.500000  1
  Os  Os36  1  0.000000  0.000000  0.000000  1
  Os  Os37  1  0.000000  0.000000  0.500000  1
