# generated using pymatgen
data_Tm16ZnIn6Re
_symmetry_space_group_name_H-M   'P 1'
_cell_length_a   10.39753800
_cell_length_b   10.39753796
_cell_length_c   6.83582500
_cell_angle_alpha   90.00000000
_cell_angle_beta   90.00000000
_cell_angle_gamma   120.00000012
_symmetry_Int_Tables_number   1
_chemical_formula_structural   Tm16ZnIn6Re
_chemical_formula_sum   'Tm16 Zn1 In6 Re1'
_cell_volume   640.00386709
_cell_formula_units_Z   1
loop_
 _symmetry_equiv_pos_site_id
 _symmetry_equiv_pos_as_xyz
  1  'x, y, z'
loop_
 _atom_site_type_symbol
 _atom_site_label
 _atom_site_symmetry_multiplicity
 _atom_site_fract_x
 _atom_site_fract_y
 _atom_site_fract_z
 _atom_site_occupancy
  Tm  Tm0  1  0.528455  0.056910  0.514263  1
  Tm  Tm1  1  0.943090  0.471545  0.514263  1
  Tm  Tm2  1  0.528455  0.471545  0.514263  1
  Tm  Tm3  1  0.480477  0.960954  0.018412  1
  Tm  Tm4  1  0.039046  0.519523  0.018412  1
  Tm  Tm5  1  0.480477  0.519523  0.018412  1
  Tm  Tm6  1  0.173944  0.347889  0.729354  1
  Tm  Tm7  1  0.652111  0.826056  0.729354  1
  Tm  Tm8  1  0.173944  0.826056  0.729354  1
  Tm  Tm9  1  0.823847  0.647692  0.230203  1
  Tm  Tm10  1  0.352308  0.176153  0.230203  1
  Tm  Tm11  1  0.823847  0.176153  0.230203  1
  Tm  Tm12  1  0.666667  0.333333  0.881847  1
  Tm  Tm13  1  0.333333  0.666667  0.369369  1
  Tm  Tm14  1  0.000000  0.000000  0.505749  1
  Tm  Tm15  1  0.000000  0.000000  0.999689  1
  Zn  Zn16  1  0.333333  0.666667  0.807095  1
  In  In17  1  0.837351  0.674703  0.754385  1
  In  In18  1  0.325297  0.162649  0.754385  1
  In  In19  1  0.837351  0.162649  0.754385  1
  In  In20  1  0.165365  0.330729  0.253083  1
  In  In21  1  0.669271  0.834635  0.253083  1
  In  In22  1  0.165365  0.834635  0.253083  1
  Re  Re23  1  0.666667  0.333333  0.295159  1
