# generated using pymatgen
data_Sc8Re3TcB24
_symmetry_space_group_name_H-M   'P 1'
_cell_length_a   3.51303000
_cell_length_b   8.92354027
_cell_length_c   11.20535234
_cell_angle_alpha   90.02840088
_cell_angle_beta   90.00000000
_cell_angle_gamma   90.00000000
_symmetry_Int_Tables_number   1
_chemical_formula_structural   Sc8Re3TcB24
_chemical_formula_sum   'Sc8 Re3 Tc1 B24'
_cell_volume   351.27279020
_cell_formula_units_Z   1
loop_
 _symmetry_equiv_pos_site_id
 _symmetry_equiv_pos_as_xyz
  1  'x, y, z'
loop_
 _atom_site_type_symbol
 _atom_site_label
 _atom_site_symmetry_multiplicity
 _atom_site_fract_x
 _atom_site_fract_y
 _atom_site_fract_z
 _atom_site_occupancy
  Sc  Sc0  1  0.000000  0.322229  0.413163  1
  Sc  Sc1  1  0.000000  0.678058  0.586609  1
  Sc  Sc2  1  0.000000  0.821814  0.086940  1
  Sc  Sc3  1  0.000000  0.178219  0.913102  1
  Sc  Sc4  1  0.000000  0.943715  0.370882  1
  Sc  Sc5  1  0.000000  0.055586  0.628866  1
  Sc  Sc6  1  0.000000  0.444698  0.129501  1
  Sc  Sc7  1  0.000000  0.555609  0.871022  1
  Re  Re8  1  0.000000  0.359933  0.679480  1
  Re  Re9  1  0.000000  0.140117  0.179826  1
  Re  Re10  1  0.000000  0.859807  0.820175  1
  Tc  Tc11  1  0.000000  0.640268  0.320346  1
  B  B12  1  0.500000  0.553626  0.434744  1
  B  B13  1  0.500000  0.446802  0.564804  1
  B  B14  1  0.500000  0.053370  0.065025  1
  B  B15  1  0.500000  0.946700  0.935011  1
  B  B16  1  0.500000  0.753362  0.421748  1
  B  B17  1  0.500000  0.246101  0.578036  1
  B  B18  1  0.500000  0.253984  0.078018  1
  B  B19  1  0.500000  0.746065  0.922008  1
  B  B20  1  0.500000  0.795585  0.263990  1
  B  B21  1  0.500000  0.203860  0.735975  1
  B  B22  1  0.500000  0.296213  0.236048  1
  B  B23  1  0.500000  0.703872  0.764061  1
  B  B24  1  0.500000  0.630674  0.182485  1
  B  B25  1  0.500000  0.369503  0.817805  1
  B  B26  1  0.500000  0.130506  0.317794  1
  B  B27  1  0.500000  0.869446  0.682187  1
  B  B28  1  0.500000  0.979417  0.212408  1
  B  B29  1  0.500000  0.020461  0.787621  1
  B  B30  1  0.500000  0.480225  0.287739  1
  B  B31  1  0.500000  0.520267  0.712453  1
  B  B32  1  0.500000  0.597606  0.027322  1
  B  B33  1  0.500000  0.402485  0.972936  1
  B  B34  1  0.500000  0.097331  0.472824  1
  B  B35  1  0.500000  0.902485  0.527047  1
