# generated using pymatgen
data_Lu7Zn(Co3Sn11)2
_symmetry_space_group_name_H-M   'P 1'
_cell_length_a   9.60291200
_cell_length_b   9.60291186
_cell_length_c   9.89298000
_cell_angle_alpha   90.00000000
_cell_angle_beta   90.00000000
_cell_angle_gamma   120.00000738
_symmetry_Int_Tables_number   1
_chemical_formula_structural   Lu7Zn(Co3Sn11)2
_chemical_formula_sum   'Lu7 Zn1 Co6 Sn22'
_cell_volume   790.06645395
_cell_formula_units_Z   1
loop_
 _symmetry_equiv_pos_site_id
 _symmetry_equiv_pos_as_xyz
  1  'x, y, z'
loop_
 _atom_site_type_symbol
 _atom_site_label
 _atom_site_symmetry_multiplicity
 _atom_site_fract_x
 _atom_site_fract_y
 _atom_site_fract_z
 _atom_site_occupancy
  Lu  Lu0  1  0.481674  0.518326  0.305586  1
  Lu  Lu1  1  0.518326  0.481674  0.694414  1
  Lu  Lu2  1  0.481674  0.963348  0.305586  1
  Lu  Lu3  1  0.518326  0.036652  0.694414  1
  Lu  Lu4  1  0.036652  0.518326  0.305586  1
  Lu  Lu5  1  0.963348  0.481674  0.694414  1
  Lu  Lu6  1  0.000000  0.000000  0.000000  1
  Zn  Zn7  1  0.000000  0.000000  0.500000  1
  Co  Co8  1  0.831160  0.168840  0.198297  1
  Co  Co9  1  0.168840  0.831160  0.801703  1
  Co  Co10  1  0.831160  0.662322  0.198297  1
  Co  Co11  1  0.168840  0.337678  0.801703  1
  Co  Co12  1  0.337678  0.168840  0.198297  1
  Co  Co13  1  0.662322  0.831160  0.801703  1
  Sn  Sn14  1  0.114394  0.885606  0.276988  1
  Sn  Sn15  1  0.885606  0.114394  0.723012  1
  Sn  Sn16  1  0.114394  0.228788  0.276988  1
  Sn  Sn17  1  0.885606  0.771212  0.723012  1
  Sn  Sn18  1  0.771212  0.885606  0.276988  1
  Sn  Sn19  1  0.228788  0.114394  0.723012  1
  Sn  Sn20  1  0.782918  0.217082  0.456250  1
  Sn  Sn21  1  0.217082  0.782918  0.543750  1
  Sn  Sn22  1  0.782918  0.565836  0.456250  1
  Sn  Sn23  1  0.217082  0.434164  0.543750  1
  Sn  Sn24  1  0.434164  0.217082  0.456250  1
  Sn  Sn25  1  0.565836  0.782918  0.543750  1
  Sn  Sn26  1  0.345969  0.000000  0.000000  1
  Sn  Sn27  1  0.654031  0.000000  0.000000  1
  Sn  Sn28  1  0.000000  0.345969  0.000000  1
  Sn  Sn29  1  0.000000  0.654031  0.000000  1
  Sn  Sn30  1  0.654031  0.654031  0.000000  1
  Sn  Sn31  1  0.345969  0.345969  0.000000  1
  Sn  Sn32  1  0.333333  0.666667  0.126793  1
  Sn  Sn33  1  0.666667  0.333333  0.873207  1
  Sn  Sn34  1  0.333333  0.666667  0.819982  1
  Sn  Sn35  1  0.666667  0.333333  0.180018  1
