# generated using pymatgen
data_Tm4NiB14
_symmetry_space_group_name_H-M   'P 1'
_cell_length_a   7.16047900
_cell_length_b   7.16047900
_cell_length_c   7.40030000
_cell_angle_alpha   90.00000000
_cell_angle_beta   90.00000000
_cell_angle_gamma   90.00000000
_symmetry_Int_Tables_number   1
_chemical_formula_structural   Tm4NiB14
_chemical_formula_sum   'Tm8 Ni2 B28'
_cell_volume   379.43158211
_cell_formula_units_Z   2
loop_
 _symmetry_equiv_pos_site_id
 _symmetry_equiv_pos_as_xyz
  1  'x, y, z'
loop_
 _atom_site_type_symbol
 _atom_site_label
 _atom_site_symmetry_multiplicity
 _atom_site_fract_x
 _atom_site_fract_y
 _atom_site_fract_z
 _atom_site_occupancy
  Tm  Tm0  1  0.193841  0.332513  0.000000  1
  Tm  Tm1  1  0.667487  0.193841  0.000000  1
  Tm  Tm2  1  0.332513  0.806159  0.000000  1
  Tm  Tm3  1  0.693841  0.167487  0.500000  1
  Tm  Tm4  1  0.306159  0.832513  0.500000  1
  Tm  Tm5  1  0.806159  0.667487  0.000000  1
  Tm  Tm6  1  0.832513  0.693841  0.500000  1
  Tm  Tm7  1  0.167487  0.306159  0.500000  1
  Ni  Ni8  1  0.000000  0.000000  0.000000  1
  Ni  Ni9  1  0.500000  0.500000  0.500000  1
  B  B10  1  0.175435  0.039272  0.232082  1
  B  B11  1  0.960728  0.175435  0.232082  1
  B  B12  1  0.039272  0.824565  0.232082  1
  B  B13  1  0.675435  0.460728  0.267918  1
  B  B14  1  0.324565  0.539272  0.267918  1
  B  B15  1  0.824565  0.960728  0.232082  1
  B  B16  1  0.539272  0.675435  0.267918  1
  B  B17  1  0.460728  0.324565  0.267918  1
  B  B18  1  0.824565  0.960728  0.767918  1
  B  B19  1  0.039272  0.824565  0.767918  1
  B  B20  1  0.960728  0.175435  0.767918  1
  B  B21  1  0.324565  0.539272  0.732082  1
  B  B22  1  0.675435  0.460728  0.732082  1
  B  B23  1  0.175435  0.039272  0.767918  1
  B  B24  1  0.460728  0.324565  0.732082  1
  B  B25  1  0.539272  0.675435  0.732082  1
  B  B26  1  0.088644  0.588644  0.250000  1
  B  B27  1  0.411356  0.088644  0.250000  1
  B  B28  1  0.588644  0.911356  0.250000  1
  B  B29  1  0.911356  0.411356  0.250000  1
  B  B30  1  0.911356  0.411356  0.750000  1
  B  B31  1  0.588644  0.911356  0.750000  1
  B  B32  1  0.411356  0.088644  0.750000  1
  B  B33  1  0.088644  0.588644  0.750000  1
  B  B34  1  0.000000  0.000000  0.388644  1
  B  B35  1  0.500000  0.500000  0.111356  1
  B  B36  1  0.000000  0.000000  0.611356  1
  B  B37  1  0.500000  0.500000  0.888644  1
