# generated using pymatgen
data_Er3In3Ni2Pd
_symmetry_space_group_name_H-M   'P 1'
_cell_length_a   7.56267200
_cell_length_b   7.56267194
_cell_length_c   3.73829400
_cell_angle_alpha   90.00000000
_cell_angle_beta   90.00000000
_cell_angle_gamma   120.00000027
_symmetry_Int_Tables_number   1
_chemical_formula_structural   Er3In3Ni2Pd
_chemical_formula_sum   'Er3 In3 Ni2 Pd1'
_cell_volume   185.16317144
_cell_formula_units_Z   1
loop_
 _symmetry_equiv_pos_site_id
 _symmetry_equiv_pos_as_xyz
  1  'x, y, z'
loop_
 _atom_site_type_symbol
 _atom_site_label
 _atom_site_symmetry_multiplicity
 _atom_site_fract_x
 _atom_site_fract_y
 _atom_site_fract_z
 _atom_site_occupancy
  Er  Er0  1  0.415297  0.012120  0.500000  1
  Er  Er1  1  0.596823  0.584703  0.500000  1
  Er  Er2  1  0.987880  0.403177  0.500000  1
  In  In3  1  0.253763  0.251887  0.000000  1
  In  In4  1  0.748113  0.001876  0.000000  1
  In  In5  1  0.998124  0.746237  0.000000  1
  Ni  Ni6  1  0.000000  0.000000  0.500000  1
  Ni  Ni7  1  0.666667  0.333333  0.000000  1
  Pd  Pd8  1  0.333333  0.666667  0.000000  1
