# generated using pymatgen
data_Pu(Sn3Ru2)2
_symmetry_space_group_name_H-M   'P 1'
_cell_length_a   6.93326326
_cell_length_b   6.93326336
_cell_length_c   6.98369655
_cell_angle_alpha   119.76139970
_cell_angle_beta   119.76139430
_cell_angle_gamma   89.99999706
_symmetry_Int_Tables_number   1
_chemical_formula_structural   Pu(Sn3Ru2)2
_chemical_formula_sum   'Pu1 Sn6 Ru4'
_cell_volume   239.08287644
_cell_formula_units_Z   1
loop_
 _symmetry_equiv_pos_site_id
 _symmetry_equiv_pos_as_xyz
  1  'x, y, z'
loop_
 _atom_site_type_symbol
 _atom_site_label
 _atom_site_symmetry_multiplicity
 _atom_site_fract_x
 _atom_site_fract_y
 _atom_site_fract_z
 _atom_site_occupancy
  Pu  Pu0  1  0.000000  0.000000  0.000000  1
  Sn  Sn1  1  0.500000  0.000000  0.000000  1
  Sn  Sn2  1  0.000000  0.500000  0.000000  1
  Sn  Sn3  1  0.531586  0.531586  0.411922  1
  Sn  Sn4  1  0.880335  0.880335  0.411922  1
  Sn  Sn5  1  0.468414  0.119665  0.588079  1
  Sn  Sn6  1  0.119665  0.468414  0.588079  1
  Ru  Ru7  1  0.751608  0.400971  0.152579  1
  Ru  Ru8  1  0.400971  0.751608  0.152579  1
  Ru  Ru9  1  0.248392  0.248392  0.847421  1
  Ru  Ru10  1  0.599029  0.599029  0.847421  1
