# generated using pymatgen
data_Dy4YV3(Co4P3)4
_symmetry_space_group_name_H-M   'P 1'
_cell_length_a   12.05447601
_cell_length_b   12.05447604
_cell_length_c   3.67059300
_cell_angle_alpha   90.00000000
_cell_angle_beta   90.00000000
_cell_angle_gamma   120.00432975
_symmetry_Int_Tables_number   1
_chemical_formula_structural   Dy4YV3(Co4P3)4
_chemical_formula_sum   'Dy4 Y1 V3 Co16 P12'
_cell_volume   461.89641228
_cell_formula_units_Z   1
loop_
 _symmetry_equiv_pos_site_id
 _symmetry_equiv_pos_as_xyz
  1  'x, y, z'
loop_
 _atom_site_type_symbol
 _atom_site_label
 _atom_site_symmetry_multiplicity
 _atom_site_fract_x
 _atom_site_fract_y
 _atom_site_fract_z
 _atom_site_occupancy
  Dy  Dy0  1  0.666666  0.333321  0.000000  1
  Dy  Dy1  1  0.333321  0.666666  0.000000  1
  Dy  Dy2  1  0.813623  0.000017  0.500000  1
  Dy  Dy3  1  0.000017  0.813623  0.500000  1
  Y  Y4  1  0.186387  0.186387  0.500000  1
  V  V5  1  0.557009  0.557009  0.000000  1
  V  V6  1  0.442973  0.000002  0.000000  1
  V  V7  1  0.000002  0.442973  0.000000  1
  Co  Co8  1  0.823113  0.199966  0.000000  1
  Co  Co9  1  0.800036  0.623144  0.000000  1
  Co  Co10  1  0.376885  0.176873  0.000000  1
  Co  Co11  1  0.199966  0.823113  0.000000  1
  Co  Co12  1  0.623144  0.800036  0.000000  1
  Co  Co13  1  0.176873  0.376885  0.000000  1
  Co  Co14  1  0.644421  0.125833  0.500000  1
  Co  Co15  1  0.874174  0.518585  0.500000  1
  Co  Co16  1  0.481442  0.355596  0.500000  1
  Co  Co17  1  0.125833  0.644421  0.500000  1
  Co  Co18  1  0.518585  0.874174  0.500000  1
  Co  Co19  1  0.355596  0.481442  0.500000  1
  Co  Co20  1  0.717909  0.717909  0.500000  1
  Co  Co21  1  0.282092  0.999980  0.500000  1
  Co  Co22  1  0.999980  0.282092  0.500000  1
  Co  Co23  1  0.999939  0.999939  0.000000  1
  P  P24  1  0.363697  0.363697  0.000000  1
  P  P25  1  0.636393  0.999994  0.000000  1
  P  P26  1  0.999994  0.636393  0.000000  1
  P  P27  1  0.835805  0.315924  0.500000  1
  P  P28  1  0.684070  0.519880  0.500000  1
  P  P29  1  0.480126  0.164200  0.500000  1
  P  P30  1  0.315924  0.835805  0.500000  1
  P  P31  1  0.519880  0.684070  0.500000  1
  P  P32  1  0.164200  0.480126  0.500000  1
  P  P33  1  0.820302  0.820302  0.000000  1
  P  P34  1  0.179690  0.999931  0.000000  1
  P  P35  1  0.999931  0.179690  0.000000  1
