# generated using pymatgen
data_La9Tb11(TcSb2)4
_symmetry_space_group_name_H-M   'P 1'
_cell_length_a   8.28366578
_cell_length_b   9.11655570
_cell_length_c   12.31962637
_cell_angle_alpha   89.84192485
_cell_angle_beta   89.78379250
_cell_angle_gamma   90.22438027
_symmetry_Int_Tables_number   1
_chemical_formula_structural   La9Tb11(TcSb2)4
_chemical_formula_sum   'La9 Tb11 Tc4 Sb8'
_cell_volume   930.34237330
_cell_formula_units_Z   1
loop_
 _symmetry_equiv_pos_site_id
 _symmetry_equiv_pos_as_xyz
  1  'x, y, z'
loop_
 _atom_site_type_symbol
 _atom_site_label
 _atom_site_symmetry_multiplicity
 _atom_site_fract_x
 _atom_site_fract_y
 _atom_site_fract_z
 _atom_site_occupancy
  La  La0  1  0.158034  0.749117  0.205640  1
  La  La1  1  0.657190  0.251912  0.297297  1
  La  La2  1  0.840881  0.250235  0.794746  1
  La  La3  1  0.343636  0.750874  0.700987  1
  La  La4  1  0.818140  0.971869  0.064962  1
  La  La5  1  0.320108  0.029539  0.436912  1
  La  La6  1  0.180646  0.467968  0.935608  1
  La  La7  1  0.679719  0.529517  0.563332  1
  La  La8  1  0.183289  0.028957  0.934312  1
  Tb  Tb9  1  0.466364  0.750664  0.998935  1
  Tb  Tb10  1  0.964461  0.248624  0.502011  1
  Tb  Tb11  1  0.536931  0.251491  0.002553  1
  Tb  Tb12  1  0.034885  0.746626  0.496590  1
  Tb  Tb13  1  0.628077  0.752186  0.300742  1
  Tb  Tb14  1  0.126820  0.250107  0.201462  1
  Tb  Tb15  1  0.372383  0.251786  0.698664  1
  Tb  Tb16  1  0.870578  0.746225  0.799370  1
  Tb  Tb17  1  0.684540  0.965129  0.564644  1
  Tb  Tb18  1  0.818822  0.536189  0.065114  1
  Tb  Tb19  1  0.317080  0.464092  0.434695  1
  Tc  Tc20  1  0.410722  0.764947  0.483930  1
  Tc  Tc21  1  0.906173  0.237076  0.018452  1
  Tc  Tc22  1  0.588821  0.265313  0.516419  1
  Tc  Tc23  1  0.089800  0.745095  0.983897  1
  Sb  Sb24  1  0.924184  0.991484  0.333874  1
  Sb  Sb25  1  0.426674  0.008071  0.168664  1
  Sb  Sb26  1  0.075618  0.491067  0.666271  1
  Sb  Sb27  1  0.574784  0.508847  0.833678  1
  Sb  Sb28  1  0.067404  0.003605  0.668218  1
  Sb  Sb29  1  0.574587  0.991737  0.827555  1
  Sb  Sb30  1  0.929252  0.505464  0.328893  1
  Sb  Sb31  1  0.429397  0.494186  0.171573  1
