# generated using pymatgen
data_Tb3Dy9Ni5Pb
_symmetry_space_group_name_H-M   'P 1'
_cell_length_a   8.34284303
_cell_length_b   8.35553591
_cell_length_c   8.35364300
_cell_angle_alpha   107.31516614
_cell_angle_beta   109.65521135
_cell_angle_gamma   111.50940036
_symmetry_Int_Tables_number   1
_chemical_formula_structural   Tb3Dy9Ni5Pb
_chemical_formula_sum   'Tb3 Dy9 Ni5 Pb1'
_cell_volume   447.45561507
_cell_formula_units_Z   1
loop_
 _symmetry_equiv_pos_site_id
 _symmetry_equiv_pos_as_xyz
  1  'x, y, z'
loop_
 _atom_site_type_symbol
 _atom_site_label
 _atom_site_symmetry_multiplicity
 _atom_site_fract_x
 _atom_site_fract_y
 _atom_site_fract_z
 _atom_site_occupancy
  Tb  Tb0  1  0.478854  0.296942  0.182006  1
  Tb  Tb1  1  0.115275  0.297172  0.818102  1
  Tb  Tb2  1  0.884984  0.703679  0.181378  1
  Dy  Dy3  1  0.521355  0.703363  0.817962  1
  Dy  Dy4  1  0.307768  0.628651  0.321636  1
  Dy  Dy5  1  0.307662  0.986005  0.679080  1
  Dy  Dy6  1  0.692511  0.371427  0.678662  1
  Dy  Dy7  1  0.692425  0.013797  0.321130  1
  Dy  Dy8  1  0.191454  0.208638  0.399960  1
  Dy  Dy9  1  0.809083  0.792109  0.601157  1
  Dy  Dy10  1  0.191524  0.791451  0.982839  1
  Dy  Dy11  1  0.809161  0.207990  0.017125  1
  Ni  Ni12  1  0.499663  0.625559  0.124211  1
  Ni  Ni13  1  0.499441  0.375054  0.874129  1
  Ni  Ni14  1  0.367139  0.000200  0.366908  1
  Ni  Ni15  1  0.632200  0.999394  0.633195  1
  Ni  Ni16  1  0.999235  0.998558  0.000257  1
  Pb  Pb17  1  0.000266  0.500010  0.500264  1
