# generated using pymatgen
data_Tm3Pa(ZnRh)4
_symmetry_space_group_name_H-M   'P 1'
_cell_length_a   3.83257400
_cell_length_b   7.06873129
_cell_length_c   8.29725518
_cell_angle_alpha   90.80377700
_cell_angle_beta   90.00000000
_cell_angle_gamma   90.00000000
_symmetry_Int_Tables_number   1
_chemical_formula_structural   Tm3Pa(ZnRh)4
_chemical_formula_sum   'Tm3 Pa1 Zn4 Rh4'
_cell_volume   224.76243737
_cell_formula_units_Z   1
loop_
 _symmetry_equiv_pos_site_id
 _symmetry_equiv_pos_as_xyz
  1  'x, y, z'
loop_
 _atom_site_type_symbol
 _atom_site_label
 _atom_site_symmetry_multiplicity
 _atom_site_fract_x
 _atom_site_fract_y
 _atom_site_fract_z
 _atom_site_occupancy
  Tm  Tm0  1  0.750000  0.442411  0.808533  1
  Tm  Tm1  1  0.750000  0.940582  0.686090  1
  Tm  Tm2  1  0.250000  0.053076  0.322217  1
  Pa  Pa3  1  0.250000  0.553978  0.178409  1
  Zn  Zn4  1  0.250000  0.620371  0.564557  1
  Zn  Zn5  1  0.750000  0.368214  0.442869  1
  Zn  Zn6  1  0.750000  0.895604  0.063175  1
  Zn  Zn7  1  0.250000  0.127607  0.934536  1
  Rh  Rh8  1  0.250000  0.738754  0.887006  1
  Rh  Rh9  1  0.750000  0.281289  0.128981  1
  Rh  Rh10  1  0.750000  0.743978  0.357003  1
  Rh  Rh11  1  0.250000  0.234138  0.626624  1
