# generated using pymatgen
data_Li(YbC2)2
_symmetry_space_group_name_H-M   'P 1'
_cell_length_a   5.20689027
_cell_length_b   6.87423842
_cell_length_c   6.87423808
_cell_angle_alpha   70.17182938
_cell_angle_beta   112.25472974
_cell_angle_gamma   112.25472738
_symmetry_Int_Tables_number   1
_chemical_formula_structural   Li(YbC2)2
_chemical_formula_sum   'Li2 Yb4 C8'
_cell_volume   205.18211393
_cell_formula_units_Z   2
loop_
 _symmetry_equiv_pos_site_id
 _symmetry_equiv_pos_as_xyz
  1  'x, y, z'
loop_
 _atom_site_type_symbol
 _atom_site_label
 _atom_site_symmetry_multiplicity
 _atom_site_fract_x
 _atom_site_fract_y
 _atom_site_fract_z
 _atom_site_occupancy
  Li  Li0  1  0.250001  0.000000  0.000000  1
  Li  Li1  1  0.750000  0.000000  0.000000  1
  Yb  Yb2  1  0.359277  0.523754  0.194799  1
  Yb  Yb3  1  0.140723  0.805201  0.476246  1
  Yb  Yb4  1  0.859278  0.194799  0.523754  1
  Yb  Yb5  1  0.640723  0.476246  0.805201  1
  C  C6  1  0.906807  0.714147  0.099466  1
  C  C7  1  0.868198  0.520852  0.215543  1
  C  C8  1  0.593194  0.900534  0.285853  1
  C  C9  1  0.631803  0.784458  0.479148  1
  C  C10  1  0.368197  0.215543  0.520852  1
  C  C11  1  0.406806  0.099466  0.714147  1
  C  C12  1  0.131802  0.479148  0.784458  1
  C  C13  1  0.093193  0.285853  0.900534  1
