# generated using pymatgen
data_Ce4Hg2IrPt3
_symmetry_space_group_name_H-M   'P 1'
_cell_length_a   7.88017407
_cell_length_b   7.88017401
_cell_length_c   3.70642100
_cell_angle_alpha   90.00000000
_cell_angle_beta   90.00000000
_cell_angle_gamma   89.85613801
_symmetry_Int_Tables_number   1
_chemical_formula_structural   Ce4Hg2IrPt3
_chemical_formula_sum   'Ce4 Hg2 Ir1 Pt3'
_cell_volume   230.15742872
_cell_formula_units_Z   1
loop_
 _symmetry_equiv_pos_site_id
 _symmetry_equiv_pos_as_xyz
  1  'x, y, z'
loop_
 _atom_site_type_symbol
 _atom_site_label
 _atom_site_symmetry_multiplicity
 _atom_site_fract_x
 _atom_site_fract_y
 _atom_site_fract_z
 _atom_site_occupancy
  Ce  Ce0  1  0.167958  0.332042  0.500000  1
  Ce  Ce1  1  0.337905  0.828449  0.500000  1
  Ce  Ce2  1  0.822964  0.677036  0.500000  1
  Ce  Ce3  1  0.671551  0.162095  0.500000  1
  Hg  Hg4  1  0.500488  0.499727  0.000000  1
  Hg  Hg5  1  0.000273  0.999512  0.000000  1
  Ir  Ir6  1  0.631864  0.868136  0.000000  1
  Pt  Pt7  1  0.129829  0.631272  0.000000  1
  Pt  Pt8  1  0.868728  0.370171  0.000000  1
  Pt  Pt9  1  0.368440  0.131560  0.000000  1
