# generated using pymatgen
data_SrVCrF12
_symmetry_space_group_name_H-M   'P 1'
_cell_length_a   11.81360661
_cell_length_b   5.88994673
_cell_length_c   5.91780978
_cell_angle_alpha   57.47719330
_cell_angle_beta   57.22759070
_cell_angle_gamma   57.03330397
_symmetry_Int_Tables_number   1
_chemical_formula_structural   SrVCrF12
_chemical_formula_sum   'Sr1 V1 Cr1 F12'
_cell_volume   272.69016798
_cell_formula_units_Z   1
loop_
 _symmetry_equiv_pos_site_id
 _symmetry_equiv_pos_as_xyz
  1  'x, y, z'
loop_
 _atom_site_type_symbol
 _atom_site_label
 _atom_site_symmetry_multiplicity
 _atom_site_fract_x
 _atom_site_fract_y
 _atom_site_fract_z
 _atom_site_occupancy
  Sr  Sr0  1  0.749515  0.502204  0.499484  1
  V  V1  1  0.016459  0.985767  0.990983  1
  Cr  Cr2  1  0.485285  0.014210  0.006944  1
  F  F3  1  0.159347  0.114395  0.782431  1
  F  F4  1  0.648085  0.122675  0.793784  1
  F  F5  1  0.059545  0.791051  0.304842  1
  F  F6  1  0.555114  0.791749  0.304514  1
  F  F7  1  0.109308  0.684689  0.882565  1
  F  F8  1  0.602218  0.693149  0.893474  1
  F  F9  1  0.443546  0.196539  0.695955  1
  F  F10  1  0.944106  0.208488  0.692388  1
  F  F11  1  0.337760  0.899314  0.210524  1
  F  F12  1  0.849936  0.884024  0.203791  1
  F  F13  1  0.392620  0.304517  0.126708  1
  F  F14  1  0.897156  0.307230  0.111614  1
