# generated using pymatgen
data_TbY2Ag(Pt2O7)2
_symmetry_space_group_name_H-M   'P 1'
_cell_length_a   7.20742510
_cell_length_b   7.33716328
_cell_length_c   7.33606000
_cell_angle_alpha   60.00497403
_cell_angle_beta   59.40783043
_cell_angle_gamma   59.38201581
_symmetry_Int_Tables_number   1
_chemical_formula_structural   TbY2Ag(Pt2O7)2
_chemical_formula_sum   'Tb1 Y2 Ag1 Pt4 O14'
_cell_volume   271.79351234
_cell_formula_units_Z   1
loop_
 _symmetry_equiv_pos_site_id
 _symmetry_equiv_pos_as_xyz
  1  'x, y, z'
loop_
 _atom_site_type_symbol
 _atom_site_label
 _atom_site_symmetry_multiplicity
 _atom_site_fract_x
 _atom_site_fract_y
 _atom_site_fract_z
 _atom_site_occupancy
  Tb  Tb0  1  0.125000  0.625000  0.125000  1
  Y  Y1  1  0.125000  0.125000  0.625000  1
  Y  Y2  1  0.125000  0.125000  0.125000  1
  Ag  Ag3  1  0.625000  0.125000  0.125000  1
  Pt  Pt4  1  0.625000  0.625000  0.625000  1
  Pt  Pt5  1  0.125000  0.625000  0.625000  1
  Pt  Pt6  1  0.625000  0.625000  0.125000  1
  Pt  Pt7  1  0.625000  0.125000  0.625000  1
  O  O8  1  0.279797  0.717667  0.717186  1
  O  O9  1  0.531388  0.956510  0.956603  1
  O  O10  1  0.718197  0.694791  0.293506  1
  O  O11  1  0.279892  0.285531  0.717289  1
  O  O12  1  0.985175  0.006135  0.004345  1
  O  O13  1  0.279797  0.717667  0.285351  1
  O  O14  1  0.718612  0.293490  0.694501  1
  O  O15  1  0.970203  0.532333  0.964649  1
  O  O16  1  0.531803  0.555209  0.956494  1
  O  O17  1  0.970108  0.964469  0.532711  1
  O  O18  1  0.264825  0.243865  0.245655  1
  O  O19  1  0.531388  0.956510  0.555499  1
  O  O20  1  0.718612  0.293490  0.293397  1
  O  O21  1  0.970203  0.532333  0.532814  1
