# generated using pymatgen
data_Pr19DySi15Tc
_symmetry_space_group_name_H-M   'P 1'
_cell_length_a   7.91915774
_cell_length_b   7.91264403
_cell_length_c   15.26478831
_cell_angle_alpha   90.26646856
_cell_angle_beta   89.87054321
_cell_angle_gamma   89.94666070
_symmetry_Int_Tables_number   1
_chemical_formula_structural   Pr19DySi15Tc
_chemical_formula_sum   'Pr19 Dy1 Si15 Tc1'
_cell_volume   956.50095939
_cell_formula_units_Z   1
loop_
 _symmetry_equiv_pos_site_id
 _symmetry_equiv_pos_as_xyz
  1  'x, y, z'
loop_
 _atom_site_type_symbol
 _atom_site_label
 _atom_site_symmetry_multiplicity
 _atom_site_fract_x
 _atom_site_fract_y
 _atom_site_fract_z
 _atom_site_occupancy
  Pr  Pr0  1  0.192053  0.808279  0.250273  1
  Pr  Pr1  1  0.824404  0.189999  0.748247  1
  Pr  Pr2  1  0.696016  0.689864  0.502392  1
  Pr  Pr3  1  0.370184  0.012313  0.451185  1
  Pr  Pr4  1  0.483171  0.883524  0.696864  1
  Pr  Pr5  1  0.510525  0.124084  0.198230  1
  Pr  Pr6  1  0.876990  0.488741  0.300460  1
  Pr  Pr7  1  0.129851  0.501664  0.799300  1
  Pr  Pr8  1  0.625806  0.988336  0.949243  1
  Pr  Pr9  1  0.007652  0.378371  0.550767  1
  Pr  Pr10  1  0.988552  0.625385  0.050604  1
  Pr  Pr11  1  0.132275  0.982763  0.872901  1
  Pr  Pr12  1  0.516834  0.629988  0.126129  1
  Pr  Pr13  1  0.471954  0.361757  0.629842  1
  Pr  Pr14  1  0.628222  0.515206  0.875467  1
  Pr  Pr15  1  0.375073  0.483007  0.372749  1
  Pr  Pr16  1  0.873535  0.020595  0.376118  1
  Pr  Pr17  1  0.982032  0.127546  0.123905  1
  Pr  Pr18  1  0.025389  0.880181  0.627388  1
  Dy  Dy19  1  0.310475  0.307586  0.998692  1
  Si  Si20  1  0.331039  0.690604  0.952930  1
  Si  Si21  1  0.663519  0.301766  0.451049  1
  Si  Si22  1  0.693354  0.331427  0.048926  1
  Si  Si23  1  0.303485  0.667990  0.546852  1
  Si  Si24  1  0.805673  0.832127  0.202592  1
  Si  Si25  1  0.168081  0.197710  0.297056  1
  Si  Si26  1  0.830545  0.801969  0.800388  1
  Si  Si27  1  0.289182  0.926546  0.057747  1
  Si  Si28  1  0.580048  0.787432  0.310471  1
  Si  Si29  1  0.416714  0.213192  0.816051  1
  Si  Si30  1  0.778077  0.582708  0.692471  1
  Si  Si31  1  0.213456  0.419483  0.186299  1
  Si  Si32  1  0.704673  0.075446  0.558300  1
  Si  Si33  1  0.925601  0.288428  0.942344  1
  Si  Si34  1  0.078995  0.714744  0.440540  1
  Tc  Tc35  1  0.196563  0.169237  0.695227  1
