# generated using pymatgen
data_Yb4NiOs7
_symmetry_space_group_name_H-M   'P 1'
_cell_length_a   5.31661640
_cell_length_b   5.31661681
_cell_length_c   8.64287600
_cell_angle_alpha   90.00000000
_cell_angle_beta   90.00000000
_cell_angle_gamma   121.38155929
_symmetry_Int_Tables_number   1
_chemical_formula_structural   Yb4NiOs7
_chemical_formula_sum   'Yb4 Ni1 Os7'
_cell_volume   208.56605729
_cell_formula_units_Z   1
loop_
 _symmetry_equiv_pos_site_id
 _symmetry_equiv_pos_as_xyz
  1  'x, y, z'
loop_
 _atom_site_type_symbol
 _atom_site_label
 _atom_site_symmetry_multiplicity
 _atom_site_fract_x
 _atom_site_fract_y
 _atom_site_fract_z
 _atom_site_occupancy
  Yb  Yb0  1  0.333416  0.666584  0.432791  1
  Yb  Yb1  1  0.669937  0.330063  0.562584  1
  Yb  Yb2  1  0.669937  0.330063  0.937416  1
  Yb  Yb3  1  0.333416  0.666584  0.067209  1
  Ni  Ni4  1  0.821606  0.178394  0.250000  1
  Os  Os5  1  0.010969  0.989031  0.493861  1
  Os  Os6  1  0.010969  0.989031  0.006139  1
  Os  Os7  1  0.816200  0.661416  0.250000  1
  Os  Os8  1  0.338584  0.183800  0.250000  1
  Os  Os9  1  0.167933  0.832067  0.750000  1
  Os  Os10  1  0.171495  0.344462  0.750000  1
  Os  Os11  1  0.655538  0.828505  0.750000  1
