# generated using pymatgen
data_PrSm3(B4Mo)4
_symmetry_space_group_name_H-M   'P 1'
_cell_length_a   6.09788726
_cell_length_b   11.79306823
_cell_length_c   3.68798900
_cell_angle_alpha   90.00000000
_cell_angle_beta   90.00000000
_cell_angle_gamma   90.05630490
_symmetry_Int_Tables_number   1
_chemical_formula_structural   PrSm3(B4Mo)4
_chemical_formula_sum   'Pr1 Sm3 B16 Mo4'
_cell_volume   265.21348918
_cell_formula_units_Z   1
loop_
 _symmetry_equiv_pos_site_id
 _symmetry_equiv_pos_as_xyz
  1  'x, y, z'
loop_
 _atom_site_type_symbol
 _atom_site_label
 _atom_site_symmetry_multiplicity
 _atom_site_fract_x
 _atom_site_fract_y
 _atom_site_fract_z
 _atom_site_occupancy
  Pr  Pr0  1  0.874536  0.849477  0.000000  1
  Sm  Sm1  1  0.625647  0.349810  0.000000  1
  Sm  Sm2  1  0.374198  0.649775  0.000000  1
  Sm  Sm3  1  0.125970  0.150480  0.000000  1
  B  B4  1  0.783914  0.185628  0.500000  1
  B  B5  1  0.218506  0.814515  0.500000  1
  B  B6  1  0.283716  0.314868  0.500000  1
  B  B7  1  0.715612  0.683972  0.500000  1
  B  B8  1  0.864022  0.033253  0.500000  1
  B  B9  1  0.136637  0.968779  0.500000  1
  B  B10  1  0.364363  0.467815  0.500000  1
  B  B11  1  0.635224  0.531707  0.500000  1
  B  B12  1  0.887329  0.453035  0.500000  1
  B  B13  1  0.113145  0.546206  0.500000  1
  B  B14  1  0.386858  0.047325  0.500000  1
  B  B15  1  0.611203  0.954299  0.500000  1
  B  B16  1  0.975634  0.308001  0.500000  1
  B  B17  1  0.025478  0.690645  0.500000  1
  B  B18  1  0.475520  0.192347  0.500000  1
  B  B19  1  0.522729  0.808038  0.500000  1
  Mo  Mo20  1  0.627805  0.083728  0.000000  1
  Mo  Mo21  1  0.371803  0.917442  0.000000  1
  Mo  Mo22  1  0.128315  0.416664  0.000000  1
  Mo  Mo23  1  0.871834  0.582194  0.000000  1
