# generated using pymatgen
data_LiMn3Pd3Pt
_symmetry_space_group_name_H-M   'P 1'
_cell_length_a   5.37337109
_cell_length_b   5.37337089
_cell_length_c   4.27885100
_cell_angle_alpha   90.00000000
_cell_angle_beta   90.00000000
_cell_angle_gamma   105.37246132
_symmetry_Int_Tables_number   1
_chemical_formula_structural   LiMn3Pd3Pt
_chemical_formula_sum   'Li1 Mn3 Pd3 Pt1'
_cell_volume   119.12372658
_cell_formula_units_Z   1
loop_
 _symmetry_equiv_pos_site_id
 _symmetry_equiv_pos_as_xyz
  1  'x, y, z'
loop_
 _atom_site_type_symbol
 _atom_site_label
 _atom_site_symmetry_multiplicity
 _atom_site_fract_x
 _atom_site_fract_y
 _atom_site_fract_z
 _atom_site_occupancy
  Li  Li0  1  0.499151  0.499151  0.000000  1
  Mn  Mn1  1  0.001898  0.001898  0.000000  1
  Mn  Mn2  1  0.250678  0.748349  0.500000  1
  Mn  Mn3  1  0.748349  0.250678  0.500000  1
  Pd  Pd4  1  0.501029  0.001526  0.000000  1
  Pd  Pd5  1  0.001526  0.501029  0.000000  1
  Pd  Pd6  1  0.749637  0.749637  0.500000  1
  Pt  Pt7  1  0.247733  0.247733  0.500000  1
