# generated using pymatgen
data_LiDy2CuSb4
_symmetry_space_group_name_H-M   'P 1'
_cell_length_a   4.30010695
_cell_length_b   4.30885416
_cell_length_c   10.04922662
_cell_angle_alpha   90.02358610
_cell_angle_beta   90.03815892
_cell_angle_gamma   90.24314073
_symmetry_Int_Tables_number   1
_chemical_formula_structural   LiDy2CuSb4
_chemical_formula_sum   'Li1 Dy2 Cu1 Sb4'
_cell_volume   186.19570054
_cell_formula_units_Z   1
loop_
 _symmetry_equiv_pos_site_id
 _symmetry_equiv_pos_as_xyz
  1  'x, y, z'
loop_
 _atom_site_type_symbol
 _atom_site_label
 _atom_site_symmetry_multiplicity
 _atom_site_fract_x
 _atom_site_fract_y
 _atom_site_fract_z
 _atom_site_occupancy
  Li  Li0  1  0.747660  0.245066  0.000067  1
  Dy  Dy1  1  0.251220  0.246861  0.256288  1
  Dy  Dy2  1  0.748012  0.751647  0.743786  1
  Cu  Cu3  1  0.252655  0.757448  0.999853  1
  Sb  Sb4  1  0.247821  0.253767  0.837737  1
  Sb  Sb5  1  0.751721  0.746261  0.162209  1
  Sb  Sb6  1  0.249008  0.748080  0.500016  1
  Sb  Sb7  1  0.751901  0.250870  0.500043  1
