# generated using pymatgen
data_Ca2TbErPd4
_symmetry_space_group_name_H-M   'P 1'
_cell_length_a   4.47400500
_cell_length_b   5.68803687
_cell_length_c   7.31028129
_cell_angle_alpha   90.13910052
_cell_angle_beta   90.00000000
_cell_angle_gamma   90.00000000
_symmetry_Int_Tables_number   1
_chemical_formula_structural   Ca2TbErPd4
_chemical_formula_sum   'Ca2 Tb1 Er1 Pd4'
_cell_volume   186.03372273
_cell_formula_units_Z   1
loop_
 _symmetry_equiv_pos_site_id
 _symmetry_equiv_pos_as_xyz
  1  'x, y, z'
loop_
 _atom_site_type_symbol
 _atom_site_label
 _atom_site_symmetry_multiplicity
 _atom_site_fract_x
 _atom_site_fract_y
 _atom_site_fract_z
 _atom_site_occupancy
  Ca  Ca0  1  0.250000  0.140783  0.185195  1
  Ca  Ca1  1  0.750000  0.639997  0.316511  1
  Tb  Tb2  1  0.750000  0.859293  0.815180  1
  Er  Er3  1  0.250000  0.359111  0.683898  1
  Pd  Pd4  1  0.250000  0.849863  0.558472  1
  Pd  Pd5  1  0.250000  0.648156  0.018964  1
  Pd  Pd6  1  0.750000  0.152166  0.483608  1
  Pd  Pd7  1  0.750000  0.350630  0.938171  1
