# generated using pymatgen
data_Sr4AlHgPt4
_symmetry_space_group_name_H-M   'P 1'
_cell_length_a   5.89809743
_cell_length_b   5.89809707
_cell_length_c   8.38672684
_cell_angle_alpha   78.57847891
_cell_angle_beta   78.57848143
_cell_angle_gamma   61.55269120
_symmetry_Int_Tables_number   1
_chemical_formula_structural   Sr4AlHgPt4
_chemical_formula_sum   'Sr4 Al1 Hg1 Pt4'
_cell_volume   249.61935297
_cell_formula_units_Z   1
loop_
 _symmetry_equiv_pos_site_id
 _symmetry_equiv_pos_as_xyz
  1  'x, y, z'
loop_
 _atom_site_type_symbol
 _atom_site_label
 _atom_site_symmetry_multiplicity
 _atom_site_fract_x
 _atom_site_fract_y
 _atom_site_fract_z
 _atom_site_occupancy
  Sr  Sr0  1  0.789580  0.510518  0.851909  1
  Sr  Sr1  1  0.489482  0.210420  0.648091  1
  Sr  Sr2  1  0.211381  0.495054  0.146220  1
  Sr  Sr3  1  0.504946  0.788619  0.353780  1
  Al  Al4  1  0.895011  0.104989  0.250000  1
  Hg  Hg5  1  0.154555  0.845445  0.750000  1
  Pt  Pt6  1  0.985502  0.737575  0.487143  1
  Pt  Pt7  1  0.262425  0.014498  0.012857  1
  Pt  Pt8  1  0.981416  0.274297  0.476097  1
  Pt  Pt9  1  0.725703  0.018584  0.023903  1
