# generated using pymatgen
data_Hf9NbFeRe3
_symmetry_space_group_name_H-M   'P 1'
_cell_length_a   8.47394100
_cell_length_b   8.64873032
_cell_length_c   8.64873005
_cell_angle_alpha   119.99950486
_cell_angle_beta   90.00000000
_cell_angle_gamma   90.00000000
_symmetry_Int_Tables_number   1
_chemical_formula_structural   Hf9NbFeRe3
_chemical_formula_sum   'Hf18 Nb2 Fe2 Re6'
_cell_volume   548.93754003
_cell_formula_units_Z   2
loop_
 _symmetry_equiv_pos_site_id
 _symmetry_equiv_pos_as_xyz
  1  'x, y, z'
loop_
 _atom_site_type_symbol
 _atom_site_label
 _atom_site_symmetry_multiplicity
 _atom_site_fract_x
 _atom_site_fract_y
 _atom_site_fract_z
 _atom_site_occupancy
  Hf  Hf0  1  0.559783  0.797999  0.596011  1
  Hf  Hf1  1  0.559802  0.797994  0.202006  1
  Hf  Hf2  1  0.559783  0.403989  0.202001  1
  Hf  Hf3  1  0.440217  0.202001  0.403989  1
  Hf  Hf4  1  0.440198  0.202006  0.797994  1
  Hf  Hf5  1  0.440217  0.596011  0.797999  1
  Hf  Hf6  1  0.059783  0.202001  0.403989  1
  Hf  Hf7  1  0.059802  0.202006  0.797994  1
  Hf  Hf8  1  0.059783  0.596011  0.797999  1
  Hf  Hf9  1  0.940217  0.797999  0.596011  1
  Hf  Hf10  1  0.940198  0.797994  0.202006  1
  Hf  Hf11  1  0.940217  0.403989  0.202001  1
  Hf  Hf12  1  0.750000  0.458548  0.917128  1
  Hf  Hf13  1  0.750000  0.458549  0.541451  1
  Hf  Hf14  1  0.750000  0.082872  0.541451  1
  Hf  Hf15  1  0.250000  0.541451  0.082872  1
  Hf  Hf16  1  0.250000  0.541451  0.458549  1
  Hf  Hf17  1  0.250000  0.917128  0.458548  1
  Nb  Nb18  1  0.500000  0.000000  0.000000  1
  Nb  Nb19  1  0.000000  0.000000  0.000000  1
  Fe  Fe20  1  0.750000  0.666635  0.333365  1
  Fe  Fe21  1  0.250000  0.333365  0.666635  1
  Re  Re22  1  0.750000  0.114295  0.228641  1
  Re  Re23  1  0.750000  0.114301  0.885699  1
  Re  Re24  1  0.750000  0.771359  0.885705  1
  Re  Re25  1  0.250000  0.885705  0.771359  1
  Re  Re26  1  0.250000  0.885699  0.114301  1
  Re  Re27  1  0.250000  0.228641  0.114295  1
