# generated using pymatgen
data_Ho8Si15Tc12Ge
_symmetry_space_group_name_H-M   'P 1'
_cell_length_a   6.79145691
_cell_length_b   6.79006729
_cell_length_c   12.67328141
_cell_angle_alpha   90.10717044
_cell_angle_beta   89.64461770
_cell_angle_gamma   89.95694569
_symmetry_Int_Tables_number   1
_chemical_formula_structural   Ho8Si15Tc12Ge
_chemical_formula_sum   'Ho8 Si15 Tc12 Ge1'
_cell_volume   584.40896025
_cell_formula_units_Z   1
loop_
 _symmetry_equiv_pos_site_id
 _symmetry_equiv_pos_as_xyz
  1  'x, y, z'
loop_
 _atom_site_type_symbol
 _atom_site_label
 _atom_site_symmetry_multiplicity
 _atom_site_fract_x
 _atom_site_fract_y
 _atom_site_fract_z
 _atom_site_occupancy
  Ho  Ho0  1  0.338000  0.996385  0.468474  1
  Ho  Ho1  1  0.504981  0.839414  0.720385  1
  Ho  Ho2  1  0.498311  0.161953  0.219961  1
  Ho  Ho3  1  0.839094  0.503237  0.279904  1
  Ho  Ho4  1  0.163200  0.498181  0.780074  1
  Ho  Ho5  1  0.661872  0.003269  0.970130  1
  Ho  Ho6  1  0.994032  0.340350  0.528898  1
  Ho  Ho7  1  0.003832  0.661528  0.030442  1
  Si  Si8  1  0.384400  0.692815  0.938171  1
  Si  Si9  1  0.614086  0.308030  0.436687  1
  Si  Si10  1  0.693282  0.383094  0.062530  1
  Si  Si11  1  0.307201  0.615207  0.562401  1
  Si  Si12  1  0.808029  0.883166  0.187393  1
  Si  Si13  1  0.115517  0.191840  0.311667  1
  Si  Si14  1  0.885711  0.807853  0.813626  1
  Si  Si15  1  0.279714  0.974033  0.066381  1
  Si  Si16  1  0.523404  0.775416  0.313673  1
  Si  Si17  1  0.478681  0.226990  0.816116  1
  Si  Si18  1  0.776229  0.523257  0.687507  1
  Si  Si19  1  0.224845  0.475940  0.185176  1
  Si  Si20  1  0.723806  0.023237  0.562525  1
  Si  Si21  1  0.975254  0.279573  0.935349  1
  Si  Si22  1  0.021198  0.725707  0.435116  1
  Tc  Tc23  1  0.334547  0.334897  0.000493  1
  Tc  Tc24  1  0.167214  0.833594  0.249961  1
  Tc  Tc25  1  0.829854  0.165620  0.752044  1
  Tc  Tc26  1  0.663859  0.668485  0.497959  1
  Tc  Tc27  1  0.179696  0.980576  0.879120  1
  Tc  Tc28  1  0.521781  0.681284  0.122822  1
  Tc  Tc29  1  0.487858  0.321434  0.622507  1
  Tc  Tc30  1  0.684235  0.521626  0.879081  1
  Tc  Tc31  1  0.316629  0.480127  0.375787  1
  Tc  Tc32  1  0.814689  0.022469  0.370738  1
  Tc  Tc33  1  0.982055  0.178043  0.125353  1
  Tc  Tc34  1  0.013534  0.807213  0.626382  1
  Ge  Ge35  1  0.189367  0.114156  0.685171  1
