# generated using pymatgen
data_Rb3Sc(SeO4)3
_symmetry_space_group_name_H-M   'P 1'
_cell_length_a   9.73883314
_cell_length_b   9.73883300
_cell_length_c   9.73883273
_cell_angle_alpha   108.66344813
_cell_angle_beta   108.66345411
_cell_angle_gamma   108.66346627
_symmetry_Int_Tables_number   1
_chemical_formula_structural   Rb3Sc(SeO4)3
_chemical_formula_sum   'Rb6 Sc2 Se6 O24'
_cell_volume   731.54024652
_cell_formula_units_Z   2
loop_
 _symmetry_equiv_pos_site_id
 _symmetry_equiv_pos_as_xyz
  1  'x, y, z'
loop_
 _atom_site_type_symbol
 _atom_site_label
 _atom_site_symmetry_multiplicity
 _atom_site_fract_x
 _atom_site_fract_y
 _atom_site_fract_z
 _atom_site_occupancy
  Rb  Rb0  1  0.111192  0.641293  0.260132  1
  Rb  Rb1  1  0.260132  0.111192  0.641293  1
  Rb  Rb2  1  0.641293  0.260132  0.111192  1
  Rb  Rb3  1  0.300958  0.688844  0.838559  1
  Rb  Rb4  1  0.838559  0.300958  0.688844  1
  Rb  Rb5  1  0.688844  0.838559  0.300958  1
  Sc  Sc6  1  0.469134  0.469134  0.469134  1
  Sc  Sc7  1  0.967734  0.967734  0.967734  1
  Se  Se8  1  0.891969  0.702121  0.569140  1
  Se  Se9  1  0.569140  0.891969  0.702121  1
  Se  Se10  1  0.702121  0.569140  0.891969  1
  Se  Se11  1  0.365621  0.045991  0.236556  1
  Se  Se12  1  0.236556  0.365621  0.045991  1
  Se  Se13  1  0.045991  0.236556  0.365621  1
  O  O14  1  0.958446  0.757625  0.448387  1
  O  O15  1  0.448387  0.958446  0.757625  1
  O  O16  1  0.757625  0.448387  0.958446  1
  O  O17  1  0.683271  0.605511  0.461816  1
  O  O18  1  0.461816  0.683271  0.605511  1
  O  O19  1  0.605511  0.461816  0.683271  1
  O  O20  1  0.878891  0.730738  0.948294  1
  O  O21  1  0.948294  0.878891  0.730738  1
  O  O22  1  0.730738  0.948294  0.878891  1
  O  O23  1  0.626409  0.959671  0.584307  1
  O  O24  1  0.584307  0.626409  0.959671  1
  O  O25  1  0.959671  0.584307  0.626409  1
  O  O26  1  0.254294  0.330203  0.473220  1
  O  O27  1  0.473220  0.254294  0.330203  1
  O  O28  1  0.330203  0.473220  0.254294  1
  O  O29  1  0.057799  0.204485  0.986416  1
  O  O30  1  0.986416  0.057799  0.204485  1
  O  O31  1  0.204485  0.986416  0.057799  1
  O  O32  1  0.978300  0.184343  0.487056  1
  O  O33  1  0.487056  0.978300  0.184343  1
  O  O34  1  0.184343  0.487056  0.978300  1
  O  O35  1  0.306750  0.981423  0.355204  1
  O  O36  1  0.355204  0.306750  0.981423  1
  O  O37  1  0.981423  0.355204  0.306750  1
