# generated using pymatgen
data_Zr(Ti3Sb2)2
_symmetry_space_group_name_H-M   'P 1'
_cell_length_a   8.20893061
_cell_length_b   8.20893055
_cell_length_c   8.20893222
_cell_angle_alpha   40.52333527
_cell_angle_beta   40.52333478
_cell_angle_gamma   40.52333838
_symmetry_Int_Tables_number   1
_chemical_formula_structural   Zr(Ti3Sb2)2
_chemical_formula_sum   'Zr1 Ti6 Sb4'
_cell_volume   210.63948711
_cell_formula_units_Z   1
loop_
 _symmetry_equiv_pos_site_id
 _symmetry_equiv_pos_as_xyz
  1  'x, y, z'
loop_
 _atom_site_type_symbol
 _atom_site_label
 _atom_site_symmetry_multiplicity
 _atom_site_fract_x
 _atom_site_fract_y
 _atom_site_fract_z
 _atom_site_occupancy
  Zr  Zr0  1  0.000000  0.000000  0.000000  1
  Ti  Ti1  1  0.598937  0.598937  0.113954  1
  Ti  Ti2  1  0.886047  0.401062  0.401063  1
  Ti  Ti3  1  0.401062  0.886047  0.401063  1
  Ti  Ti4  1  0.598938  0.113953  0.598937  1
  Ti  Ti5  1  0.113953  0.598938  0.598937  1
  Ti  Ti6  1  0.401063  0.401063  0.886046  1
  Sb  Sb7  1  0.128756  0.128756  0.128756  1
  Sb  Sb8  1  0.332159  0.332159  0.332159  1
  Sb  Sb9  1  0.667841  0.667841  0.667841  1
  Sb  Sb10  1  0.871244  0.871244  0.871244  1
