# generated using pymatgen
data_Tm3Ta2B4Ru10W
_symmetry_space_group_name_H-M   'P 1'
_cell_length_a   9.54790858
_cell_length_b   9.54037380
_cell_length_c   3.10009100
_cell_angle_alpha   90.00000000
_cell_angle_beta   90.00000000
_cell_angle_gamma   90.21419807
_symmetry_Int_Tables_number   1
_chemical_formula_structural   Tm3Ta2B4Ru10W
_chemical_formula_sum   'Tm3 Ta2 B4 Ru10 W1'
_cell_volume   282.38722802
_cell_formula_units_Z   1
loop_
 _symmetry_equiv_pos_site_id
 _symmetry_equiv_pos_as_xyz
  1  'x, y, z'
loop_
 _atom_site_type_symbol
 _atom_site_label
 _atom_site_symmetry_multiplicity
 _atom_site_fract_x
 _atom_site_fract_y
 _atom_site_fract_z
 _atom_site_occupancy
  Tm  Tm0  1  0.824823  0.675329  0.000000  1
  Tm  Tm1  1  0.175340  0.324233  0.000000  1
  Tm  Tm2  1  0.325026  0.825570  0.000000  1
  Ta  Ta3  1  0.676599  0.175381  0.000000  1
  Ta  Ta4  1  0.002598  0.998430  0.000000  1
  B  B5  1  0.623541  0.881019  0.000000  1
  B  B6  1  0.379319  0.122116  0.000000  1
  B  B7  1  0.117731  0.619592  0.000000  1
  B  B8  1  0.878183  0.377178  0.000000  1
  Ru  Ru9  1  0.569754  0.717983  0.500000  1
  Ru  Ru10  1  0.441280  0.283098  0.500000  1
  Ru  Ru11  1  0.070455  0.780446  0.500000  1
  Ru  Ru12  1  0.915759  0.214112  0.500000  1
  Ru  Ru13  1  0.283967  0.567561  0.500000  1
  Ru  Ru14  1  0.711273  0.419072  0.500000  1
  Ru  Ru15  1  0.221390  0.071677  0.500000  1
  Ru  Ru16  1  0.780015  0.939230  0.500000  1
  Ru  Ru17  1  0.508400  0.008774  0.500000  1
  Ru  Ru18  1  0.996826  0.496212  0.500000  1
  W  W19  1  0.497721  0.502988  0.000000  1
