# generated using pymatgen
data_TbU(Co5P3)2
_symmetry_space_group_name_H-M   'P 1'
_cell_length_a   3.65513300
_cell_length_b   10.31174800
_cell_length_c   11.70169200
_cell_angle_alpha   90.00000000
_cell_angle_beta   90.00000000
_cell_angle_gamma   90.00000000
_symmetry_Int_Tables_number   1
_chemical_formula_structural   TbU(Co5P3)2
_chemical_formula_sum   'Tb2 U2 Co20 P12'
_cell_volume   441.04625456
_cell_formula_units_Z   2
loop_
 _symmetry_equiv_pos_site_id
 _symmetry_equiv_pos_as_xyz
  1  'x, y, z'
loop_
 _atom_site_type_symbol
 _atom_site_label
 _atom_site_symmetry_multiplicity
 _atom_site_fract_x
 _atom_site_fract_y
 _atom_site_fract_z
 _atom_site_occupancy
  Tb  Tb0  1  0.750000  0.416437  0.296921  1
  Tb  Tb1  1  0.750000  0.083563  0.796921  1
  U  U2  1  0.250000  0.583877  0.702670  1
  U  U3  1  0.250000  0.916123  0.202670  1
  Co  Co4  1  0.250000  0.717553  0.991049  1
  Co  Co5  1  0.250000  0.782447  0.491049  1
  Co  Co6  1  0.750000  0.284041  0.006451  1
  Co  Co7  1  0.750000  0.215959  0.506451  1
  Co  Co8  1  0.250000  0.407560  0.488758  1
  Co  Co9  1  0.250000  0.092440  0.988758  1
  Co  Co10  1  0.750000  0.592159  0.516819  1
  Co  Co11  1  0.750000  0.907841  0.016819  1
  Co  Co12  1  0.250000  0.221130  0.176690  1
  Co  Co13  1  0.250000  0.278870  0.676690  1
  Co  Co14  1  0.750000  0.781482  0.824643  1
  Co  Co15  1  0.750000  0.718518  0.324643  1
  Co  Co16  1  0.250000  0.883073  0.698512  1
  Co  Co17  1  0.250000  0.616927  0.198512  1
  Co  Co18  1  0.750000  0.113879  0.299797  1
  Co  Co19  1  0.750000  0.386121  0.799797  1
  Co  Co20  1  0.250000  0.469815  0.929508  1
  Co  Co21  1  0.250000  0.030185  0.429508  1
  Co  Co22  1  0.750000  0.531844  0.067162  1
  Co  Co23  1  0.750000  0.968156  0.567162  1
  P  P24  1  0.250000  0.418287  0.111579  1
  P  P25  1  0.250000  0.081713  0.611579  1
  P  P26  1  0.750000  0.584264  0.887560  1
  P  P27  1  0.750000  0.915736  0.387560  1
  P  P28  1  0.250000  0.271693  0.870438  1
  P  P29  1  0.250000  0.228307  0.370438  1
  P  P30  1  0.750000  0.726617  0.131633  1
  P  P31  1  0.750000  0.773383  0.631633  1
  P  P32  1  0.250000  0.600975  0.391520  1
  P  P33  1  0.250000  0.899025  0.891520  1
  P  P34  1  0.750000  0.394455  0.608292  1
  P  P35  1  0.750000  0.105545  0.108292  1
