# generated using pymatgen
data_Rb6Na4TiGeP6
_symmetry_space_group_name_H-M   'P 1'
_cell_length_a   10.46811883
_cell_length_b   10.46811874
_cell_length_c   15.48643500
_cell_angle_alpha   90.00000000
_cell_angle_beta   90.00000000
_cell_angle_gamma   142.30220962
_symmetry_Int_Tables_number   1
_chemical_formula_structural   Rb6Na4TiGeP6
_chemical_formula_sum   'Rb12 Na8 Ti2 Ge2 P12'
_cell_volume   1037.72608245
_cell_formula_units_Z   2
loop_
 _symmetry_equiv_pos_site_id
 _symmetry_equiv_pos_as_xyz
  1  'x, y, z'
loop_
 _atom_site_type_symbol
 _atom_site_label
 _atom_site_symmetry_multiplicity
 _atom_site_fract_x
 _atom_site_fract_y
 _atom_site_fract_z
 _atom_site_occupancy
  Rb  Rb0  1  0.937803  0.604474  0.826256  1
  Rb  Rb1  1  0.562197  0.895526  0.326256  1
  Rb  Rb2  1  0.395526  0.062197  0.173744  1
  Rb  Rb3  1  0.056037  0.391842  0.174714  1
  Rb  Rb4  1  0.891842  0.556037  0.325286  1
  Rb  Rb5  1  0.443963  0.108158  0.674714  1
  Rb  Rb6  1  0.608158  0.943963  0.825286  1
  Rb  Rb7  1  0.271101  0.272390  0.316980  1
  Rb  Rb8  1  0.772390  0.771101  0.183020  1
  Rb  Rb9  1  0.228899  0.227610  0.816980  1
  Rb  Rb10  1  0.727610  0.728899  0.683020  1
  Rb  Rb11  1  0.104474  0.437803  0.673744  1
  Na  Na12  1  0.920532  0.079468  0.000000  1
  Na  Na13  1  0.579468  0.420532  0.500000  1
  Na  Na14  1  0.079872  0.920128  0.000000  1
  Na  Na15  1  0.420128  0.579872  0.500000  1
  Na  Na16  1  0.754658  0.245342  0.000000  1
  Na  Na17  1  0.745342  0.254658  0.500000  1
  Na  Na18  1  0.244770  0.755230  0.000000  1
  Na  Na19  1  0.255230  0.744770  0.500000  1
  Ti  Ti20  1  0.418215  0.581785  0.000000  1
  Ti  Ti21  1  0.081785  0.918215  0.500000  1
  Ge  Ge22  1  0.582936  0.417064  0.000000  1
  Ge  Ge23  1  0.917064  0.082936  0.500000  1
  P  P24  1  0.856335  0.552367  0.093380  1
  P  P25  1  0.447633  0.143665  0.906620  1
  P  P26  1  0.643665  0.947633  0.593380  1
  P  P27  1  0.948897  0.644001  0.592405  1
  P  P28  1  0.144001  0.448897  0.907595  1
  P  P29  1  0.551103  0.855999  0.092405  1
  P  P30  1  0.355999  0.051103  0.407595  1
  P  P31  1  0.192318  0.193785  0.585212  1
  P  P32  1  0.693785  0.692318  0.914788  1
  P  P33  1  0.307682  0.306215  0.085212  1
  P  P34  1  0.052367  0.356335  0.406620  1
  P  P35  1  0.806215  0.807682  0.414788  1
