# generated using pymatgen
data_Cs8Na4AcSm3Sb8
_symmetry_space_group_name_H-M   'P 1'
_cell_length_a   11.81136848
_cell_length_b   11.81136804
_cell_length_c   7.71501436
_cell_angle_alpha   89.96622053
_cell_angle_beta   90.03378462
_cell_angle_gamma   98.78356135
_symmetry_Int_Tables_number   1
_chemical_formula_structural   Cs8Na4AcSm3Sb8
_chemical_formula_sum   'Cs8 Na4 Ac1 Sm3 Sb8'
_cell_volume   1063.68643760
_cell_formula_units_Z   1
loop_
 _symmetry_equiv_pos_site_id
 _symmetry_equiv_pos_as_xyz
  1  'x, y, z'
loop_
 _atom_site_type_symbol
 _atom_site_label
 _atom_site_symmetry_multiplicity
 _atom_site_fract_x
 _atom_site_fract_y
 _atom_site_fract_z
 _atom_site_occupancy
  Cs  Cs0  1  0.069803  0.428873  0.249273  1
  Cs  Cs1  1  0.428873  0.069803  0.750727  1
  Cs  Cs2  1  0.932855  0.569233  0.750998  1
  Cs  Cs3  1  0.569233  0.932855  0.249002  1
  Cs  Cs4  1  0.677886  0.320259  0.210991  1
  Cs  Cs5  1  0.823259  0.177347  0.711996  1
  Cs  Cs6  1  0.320259  0.677886  0.789009  1
  Cs  Cs7  1  0.177347  0.823259  0.288004  1
  Na  Na8  1  0.380861  0.380861  0.000000  1
  Na  Na9  1  0.118129  0.118129  0.500000  1
  Na  Na10  1  0.618145  0.618145  0.000000  1
  Na  Na11  1  0.884324  0.884324  0.500000  1
  Ac  Ac12  1  0.632786  0.632786  0.500000  1
  Sm  Sm13  1  0.132197  0.132197  0.000000  1
  Sm  Sm14  1  0.366230  0.366230  0.500000  1
  Sm  Sm15  1  0.870319  0.870319  0.000000  1
  Sb  Sb16  1  0.852740  0.656523  0.239380  1
  Sb  Sb17  1  0.656523  0.852740  0.760620  1
  Sb  Sb18  1  0.157073  0.342158  0.749640  1
  Sb  Sb19  1  0.342158  0.157073  0.250360  1
  Sb  Sb20  1  0.905984  0.095893  0.214275  1
  Sb  Sb21  1  0.592048  0.395074  0.721637  1
  Sb  Sb22  1  0.095893  0.905984  0.785725  1
  Sb  Sb23  1  0.395074  0.592048  0.278363  1
