# generated using pymatgen
data_RbGeH9
_symmetry_space_group_name_H-M   'P 1'
_cell_length_a   8.97851600
_cell_length_b   8.97851518
_cell_length_c   7.50481500
_cell_angle_alpha   90.00000000
_cell_angle_beta   90.00000000
_cell_angle_gamma   120.00000939
_symmetry_Int_Tables_number   1
_chemical_formula_structural   RbGeH9
_chemical_formula_sum   'Rb3 Ge3 H27'
_cell_volume   523.93771756
_cell_formula_units_Z   3
loop_
 _symmetry_equiv_pos_site_id
 _symmetry_equiv_pos_as_xyz
  1  'x, y, z'
loop_
 _atom_site_type_symbol
 _atom_site_label
 _atom_site_symmetry_multiplicity
 _atom_site_fract_x
 _atom_site_fract_y
 _atom_site_fract_z
 _atom_site_occupancy
  Rb  Rb0  1  0.666667  0.333333  0.576041  1
  Rb  Rb1  1  0.333333  0.666667  0.257373  1
  Rb  Rb2  1  0.000000  0.000000  0.731441  1
  Ge  Ge3  1  0.666667  0.333333  0.080229  1
  Ge  Ge4  1  0.333333  0.666667  0.764025  1
  Ge  Ge5  1  0.000000  0.000000  0.223716  1
  H  H6  1  0.514021  0.185707  0.963183  1
  H  H7  1  0.671685  0.485979  0.963183  1
  H  H8  1  0.814293  0.328315  0.963183  1
  H  H9  1  0.633832  0.018076  0.165589  1
  H  H10  1  0.384243  0.366168  0.165589  1
  H  H11  1  0.981924  0.615757  0.165589  1
  H  H12  1  0.704490  0.057797  0.853657  1
  H  H13  1  0.353308  0.295510  0.853657  1
  H  H14  1  0.942203  0.646692  0.853657  1
  H  H15  1  0.180030  0.520390  0.643757  1
  H  H16  1  0.340359  0.819970  0.643757  1
  H  H17  1  0.479610  0.659641  0.643757  1
  H  H18  1  0.152728  0.005260  0.342336  1
  H  H19  1  0.852531  0.847272  0.342336  1
  H  H20  1  0.994740  0.147469  0.342336  1
  H  H21  1  0.312756  0.345505  0.817929  1
  H  H22  1  0.032749  0.687244  0.817929  1
  H  H23  1  0.654495  0.967251  0.817929  1
  H  H24  1  0.034261  0.712417  0.159250  1
  H  H25  1  0.678157  0.965739  0.159250  1
  H  H26  1  0.287583  0.321843  0.159250  1
  H  H27  1  0.330833  0.365817  0.527324  1
  H  H28  1  0.034984  0.669167  0.527324  1
  H  H29  1  0.634183  0.965016  0.527324  1
  H  H30  1  0.992803  0.704753  0.467038  1
  H  H31  1  0.711949  0.007197  0.467038  1
  H  H32  1  0.295247  0.288051  0.467038  1
