# generated using pymatgen
data_TbY11Co3Si8Ni
_symmetry_space_group_name_H-M   'P 1'
_cell_length_a   4.11844400
_cell_length_b   11.22363572
_cell_length_c   11.38359993
_cell_angle_alpha   90.01919543
_cell_angle_beta   90.00000000
_cell_angle_gamma   90.00000000
_symmetry_Int_Tables_number   1
_chemical_formula_structural   TbY11Co3Si8Ni
_chemical_formula_sum   'Tb1 Y11 Co3 Si8 Ni1'
_cell_volume   526.19452845
_cell_formula_units_Z   1
loop_
 _symmetry_equiv_pos_site_id
 _symmetry_equiv_pos_as_xyz
  1  'x, y, z'
loop_
 _atom_site_type_symbol
 _atom_site_label
 _atom_site_symmetry_multiplicity
 _atom_site_fract_x
 _atom_site_fract_y
 _atom_site_fract_z
 _atom_site_occupancy
  Tb  Tb0  1  0.750000  0.301305  0.783230  1
  Y  Y1  1  0.250000  0.060426  0.881869  1
  Y  Y2  1  0.250000  0.440520  0.382366  1
  Y  Y3  1  0.750000  0.941326  0.118296  1
  Y  Y4  1  0.750000  0.559257  0.618490  1
  Y  Y5  1  0.250000  0.124977  0.557770  1
  Y  Y6  1  0.250000  0.373092  0.058319  1
  Y  Y7  1  0.750000  0.873497  0.441691  1
  Y  Y8  1  0.750000  0.623934  0.943220  1
  Y  Y9  1  0.250000  0.803726  0.714307  1
  Y  Y10  1  0.250000  0.698504  0.217039  1
  Y  Y11  1  0.750000  0.198940  0.283156  1
  Co  Co12  1  0.250000  0.363888  0.631181  1
  Co  Co13  1  0.250000  0.135405  0.130181  1
  Co  Co14  1  0.750000  0.635001  0.369866  1
  Si  Si15  1  0.250000  0.815174  0.973586  1
  Si  Si16  1  0.250000  0.683858  0.473953  1
  Si  Si17  1  0.750000  0.183315  0.026165  1
  Si  Si18  1  0.750000  0.316195  0.526183  1
  Si  Si19  1  0.250000  0.495106  0.801141  1
  Si  Si20  1  0.250000  0.005961  0.300988  1
  Si  Si21  1  0.750000  0.505839  0.198985  1
  Si  Si22  1  0.750000  0.995386  0.697549  1
  Ni  Ni23  1  0.750000  0.865370  0.870467  1
