# generated using pymatgen
data_Tc(PtRh3)2
_symmetry_space_group_name_H-M   'P 1'
_cell_length_a   6.13398397
_cell_length_b   6.13398427
_cell_length_c   6.13398314
_cell_angle_alpha   95.79128139
_cell_angle_beta   95.64690970
_cell_angle_gamma   143.19672831
_symmetry_Int_Tables_number   1
_chemical_formula_structural   Tc(PtRh3)2
_chemical_formula_sum   'Tc1 Pt2 Rh6'
_cell_volume   131.19277891
_cell_formula_units_Z   1
loop_
 _symmetry_equiv_pos_site_id
 _symmetry_equiv_pos_as_xyz
  1  'x, y, z'
loop_
 _atom_site_type_symbol
 _atom_site_label
 _atom_site_symmetry_multiplicity
 _atom_site_fract_x
 _atom_site_fract_y
 _atom_site_fract_z
 _atom_site_occupancy
  Tc  Tc0  1  0.000000  0.000000  0.000000  1
  Pt  Pt1  1  0.669836  0.000000  0.669836  1
  Pt  Pt2  1  0.330164  0.000000  0.330164  1
  Rh  Rh3  1  0.339168  0.337878  0.677041  1
  Rh  Rh4  1  0.660832  0.662122  0.322959  1
  Rh  Rh5  1  0.660837  0.337878  0.998711  1
  Rh  Rh6  1  0.339163  0.662122  0.001289  1
  Rh  Rh7  1  0.000002  0.325091  0.325089  1
  Rh  Rh8  1  0.999998  0.674909  0.674911  1
