# generated using pymatgen
data_Er5VSbO12
_symmetry_space_group_name_H-M   'P 1'
_cell_length_a   6.79558003
_cell_length_b   6.79558000
_cell_length_c   7.24290315
_cell_angle_alpha   74.42190098
_cell_angle_beta   74.42190035
_cell_angle_gamma   51.42852265
_symmetry_Int_Tables_number   1
_chemical_formula_structural   Er5VSbO12
_chemical_formula_sum   'Er5 V1 Sb1 O12'
_cell_volume   249.61724728
_cell_formula_units_Z   1
loop_
 _symmetry_equiv_pos_site_id
 _symmetry_equiv_pos_as_xyz
  1  'x, y, z'
loop_
 _atom_site_type_symbol
 _atom_site_label
 _atom_site_symmetry_multiplicity
 _atom_site_fract_x
 _atom_site_fract_y
 _atom_site_fract_z
 _atom_site_occupancy
  Er  Er0  1  0.306374  0.295473  0.362332  1
  Er  Er1  1  0.704527  0.693626  0.637668  1
  Er  Er2  1  0.308193  0.306159  0.827485  1
  Er  Er3  1  0.693841  0.691807  0.172515  1
  Er  Er4  1  0.999869  0.000131  0.500000  1
  V  V5  1  0.751401  0.248599  0.000000  1
  Sb  Sb6  1  0.239883  0.760117  0.000000  1
  O  O7  1  0.896859  0.423290  0.918264  1
  O  O8  1  0.434662  0.901965  0.915490  1
  O  O9  1  0.098035  0.565338  0.084510  1
  O  O10  1  0.576710  0.103141  0.081736  1
  O  O11  1  0.099347  0.594140  0.574578  1
  O  O12  1  0.598958  0.094508  0.574150  1
  O  O13  1  0.905492  0.401042  0.425850  1
  O  O14  1  0.405860  0.900653  0.425422  1
  O  O15  1  0.995587  0.005043  0.812215  1
  O  O16  1  0.994957  0.004413  0.187785  1
  O  O17  1  0.494366  0.504920  0.810938  1
  O  O18  1  0.495080  0.505634  0.189062  1
