# generated using pymatgen
data_Lu2Ni7HgB2
_symmetry_space_group_name_H-M   'P 1'
_cell_length_a   4.97430500
_cell_length_b   4.97430519
_cell_length_c   14.16734200
_cell_angle_alpha   90.00000000
_cell_angle_beta   90.00000000
_cell_angle_gamma   119.99999211
_symmetry_Int_Tables_number   1
_chemical_formula_structural   Lu2Ni7HgB2
_chemical_formula_sum   'Lu4 Ni14 Hg2 B4'
_cell_volume   303.58749699
_cell_formula_units_Z   2
loop_
 _symmetry_equiv_pos_site_id
 _symmetry_equiv_pos_as_xyz
  1  'x, y, z'
loop_
 _atom_site_type_symbol
 _atom_site_label
 _atom_site_symmetry_multiplicity
 _atom_site_fract_x
 _atom_site_fract_y
 _atom_site_fract_z
 _atom_site_occupancy
  Lu  Lu0  1  0.666667  0.333333  0.471082  1
  Lu  Lu1  1  0.333333  0.666667  0.971082  1
  Lu  Lu2  1  0.333333  0.666667  0.743364  1
  Lu  Lu3  1  0.666667  0.333333  0.243364  1
  Ni  Ni4  1  0.000000  0.000000  0.999923  1
  Ni  Ni5  1  0.000000  0.000000  0.499923  1
  Ni  Ni6  1  0.165756  0.331511  0.148284  1
  Ni  Ni7  1  0.834244  0.668489  0.648284  1
  Ni  Ni8  1  0.668489  0.834244  0.148284  1
  Ni  Ni9  1  0.165756  0.834244  0.148284  1
  Ni  Ni10  1  0.834244  0.165756  0.648284  1
  Ni  Ni11  1  0.331511  0.165756  0.648284  1
  Ni  Ni12  1  0.834128  0.668257  0.851850  1
  Ni  Ni13  1  0.834128  0.165872  0.851850  1
  Ni  Ni14  1  0.331743  0.165872  0.851850  1
  Ni  Ni15  1  0.668257  0.834128  0.351850  1
  Ni  Ni16  1  0.165872  0.834128  0.351850  1
  Ni  Ni17  1  0.165872  0.331743  0.351850  1
  Hg  Hg18  1  0.333333  0.666667  0.532574  1
  Hg  Hg19  1  0.666667  0.333333  0.032574  1
  B  B20  1  0.333333  0.666667  0.250231  1
  B  B21  1  0.666667  0.333333  0.750231  1
  B  B22  1  0.000000  0.000000  0.252424  1
  B  B23  1  0.000000  0.000000  0.752424  1
