# generated using pymatgen
data_Lu4Co3Os4Ru
_symmetry_space_group_name_H-M   'P 1'
_cell_length_a   5.12677001
_cell_length_b   5.11444548
_cell_length_c   8.68941200
_cell_angle_alpha   90.00000000
_cell_angle_beta   90.00388918
_cell_angle_gamma   119.92049286
_symmetry_Int_Tables_number   1
_chemical_formula_structural   Lu4Co3Os4Ru
_chemical_formula_sum   'Lu4 Co3 Os4 Ru1'
_cell_volume   197.47439559
_cell_formula_units_Z   1
loop_
 _symmetry_equiv_pos_site_id
 _symmetry_equiv_pos_as_xyz
  1  'x, y, z'
loop_
 _atom_site_type_symbol
 _atom_site_label
 _atom_site_symmetry_multiplicity
 _atom_site_fract_x
 _atom_site_fract_y
 _atom_site_fract_z
 _atom_site_occupancy
  Lu  Lu0  1  0.326960  0.663480  0.436729  1
  Lu  Lu1  1  0.661400  0.330699  0.567458  1
  Lu  Lu2  1  0.661005  0.330503  0.932004  1
  Lu  Lu3  1  0.326868  0.663435  0.062859  1
  Co  Co4  1  0.185072  0.350557  0.751985  1
  Co  Co5  1  0.185072  0.834516  0.751985  1
  Co  Co6  1  0.344850  0.172423  0.248112  1
  Os  Os7  1  0.831384  0.659921  0.249465  1
  Os  Os8  1  0.668774  0.834387  0.750249  1
  Os  Os9  1  0.989464  0.994732  0.994353  1
  Os  Os10  1  0.831384  0.171461  0.249465  1
  Ru  Ru11  1  0.987768  0.993884  0.505337  1
