# generated using pymatgen
data_Er2LuIn3CoAu2
_symmetry_space_group_name_H-M   'P 1'
_cell_length_a   7.70188704
_cell_length_b   7.70188623
_cell_length_c   3.76669200
_cell_angle_alpha   90.00000000
_cell_angle_beta   90.00000000
_cell_angle_gamma   119.78914113
_symmetry_Int_Tables_number   1
_chemical_formula_structural   Er2LuIn3CoAu2
_chemical_formula_sum   'Er2 Lu1 In3 Co1 Au2'
_cell_volume   193.91162152
_cell_formula_units_Z   1
loop_
 _symmetry_equiv_pos_site_id
 _symmetry_equiv_pos_as_xyz
  1  'x, y, z'
loop_
 _atom_site_type_symbol
 _atom_site_label
 _atom_site_symmetry_multiplicity
 _atom_site_fract_x
 _atom_site_fract_y
 _atom_site_fract_z
 _atom_site_occupancy
  Er  Er0  1  0.400554  0.999716  0.500000  1
  Er  Er1  1  0.999716  0.400554  0.500000  1
  Lu  Lu2  1  0.600982  0.600982  0.500000  1
  In  In3  1  0.752539  0.999519  0.000000  1
  In  In4  1  0.999519  0.752539  0.000000  1
  In  In5  1  0.247275  0.247275  0.000000  1
  Co  Co6  1  0.998958  0.998958  0.500000  1
  Au  Au7  1  0.335030  0.665427  0.000000  1
  Au  Au8  1  0.665427  0.335030  0.000000  1
