# generated using pymatgen
data_Dy7Er3(InSb2)2
_symmetry_space_group_name_H-M   'P 1'
_cell_length_a   8.96597904
_cell_length_b   8.94642722
_cell_length_c   6.45488510
_cell_angle_alpha   89.98008332
_cell_angle_beta   90.00994037
_cell_angle_gamma   119.92788853
_symmetry_Int_Tables_number   1
_chemical_formula_structural   Dy7Er3(InSb2)2
_chemical_formula_sum   'Dy7 Er3 In2 Sb4'
_cell_volume   448.72637072
_cell_formula_units_Z   1
loop_
 _symmetry_equiv_pos_site_id
 _symmetry_equiv_pos_as_xyz
  1  'x, y, z'
loop_
 _atom_site_type_symbol
 _atom_site_label
 _atom_site_symmetry_multiplicity
 _atom_site_fract_x
 _atom_site_fract_y
 _atom_site_fract_z
 _atom_site_occupancy
  Dy  Dy0  1  0.002236  0.760208  0.750043  1
  Dy  Dy1  1  0.002236  0.242029  0.249957  1
  Dy  Dy2  1  0.757829  0.759310  0.249952  1
  Dy  Dy3  1  0.757829  0.998520  0.750048  1
  Dy  Dy4  1  0.241324  0.237772  0.750068  1
  Dy  Dy5  1  0.241324  0.003553  0.249932  1
  Dy  Dy6  1  0.334003  0.667002  0.500000  1
  Er  Er7  1  0.663367  0.331683  0.000000  1
  Er  Er8  1  0.663240  0.331619  0.500000  1
  Er  Er9  1  0.334123  0.667062  0.000000  1
  In  In10  1  0.394624  0.998949  0.750296  1
  In  In11  1  0.394624  0.395675  0.249704  1
  Sb  Sb12  1  0.998812  0.607406  0.249765  1
  Sb  Sb13  1  0.998812  0.391406  0.750235  1
  Sb  Sb14  1  0.607807  0.606917  0.750261  1
  Sb  Sb15  1  0.607807  0.000890  0.249739  1
