# generated using pymatgen
data_Ti4Co4SiP3
_symmetry_space_group_name_H-M   'P 1'
_cell_length_a   3.57875600
_cell_length_b   6.06609902
_cell_length_c   6.88904503
_cell_angle_alpha   90.00986955
_cell_angle_beta   90.00000000
_cell_angle_gamma   90.00000000
_symmetry_Int_Tables_number   1
_chemical_formula_structural   Ti4Co4SiP3
_chemical_formula_sum   'Ti4 Co4 Si1 P3'
_cell_volume   149.55488436
_cell_formula_units_Z   1
loop_
 _symmetry_equiv_pos_site_id
 _symmetry_equiv_pos_as_xyz
  1  'x, y, z'
loop_
 _atom_site_type_symbol
 _atom_site_label
 _atom_site_symmetry_multiplicity
 _atom_site_fract_x
 _atom_site_fract_y
 _atom_site_fract_z
 _atom_site_occupancy
  Ti  Ti0  1  0.250000  0.976885  0.321211  1
  Ti  Ti1  1  0.250000  0.477955  0.182090  1
  Ti  Ti2  1  0.750000  0.021337  0.675807  1
  Ti  Ti3  1  0.750000  0.528729  0.820137  1
  Co  Co4  1  0.250000  0.853358  0.938948  1
  Co  Co5  1  0.250000  0.360750  0.557491  1
  Co  Co6  1  0.750000  0.138944  0.066452  1
  Co  Co7  1  0.750000  0.642327  0.437008  1
  Si  Si8  1  0.250000  0.230269  0.878985  1
  P  P9  1  0.250000  0.731490  0.621100  1
  P  P10  1  0.750000  0.770087  0.121609  1
  P  P11  1  0.750000  0.267868  0.379163  1
