# generated using pymatgen
data_CePm2Ru3
_symmetry_space_group_name_H-M   'P 1'
_cell_length_a   5.35234316
_cell_length_b   5.35234259
_cell_length_c   5.35234222
_cell_angle_alpha   66.82254151
_cell_angle_beta   66.82254606
_cell_angle_gamma   66.82254141
_symmetry_Int_Tables_number   1
_chemical_formula_structural   CePm2Ru3
_chemical_formula_sum   'Ce1 Pm2 Ru3'
_cell_volume   124.30449825
_cell_formula_units_Z   1
loop_
 _symmetry_equiv_pos_site_id
 _symmetry_equiv_pos_as_xyz
  1  'x, y, z'
loop_
 _atom_site_type_symbol
 _atom_site_label
 _atom_site_symmetry_multiplicity
 _atom_site_fract_x
 _atom_site_fract_y
 _atom_site_fract_z
 _atom_site_occupancy
  Ce  Ce0  1  0.125000  0.125000  0.125000  1
  Pm  Pm1  1  0.749443  0.749443  0.749443  1
  Pm  Pm2  1  0.500557  0.500557  0.500557  1
  Ru  Ru3  1  0.625000  0.125000  0.125000  1
  Ru  Ru4  1  0.125000  0.625000  0.125000  1
  Ru  Ru5  1  0.125000  0.125000  0.625000  1
