# generated using pymatgen
data_HfSc2CoSn3Ir2
_symmetry_space_group_name_H-M   'P 1'
_cell_length_a   7.56449888
_cell_length_b   7.57903969
_cell_length_c   3.33323600
_cell_angle_alpha   90.00000000
_cell_angle_beta   90.00000000
_cell_angle_gamma   120.06359478
_symmetry_Int_Tables_number   1
_chemical_formula_structural   HfSc2CoSn3Ir2
_chemical_formula_sum   'Hf1 Sc2 Co1 Sn3 Ir2'
_cell_volume   165.39119188
_cell_formula_units_Z   1
loop_
 _symmetry_equiv_pos_site_id
 _symmetry_equiv_pos_as_xyz
  1  'x, y, z'
loop_
 _atom_site_type_symbol
 _atom_site_label
 _atom_site_symmetry_multiplicity
 _atom_site_fract_x
 _atom_site_fract_y
 _atom_site_fract_z
 _atom_site_occupancy
  Hf  Hf0  1  0.000000  0.610118  0.500000  1
  Sc  Sc1  1  0.391600  0.392507  0.500000  1
  Sc  Sc2  1  0.608400  0.000908  0.500000  1
  Co  Co3  1  0.000000  0.989555  0.500000  1
  Sn  Sn4  1  0.726368  0.733034  0.000000  1
  Sn  Sn5  1  0.273632  0.006666  0.000000  1
  Sn  Sn6  1  0.000000  0.260047  0.000000  1
  Ir  Ir7  1  0.676991  0.342077  0.000000  1
  Ir  Ir8  1  0.323009  0.665086  0.000000  1
