# generated using pymatgen
data_Li8Tb8GaBi7
_symmetry_space_group_name_H-M   'P 1'
_cell_length_a   9.76250900
_cell_length_b   9.76250942
_cell_length_c   7.05633400
_cell_angle_alpha   90.00000000
_cell_angle_beta   90.00000000
_cell_angle_gamma   120.00000195
_symmetry_Int_Tables_number   1
_chemical_formula_structural   Li8Tb8GaBi7
_chemical_formula_sum   'Li8 Tb8 Ga1 Bi7'
_cell_volume   582.41515309
_cell_formula_units_Z   1
loop_
 _symmetry_equiv_pos_site_id
 _symmetry_equiv_pos_as_xyz
  1  'x, y, z'
loop_
 _atom_site_type_symbol
 _atom_site_label
 _atom_site_symmetry_multiplicity
 _atom_site_fract_x
 _atom_site_fract_y
 _atom_site_fract_z
 _atom_site_occupancy
  Li  Li0  1  0.167800  0.335601  0.272414  1
  Li  Li1  1  0.167801  0.832199  0.272416  1
  Li  Li2  1  0.664398  0.832198  0.272414  1
  Li  Li3  1  0.828339  0.656679  0.770750  1
  Li  Li4  1  0.828340  0.171660  0.770751  1
  Li  Li5  1  0.343322  0.171662  0.770751  1
  Li  Li6  1  0.333332  0.666666  0.692269  1
  Li  Li7  1  0.666663  0.333336  0.193821  1
  Tb  Tb8  1  0.514774  0.029548  0.500894  1
  Tb  Tb9  1  0.514774  0.485227  0.500893  1
  Tb  Tb10  1  0.970453  0.485226  0.500894  1
  Tb  Tb11  1  0.498630  0.997260  0.990784  1
  Tb  Tb12  1  0.498630  0.501371  0.990784  1
  Tb  Tb13  1  0.002741  0.501370  0.990785  1
  Tb  Tb14  1  0.000001  0.000000  0.503640  1
  Tb  Tb15  1  0.000000  0.000000  0.001226  1
  Ga  Ga16  1  0.666667  0.333334  0.753714  1
  Bi  Bi17  1  0.166211  0.332423  0.739864  1
  Bi  Bi18  1  0.166213  0.833788  0.739866  1
  Bi  Bi19  1  0.667576  0.833789  0.739863  1
  Bi  Bi20  1  0.833465  0.666931  0.239355  1
  Bi  Bi21  1  0.833465  0.166533  0.239355  1
  Bi  Bi22  1  0.333069  0.166534  0.239355  1
  Bi  Bi23  1  0.333334  0.666667  0.255115  1
