# generated using pymatgen
data_Lu12Si12OsRu3
_symmetry_space_group_name_H-M   'P 1'
_cell_length_a   4.12200800
_cell_length_b   10.57747286
_cell_length_c   12.11952413
_cell_angle_alpha   90.03151553
_cell_angle_beta   90.00000000
_cell_angle_gamma   90.00000000
_symmetry_Int_Tables_number   1
_chemical_formula_structural   Lu12Si12OsRu3
_chemical_formula_sum   'Lu12 Si12 Os1 Ru3'
_cell_volume   528.41635622
_cell_formula_units_Z   1
loop_
 _symmetry_equiv_pos_site_id
 _symmetry_equiv_pos_as_xyz
  1  'x, y, z'
loop_
 _atom_site_type_symbol
 _atom_site_label
 _atom_site_symmetry_multiplicity
 _atom_site_fract_x
 _atom_site_fract_y
 _atom_site_fract_z
 _atom_site_occupancy
  Lu  Lu0  1  0.250000  0.879246  0.019885  1
  Lu  Lu1  1  0.250000  0.620115  0.520009  1
  Lu  Lu2  1  0.750000  0.120549  0.980019  1
  Lu  Lu3  1  0.750000  0.379259  0.480738  1
  Lu  Lu4  1  0.250000  0.921453  0.605063  1
  Lu  Lu5  1  0.250000  0.578363  0.105010  1
  Lu  Lu6  1  0.750000  0.078568  0.395207  1
  Lu  Lu7  1  0.750000  0.421443  0.894001  1
  Lu  Lu8  1  0.250000  0.661821  0.799465  1
  Lu  Lu9  1  0.250000  0.838857  0.299722  1
  Lu  Lu10  1  0.750000  0.338088  0.200206  1
  Lu  Lu11  1  0.750000  0.160621  0.700522  1
  Si  Si12  1  0.250000  0.013670  0.822117  1
  Si  Si13  1  0.250000  0.485906  0.321719  1
  Si  Si14  1  0.750000  0.986083  0.178043  1
  Si  Si15  1  0.750000  0.513119  0.678278  1
  Si  Si16  1  0.250000  0.249784  0.841510  1
  Si  Si17  1  0.250000  0.250143  0.342545  1
  Si  Si18  1  0.750000  0.749822  0.158059  1
  Si  Si19  1  0.750000  0.749820  0.657523  1
  Si  Si20  1  0.250000  0.199779  0.544814  1
  Si  Si21  1  0.250000  0.301789  0.043122  1
  Si  Si22  1  0.750000  0.801088  0.456193  1
  Si  Si23  1  0.750000  0.698190  0.956401  1
  Os  Os24  1  0.250000  0.391005  0.679113  1
  Ru  Ru25  1  0.250000  0.110872  0.179668  1
  Ru  Ru26  1  0.750000  0.609812  0.320994  1
  Ru  Ru27  1  0.750000  0.890736  0.820057  1
