# generated using pymatgen
data_Cs4Fe3CoSe8
_symmetry_space_group_name_H-M   'P 1'
_cell_length_a   5.61100639
_cell_length_b   7.48067637
_cell_length_c   12.90279738
_cell_angle_alpha   89.70096068
_cell_angle_beta   83.50096667
_cell_angle_gamma   79.32334017
_symmetry_Int_Tables_number   1
_chemical_formula_structural   Cs4Fe3CoSe8
_chemical_formula_sum   'Cs4 Fe3 Co1 Se8'
_cell_volume   528.71899638
_cell_formula_units_Z   1
loop_
 _symmetry_equiv_pos_site_id
 _symmetry_equiv_pos_as_xyz
  1  'x, y, z'
loop_
 _atom_site_type_symbol
 _atom_site_label
 _atom_site_symmetry_multiplicity
 _atom_site_fract_x
 _atom_site_fract_y
 _atom_site_fract_z
 _atom_site_occupancy
  Cs  Cs0  1  0.075207  0.026226  0.680106  1
  Cs  Cs1  1  0.571306  0.534452  0.173560  1
  Cs  Cs2  1  0.427393  0.465071  0.826418  1
  Cs  Cs3  1  0.926033  0.974064  0.320036  1
  Fe  Fe4  1  0.252304  0.497630  0.499099  1
  Fe  Fe5  1  0.747531  0.502956  0.501128  1
  Fe  Fe6  1  0.250038  0.000419  0.000066  1
  Co  Co7  1  0.750000  0.999421  0.999718  1
  Se  Se8  1  0.953758  0.548588  0.641456  1
  Se  Se9  1  0.448382  0.064805  0.141872  1
  Se  Se10  1  0.948195  0.243811  0.961120  1
  Se  Se11  1  0.450250  0.739687  0.454903  1
  Se  Se12  1  0.554368  0.933550  0.858072  1
  Se  Se13  1  0.045003  0.452523  0.358697  1
  Se  Se14  1  0.550416  0.260895  0.545434  1
  Se  Se15  1  0.049817  0.755899  0.038314  1
