# generated using pymatgen
data_NdDy(TcO4)6
_symmetry_space_group_name_H-M   'P 1'
_cell_length_a   10.10214800
_cell_length_b   10.10214790
_cell_length_c   6.31265500
_cell_angle_alpha   90.00000000
_cell_angle_beta   90.00000000
_cell_angle_gamma   120.00000247
_symmetry_Int_Tables_number   1
_chemical_formula_structural   NdDy(TcO4)6
_chemical_formula_sum   'Nd1 Dy1 Tc6 O24'
_cell_volume   557.91768142
_cell_formula_units_Z   1
loop_
 _symmetry_equiv_pos_site_id
 _symmetry_equiv_pos_as_xyz
  1  'x, y, z'
loop_
 _atom_site_type_symbol
 _atom_site_label
 _atom_site_symmetry_multiplicity
 _atom_site_fract_x
 _atom_site_fract_y
 _atom_site_fract_z
 _atom_site_occupancy
  Nd  Nd0  1  0.333333  0.666667  0.250000  1
  Dy  Dy1  1  0.666667  0.333333  0.750000  1
  Tc  Tc2  1  0.609732  0.702337  0.750000  1
  Tc  Tc3  1  0.092605  0.390268  0.750000  1
  Tc  Tc4  1  0.297663  0.907395  0.750000  1
  Tc  Tc5  1  0.398560  0.296687  0.250000  1
  Tc  Tc6  1  0.898128  0.601440  0.250000  1
  Tc  Tc7  1  0.703313  0.101872  0.250000  1
  O  O8  1  0.564481  0.511167  0.750000  1
  O  O9  1  0.946685  0.435519  0.750000  1
  O  O10  1  0.488833  0.053315  0.750000  1
  O  O11  1  0.442022  0.486911  0.250000  1
  O  O12  1  0.044891  0.557978  0.250000  1
  O  O13  1  0.513089  0.955109  0.250000  1
  O  O14  1  0.476646  0.261302  0.022585  1
  O  O15  1  0.784655  0.523354  0.022585  1
  O  O16  1  0.738698  0.215345  0.022585  1
  O  O17  1  0.532173  0.740472  0.524913  1
  O  O18  1  0.208300  0.467827  0.524913  1
  O  O19  1  0.259528  0.791700  0.524913  1
  O  O20  1  0.532173  0.740472  0.975087  1
  O  O21  1  0.208300  0.467827  0.975087  1
  O  O22  1  0.259528  0.791700  0.975087  1
  O  O23  1  0.476646  0.261302  0.477415  1
  O  O24  1  0.784655  0.523354  0.477415  1
  O  O25  1  0.738698  0.215345  0.477415  1
  O  O26  1  0.803047  0.818899  0.750000  1
  O  O27  1  0.015852  0.196953  0.750000  1
  O  O28  1  0.181101  0.984148  0.750000  1
  O  O29  1  0.205280  0.179352  0.250000  1
  O  O30  1  0.974072  0.794720  0.250000  1
  O  O31  1  0.820648  0.025928  0.250000  1
