# generated using pymatgen
data_CaZr(SO4)3
_symmetry_space_group_name_H-M   'P 1'
_cell_length_a   8.90563580
_cell_length_b   8.90563731
_cell_length_c   9.42744500
_cell_angle_alpha   118.18532242
_cell_angle_beta   61.81467238
_cell_angle_gamma   119.99999469
_symmetry_Int_Tables_number   1
_chemical_formula_structural   CaZr(SO4)3
_chemical_formula_sum   'Ca2 Zr2 S6 O24'
_cell_volume   542.73996003
_cell_formula_units_Z   2
loop_
 _symmetry_equiv_pos_site_id
 _symmetry_equiv_pos_as_xyz
  1  'x, y, z'
loop_
 _atom_site_type_symbol
 _atom_site_label
 _atom_site_symmetry_multiplicity
 _atom_site_fract_x
 _atom_site_fract_y
 _atom_site_fract_z
 _atom_site_occupancy
  Ca  Ca0  1  0.144407  0.855593  0.566776  1
  Ca  Ca1  1  0.357149  0.642849  0.928551  1
  Zr  Zr2  1  0.645192  0.354807  0.064420  1
  Zr  Zr3  1  0.851513  0.148487  0.445460  1
  S  S4  1  0.253465  0.457625  0.249678  1
  S  S5  1  0.542376  0.045517  0.249675  1
  S  S6  1  0.954483  0.746535  0.249676  1
  S  S7  1  0.032289  0.248015  0.749240  1
  S  S8  1  0.466486  0.967709  0.749239  1
  S  S9  1  0.751985  0.533515  0.749241  1
  O  O10  1  0.105430  0.730494  0.094011  1
  O  O11  1  0.269508  0.468950  0.094013  1
  O  O12  1  0.531052  0.894568  0.094012  1
  O  O13  1  0.394935  0.388351  0.216107  1
  O  O14  1  0.611648  0.222688  0.216105  1
  O  O15  1  0.777310  0.605065  0.216106  1
  O  O16  1  0.071856  0.312722  0.301890  1
  O  O17  1  0.687280  0.061026  0.301889  1
  O  O18  1  0.938973  0.928143  0.301889  1
  O  O19  1  0.271328  0.628171  0.388064  1
  O  O20  1  0.371829  0.031218  0.388060  1
  O  O21  1  0.968782  0.728671  0.388060  1
  O  O22  1  0.006657  0.255917  0.605753  1
  O  O23  1  0.643507  0.993342  0.605751  1
  O  O24  1  0.744084  0.356494  0.605754  1
  O  O25  1  0.993270  0.060114  0.727199  1
  O  O26  1  0.339643  0.006726  0.727199  1
  O  O27  1  0.939886  0.660358  0.727201  1
  O  O28  1  0.214997  0.370255  0.757211  1
  O  O29  1  0.398050  0.785003  0.757211  1
  O  O30  1  0.629742  0.601951  0.757214  1
  O  O31  1  0.513489  0.106165  0.909117  1
  O  O32  1  0.683559  0.486511  0.909119  1
  O  O33  1  0.893835  0.316443  0.909117  1
