# generated using pymatgen
data_LaSmEr(Si3Pd10)2
_symmetry_space_group_name_H-M   'P 1'
_cell_length_a   8.74923437
_cell_length_b   8.74924691
_cell_length_c   8.74922900
_cell_angle_alpha   59.99998760
_cell_angle_beta   59.99995767
_cell_angle_gamma   59.99987136
_symmetry_Int_Tables_number   1
_chemical_formula_structural   LaSmEr(Si3Pd10)2
_chemical_formula_sum   'La1 Sm1 Er1 Si6 Pd20'
_cell_volume   473.58169479
_cell_formula_units_Z   1
loop_
 _symmetry_equiv_pos_site_id
 _symmetry_equiv_pos_as_xyz
  1  'x, y, z'
loop_
 _atom_site_type_symbol
 _atom_site_label
 _atom_site_symmetry_multiplicity
 _atom_site_fract_x
 _atom_site_fract_y
 _atom_site_fract_z
 _atom_site_occupancy
  La  La0  1  0.250023  0.250008  0.249976  1
  Sm  Sm1  1  0.749995  0.750000  0.750001  1
  Er  Er2  1  0.000013  0.999985  0.999999  1
  Si  Si3  1  0.733260  0.266737  0.266739  1
  Si  Si4  1  0.266735  0.733262  0.733264  1
  Si  Si5  1  0.266737  0.733263  0.266738  1
  Si  Si6  1  0.733260  0.266737  0.733263  1
  Si  Si7  1  0.266737  0.266738  0.733263  1
  Si  Si8  1  0.733260  0.733263  0.266740  1
  Pd  Pd9  1  0.345427  0.999649  0.999653  1
  Pd  Pd10  1  0.655272  0.999646  0.999653  1
  Pd  Pd11  1  0.999650  0.345424  0.655276  1
  Pd  Pd12  1  0.999647  0.655280  0.345424  1
  Pd  Pd13  1  0.999644  0.345428  0.999652  1
  Pd  Pd14  1  0.655279  0.999647  0.345426  1
  Pd  Pd15  1  0.999646  0.655277  0.999651  1
  Pd  Pd16  1  0.345424  0.999646  0.655281  1
  Pd  Pd17  1  0.999647  0.999645  0.345425  1
  Pd  Pd18  1  0.999646  0.999651  0.655281  1
  Pd  Pd19  1  0.655280  0.345428  0.999646  1
  Pd  Pd20  1  0.345423  0.655279  0.999646  1
  Pd  Pd21  1  0.385192  0.385194  0.385197  1
  Pd  Pd22  1  0.615293  0.615290  0.615291  1
  Pd  Pd23  1  0.385192  0.385194  0.844417  1
  Pd  Pd24  1  0.385194  0.844418  0.385195  1
  Pd  Pd25  1  0.615290  0.615292  0.154126  1
  Pd  Pd26  1  0.615292  0.154127  0.615290  1
  Pd  Pd27  1  0.844418  0.385194  0.385197  1
  Pd  Pd28  1  0.154125  0.615296  0.615288  1
