# generated using pymatgen
data_Rb3Hg(BPt3)2
_symmetry_space_group_name_H-M   'P 1'
_cell_length_a   8.74997563
_cell_length_b   8.74997574
_cell_length_c   8.74997650
_cell_angle_alpha   38.61219008
_cell_angle_beta   38.61218967
_cell_angle_gamma   38.61219263
_symmetry_Int_Tables_number   1
_chemical_formula_structural   Rb3Hg(BPt3)2
_chemical_formula_sum   'Rb3 Hg1 B2 Pt6'
_cell_volume   234.45010044
_cell_formula_units_Z   1
loop_
 _symmetry_equiv_pos_site_id
 _symmetry_equiv_pos_as_xyz
  1  'x, y, z'
loop_
 _atom_site_type_symbol
 _atom_site_label
 _atom_site_symmetry_multiplicity
 _atom_site_fract_x
 _atom_site_fract_y
 _atom_site_fract_z
 _atom_site_occupancy
  Rb  Rb0  1  0.860172  0.860172  0.860172  1
  Rb  Rb1  1  0.139828  0.139828  0.139828  1
  Rb  Rb2  1  0.000000  0.000000  0.000000  1
  Hg  Hg3  1  0.500000  0.500000  0.500000  1
  B  B4  1  0.668820  0.668820  0.668820  1
  B  B5  1  0.331180  0.331180  0.331180  1
  Pt  Pt6  1  0.440836  0.938568  0.440836  1
  Pt  Pt7  1  0.440836  0.440836  0.938568  1
  Pt  Pt8  1  0.938568  0.440836  0.440836  1
  Pt  Pt9  1  0.559164  0.061432  0.559164  1
  Pt  Pt10  1  0.559164  0.559164  0.061432  1
  Pt  Pt11  1  0.061432  0.559164  0.559164  1
