# generated using pymatgen
data_Tm2Be2AlIr5
_symmetry_space_group_name_H-M   'P 1'
_cell_length_a   9.58791600
_cell_length_b   9.58791600
_cell_length_c   3.20511700
_cell_angle_alpha   90.00000000
_cell_angle_beta   90.00000000
_cell_angle_gamma   90.00000000
_symmetry_Int_Tables_number   1
_chemical_formula_structural   Tm2Be2AlIr5
_chemical_formula_sum   'Tm4 Be4 Al2 Ir10'
_cell_volume   294.64042257
_cell_formula_units_Z   2
loop_
 _symmetry_equiv_pos_site_id
 _symmetry_equiv_pos_as_xyz
  1  'x, y, z'
loop_
 _atom_site_type_symbol
 _atom_site_label
 _atom_site_symmetry_multiplicity
 _atom_site_fract_x
 _atom_site_fract_y
 _atom_site_fract_z
 _atom_site_occupancy
  Tm  Tm0  1  0.676191  0.176191  0.000000  1
  Tm  Tm1  1  0.323809  0.823809  0.000000  1
  Tm  Tm2  1  0.176191  0.323809  0.000000  1
  Tm  Tm3  1  0.823809  0.676191  0.000000  1
  Be  Be4  1  0.122895  0.622895  0.000000  1
  Be  Be5  1  0.877105  0.377105  0.000000  1
  Be  Be6  1  0.622895  0.877105  0.000000  1
  Be  Be7  1  0.377105  0.122895  0.000000  1
  Al  Al8  1  0.000000  0.000000  0.000000  1
  Al  Al9  1  0.500000  0.500000  0.000000  1
  Ir  Ir10  1  0.211031  0.066517  0.500000  1
  Ir  Ir11  1  0.788969  0.933483  0.500000  1
  Ir  Ir12  1  0.066517  0.788969  0.500000  1
  Ir  Ir13  1  0.711031  0.433483  0.500000  1
  Ir  Ir14  1  0.933483  0.211031  0.500000  1
  Ir  Ir15  1  0.288969  0.566517  0.500000  1
  Ir  Ir16  1  0.566517  0.711031  0.500000  1
  Ir  Ir17  1  0.433483  0.288969  0.500000  1
  Ir  Ir18  1  0.500000  0.000000  0.500000  1
  Ir  Ir19  1  0.000000  0.500000  0.500000  1
