# generated using pymatgen
data_Dy4HoRu2
_symmetry_space_group_name_H-M   'P 1'
_cell_length_a   6.37073458
_cell_length_b   7.25963571
_cell_length_c   8.47800022
_cell_angle_alpha   96.62751045
_cell_angle_beta   112.06892032
_cell_angle_gamma   90.00000042
_symmetry_Int_Tables_number   1
_chemical_formula_structural   Dy4HoRu2
_chemical_formula_sum   'Dy8 Ho2 Ru4'
_cell_volume   360.54366534
_cell_formula_units_Z   2
loop_
 _symmetry_equiv_pos_site_id
 _symmetry_equiv_pos_as_xyz
  1  'x, y, z'
loop_
 _atom_site_type_symbol
 _atom_site_label
 _atom_site_symmetry_multiplicity
 _atom_site_fract_x
 _atom_site_fract_y
 _atom_site_fract_z
 _atom_site_occupancy
  Dy  Dy0  1  0.978170  0.915657  0.186147  1
  Dy  Dy1  1  0.792024  0.584343  0.813853  1
  Dy  Dy2  1  0.021830  0.084343  0.813853  1
  Dy  Dy3  1  0.207976  0.415657  0.186147  1
  Dy  Dy4  1  0.640230  0.814736  0.433557  1
  Dy  Dy5  1  0.206674  0.685264  0.566443  1
  Dy  Dy6  1  0.359770  0.185264  0.566443  1
  Dy  Dy7  1  0.793326  0.314736  0.433557  1
  Ho  Ho8  1  0.421313  0.750000  0.000000  1
  Ho  Ho9  1  0.578687  0.250000  0.000000  1
  Ru  Ru10  1  0.823743  0.575565  0.220269  1
  Ru  Ru11  1  0.603474  0.924435  0.779731  1
  Ru  Ru12  1  0.176257  0.424435  0.779731  1
  Ru  Ru13  1  0.396526  0.075565  0.220269  1
