# generated using pymatgen
data_Dy4HfMg3Ir4
_symmetry_space_group_name_H-M   'P 1'
_cell_length_a   4.19738000
_cell_length_b   7.12307964
_cell_length_c   8.54993900
_cell_angle_alpha   91.72863208
_cell_angle_beta   90.00000000
_cell_angle_gamma   90.00000000
_symmetry_Int_Tables_number   1
_chemical_formula_structural   Dy4HfMg3Ir4
_chemical_formula_sum   'Dy4 Hf1 Mg3 Ir4'
_cell_volume   255.51206812
_cell_formula_units_Z   1
loop_
 _symmetry_equiv_pos_site_id
 _symmetry_equiv_pos_as_xyz
  1  'x, y, z'
loop_
 _atom_site_type_symbol
 _atom_site_label
 _atom_site_symmetry_multiplicity
 _atom_site_fract_x
 _atom_site_fract_y
 _atom_site_fract_z
 _atom_site_occupancy
  Dy  Dy0  1  0.250000  0.958358  0.322747  1
  Dy  Dy1  1  0.250000  0.478515  0.169432  1
  Dy  Dy2  1  0.750000  0.023716  0.681823  1
  Dy  Dy3  1  0.750000  0.540324  0.830286  1
  Hf  Hf4  1  0.250000  0.364275  0.559383  1
  Mg  Mg5  1  0.250000  0.866208  0.939932  1
  Mg  Mg6  1  0.750000  0.640919  0.433002  1
  Mg  Mg7  1  0.750000  0.142250  0.060940  1
  Ir  Ir8  1  0.250000  0.248489  0.860600  1
  Ir  Ir9  1  0.250000  0.731663  0.623736  1
  Ir  Ir10  1  0.750000  0.759011  0.126403  1
  Ir  Ir11  1  0.750000  0.246270  0.391718  1
