# generated using pymatgen
data_Tb3Y13Cd2(InPd2)2
_symmetry_space_group_name_H-M   'P 1'
_cell_length_a   9.75646099
_cell_length_b   9.75766861
_cell_length_c   9.76197800
_cell_angle_alpha   59.98538953
_cell_angle_beta   59.98129257
_cell_angle_gamma   60.01080167
_symmetry_Int_Tables_number   1
_chemical_formula_structural   Tb3Y13Cd2(InPd2)2
_chemical_formula_sum   'Tb3 Y13 Cd2 In2 Pd4'
_cell_volume   657.03306201
_cell_formula_units_Z   1
loop_
 _symmetry_equiv_pos_site_id
 _symmetry_equiv_pos_as_xyz
  1  'x, y, z'
loop_
 _atom_site_type_symbol
 _atom_site_label
 _atom_site_symmetry_multiplicity
 _atom_site_fract_x
 _atom_site_fract_y
 _atom_site_fract_z
 _atom_site_occupancy
  Tb  Tb0  1  0.353065  0.353126  0.353383  1
  Tb  Tb1  1  0.353065  0.353126  0.940426  1
  Tb  Tb2  1  0.353566  0.939241  0.353596  1
  Y  Y3  1  0.938131  0.354127  0.353871  1
  Y  Y4  1  0.809888  0.190436  0.189836  1
  Y  Y5  1  0.190496  0.809837  0.809860  1
  Y  Y6  1  0.190496  0.809837  0.189806  1
  Y  Y7  1  0.809888  0.190436  0.809839  1
  Y  Y8  1  0.189004  0.188863  0.811066  1
  Y  Y9  1  0.808821  0.808757  0.191211  1
  Y  Y10  1  0.936784  0.565326  0.564575  1
  Y  Y11  1  0.565210  0.936854  0.933389  1
  Y  Y12  1  0.565210  0.936854  0.564548  1
  Y  Y13  1  0.936784  0.565326  0.933314  1
  Y  Y14  1  0.565332  0.565454  0.934607  1
  Y  Y15  1  0.936023  0.935953  0.564012  1
  Cd  Cd16  1  0.581939  0.251031  0.583516  1
  Cd  Cd17  1  0.251019  0.581843  0.583570  1
  In  In18  1  0.582653  0.582328  0.583992  1
  In  In19  1  0.582653  0.582328  0.251027  1
  Pd  Pd20  1  0.144521  0.144035  0.144842  1
  Pd  Pd21  1  0.144521  0.144035  0.566599  1
  Pd  Pd22  1  0.144388  0.566746  0.144433  1
  Pd  Pd23  1  0.566541  0.144096  0.144681  1
