# generated using pymatgen
data_Ca6NpWO12
_symmetry_space_group_name_H-M   'P 1'
_cell_length_a   6.68211316
_cell_length_b   6.68211283
_cell_length_c   6.68211372
_cell_angle_alpha   91.95415816
_cell_angle_beta   91.95415621
_cell_angle_gamma   91.95416438
_symmetry_Int_Tables_number   1
_chemical_formula_structural   Ca6NpWO12
_chemical_formula_sum   'Ca6 Np1 W1 O12'
_cell_volume   297.82790646
_cell_formula_units_Z   1
loop_
 _symmetry_equiv_pos_site_id
 _symmetry_equiv_pos_as_xyz
  1  'x, y, z'
loop_
 _atom_site_type_symbol
 _atom_site_label
 _atom_site_symmetry_multiplicity
 _atom_site_fract_x
 _atom_site_fract_y
 _atom_site_fract_z
 _atom_site_occupancy
  Ca  Ca0  1  0.932862  0.438516  0.742313  1
  Ca  Ca1  1  0.742313  0.932862  0.438516  1
  Ca  Ca2  1  0.561484  0.257687  0.067138  1
  Ca  Ca3  1  0.438516  0.742313  0.932862  1
  Ca  Ca4  1  0.257687  0.067138  0.561484  1
  Ca  Ca5  1  0.067138  0.561484  0.257687  1
  Np  Np6  1  0.000000  0.000000  0.000000  1
  W  W7  1  0.500000  0.500000  0.500000  1
  O  O8  1  0.928721  0.295275  0.065734  1
  O  O9  1  0.934266  0.071279  0.704725  1
  O  O10  1  0.780336  0.578405  0.454092  1
  O  O11  1  0.704725  0.934266  0.071279  1
  O  O12  1  0.578405  0.454092  0.780336  1
  O  O13  1  0.545908  0.219664  0.421595  1
  O  O14  1  0.454092  0.780336  0.578405  1
  O  O15  1  0.421595  0.545908  0.219664  1
  O  O16  1  0.295275  0.065734  0.928721  1
  O  O17  1  0.219664  0.421595  0.545908  1
  O  O18  1  0.065734  0.928721  0.295275  1
  O  O19  1  0.071279  0.704725  0.934266  1
