# generated using pymatgen
data_Pr5HgIr2
_symmetry_space_group_name_H-M   'P 1'
_cell_length_a   8.12171566
_cell_length_b   8.12171537
_cell_length_c   8.98962482
_cell_angle_alpha   116.85455679
_cell_angle_beta   116.85456145
_cell_angle_gamma   90.00000130
_symmetry_Int_Tables_number   1
_chemical_formula_structural   Pr5HgIr2
_chemical_formula_sum   'Pr10 Hg2 Ir4'
_cell_volume   456.20048734
_cell_formula_units_Z   2
loop_
 _symmetry_equiv_pos_site_id
 _symmetry_equiv_pos_as_xyz
  1  'x, y, z'
loop_
 _atom_site_type_symbol
 _atom_site_label
 _atom_site_symmetry_multiplicity
 _atom_site_fract_x
 _atom_site_fract_y
 _atom_site_fract_z
 _atom_site_occupancy
  Pr  Pr0  1  0.500000  0.500000  0.000000  1
  Pr  Pr1  1  0.000000  0.000000  0.000000  1
  Pr  Pr2  1  0.972366  0.794067  0.266433  1
  Pr  Pr3  1  0.294067  0.472366  0.266433  1
  Pr  Pr4  1  0.794067  0.294067  0.266433  1
  Pr  Pr5  1  0.472366  0.972366  0.266433  1
  Pr  Pr6  1  0.027634  0.205933  0.733567  1
  Pr  Pr7  1  0.705933  0.527634  0.733567  1
  Pr  Pr8  1  0.205933  0.705933  0.733567  1
  Pr  Pr9  1  0.527634  0.027634  0.733567  1
  Hg  Hg10  1  0.750000  0.750000  0.500000  1
  Hg  Hg11  1  0.250000  0.250000  0.500000  1
  Ir  Ir12  1  0.639154  0.860846  0.000000  1
  Ir  Ir13  1  0.360846  0.139154  0.000000  1
  Ir  Ir14  1  0.860846  0.360846  0.000000  1
  Ir  Ir15  1  0.139154  0.639154  0.000000  1
