# generated using pymatgen
data_NdB2PtRhC
_symmetry_space_group_name_H-M   'P 1'
_cell_length_a   3.86401593
_cell_length_b   3.86401542
_cell_length_c   5.92111784
_cell_angle_alpha   109.04383297
_cell_angle_beta   109.04382744
_cell_angle_gamma   89.99998487
_symmetry_Int_Tables_number   1
_chemical_formula_structural   NdB2PtRhC
_chemical_formula_sum   'Nd1 B2 Pt1 Rh1 C1'
_cell_volume   78.43096833
_cell_formula_units_Z   1
loop_
 _symmetry_equiv_pos_site_id
 _symmetry_equiv_pos_as_xyz
  1  'x, y, z'
loop_
 _atom_site_type_symbol
 _atom_site_label
 _atom_site_symmetry_multiplicity
 _atom_site_fract_x
 _atom_site_fract_y
 _atom_site_fract_z
 _atom_site_occupancy
  Nd  Nd0  1  0.000000  0.000000  0.000000  1
  B  B1  1  0.642899  0.642899  0.285797  1
  B  B2  1  0.357102  0.357102  0.714204  1
  Pt  Pt3  1  0.750001  0.250000  0.500000  1
  Rh  Rh4  1  0.250000  0.750001  0.500000  1
  C  C5  1  0.500001  0.500001  0.000000  1
