# generated using pymatgen
data_CeNd(AlRh)2
_symmetry_space_group_name_H-M   'P 1'
_cell_length_a   4.34313500
_cell_length_b   6.94376264
_cell_length_c   7.99085339
_cell_angle_alpha   90.40018679
_cell_angle_beta   90.00000000
_cell_angle_gamma   90.00000000
_symmetry_Int_Tables_number   1
_chemical_formula_structural   CeNd(AlRh)2
_chemical_formula_sum   'Ce2 Nd2 Al4 Rh4'
_cell_volume   240.97986953
_cell_formula_units_Z   2
loop_
 _symmetry_equiv_pos_site_id
 _symmetry_equiv_pos_as_xyz
  1  'x, y, z'
loop_
 _atom_site_type_symbol
 _atom_site_label
 _atom_site_symmetry_multiplicity
 _atom_site_fract_x
 _atom_site_fract_y
 _atom_site_fract_z
 _atom_site_occupancy
  Ce  Ce0  1  0.250000  0.539583  0.180057  1
  Ce  Ce1  1  0.750000  0.460417  0.819943  1
  Nd  Nd2  1  0.750000  0.960873  0.680487  1
  Nd  Nd3  1  0.250000  0.039127  0.319513  1
  Al  Al4  1  0.250000  0.634822  0.561348  1
  Al  Al5  1  0.750000  0.365178  0.438652  1
  Al  Al6  1  0.750000  0.868411  0.061565  1
  Al  Al7  1  0.250000  0.131589  0.938435  1
  Rh  Rh8  1  0.250000  0.753595  0.890866  1
  Rh  Rh9  1  0.750000  0.246405  0.109134  1
  Rh  Rh10  1  0.750000  0.726692  0.374678  1
  Rh  Rh11  1  0.250000  0.273308  0.625322  1
