# generated using pymatgen
data_Na4Co7Ni13P12
_symmetry_space_group_name_H-M   'P 1'
_cell_length_a   3.60535100
_cell_length_b   10.28733966
_cell_length_c   11.81453894
_cell_angle_alpha   89.93904687
_cell_angle_beta   90.00000000
_cell_angle_gamma   90.00000000
_symmetry_Int_Tables_number   1
_chemical_formula_structural   Na4Co7Ni13P12
_chemical_formula_sum   'Na4 Co7 Ni13 P12'
_cell_volume   438.19474335
_cell_formula_units_Z   1
loop_
 _symmetry_equiv_pos_site_id
 _symmetry_equiv_pos_as_xyz
  1  'x, y, z'
loop_
 _atom_site_type_symbol
 _atom_site_label
 _atom_site_symmetry_multiplicity
 _atom_site_fract_x
 _atom_site_fract_y
 _atom_site_fract_z
 _atom_site_occupancy
  Na  Na0  1  0.250000  0.581173  0.704493  1
  Na  Na1  1  0.250000  0.917964  0.204156  1
  Na  Na2  1  0.750000  0.418338  0.295389  1
  Na  Na3  1  0.750000  0.081697  0.795628  1
  Co  Co4  1  0.250000  0.621779  0.199187  1
  Co  Co5  1  0.750000  0.122223  0.301031  1
  Co  Co6  1  0.750000  0.378161  0.801274  1
  Co  Co7  1  0.250000  0.465352  0.932805  1
  Co  Co8  1  0.250000  0.034812  0.432451  1
  Co  Co9  1  0.750000  0.535367  0.067030  1
  Co  Co10  1  0.750000  0.964280  0.567787  1
  Ni  Ni11  1  0.250000  0.712348  0.990796  1
  Ni  Ni12  1  0.250000  0.786151  0.491340  1
  Ni  Ni13  1  0.750000  0.287545  0.010244  1
  Ni  Ni14  1  0.750000  0.211874  0.511631  1
  Ni  Ni15  1  0.250000  0.406147  0.484973  1
  Ni  Ni16  1  0.250000  0.093478  0.985659  1
  Ni  Ni17  1  0.750000  0.591685  0.513834  1
  Ni  Ni18  1  0.750000  0.906583  0.014542  1
  Ni  Ni19  1  0.250000  0.221532  0.173903  1
  Ni  Ni20  1  0.250000  0.279762  0.674674  1
  Ni  Ni21  1  0.750000  0.778674  0.823760  1
  Ni  Ni22  1  0.750000  0.721767  0.326130  1
  Ni  Ni23  1  0.250000  0.879751  0.699738  1
  P  P24  1  0.250000  0.425050  0.115082  1
  P  P25  1  0.250000  0.079173  0.612426  1
  P  P26  1  0.750000  0.575611  0.884653  1
  P  P27  1  0.750000  0.924841  0.384982  1
  P  P28  1  0.250000  0.268633  0.866762  1
  P  P29  1  0.250000  0.231815  0.365641  1
  P  P30  1  0.750000  0.731147  0.134226  1
  P  P31  1  0.750000  0.765428  0.630339  1
  P  P32  1  0.250000  0.599949  0.388648  1
  P  P33  1  0.250000  0.899503  0.892620  1
  P  P34  1  0.750000  0.399633  0.611145  1
  P  P35  1  0.750000  0.100774  0.111024  1
