# generated using pymatgen
data_Hf3ZrB4MoAsRu10
_symmetry_space_group_name_H-M   'P 1'
_cell_length_a   9.45385600
_cell_length_b   9.45385568
_cell_length_c   3.08216700
_cell_angle_alpha   90.00000000
_cell_angle_beta   90.00000000
_cell_angle_gamma   90.09385407
_symmetry_Int_Tables_number   1
_chemical_formula_structural   Hf3ZrB4MoAsRu10
_chemical_formula_sum   'Hf3 Zr1 B4 Mo1 As1 Ru10'
_cell_volume   275.46950895
_cell_formula_units_Z   1
loop_
 _symmetry_equiv_pos_site_id
 _symmetry_equiv_pos_as_xyz
  1  'x, y, z'
loop_
 _atom_site_type_symbol
 _atom_site_label
 _atom_site_symmetry_multiplicity
 _atom_site_fract_x
 _atom_site_fract_y
 _atom_site_fract_z
 _atom_site_occupancy
  Hf  Hf0  1  0.675957  0.175645  0.000000  1
  Hf  Hf1  1  0.324026  0.824851  0.000000  1
  Hf  Hf2  1  0.175472  0.323339  0.000000  1
  Zr  Zr3  1  0.824998  0.676507  0.000000  1
  B  B4  1  0.118961  0.625690  0.000000  1
  B  B5  1  0.881707  0.373401  0.000000  1
  B  B6  1  0.625197  0.882147  0.000000  1
  B  B7  1  0.373729  0.118586  0.000000  1
  Mo  Mo8  1  0.499658  0.499814  0.000000  1
  As  As9  1  0.999896  0.999807  0.000000  1
  Ru  Ru10  1  0.213113  0.070509  0.500000  1
  Ru  Ru11  1  0.785907  0.931189  0.500000  1
  Ru  Ru12  1  0.071651  0.786600  0.500000  1
  Ru  Ru13  1  0.716506  0.428009  0.500000  1
  Ru  Ru14  1  0.930028  0.213098  0.500000  1
  Ru  Ru15  1  0.283841  0.570658  0.500000  1
  Ru  Ru16  1  0.569719  0.717111  0.500000  1
  Ru  Ru17  1  0.428889  0.283595  0.500000  1
  Ru  Ru18  1  0.499707  0.000380  0.500000  1
  Ru  Ru19  1  0.001035  0.499066  0.500000  1
