# generated using pymatgen
data_TmF7
_symmetry_space_group_name_H-M   'P 1'
_cell_length_a   4.28921966
_cell_length_b   3.46067823
_cell_length_c   10.15329307
_cell_angle_alpha   103.85854540
_cell_angle_beta   78.97273985
_cell_angle_gamma   88.40952261
_symmetry_Int_Tables_number   1
_chemical_formula_structural   TmF7
_chemical_formula_sum   'Tm1 F7'
_cell_volume   143.19396793
_cell_formula_units_Z   1
loop_
 _symmetry_equiv_pos_site_id
 _symmetry_equiv_pos_as_xyz
  1  'x, y, z'
loop_
 _atom_site_type_symbol
 _atom_site_label
 _atom_site_symmetry_multiplicity
 _atom_site_fract_x
 _atom_site_fract_y
 _atom_site_fract_z
 _atom_site_occupancy
  Tm  Tm0  1  0.530701  0.025474  0.828916  1
  F  F1  1  0.959987  0.769251  0.156880  1
  F  F2  1  0.593860  0.427750  0.693402  1
  F  F3  1  0.464176  0.623055  0.964203  1
  F  F4  1  0.078115  0.511278  0.411318  1
  F  F5  1  0.030013  0.031562  0.829721  1
  F  F6  1  0.678288  0.915249  0.260722  1
  F  F7  1  0.288445  0.447456  0.499057  1
