# generated using pymatgen
data_Tb3Al3CuGePd
_symmetry_space_group_name_H-M   'P 1'
_cell_length_a   7.04726800
_cell_length_b   7.04726877
_cell_length_c   4.19959300
_cell_angle_alpha   90.00000000
_cell_angle_beta   90.00000000
_cell_angle_gamma   119.99999640
_symmetry_Int_Tables_number   1
_chemical_formula_structural   Tb3Al3CuGePd
_chemical_formula_sum   'Tb3 Al3 Cu1 Ge1 Pd1'
_cell_volume   180.62567078
_cell_formula_units_Z   1
loop_
 _symmetry_equiv_pos_site_id
 _symmetry_equiv_pos_as_xyz
  1  'x, y, z'
loop_
 _atom_site_type_symbol
 _atom_site_label
 _atom_site_symmetry_multiplicity
 _atom_site_fract_x
 _atom_site_fract_y
 _atom_site_fract_z
 _atom_site_occupancy
  Tb  Tb0  1  0.995853  0.579579  0.500000  1
  Tb  Tb1  1  0.420421  0.416274  0.500000  1
  Tb  Tb2  1  0.583726  0.004147  0.500000  1
  Al  Al3  1  0.769416  0.756042  0.000000  1
  Al  Al4  1  0.243958  0.013373  0.000000  1
  Al  Al5  1  0.986627  0.230584  0.000000  1
  Cu  Cu6  1  0.666667  0.333333  0.000000  1
  Ge  Ge7  1  0.333333  0.666667  0.000000  1
  Pd  Pd8  1  0.000000  0.000000  0.500000  1
