# generated using pymatgen
data_Y5Er5(In2Pd)4
_symmetry_space_group_name_H-M   'P 1'
_cell_length_a   3.62943000
_cell_length_b   8.13391848
_cell_length_c   18.21938620
_cell_angle_alpha   89.89608894
_cell_angle_beta   90.00000000
_cell_angle_gamma   90.00000000
_symmetry_Int_Tables_number   1
_chemical_formula_structural   Y5Er5(In2Pd)4
_chemical_formula_sum   'Y5 Er5 In8 Pd4'
_cell_volume   537.86250172
_cell_formula_units_Z   1
loop_
 _symmetry_equiv_pos_site_id
 _symmetry_equiv_pos_as_xyz
  1  'x, y, z'
loop_
 _atom_site_type_symbol
 _atom_site_label
 _atom_site_symmetry_multiplicity
 _atom_site_fract_x
 _atom_site_fract_y
 _atom_site_fract_z
 _atom_site_occupancy
  Y  Y0  1  0.000000  0.500367  0.499782  1
  Y  Y1  1  0.000000  0.999597  0.999968  1
  Y  Y2  1  0.000000  0.738846  0.281916  1
  Y  Y3  1  0.000000  0.261526  0.717573  1
  Y  Y4  1  0.000000  0.761574  0.782443  1
  Er  Er5  1  0.000000  0.239335  0.218606  1
  Er  Er6  1  0.000000  0.616854  0.084431  1
  Er  Er7  1  0.000000  0.382113  0.916254  1
  Er  Er8  1  0.000000  0.882504  0.583718  1
  Er  Er9  1  0.000000  0.117976  0.415680  1
  In  In10  1  0.500000  0.704924  0.934351  1
  In  In11  1  0.500000  0.293366  0.067120  1
  In  In12  1  0.500000  0.795291  0.433462  1
  In  In13  1  0.500000  0.205248  0.565947  1
  In  In14  1  0.500000  0.583127  0.651024  1
  In  In15  1  0.500000  0.417515  0.349050  1
  In  In16  1  0.500000  0.919121  0.150526  1
  In  In17  1  0.500000  0.082858  0.849235  1
  Pd  Pd18  1  0.500000  0.520429  0.194744  1
  Pd  Pd19  1  0.500000  0.475015  0.805394  1
  Pd  Pd20  1  0.500000  0.974902  0.694458  1
  Pd  Pd21  1  0.500000  0.027513  0.304318  1
