# generated using pymatgen
data_LiTb8Sc11Si16
_symmetry_space_group_name_H-M   'P 1'
_cell_length_a   7.06970629
_cell_length_b   7.40885330
_cell_length_c   14.04494300
_cell_angle_alpha   90.00000000
_cell_angle_beta   90.00000000
_cell_angle_gamma   89.96725924
_symmetry_Int_Tables_number   1
_chemical_formula_structural   LiTb8Sc11Si16
_chemical_formula_sum   'Li1 Tb8 Sc11 Si16'
_cell_volume   735.65175804
_cell_formula_units_Z   1
loop_
 _symmetry_equiv_pos_site_id
 _symmetry_equiv_pos_as_xyz
  1  'x, y, z'
loop_
 _atom_site_type_symbol
 _atom_site_label
 _atom_site_symmetry_multiplicity
 _atom_site_fract_x
 _atom_site_fract_y
 _atom_site_fract_z
 _atom_site_occupancy
  Li  Li0  1  0.159025  0.502940  0.750000  1
  Tb  Tb1  1  0.011678  0.175487  0.096992  1
  Tb  Tb2  1  0.989354  0.816995  0.900603  1
  Tb  Tb3  1  0.482848  0.674415  0.901156  1
  Tb  Tb4  1  0.989354  0.816995  0.599397  1
  Tb  Tb5  1  0.511559  0.323894  0.096944  1
  Tb  Tb6  1  0.011678  0.175487  0.403008  1
  Tb  Tb7  1  0.511559  0.323894  0.403056  1
  Tb  Tb8  1  0.482848  0.674415  0.598844  1
  Sc  Sc9  1  0.838188  0.497465  0.250000  1
  Sc  Sc10  1  0.339224  0.002221  0.250000  1
  Sc  Sc11  1  0.659726  0.997673  0.750000  1
  Sc  Sc12  1  0.327958  0.182378  0.625983  1
  Sc  Sc13  1  0.670672  0.823344  0.375047  1
  Sc  Sc14  1  0.170716  0.678025  0.374400  1
  Sc  Sc15  1  0.670672  0.823344  0.124953  1
  Sc  Sc16  1  0.835460  0.326470  0.626606  1
  Sc  Sc17  1  0.327958  0.182378  0.874017  1
  Sc  Sc18  1  0.835460  0.326470  0.873394  1
  Sc  Sc19  1  0.170716  0.678025  0.125600  1
  Si  Si20  1  0.031082  0.106825  0.750000  1
  Si  Si21  1  0.968126  0.884214  0.250000  1
  Si  Si22  1  0.467135  0.617735  0.250000  1
  Si  Si23  1  0.536675  0.384672  0.750000  1
  Si  Si24  1  0.287782  0.885144  0.750000  1
  Si  Si25  1  0.713457  0.125587  0.250000  1
  Si  Si26  1  0.212665  0.373700  0.250000  1
  Si  Si27  1  0.778488  0.625686  0.750000  1
  Si  Si28  1  0.158126  0.461447  0.533806  1
  Si  Si29  1  0.843875  0.535822  0.461741  1
  Si  Si30  1  0.344864  0.965080  0.462059  1
  Si  Si31  1  0.843875  0.535822  0.038259  1
  Si  Si32  1  0.657104  0.034712  0.540121  1
  Si  Si33  1  0.158126  0.461447  0.966194  1
  Si  Si34  1  0.657104  0.034712  0.959879  1
  Si  Si35  1  0.344864  0.965080  0.037941  1
