# generated using pymatgen
data_TbHoB6Ru
_symmetry_space_group_name_H-M   'P 1'
_cell_length_a   3.66322000
_cell_length_b   9.15324600
_cell_length_c   11.53479800
_cell_angle_alpha   90.00000000
_cell_angle_beta   90.00000000
_cell_angle_gamma   90.00000000
_symmetry_Int_Tables_number   1
_chemical_formula_structural   TbHoB6Ru
_chemical_formula_sum   'Tb4 Ho4 B24 Ru4'
_cell_volume   386.76585809
_cell_formula_units_Z   4
loop_
 _symmetry_equiv_pos_site_id
 _symmetry_equiv_pos_as_xyz
  1  'x, y, z'
loop_
 _atom_site_type_symbol
 _atom_site_label
 _atom_site_symmetry_multiplicity
 _atom_site_fract_x
 _atom_site_fract_y
 _atom_site_fract_z
 _atom_site_occupancy
  Tb  Tb0  1  0.000000  0.322889  0.413973  1
  Tb  Tb1  1  0.000000  0.677111  0.586027  1
  Tb  Tb2  1  0.000000  0.822889  0.086027  1
  Tb  Tb3  1  0.000000  0.177111  0.913973  1
  Ho  Ho4  1  0.000000  0.944011  0.372349  1
  Ho  Ho5  1  0.000000  0.055989  0.627651  1
  Ho  Ho6  1  0.000000  0.444011  0.127651  1
  Ho  Ho7  1  0.000000  0.555989  0.872349  1
  B  B8  1  0.500000  0.554371  0.432674  1
  B  B9  1  0.500000  0.445629  0.567326  1
  B  B10  1  0.500000  0.054371  0.067326  1
  B  B11  1  0.500000  0.945629  0.932674  1
  B  B12  1  0.500000  0.748301  0.419548  1
  B  B13  1  0.500000  0.251699  0.580452  1
  B  B14  1  0.500000  0.248301  0.080452  1
  B  B15  1  0.500000  0.751699  0.919548  1
  B  B16  1  0.500000  0.791279  0.266521  1
  B  B17  1  0.500000  0.208721  0.733479  1
  B  B18  1  0.500000  0.291279  0.233479  1
  B  B19  1  0.500000  0.708721  0.766521  1
  B  B20  1  0.500000  0.632011  0.185247  1
  B  B21  1  0.500000  0.367989  0.814753  1
  B  B22  1  0.500000  0.132011  0.314753  1
  B  B23  1  0.500000  0.867989  0.685247  1
  B  B24  1  0.500000  0.984129  0.213105  1
  B  B25  1  0.500000  0.015871  0.786895  1
  B  B26  1  0.500000  0.484129  0.286895  1
  B  B27  1  0.500000  0.515871  0.713105  1
  B  B28  1  0.500000  0.607987  0.029776  1
  B  B29  1  0.500000  0.392013  0.970224  1
  B  B30  1  0.500000  0.107987  0.470224  1
  B  B31  1  0.500000  0.892013  0.529776  1
  Ru  Ru32  1  0.000000  0.638326  0.320876  1
  Ru  Ru33  1  0.000000  0.361674  0.679124  1
  Ru  Ru34  1  0.000000  0.138326  0.179124  1
  Ru  Ru35  1  0.000000  0.861674  0.820876  1
