# generated using pymatgen
data_TiCo(NiO2)4
_symmetry_space_group_name_H-M   'P 1'
_cell_length_a   5.90153815
_cell_length_b   5.90153854
_cell_length_c   5.90153800
_cell_angle_alpha   60.00000301
_cell_angle_beta   60.00000083
_cell_angle_gamma   59.99999626
_symmetry_Int_Tables_number   1
_chemical_formula_structural   TiCo(NiO2)4
_chemical_formula_sum   'Ti1 Co1 Ni4 O8'
_cell_volume   145.33850094
_cell_formula_units_Z   1
loop_
 _symmetry_equiv_pos_site_id
 _symmetry_equiv_pos_as_xyz
  1  'x, y, z'
loop_
 _atom_site_type_symbol
 _atom_site_label
 _atom_site_symmetry_multiplicity
 _atom_site_fract_x
 _atom_site_fract_y
 _atom_site_fract_z
 _atom_site_occupancy
  Ti  Ti0  1  0.000000  0.000000  0.000000  1
  Co  Co1  1  0.250000  0.250000  0.250000  1
  Ni  Ni2  1  0.624384  0.624384  0.126849  1
  Ni  Ni3  1  0.624384  0.126849  0.624384  1
  Ni  Ni4  1  0.126849  0.624384  0.624384  1
  Ni  Ni5  1  0.624384  0.624384  0.624384  1
  O  O6  1  0.872190  0.872190  0.383429  1
  O  O7  1  0.872190  0.383429  0.872190  1
  O  O8  1  0.383429  0.872190  0.872190  1
  O  O9  1  0.872190  0.872190  0.872190  1
  O  O10  1  0.376980  0.376980  0.869059  1
  O  O11  1  0.376980  0.869059  0.376980  1
  O  O12  1  0.869059  0.376980  0.376980  1
  O  O13  1  0.376980  0.376980  0.376980  1
