# generated using pymatgen
data_Pa2Al20CrFe3
_symmetry_space_group_name_H-M   'P 1'
_cell_length_a   6.77400787
_cell_length_b   6.76183885
_cell_length_c   8.96613580
_cell_angle_alpha   89.67858902
_cell_angle_beta   89.90842518
_cell_angle_gamma   97.89133968
_symmetry_Int_Tables_number   1
_chemical_formula_structural   Pa2Al20CrFe3
_chemical_formula_sum   'Pa2 Al20 Cr1 Fe3'
_cell_volume   406.79488526
_cell_formula_units_Z   1
loop_
 _symmetry_equiv_pos_site_id
 _symmetry_equiv_pos_as_xyz
  1  'x, y, z'
loop_
 _atom_site_type_symbol
 _atom_site_label
 _atom_site_symmetry_multiplicity
 _atom_site_fract_x
 _atom_site_fract_y
 _atom_site_fract_z
 _atom_site_occupancy
  Pa  Pa0  1  0.878943  0.132181  0.747167  1
  Pa  Pa1  1  0.121057  0.867819  0.252833  1
  Al  Al2  1  0.624448  0.375004  0.548428  1
  Al  Al3  1  0.375552  0.624996  0.451572  1
  Al  Al4  1  0.375447  0.625701  0.048515  1
  Al  Al5  1  0.624553  0.374299  0.951485  1
  Al  Al6  1  0.227768  0.225285  0.500094  1
  Al  Al7  1  0.772232  0.774715  0.499906  1
  Al  Al8  1  0.774158  0.774831  0.000603  1
  Al  Al9  1  0.225842  0.225169  0.999397  1
  Al  Al10  1  0.842160  0.156441  0.098188  1
  Al  Al11  1  0.157840  0.843559  0.901812  1
  Al  Al12  1  0.160415  0.843809  0.599574  1
  Al  Al13  1  0.839585  0.156191  0.400426  1
  Al  Al14  1  0.864924  0.590707  0.751443  1
  Al  Al15  1  0.135076  0.409293  0.248557  1
  Al  Al16  1  0.412263  0.135109  0.750704  1
  Al  Al17  1  0.587737  0.864891  0.249296  1
  Al  Al18  1  0.221856  0.480452  0.750559  1
  Al  Al19  1  0.778144  0.519548  0.249441  1
  Al  Al20  1  0.522635  0.781595  0.751437  1
  Al  Al21  1  0.477365  0.218405  0.248563  1
  Cr  Cr22  1  0.000000  0.500000  0.500000  1
  Fe  Fe23  1  0.000000  0.500000  0.000000  1
  Fe  Fe24  1  0.500000  0.000000  0.000000  1
  Fe  Fe25  1  0.500000  0.000000  0.500000  1
