# generated using pymatgen
data_U5Pa3(CoC3)4
_symmetry_space_group_name_H-M   'P 1'
_cell_length_a   3.54922900
_cell_length_b   6.44267581
_cell_length_c   13.18807414
_cell_angle_alpha   90.31057660
_cell_angle_beta   90.00000000
_cell_angle_gamma   90.00000000
_symmetry_Int_Tables_number   1
_chemical_formula_structural   U5Pa3(CoC3)4
_chemical_formula_sum   'U5 Pa3 Co4 C12'
_cell_volume   301.56108654
_cell_formula_units_Z   1
loop_
 _symmetry_equiv_pos_site_id
 _symmetry_equiv_pos_as_xyz
  1  'x, y, z'
loop_
 _atom_site_type_symbol
 _atom_site_label
 _atom_site_symmetry_multiplicity
 _atom_site_fract_x
 _atom_site_fract_y
 _atom_site_fract_z
 _atom_site_occupancy
  U  U0  1  0.250000  0.247687  0.477412  1
  U  U1  1  0.250000  0.626442  0.288993  1
  U  U2  1  0.750000  0.373933  0.711381  1
  U  U3  1  0.750000  0.872294  0.787816  1
  U  U4  1  0.250000  0.126457  0.212271  1
  Pa  Pa5  1  0.250000  0.746795  0.022393  1
  Pa  Pa6  1  0.750000  0.253116  0.979143  1
  Pa  Pa7  1  0.750000  0.753137  0.521478  1
  Co  Co8  1  0.250000  0.510294  0.841002  1
  Co  Co9  1  0.750000  0.488159  0.161467  1
  Co  Co10  1  0.750000  0.986310  0.340852  1
  Co  Co11  1  0.250000  0.015712  0.657269  1
  C  C12  1  0.250000  0.679908  0.678054  1
  C  C13  1  0.750000  0.317142  0.321337  1
  C  C14  1  0.750000  0.820446  0.181729  1
  C  C15  1  0.250000  0.178719  0.818999  1
  C  C16  1  0.250000  0.519592  0.599480  1
  C  C17  1  0.750000  0.471176  0.401286  1
  C  C18  1  0.750000  0.976941  0.102431  1
  C  C19  1  0.250000  0.022377  0.898236  1
  C  C20  1  0.250000  0.904986  0.401052  1
  C  C21  1  0.750000  0.108225  0.595042  1
  C  C22  1  0.750000  0.603044  0.899992  1
  C  C23  1  0.250000  0.397107  0.100885  1
