# generated using pymatgen
data_Nd6Dy10Cd4IrOs3
_symmetry_space_group_name_H-M   'P 1'
_cell_length_a   9.77004115
_cell_length_b   9.80820453
_cell_length_c   9.80856996
_cell_angle_alpha   59.46370415
_cell_angle_beta   59.33182668
_cell_angle_gamma   59.33136211
_symmetry_Int_Tables_number   1
_chemical_formula_structural   Nd6Dy10Cd4IrOs3
_chemical_formula_sum   'Nd6 Dy10 Cd4 Ir1 Os3'
_cell_volume   655.17787477
_cell_formula_units_Z   1
loop_
 _symmetry_equiv_pos_site_id
 _symmetry_equiv_pos_as_xyz
  1  'x, y, z'
loop_
 _atom_site_type_symbol
 _atom_site_label
 _atom_site_symmetry_multiplicity
 _atom_site_fract_x
 _atom_site_fract_y
 _atom_site_fract_z
 _atom_site_occupancy
  Nd  Nd0  1  0.939460  0.558599  0.558637  1
  Nd  Nd1  1  0.554079  0.943276  0.943267  1
  Nd  Nd2  1  0.556039  0.940055  0.561924  1
  Nd  Nd3  1  0.942965  0.555677  0.944737  1
  Nd  Nd4  1  0.556027  0.561926  0.940052  1
  Nd  Nd5  1  0.942952  0.944763  0.555675  1
  Dy  Dy6  1  0.346089  0.346171  0.346161  1
  Dy  Dy7  1  0.346488  0.346026  0.962099  1
  Dy  Dy8  1  0.346443  0.962100  0.346080  1
  Dy  Dy9  1  0.966044  0.345121  0.345028  1
  Dy  Dy10  1  0.812088  0.188157  0.188165  1
  Dy  Dy11  1  0.187497  0.811757  0.811764  1
  Dy  Dy12  1  0.187420  0.811056  0.188461  1
  Dy  Dy13  1  0.812962  0.188811  0.810662  1
  Dy  Dy14  1  0.187426  0.188453  0.811066  1
  Dy  Dy15  1  0.812970  0.810661  0.188799  1
  Cd  Cd16  1  0.578389  0.578542  0.578539  1
  Cd  Cd17  1  0.578235  0.578927  0.263050  1
  Cd  Cd18  1  0.578249  0.263049  0.578914  1
  Cd  Cd19  1  0.261342  0.579143  0.579173  1
  Ir  Ir20  1  0.580749  0.140112  0.140129  1
  Os  Os21  1  0.141431  0.138360  0.138367  1
  Os  Os22  1  0.142297  0.138690  0.580590  1
  Os  Os23  1  0.142356  0.580567  0.138660  1
