# generated using pymatgen
data_Eu2BiF2
_symmetry_space_group_name_H-M   'P 1'
_cell_length_a   7.57365910
_cell_length_b   7.57365869
_cell_length_c   7.57365817
_cell_angle_alpha   148.91585985
_cell_angle_beta   148.91586707
_cell_angle_gamma   44.53515586
_symmetry_Int_Tables_number   1
_chemical_formula_structural   Eu2BiF2
_chemical_formula_sum   'Eu2 Bi1 F2'
_cell_volume   115.45482190
_cell_formula_units_Z   1
loop_
 _symmetry_equiv_pos_site_id
 _symmetry_equiv_pos_as_xyz
  1  'x, y, z'
loop_
 _atom_site_type_symbol
 _atom_site_label
 _atom_site_symmetry_multiplicity
 _atom_site_fract_x
 _atom_site_fract_y
 _atom_site_fract_z
 _atom_site_occupancy
  Eu  Eu0  1  0.645562  0.645562  0.000000  1
  Eu  Eu1  1  0.354438  0.354438  0.000000  1
  Bi  Bi2  1  0.000000  0.000000  0.000000  1
  F  F3  1  0.750000  0.250000  0.500000  1
  F  F4  1  0.250000  0.750000  0.500000  1
