# generated using pymatgen
data_Nd16TcNi3Hg4
_symmetry_space_group_name_H-M   'P 1'
_cell_length_a   9.88409326
_cell_length_b   9.88409332
_cell_length_c   9.88409289
_cell_angle_alpha   59.69168691
_cell_angle_beta   59.69168565
_cell_angle_gamma   59.69168989
_symmetry_Int_Tables_number   1
_chemical_formula_structural   Nd16TcNi3Hg4
_chemical_formula_sum   'Nd16 Tc1 Ni3 Hg4'
_cell_volume   678.02100187
_cell_formula_units_Z   1
loop_
 _symmetry_equiv_pos_site_id
 _symmetry_equiv_pos_as_xyz
  1  'x, y, z'
loop_
 _atom_site_type_symbol
 _atom_site_label
 _atom_site_symmetry_multiplicity
 _atom_site_fract_x
 _atom_site_fract_y
 _atom_site_fract_z
 _atom_site_occupancy
  Nd  Nd0  1  0.599339  0.599339  0.599339  1
  Nd  Nd1  1  0.599945  0.599945  0.204137  1
  Nd  Nd2  1  0.599945  0.204137  0.599945  1
  Nd  Nd3  1  0.204137  0.599945  0.599945  1
  Nd  Nd4  1  0.060160  0.439167  0.439167  1
  Nd  Nd5  1  0.439382  0.057558  0.057558  1
  Nd  Nd6  1  0.439167  0.060160  0.439167  1
  Nd  Nd7  1  0.057558  0.439382  0.057558  1
  Nd  Nd8  1  0.439167  0.439167  0.060160  1
  Nd  Nd9  1  0.057558  0.057558  0.439382  1
  Nd  Nd10  1  0.186657  0.814676  0.814676  1
  Nd  Nd11  1  0.803332  0.190482  0.190482  1
  Nd  Nd12  1  0.814676  0.186657  0.814676  1
  Nd  Nd13  1  0.190482  0.803332  0.190482  1
  Nd  Nd14  1  0.814676  0.814676  0.186657  1
  Nd  Nd15  1  0.190482  0.190482  0.803332  1
  Tc  Tc16  1  0.391858  0.391858  0.391858  1
  Ni  Ni17  1  0.393901  0.393901  0.825870  1
  Ni  Ni18  1  0.393901  0.825870  0.393901  1
  Ni  Ni19  1  0.825870  0.393901  0.393901  1
  Hg  Hg20  1  0.833127  0.833127  0.833127  1
  Hg  Hg21  1  0.833416  0.833416  0.497842  1
  Hg  Hg22  1  0.833416  0.497842  0.833416  1
  Hg  Hg23  1  0.497842  0.833416  0.833416  1
