# generated using pymatgen
data_Ta2NbCo4ReB4
_symmetry_space_group_name_H-M   'P 1'
_cell_length_a   3.28904300
_cell_length_b   5.80874162
_cell_length_c   6.73343676
_cell_angle_alpha   89.45513445
_cell_angle_beta   90.00000000
_cell_angle_gamma   90.00000000
_symmetry_Int_Tables_number   1
_chemical_formula_structural   Ta2NbCo4ReB4
_chemical_formula_sum   'Ta2 Nb1 Co4 Re1 B4'
_cell_volume   128.63784571
_cell_formula_units_Z   1
loop_
 _symmetry_equiv_pos_site_id
 _symmetry_equiv_pos_as_xyz
  1  'x, y, z'
loop_
 _atom_site_type_symbol
 _atom_site_label
 _atom_site_symmetry_multiplicity
 _atom_site_fract_x
 _atom_site_fract_y
 _atom_site_fract_z
 _atom_site_occupancy
  Ta  Ta0  1  0.250000  0.528304  0.678218  1
  Ta  Ta1  1  0.250000  0.025848  0.825176  1
  Nb  Nb2  1  0.750000  0.473059  0.317324  1
  Co  Co3  1  0.750000  0.859028  0.558397  1
  Co  Co4  1  0.250000  0.145339  0.443411  1
  Co  Co5  1  0.750000  0.352313  0.941136  1
  Co  Co6  1  0.250000  0.642711  0.056055  1
  Re  Re7  1  0.750000  0.973993  0.176933  1
  B  B8  1  0.250000  0.262204  0.125604  1
  B  B9  1  0.750000  0.726395  0.886910  1
  B  B10  1  0.250000  0.780729  0.369817  1
  B  B11  1  0.750000  0.230076  0.621019  1
