# generated using pymatgen
data_Ti2B2AsRu5
_symmetry_space_group_name_H-M   'P 1'
_cell_length_a   9.21240700
_cell_length_b   9.21240700
_cell_length_c   3.00210200
_cell_angle_alpha   90.00000000
_cell_angle_beta   90.00000000
_cell_angle_gamma   90.00000000
_symmetry_Int_Tables_number   1
_chemical_formula_structural   Ti2B2AsRu5
_chemical_formula_sum   'Ti4 B4 As2 Ru10'
_cell_volume   254.78372167
_cell_formula_units_Z   2
loop_
 _symmetry_equiv_pos_site_id
 _symmetry_equiv_pos_as_xyz
  1  'x, y, z'
loop_
 _atom_site_type_symbol
 _atom_site_label
 _atom_site_symmetry_multiplicity
 _atom_site_fract_x
 _atom_site_fract_y
 _atom_site_fract_z
 _atom_site_occupancy
  Ti  Ti0  1  0.674600  0.174600  0.000000  1
  Ti  Ti1  1  0.325400  0.825400  0.000000  1
  Ti  Ti2  1  0.174600  0.325400  0.000000  1
  Ti  Ti3  1  0.825400  0.674600  0.000000  1
  B  B4  1  0.124212  0.624212  0.000000  1
  B  B5  1  0.875788  0.375788  0.000000  1
  B  B6  1  0.624212  0.875788  0.000000  1
  B  B7  1  0.375788  0.124212  0.000000  1
  As  As8  1  0.000000  0.000000  0.000000  1
  As  As9  1  0.500000  0.500000  0.000000  1
  Ru  Ru10  1  0.211668  0.072558  0.500000  1
  Ru  Ru11  1  0.788332  0.927442  0.500000  1
  Ru  Ru12  1  0.072558  0.788332  0.500000  1
  Ru  Ru13  1  0.711668  0.427442  0.500000  1
  Ru  Ru14  1  0.927442  0.211668  0.500000  1
  Ru  Ru15  1  0.288332  0.572558  0.500000  1
  Ru  Ru16  1  0.572558  0.711668  0.500000  1
  Ru  Ru17  1  0.427442  0.288332  0.500000  1
  Ru  Ru18  1  0.500000  0.000000  0.500000  1
  Ru  Ru19  1  0.000000  0.500000  0.500000  1
