# generated using pymatgen
data_Er2Fe4P6(RuRh)3
_symmetry_space_group_name_H-M   'P 1'
_cell_length_a   3.79364100
_cell_length_b   10.51983300
_cell_length_c   12.16285000
_cell_angle_alpha   90.00000000
_cell_angle_beta   90.00000000
_cell_angle_gamma   90.00000000
_symmetry_Int_Tables_number   1
_chemical_formula_structural   Er2Fe4P6(RuRh)3
_chemical_formula_sum   'Er4 Fe8 P12 Ru6 Rh6'
_cell_volume   485.40073169
_cell_formula_units_Z   2
loop_
 _symmetry_equiv_pos_site_id
 _symmetry_equiv_pos_as_xyz
  1  'x, y, z'
loop_
 _atom_site_type_symbol
 _atom_site_label
 _atom_site_symmetry_multiplicity
 _atom_site_fract_x
 _atom_site_fract_y
 _atom_site_fract_z
 _atom_site_occupancy
  Er  Er0  1  0.250000  0.578064  0.709597  1
  Er  Er1  1  0.250000  0.921936  0.209597  1
  Er  Er2  1  0.750000  0.421213  0.290880  1
  Er  Er3  1  0.750000  0.078787  0.790880  1
  Fe  Fe4  1  0.250000  0.877925  0.698131  1
  Fe  Fe5  1  0.250000  0.622075  0.198131  1
  Fe  Fe6  1  0.750000  0.121561  0.300670  1
  Fe  Fe7  1  0.750000  0.378439  0.800670  1
  Fe  Fe8  1  0.250000  0.461104  0.935624  1
  Fe  Fe9  1  0.250000  0.038896  0.435624  1
  Fe  Fe10  1  0.750000  0.539189  0.063766  1
  Fe  Fe11  1  0.750000  0.960811  0.563766  1
  P  P12  1  0.250000  0.438079  0.112930  1
  P  P13  1  0.250000  0.061921  0.612930  1
  P  P14  1  0.750000  0.561862  0.886724  1
  P  P15  1  0.750000  0.938138  0.386724  1
  P  P16  1  0.250000  0.270632  0.867551  1
  P  P17  1  0.250000  0.229368  0.367551  1
  P  P18  1  0.750000  0.726858  0.134140  1
  P  P19  1  0.750000  0.773142  0.634140  1
  P  P20  1  0.250000  0.599840  0.384272  1
  P  P21  1  0.250000  0.900160  0.884272  1
  P  P22  1  0.750000  0.397300  0.613109  1
  P  P23  1  0.750000  0.102700  0.113109  1
  Ru  Ru24  1  0.250000  0.706567  0.988203  1
  Ru  Ru25  1  0.250000  0.793433  0.488203  1
  Ru  Ru26  1  0.750000  0.294384  0.011130  1
  Ru  Ru27  1  0.750000  0.205616  0.511130  1
  Ru  Ru28  1  0.250000  0.406417  0.483741  1
  Ru  Ru29  1  0.250000  0.093584  0.983741  1
  Rh  Rh30  1  0.750000  0.595469  0.519606  1
  Rh  Rh31  1  0.750000  0.904531  0.019606  1
  Rh  Rh32  1  0.250000  0.232528  0.176156  1
  Rh  Rh33  1  0.250000  0.267472  0.676156  1
  Rh  Rh34  1  0.750000  0.767840  0.823768  1
  Rh  Rh35  1  0.750000  0.732160  0.323768  1
