# generated using pymatgen
data_TbYMg2InPb3
_symmetry_space_group_name_H-M   'P 1'
_cell_length_a   4.79797600
_cell_length_b   4.85667100
_cell_length_c   9.06811300
_cell_angle_alpha   90.00000000
_cell_angle_beta   90.00000000
_cell_angle_gamma   90.00000000
_symmetry_Int_Tables_number   1
_chemical_formula_structural   TbYMg2InPb3
_chemical_formula_sum   'Tb1 Y1 Mg2 In1 Pb3'
_cell_volume   211.30690021
_cell_formula_units_Z   1
loop_
 _symmetry_equiv_pos_site_id
 _symmetry_equiv_pos_as_xyz
  1  'x, y, z'
loop_
 _atom_site_type_symbol
 _atom_site_label
 _atom_site_symmetry_multiplicity
 _atom_site_fract_x
 _atom_site_fract_y
 _atom_site_fract_z
 _atom_site_occupancy
  Tb  Tb0  1  0.000000  0.000000  0.250027  1
  Y  Y1  1  0.000000  0.000000  0.750022  1
  Mg  Mg2  1  0.500000  0.500000  0.254294  1
  Mg  Mg3  1  0.500000  0.500000  0.745742  1
  In  In4  1  0.000000  0.500000  0.500049  1
  Pb  Pb5  1  0.000000  0.500000  0.999896  1
  Pb  Pb6  1  0.500000  0.000000  0.500171  1
  Pb  Pb7  1  0.500000  0.000000  0.999799  1
