# generated using pymatgen
data_Er3Zn3Hg2Ru
_symmetry_space_group_name_H-M   'P 1'
_cell_length_a   7.66574400
_cell_length_b   7.66574173
_cell_length_c   3.71784000
_cell_angle_alpha   90.00000000
_cell_angle_beta   90.00000000
_cell_angle_gamma   120.00000864
_symmetry_Int_Tables_number   1
_chemical_formula_structural   Er3Zn3Hg2Ru
_chemical_formula_sum   'Er3 Zn3 Hg2 Ru1'
_cell_volume   189.20376947
_cell_formula_units_Z   1
loop_
 _symmetry_equiv_pos_site_id
 _symmetry_equiv_pos_as_xyz
  1  'x, y, z'
loop_
 _atom_site_type_symbol
 _atom_site_label
 _atom_site_symmetry_multiplicity
 _atom_site_fract_x
 _atom_site_fract_y
 _atom_site_fract_z
 _atom_site_occupancy
  Er  Er0  1  0.580344  0.967953  0.000000  1
  Er  Er1  1  0.032047  0.612391  0.000000  1
  Er  Er2  1  0.387609  0.419656  0.000000  1
  Zn  Zn3  1  0.271798  0.985963  0.500000  1
  Zn  Zn4  1  0.014037  0.285836  0.500000  1
  Zn  Zn5  1  0.714164  0.728202  0.500000  1
  Hg  Hg6  1  0.000000  0.000000  0.000000  1
  Hg  Hg7  1  0.666667  0.333333  0.500000  1
  Ru  Ru8  1  0.333333  0.666667  0.500000  1
