# generated using pymatgen
data_Ac6ZnSb15
_symmetry_space_group_name_H-M   'P 1'
_cell_length_a   13.12915087
_cell_length_b   13.12915155
_cell_length_c   4.41724987
_cell_angle_alpha   80.27898177
_cell_angle_beta   80.27897906
_cell_angle_gamma   99.94028978
_symmetry_Int_Tables_number   1
_chemical_formula_structural   Ac6ZnSb15
_chemical_formula_sum   'Ac6 Zn1 Sb15'
_cell_volume   723.68610924
_cell_formula_units_Z   1
loop_
 _symmetry_equiv_pos_site_id
 _symmetry_equiv_pos_as_xyz
  1  'x, y, z'
loop_
 _atom_site_type_symbol
 _atom_site_label
 _atom_site_symmetry_multiplicity
 _atom_site_fract_x
 _atom_site_fract_y
 _atom_site_fract_z
 _atom_site_occupancy
  Ac  Ac0  1  0.266775  0.999083  0.761003  1
  Ac  Ac1  1  0.724638  0.997013  0.045382  1
  Ac  Ac2  1  0.997013  0.724638  0.045382  1
  Ac  Ac3  1  0.999083  0.266775  0.761003  1
  Ac  Ac4  1  0.329668  0.672228  0.897706  1
  Ac  Ac5  1  0.672228  0.329668  0.897706  1
  Zn  Zn6  1  0.252747  0.252747  0.653613  1
  Sb  Sb7  1  0.510347  0.913062  0.710616  1
  Sb  Sb8  1  0.484093  0.085602  0.088076  1
  Sb  Sb9  1  0.085602  0.484093  0.088076  1
  Sb  Sb10  1  0.913062  0.510347  0.710616  1
  Sb  Sb11  1  0.420670  0.420670  0.959629  1
  Sb  Sb12  1  0.597514  0.597514  0.818069  1
  Sb  Sb13  1  0.199530  0.795172  0.403974  1
  Sb  Sb14  1  0.795172  0.199530  0.403974  1
  Sb  Sb15  1  0.461123  0.246838  0.563004  1
  Sb  Sb16  1  0.545325  0.754420  0.224703  1
  Sb  Sb17  1  0.754420  0.545325  0.224703  1
  Sb  Sb18  1  0.246838  0.461123  0.563004  1
  Sb  Sb19  1  0.149719  0.149719  0.254730  1
  Sb  Sb20  1  0.862796  0.862796  0.545088  1
  Sb  Sb21  1  0.990636  0.990636  0.918042  1
