# generated using pymatgen
data_Zr6Zn21SiPt2
_symmetry_space_group_name_H-M   'P 1'
_cell_length_a   8.78739232
_cell_length_b   8.81852561
_cell_length_c   8.78739232
_cell_angle_alpha   59.88273095
_cell_angle_beta   60.05177793
_cell_angle_gamma   59.88271700
_symmetry_Int_Tables_number   1
_chemical_formula_structural   Zr6Zn21SiPt2
_chemical_formula_sum   'Zr6 Zn21 Si1 Pt2'
_cell_volume   480.83707252
_cell_formula_units_Z   1
loop_
 _symmetry_equiv_pos_site_id
 _symmetry_equiv_pos_as_xyz
  1  'x, y, z'
loop_
 _atom_site_type_symbol
 _atom_site_label
 _atom_site_symmetry_multiplicity
 _atom_site_fract_x
 _atom_site_fract_y
 _atom_site_fract_z
 _atom_site_occupancy
  Zr  Zr0  1  0.709722  0.290503  0.290278  1
  Zr  Zr1  1  0.290278  0.709497  0.709722  1
  Zr  Zr2  1  0.286428  0.713572  0.286428  1
  Zr  Zr3  1  0.713572  0.286428  0.713572  1
  Zr  Zr4  1  0.290278  0.290503  0.709722  1
  Zr  Zr5  1  0.709722  0.709497  0.290278  1
  Zn  Zn6  1  0.121471  0.123513  0.121471  1
  Zn  Zn7  1  0.878529  0.876487  0.878529  1
  Zn  Zn8  1  0.126301  0.120776  0.632149  1
  Zn  Zn9  1  0.121471  0.633545  0.121471  1
  Zn  Zn10  1  0.873699  0.879224  0.367851  1
  Zn  Zn11  1  0.878529  0.366455  0.878529  1
  Zn  Zn12  1  0.632149  0.120776  0.126301  1
  Zn  Zn13  1  0.367851  0.879224  0.873699  1
  Zn  Zn14  1  0.500000  0.000000  0.000000  1
  Zn  Zn15  1  0.000000  0.500000  0.500000  1
  Zn  Zn16  1  0.000000  0.500000  0.000000  1
  Zn  Zn17  1  0.000000  0.000000  0.500000  1
  Zn  Zn18  1  0.500000  0.500000  0.000000  1
  Zn  Zn19  1  0.336885  0.340533  0.336885  1
  Zn  Zn20  1  0.663115  0.659467  0.663115  1
  Zn  Zn21  1  0.338949  0.336538  0.987976  1
  Zn  Zn22  1  0.336885  0.985699  0.336885  1
  Zn  Zn23  1  0.661051  0.663462  0.012024  1
  Zn  Zn24  1  0.663115  0.014301  0.663115  1
  Zn  Zn25  1  0.987976  0.336538  0.338949  1
  Zn  Zn26  1  0.012024  0.663462  0.661051  1
  Si  Si27  1  0.500000  0.500000  0.500000  1
  Pt  Pt28  1  0.500000  0.000000  0.500000  1
  Pt  Pt29  1  0.000000  0.000000  0.000000  1
