# generated using pymatgen
data_Dy2ErGa5Ir
_symmetry_space_group_name_H-M   'P 1'
_cell_length_a   6.94405300
_cell_length_b   6.94405214
_cell_length_c   4.26852900
_cell_angle_alpha   90.00000000
_cell_angle_beta   90.00000000
_cell_angle_gamma   119.87032889
_symmetry_Int_Tables_number   1
_chemical_formula_structural   Dy2ErGa5Ir
_chemical_formula_sum   'Dy2 Er1 Ga5 Ir1'
_cell_volume   178.48464440
_cell_formula_units_Z   1
loop_
 _symmetry_equiv_pos_site_id
 _symmetry_equiv_pos_as_xyz
  1  'x, y, z'
loop_
 _atom_site_type_symbol
 _atom_site_label
 _atom_site_symmetry_multiplicity
 _atom_site_fract_x
 _atom_site_fract_y
 _atom_site_fract_z
 _atom_site_occupancy
  Dy  Dy0  1  0.588142  0.999556  0.000000  1
  Dy  Dy1  1  0.999556  0.588142  0.000000  1
  Er  Er2  1  0.409628  0.409628  0.000000  1
  Ga  Ga3  1  0.236476  0.000366  0.500000  1
  Ga  Ga4  1  0.000366  0.236476  0.500000  1
  Ga  Ga5  1  0.763547  0.763547  0.500000  1
  Ga  Ga6  1  0.333882  0.665855  0.500000  1
  Ga  Ga7  1  0.665855  0.333882  0.500000  1
  Ir  Ir8  1  0.002548  0.002548  0.000000  1
