# generated using pymatgen
data_CaGd8ZrIr6
_symmetry_space_group_name_H-M   'P 1'
_cell_length_a   11.03212400
_cell_length_b   11.03212400
_cell_length_c   6.30114100
_cell_angle_alpha   90.00000000
_cell_angle_beta   90.00000000
_cell_angle_gamma   90.00000000
_symmetry_Int_Tables_number   1
_chemical_formula_structural   CaGd8ZrIr6
_chemical_formula_sum   'Ca2 Gd16 Zr2 Ir12'
_cell_volume   766.89775625
_cell_formula_units_Z   2
loop_
 _symmetry_equiv_pos_site_id
 _symmetry_equiv_pos_as_xyz
  1  'x, y, z'
loop_
 _atom_site_type_symbol
 _atom_site_label
 _atom_site_symmetry_multiplicity
 _atom_site_fract_x
 _atom_site_fract_y
 _atom_site_fract_z
 _atom_site_occupancy
  Ca  Ca0  1  0.500000  0.500000  0.000000  1
  Ca  Ca1  1  0.500000  0.500000  0.500000  1
  Gd  Gd2  1  0.287602  0.087273  0.377800  1
  Gd  Gd3  1  0.287602  0.912727  0.877800  1
  Gd  Gd4  1  0.712398  0.087273  0.877800  1
  Gd  Gd5  1  0.712398  0.912727  0.377800  1
  Gd  Gd6  1  0.587200  0.791610  0.879279  1
  Gd  Gd7  1  0.587200  0.208390  0.379279  1
  Gd  Gd8  1  0.412800  0.791610  0.379279  1
  Gd  Gd9  1  0.412800  0.208390  0.879279  1
  Gd  Gd10  1  0.208390  0.412800  0.620721  1
  Gd  Gd11  1  0.208390  0.587200  0.120721  1
  Gd  Gd12  1  0.791610  0.412800  0.120721  1
  Gd  Gd13  1  0.791610  0.587200  0.620721  1
  Gd  Gd14  1  0.912727  0.712398  0.122200  1
  Gd  Gd15  1  0.912727  0.287602  0.622200  1
  Gd  Gd16  1  0.087273  0.712398  0.622200  1
  Gd  Gd17  1  0.087273  0.287602  0.122200  1
  Zr  Zr18  1  0.000000  0.000000  0.500000  1
  Zr  Zr19  1  0.000000  0.000000  0.000000  1
  Ir  Ir20  1  0.859076  0.140924  0.250000  1
  Ir  Ir21  1  0.859076  0.859076  0.750000  1
  Ir  Ir22  1  0.140924  0.140924  0.750000  1
  Ir  Ir23  1  0.140924  0.859076  0.250000  1
  Ir  Ir24  1  0.660860  0.339140  0.750000  1
  Ir  Ir25  1  0.660860  0.660860  0.250000  1
  Ir  Ir26  1  0.339140  0.339140  0.250000  1
  Ir  Ir27  1  0.339140  0.660860  0.750000  1
  Ir  Ir28  1  0.500000  0.000000  0.119101  1
  Ir  Ir29  1  0.500000  0.000000  0.619101  1
  Ir  Ir30  1  0.000000  0.500000  0.880899  1
  Ir  Ir31  1  0.000000  0.500000  0.380899  1
