# generated using pymatgen
data_La10Mg(AlIr2)3
_symmetry_space_group_name_H-M   'P 1'
_cell_length_a   8.74814743
_cell_length_b   8.74814642
_cell_length_c   8.70306500
_cell_angle_alpha   109.36686643
_cell_angle_beta   109.36686410
_cell_angle_gamma   109.57537763
_symmetry_Int_Tables_number   1
_chemical_formula_structural   La10Mg(AlIr2)3
_chemical_formula_sum   'La10 Mg1 Al3 Ir6'
_cell_volume   513.38143008
_cell_formula_units_Z   1
loop_
 _symmetry_equiv_pos_site_id
 _symmetry_equiv_pos_as_xyz
  1  'x, y, z'
loop_
 _atom_site_type_symbol
 _atom_site_label
 _atom_site_symmetry_multiplicity
 _atom_site_fract_x
 _atom_site_fract_y
 _atom_site_fract_z
 _atom_site_occupancy
  La  La0  1  0.244307  0.675663  0.427832  1
  La  La1  1  0.749853  0.810954  0.065576  1
  La  La2  1  0.431357  0.255693  0.683524  1
  La  La3  1  0.689046  0.438899  0.254621  1
  La  La4  1  0.061102  0.750147  0.815723  1
  La  La5  1  0.824337  0.068644  0.752168  1
  La  La6  1  0.216181  0.213014  0.214279  1
  La  La7  1  0.500001  0.000000  0.291143  1
  La  La8  1  0.286986  0.503168  0.001265  1
  La  La9  1  0.996833  0.283819  0.498099  1
  Mg  Mg10  1  0.500001  0.000000  0.900340  1
  Al  Al11  1  0.602379  0.602283  0.601466  1
  Al  Al12  1  0.897717  0.500097  0.999183  1
  Al  Al13  1  0.999904  0.897621  0.499089  1
  Ir  Ir14  1  0.237855  0.126995  0.865079  1
  Ir  Ir15  1  0.748022  0.382849  0.632058  1
  Ir  Ir16  1  0.889141  0.262147  0.127225  1
  Ir  Ir17  1  0.117150  0.865172  0.249210  1
  Ir  Ir18  1  0.634827  0.751978  0.384036  1
  Ir  Ir19  1  0.373004  0.610858  0.738084  1
