# generated using pymatgen
data_Tm2Zn8Cu9
_symmetry_space_group_name_H-M   'P 1'
_cell_length_a   6.56899026
_cell_length_b   6.56899099
_cell_length_c   6.55186800
_cell_angle_alpha   83.24463006
_cell_angle_beta   83.24461786
_cell_angle_gamma   82.71165048
_symmetry_Int_Tables_number   1
_chemical_formula_structural   Tm2Zn8Cu9
_chemical_formula_sum   'Tm2 Zn8 Cu9'
_cell_volume   276.97452727
_cell_formula_units_Z   1
loop_
 _symmetry_equiv_pos_site_id
 _symmetry_equiv_pos_as_xyz
  1  'x, y, z'
loop_
 _atom_site_type_symbol
 _atom_site_label
 _atom_site_symmetry_multiplicity
 _atom_site_fract_x
 _atom_site_fract_y
 _atom_site_fract_z
 _atom_site_occupancy
  Tm  Tm0  1  0.349983  0.349983  0.344411  1
  Tm  Tm1  1  0.650165  0.650165  0.655417  1
  Zn  Zn2  1  0.647014  0.647014  0.147523  1
  Zn  Zn3  1  0.353117  0.353117  0.852393  1
  Zn  Zn4  1  0.995788  0.304015  0.695496  1
  Zn  Zn5  1  0.695710  0.004284  0.304270  1
  Zn  Zn6  1  0.004284  0.695710  0.304270  1
  Zn  Zn7  1  0.304015  0.995788  0.695496  1
  Zn  Zn8  1  0.100623  0.100623  0.108583  1
  Zn  Zn9  1  0.899317  0.899317  0.891214  1
  Cu  Cu10  1  0.650334  0.159499  0.652355  1
  Cu  Cu11  1  0.159499  0.650334  0.652355  1
  Cu  Cu12  1  0.840787  0.349416  0.348243  1
  Cu  Cu13  1  0.349416  0.840787  0.348243  1
  Cu  Cu14  1  0.293870  0.706487  0.000108  1
  Cu  Cu15  1  0.706487  0.293870  0.000108  1
  Cu  Cu16  1  0.999919  0.999919  0.499423  1
  Cu  Cu17  1  0.499634  0.000042  0.000045  1
  Cu  Cu18  1  0.000042  0.499634  0.000045  1
