# generated using pymatgen
data_Y10Ho2InCo4Pt
_symmetry_space_group_name_H-M   'P 1'
_cell_length_a   8.36137592
_cell_length_b   8.35370728
_cell_length_c   8.35370681
_cell_angle_alpha   110.89910744
_cell_angle_beta   110.56970441
_cell_angle_gamma   106.93818740
_symmetry_Int_Tables_number   1
_chemical_formula_structural   Y10Ho2InCo4Pt
_chemical_formula_sum   'Y10 Ho2 In1 Co4 Pt1'
_cell_volume   448.71987253
_cell_formula_units_Z   1
loop_
 _symmetry_equiv_pos_site_id
 _symmetry_equiv_pos_as_xyz
  1  'x, y, z'
loop_
 _atom_site_type_symbol
 _atom_site_label
 _atom_site_symmetry_multiplicity
 _atom_site_fract_x
 _atom_site_fract_y
 _atom_site_fract_z
 _atom_site_occupancy
  Y  Y0  1  0.314447  0.619070  0.303526  1
  Y  Y1  1  0.685553  0.380930  0.696474  1
  Y  Y2  1  0.314447  0.010921  0.695379  1
  Y  Y3  1  0.685553  0.989079  0.304621  1
  Y  Y4  1  0.185865  0.291012  0.477884  1
  Y  Y5  1  0.814135  0.708988  0.522116  1
  Y  Y6  1  0.185865  0.707981  0.894853  1
  Y  Y7  1  0.814135  0.292019  0.105147  1
  Y  Y8  1  0.413373  0.215356  0.198017  1
  Y  Y9  1  0.586627  0.784644  0.801983  1
  Ho  Ho10  1  0.015690  0.213823  0.801866  1
  Ho  Ho11  1  0.984310  0.786177  0.198134  1
  In  In12  1  0.500000  0.500000  0.000000  1
  Co  Co13  1  0.110750  0.610958  0.499792  1
  Co  Co14  1  0.889250  0.389042  0.500208  1
  Co  Co15  1  0.379737  0.999237  0.380500  1
  Co  Co16  1  0.620263  0.000763  0.619500  1
  Pt  Pt17  1  0.000000  0.000000  0.000000  1
