# generated using pymatgen
data_La5PrHo4(Sn5Rh2)4
_symmetry_space_group_name_H-M   'P 1'
_cell_length_a   14.24166700
_cell_length_b   14.24166700
_cell_length_c   4.59052200
_cell_angle_alpha   90.00000000
_cell_angle_beta   90.00000000
_cell_angle_gamma   90.00000000
_symmetry_Int_Tables_number   1
_chemical_formula_structural   La5PrHo4(Sn5Rh2)4
_chemical_formula_sum   'La5 Pr1 Ho4 Sn20 Rh8'
_cell_volume   931.07298702
_cell_formula_units_Z   1
loop_
 _symmetry_equiv_pos_site_id
 _symmetry_equiv_pos_as_xyz
  1  'x, y, z'
loop_
 _atom_site_type_symbol
 _atom_site_label
 _atom_site_symmetry_multiplicity
 _atom_site_fract_x
 _atom_site_fract_y
 _atom_site_fract_z
 _atom_site_occupancy
  La  La0  1  0.500000  0.500000  0.000000  1
  La  La1  1  0.888321  0.388397  0.500000  1
  La  La2  1  0.111679  0.611603  0.500000  1
  La  La3  1  0.388397  0.111679  0.500000  1
  La  La4  1  0.611603  0.888321  0.500000  1
  Pr  Pr5  1  0.000000  0.000000  0.000000  1
  Ho  Ho6  1  0.676436  0.176524  0.500000  1
  Ho  Ho7  1  0.323564  0.823476  0.500000  1
  Ho  Ho8  1  0.176524  0.323564  0.500000  1
  Ho  Ho9  1  0.823476  0.676436  0.500000  1
  Sn  Sn10  1  0.570418  0.070421  0.000000  1
  Sn  Sn11  1  0.429582  0.929579  0.000000  1
  Sn  Sn12  1  0.070421  0.429582  0.000000  1
  Sn  Sn13  1  0.929579  0.570418  0.000000  1
  Sn  Sn14  1  0.654292  0.698080  0.000000  1
  Sn  Sn15  1  0.345708  0.301920  0.000000  1
  Sn  Sn16  1  0.154405  0.801851  0.000000  1
  Sn  Sn17  1  0.845595  0.198149  0.000000  1
  Sn  Sn18  1  0.301920  0.654292  0.000000  1
  Sn  Sn19  1  0.698080  0.345708  0.000000  1
  Sn  Sn20  1  0.198149  0.154405  0.000000  1
  Sn  Sn21  1  0.801851  0.845595  0.000000  1
  Sn  Sn22  1  0.664374  0.506682  0.500000  1
  Sn  Sn23  1  0.335626  0.493318  0.500000  1
  Sn  Sn24  1  0.164262  0.993437  0.500000  1
  Sn  Sn25  1  0.835738  0.006563  0.500000  1
  Sn  Sn26  1  0.493318  0.664374  0.500000  1
  Sn  Sn27  1  0.506682  0.335626  0.500000  1
  Sn  Sn28  1  0.006563  0.164262  0.500000  1
  Sn  Sn29  1  0.993437  0.835738  0.500000  1
  Rh  Rh30  1  0.747518  0.530114  0.000000  1
  Rh  Rh31  1  0.252482  0.469886  0.000000  1
  Rh  Rh32  1  0.247098  0.969956  0.000000  1
  Rh  Rh33  1  0.752902  0.030044  0.000000  1
  Rh  Rh34  1  0.469886  0.747518  0.000000  1
  Rh  Rh35  1  0.530114  0.252482  0.000000  1
  Rh  Rh36  1  0.030044  0.247098  0.000000  1
  Rh  Rh37  1  0.969956  0.752902  0.000000  1
