# generated using pymatgen
data_Cd12AgHg5
_symmetry_space_group_name_H-M   'P 1'
_cell_length_a   15.52940609
_cell_length_b   15.52940533
_cell_length_c   6.92791769
_cell_angle_alpha   98.88942081
_cell_angle_beta   98.88942060
_cell_angle_gamma   14.46895230
_symmetry_Int_Tables_number   1
_chemical_formula_structural   Cd12AgHg5
_chemical_formula_sum   'Cd12 Ag1 Hg5'
_cell_volume   412.35120642
_cell_formula_units_Z   1
loop_
 _symmetry_equiv_pos_site_id
 _symmetry_equiv_pos_as_xyz
  1  'x, y, z'
loop_
 _atom_site_type_symbol
 _atom_site_label
 _atom_site_symmetry_multiplicity
 _atom_site_fract_x
 _atom_site_fract_y
 _atom_site_fract_z
 _atom_site_occupancy
  Cd  Cd0  1  0.105551  0.105551  0.070424  1
  Cd  Cd1  1  0.223110  0.223110  0.107732  1
  Cd  Cd2  1  0.336201  0.336201  0.158766  1
  Cd  Cd3  1  0.448368  0.448368  0.226022  1
  Cd  Cd4  1  0.552559  0.552559  0.303119  1
  Cd  Cd5  1  0.779126  0.779126  0.386731  1
  Cd  Cd6  1  0.220874  0.220874  0.613270  1
  Cd  Cd7  1  0.447441  0.447441  0.696881  1
  Cd  Cd8  1  0.551632  0.551632  0.773977  1
  Cd  Cd9  1  0.663798  0.663798  0.841234  1
  Cd  Cd10  1  0.776889  0.776889  0.892267  1
  Cd  Cd11  1  0.894450  0.894450  0.929577  1
  Ag  Ag12  1  0.000000  0.000000  0.500000  1
  Hg  Hg13  1  0.000000  0.000000  0.000000  1
  Hg  Hg14  1  0.667974  0.667974  0.326071  1
  Hg  Hg15  1  0.889821  0.889821  0.430729  1
  Hg  Hg16  1  0.110179  0.110179  0.569272  1
  Hg  Hg17  1  0.332026  0.332026  0.673929  1
