# generated using pymatgen
data_ErU3(Si5Pt3)2
_symmetry_space_group_name_H-M   'P 1'
_cell_length_a   8.13549338
_cell_length_b   8.15656822
_cell_length_c   8.15656766
_cell_angle_alpha   135.94754951
_cell_angle_beta   104.57100468
_cell_angle_gamma   91.74467190
_symmetry_Int_Tables_number   1
_chemical_formula_structural   ErU3(Si5Pt3)2
_chemical_formula_sum   'Er1 U3 Si10 Pt6'
_cell_volume   345.82352426
_cell_formula_units_Z   1
loop_
 _symmetry_equiv_pos_site_id
 _symmetry_equiv_pos_as_xyz
  1  'x, y, z'
loop_
 _atom_site_type_symbol
 _atom_site_label
 _atom_site_symmetry_multiplicity
 _atom_site_fract_x
 _atom_site_fract_y
 _atom_site_fract_z
 _atom_site_occupancy
  Er  Er0  1  0.855689  0.128734  0.726955  1
  U  U1  1  0.598856  0.368500  0.230357  1
  U  U2  1  0.400592  0.630802  0.769790  1
  U  U3  1  0.141582  0.870595  0.270987  1
  Si  Si4  1  0.497573  0.251900  0.752007  1
  Si  Si5  1  0.497573  0.745566  0.245673  1
  Si  Si6  1  0.228691  0.478026  0.250975  1
  Si  Si7  1  0.773709  0.021539  0.248286  1
  Si  Si8  1  0.773709  0.525423  0.752170  1
  Si  Si9  1  0.228691  0.977716  0.750665  1
  Si  Si10  1  0.962622  0.612680  0.349942  1
  Si  Si11  1  0.039783  0.389094  0.650689  1
  Si  Si12  1  0.263718  0.112050  0.151669  1
  Si  Si13  1  0.736211  0.886944  0.849266  1
  Pt  Pt14  1  0.999632  0.751127  0.748639  1
  Pt  Pt15  1  0.999632  0.250993  0.248505  1
  Pt  Pt16  1  0.529328  0.137520  0.391807  1
  Pt  Pt17  1  0.476269  0.864481  0.611790  1
  Pt  Pt18  1  0.749987  0.637447  0.112540  1
  Pt  Pt19  1  0.246153  0.358865  0.887289  1
