# generated using pymatgen
data_YbHfTh7Se17
_symmetry_space_group_name_H-M   'P 1'
_cell_length_a   8.43589902
_cell_length_b   8.43101840
_cell_length_c   11.16606600
_cell_angle_alpha   80.80301008
_cell_angle_beta   80.55551965
_cell_angle_gamma   65.42826451
_symmetry_Int_Tables_number   1
_chemical_formula_structural   YbHfTh7Se17
_chemical_formula_sum   'Yb1 Hf1 Th7 Se17'
_cell_volume   708.73474681
_cell_formula_units_Z   1
loop_
 _symmetry_equiv_pos_site_id
 _symmetry_equiv_pos_as_xyz
  1  'x, y, z'
loop_
 _atom_site_type_symbol
 _atom_site_label
 _atom_site_symmetry_multiplicity
 _atom_site_fract_x
 _atom_site_fract_y
 _atom_site_fract_z
 _atom_site_occupancy
  Yb  Yb0  1  0.811359  0.308055  0.297384  1
  Hf  Hf1  1  0.997339  0.006531  0.004429  1
  Th  Th2  1  0.303853  0.814380  0.297439  1
  Th  Th3  1  0.184186  0.695741  0.700453  1
  Th  Th4  1  0.698143  0.187338  0.697285  1
  Th  Th5  1  0.206787  0.203165  0.537643  1
  Th  Th6  1  0.794036  0.792298  0.458840  1
  Th  Th7  1  0.680095  0.678732  0.983964  1
  Th  Th8  1  0.317197  0.323002  0.022197  1
  Se  Se9  1  0.827490  0.428618  0.537650  1
  Se  Se10  1  0.432602  0.817806  0.535158  1
  Se  Se11  1  0.179316  0.565257  0.465239  1
  Se  Se12  1  0.571620  0.172527  0.468934  1
  Se  Se13  1  0.943665  0.329151  0.026108  1
  Se  Se14  1  0.326293  0.945994  0.025403  1
  Se  Se15  1  0.055303  0.677201  0.969876  1
  Se  Se16  1  0.673560  0.059808  0.970116  1
  Se  Se17  1  0.218074  0.201828  0.275645  1
  Se  Se18  1  0.788299  0.790498  0.725802  1
  Se  Se19  1  0.063568  0.058602  0.769868  1
  Se  Se20  1  0.942108  0.935322  0.232577  1
  Se  Se21  1  0.303590  0.302641  0.754287  1
  Se  Se22  1  0.689552  0.705484  0.244449  1
  Se  Se23  1  0.518650  0.520953  0.832053  1
  Se  Se24  1  0.468605  0.490316  0.161348  1
  Se  Se25  1  0.004710  0.988752  0.505853  1
