# generated using pymatgen
data_ErFeP3Rh4
_symmetry_space_group_name_H-M   'P 1'
_cell_length_a   3.84226600
_cell_length_b   10.72929700
_cell_length_c   12.39604100
_cell_angle_alpha   90.00000000
_cell_angle_beta   90.00000000
_cell_angle_gamma   90.00000000
_symmetry_Int_Tables_number   1
_chemical_formula_structural   ErFeP3Rh4
_chemical_formula_sum   'Er4 Fe4 P12 Rh16'
_cell_volume   511.02447300
_cell_formula_units_Z   4
loop_
 _symmetry_equiv_pos_site_id
 _symmetry_equiv_pos_as_xyz
  1  'x, y, z'
loop_
 _atom_site_type_symbol
 _atom_site_label
 _atom_site_symmetry_multiplicity
 _atom_site_fract_x
 _atom_site_fract_y
 _atom_site_fract_z
 _atom_site_occupancy
  Er  Er0  1  0.250000  0.582619  0.709465  1
  Er  Er1  1  0.250000  0.917381  0.209465  1
  Er  Er2  1  0.750000  0.417381  0.290535  1
  Er  Er3  1  0.750000  0.082619  0.790535  1
  Fe  Fe4  1  0.250000  0.462025  0.933170  1
  Fe  Fe5  1  0.250000  0.037975  0.433170  1
  Fe  Fe6  1  0.750000  0.537975  0.066830  1
  Fe  Fe7  1  0.750000  0.962025  0.566830  1
  P  P8  1  0.250000  0.429746  0.106145  1
  P  P9  1  0.250000  0.070254  0.606145  1
  P  P10  1  0.750000  0.570254  0.893855  1
  P  P11  1  0.750000  0.929746  0.393855  1
  P  P12  1  0.250000  0.270338  0.870110  1
  P  P13  1  0.250000  0.229662  0.370110  1
  P  P14  1  0.750000  0.729662  0.129890  1
  P  P15  1  0.750000  0.770338  0.629890  1
  P  P16  1  0.250000  0.600552  0.388561  1
  P  P17  1  0.250000  0.899448  0.888561  1
  P  P18  1  0.750000  0.399448  0.611439  1
  P  P19  1  0.750000  0.100552  0.111439  1
  Rh  Rh20  1  0.250000  0.716107  0.990077  1
  Rh  Rh21  1  0.250000  0.783893  0.490077  1
  Rh  Rh22  1  0.750000  0.283893  0.009923  1
  Rh  Rh23  1  0.750000  0.216107  0.509923  1
  Rh  Rh24  1  0.250000  0.408619  0.479186  1
  Rh  Rh25  1  0.250000  0.091381  0.979186  1
  Rh  Rh26  1  0.750000  0.591381  0.520814  1
  Rh  Rh27  1  0.750000  0.908619  0.020814  1
  Rh  Rh28  1  0.250000  0.230956  0.175639  1
  Rh  Rh29  1  0.250000  0.269044  0.675639  1
  Rh  Rh30  1  0.750000  0.769044  0.824361  1
  Rh  Rh31  1  0.750000  0.730956  0.324361  1
  Rh  Rh32  1  0.250000  0.882503  0.700575  1
  Rh  Rh33  1  0.250000  0.617497  0.200575  1
  Rh  Rh34  1  0.750000  0.117497  0.299425  1
  Rh  Rh35  1  0.750000  0.382503  0.799425  1
