# generated using pymatgen
data_U6Sb8IrPt5
_symmetry_space_group_name_H-M   'P 1'
_cell_length_a   8.43174117
_cell_length_b   8.43174105
_cell_length_c   8.43174166
_cell_angle_alpha   109.62339157
_cell_angle_beta   109.16729983
_cell_angle_gamma   109.62340208
_symmetry_Int_Tables_number   1
_chemical_formula_structural   U6Sb8IrPt5
_chemical_formula_sum   'U6 Sb8 Ir1 Pt5'
_cell_volume   461.44584842
_cell_formula_units_Z   1
loop_
 _symmetry_equiv_pos_site_id
 _symmetry_equiv_pos_as_xyz
  1  'x, y, z'
loop_
 _atom_site_type_symbol
 _atom_site_label
 _atom_site_symmetry_multiplicity
 _atom_site_fract_x
 _atom_site_fract_y
 _atom_site_fract_z
 _atom_site_occupancy
  U  U0  1  0.875000  0.250000  0.125000  1
  U  U1  1  0.625000  0.750000  0.375000  1
  U  U2  1  0.251392  0.128024  0.870493  1
  U  U3  1  0.742469  0.371976  0.623369  1
  U  U4  1  0.129507  0.880899  0.257531  1
  U  U5  1  0.376631  0.619101  0.748608  1
  Sb  Sb6  1  0.676264  0.498347  0.998414  1
  Sb  Sb7  1  0.500068  0.001653  0.677918  1
  Sb  Sb8  1  0.000141  0.678406  0.501133  1
  Sb  Sb9  1  0.822726  0.821594  0.821735  1
  Sb  Sb10  1  0.498867  0.999009  0.177274  1
  Sb  Sb11  1  0.178265  0.500991  0.999859  1
  Sb  Sb12  1  0.001586  0.177850  0.499932  1
  Sb  Sb13  1  0.322082  0.322150  0.323736  1
  Ir  Ir14  1  0.375000  0.250000  0.625000  1
  Pt  Pt15  1  0.125000  0.750000  0.875000  1
  Pt  Pt16  1  0.250572  0.625432  0.375219  1
  Pt  Pt17  1  0.749787  0.874568  0.125140  1
  Pt  Pt18  1  0.624781  0.375353  0.250213  1
  Pt  Pt19  1  0.874860  0.124647  0.749428  1
