# generated using pymatgen
data_Nb10Ga3Si3N
_symmetry_space_group_name_H-M   'P 1'
_cell_length_a   7.66615300
_cell_length_b   7.66615254
_cell_length_c   5.31419500
_cell_angle_alpha   90.00000000
_cell_angle_beta   90.00000000
_cell_angle_gamma   119.99999769
_symmetry_Int_Tables_number   1
_chemical_formula_structural   Nb10Ga3Si3N
_chemical_formula_sum   'Nb10 Ga3 Si3 N1'
_cell_volume   270.47247003
_cell_formula_units_Z   1
loop_
 _symmetry_equiv_pos_site_id
 _symmetry_equiv_pos_as_xyz
  1  'x, y, z'
loop_
 _atom_site_type_symbol
 _atom_site_label
 _atom_site_symmetry_multiplicity
 _atom_site_fract_x
 _atom_site_fract_y
 _atom_site_fract_z
 _atom_site_occupancy
  Nb  Nb0  1  0.000000  0.761211  0.259713  1
  Nb  Nb1  1  0.238789  0.238789  0.259713  1
  Nb  Nb2  1  0.761211  0.000000  0.259713  1
  Nb  Nb3  1  0.000000  0.237523  0.740230  1
  Nb  Nb4  1  0.762477  0.762477  0.740230  1
  Nb  Nb5  1  0.237523  0.000000  0.740230  1
  Nb  Nb6  1  0.333333  0.666667  0.997235  1
  Nb  Nb7  1  0.666667  0.333333  0.997235  1
  Nb  Nb8  1  0.666667  0.333333  0.501678  1
  Nb  Nb9  1  0.333333  0.666667  0.501678  1
  Ga  Ga10  1  0.000000  0.401653  0.242807  1
  Ga  Ga11  1  0.598347  0.598347  0.242807  1
  Ga  Ga12  1  0.401653  0.000000  0.242807  1
  Si  Si13  1  0.000000  0.599335  0.758623  1
  Si  Si14  1  0.400665  0.400665  0.758623  1
  Si  Si15  1  0.599335  0.000000  0.758623  1
  N  N16  1  0.000000  0.000000  0.498054  1
