# generated using pymatgen
data_Sc12Co(OsBr8)2
_symmetry_space_group_name_H-M   'P 1'
_cell_length_a   8.89761583
_cell_length_b   11.60213466
_cell_length_c   12.34585400
_cell_angle_alpha   117.07938572
_cell_angle_beta   101.09314586
_cell_angle_gamma   100.76466901
_symmetry_Int_Tables_number   1
_chemical_formula_structural   Sc12Co(OsBr8)2
_chemical_formula_sum   'Sc12 Co1 Os2 Br16'
_cell_volume   1057.23977060
_cell_formula_units_Z   1
loop_
 _symmetry_equiv_pos_site_id
 _symmetry_equiv_pos_as_xyz
  1  'x, y, z'
loop_
 _atom_site_type_symbol
 _atom_site_label
 _atom_site_symmetry_multiplicity
 _atom_site_fract_x
 _atom_site_fract_y
 _atom_site_fract_z
 _atom_site_occupancy
  Sc  Sc0  1  0.090052  0.272704  0.359817  1
  Sc  Sc1  1  0.916427  0.730983  0.642035  1
  Sc  Sc2  1  0.783295  0.535847  0.329026  1
  Sc  Sc3  1  0.220378  0.465097  0.668432  1
  Sc  Sc4  1  0.276211  0.727290  0.640335  1
  Sc  Sc5  1  0.727416  0.269014  0.357638  1
  Sc  Sc6  1  0.145181  0.534483  0.331932  1
  Sc  Sc7  1  0.860050  0.464708  0.670502  1
  Sc  Sc8  1  0.404653  0.360162  0.276433  1
  Sc  Sc9  1  0.592022  0.639830  0.724005  1
  Sc  Sc10  1  0.458091  0.312480  0.520087  1
  Sc  Sc11  1  0.538845  0.687244  0.480148  1
  Co  Co12  1  0.340838  0.499888  0.499779  1
  Os  Os13  1  0.002479  0.500036  0.499950  1
  Os  Os14  1  0.659531  0.500016  0.500404  1
  Br  Br15  1  0.389932  0.729700  0.866761  1
  Br  Br16  1  0.607600  0.269628  0.132331  1
  Br  Br17  1  0.185090  0.946448  0.772722  1
  Br  Br18  1  0.821277  0.053561  0.226236  1
  Br  Br19  1  0.338147  0.112043  0.263199  1
  Br  Br20  1  0.649038  0.887779  0.736957  1
  Br  Br21  1  0.548924  0.438183  0.784869  1
  Br  Br22  1  0.439944  0.561542  0.215220  1
  Br  Br23  1  0.305700  0.812917  0.465279  1
  Br  Br24  1  0.694324  0.187004  0.534507  1
  Br  Br25  1  0.169784  0.185522  0.531979  1
  Br  Br26  1  0.829314  0.814577  0.468151  1
  Br  Br27  1  0.932177  0.570471  0.172261  1
  Br  Br28  1  0.074481  0.429896  0.828027  1
  Br  Br29  1  0.915218  0.729624  0.867647  1
  Br  Br30  1  0.083580  0.271322  0.133326  1
