# generated using pymatgen
data_Dy4HoZr5(Si5Ir2)4
_symmetry_space_group_name_H-M   'P 1'
_cell_length_a   12.51743500
_cell_length_b   12.51743500
_cell_length_c   4.17824900
_cell_angle_alpha   90.00000000
_cell_angle_beta   90.00000000
_cell_angle_gamma   90.00000000
_symmetry_Int_Tables_number   1
_chemical_formula_structural   Dy4HoZr5(Si5Ir2)4
_chemical_formula_sum   'Dy4 Ho1 Zr5 Si20 Ir8'
_cell_volume   654.67387063
_cell_formula_units_Z   1
loop_
 _symmetry_equiv_pos_site_id
 _symmetry_equiv_pos_as_xyz
  1  'x, y, z'
loop_
 _atom_site_type_symbol
 _atom_site_label
 _atom_site_symmetry_multiplicity
 _atom_site_fract_x
 _atom_site_fract_y
 _atom_site_fract_z
 _atom_site_occupancy
  Dy  Dy0  1  0.884251  0.384602  0.500000  1
  Dy  Dy1  1  0.115749  0.615398  0.500000  1
  Dy  Dy2  1  0.384602  0.115749  0.500000  1
  Dy  Dy3  1  0.615398  0.884251  0.500000  1
  Ho  Ho4  1  0.000000  0.000000  0.000000  1
  Zr  Zr5  1  0.500000  0.500000  0.000000  1
  Zr  Zr6  1  0.674058  0.175472  0.500000  1
  Zr  Zr7  1  0.325942  0.824528  0.500000  1
  Zr  Zr8  1  0.175472  0.325942  0.500000  1
  Zr  Zr9  1  0.824528  0.674058  0.500000  1
  Si  Si10  1  0.566185  0.067682  0.000000  1
  Si  Si11  1  0.433815  0.932318  0.000000  1
  Si  Si12  1  0.067682  0.433815  0.000000  1
  Si  Si13  1  0.932318  0.566185  0.000000  1
  Si  Si14  1  0.665383  0.700377  0.000000  1
  Si  Si15  1  0.334617  0.299623  0.000000  1
  Si  Si16  1  0.164468  0.801041  0.000000  1
  Si  Si17  1  0.835532  0.198959  0.000000  1
  Si  Si18  1  0.299623  0.665383  0.000000  1
  Si  Si19  1  0.700377  0.334617  0.000000  1
  Si  Si20  1  0.198959  0.164468  0.000000  1
  Si  Si21  1  0.801041  0.835532  0.000000  1
  Si  Si22  1  0.652855  0.507256  0.500000  1
  Si  Si23  1  0.347145  0.492744  0.500000  1
  Si  Si24  1  0.157049  0.993109  0.500000  1
  Si  Si25  1  0.842951  0.006891  0.500000  1
  Si  Si26  1  0.492744  0.652855  0.500000  1
  Si  Si27  1  0.507256  0.347145  0.500000  1
  Si  Si28  1  0.006891  0.157049  0.500000  1
  Si  Si29  1  0.993109  0.842951  0.500000  1
  Ir  Ir30  1  0.742648  0.520687  0.000000  1
  Ir  Ir31  1  0.257352  0.479313  0.000000  1
  Ir  Ir32  1  0.245904  0.979274  0.000000  1
  Ir  Ir33  1  0.754096  0.020726  0.000000  1
  Ir  Ir34  1  0.479313  0.742648  0.000000  1
  Ir  Ir35  1  0.520687  0.257352  0.000000  1
  Ir  Ir36  1  0.020726  0.245904  0.000000  1
  Ir  Ir37  1  0.979274  0.754096  0.000000  1
