# generated using pymatgen
data_Be6Nb6C
_symmetry_space_group_name_H-M   'P 1'
_cell_length_a   7.74800411
_cell_length_b   7.74800284
_cell_length_c   7.74800400
_cell_angle_alpha   60.00000358
_cell_angle_beta   60.00000902
_cell_angle_gamma   60.00000304
_symmetry_Int_Tables_number   1
_chemical_formula_structural   Be6Nb6C
_chemical_formula_sum   'Be12 Nb12 C2'
_cell_volume   328.89290401
_cell_formula_units_Z   2
loop_
 _symmetry_equiv_pos_site_id
 _symmetry_equiv_pos_as_xyz
  1  'x, y, z'
loop_
 _atom_site_type_symbol
 _atom_site_label
 _atom_site_symmetry_multiplicity
 _atom_site_fract_x
 _atom_site_fract_y
 _atom_site_fract_z
 _atom_site_occupancy
  Be  Be0  1  0.425711  0.425711  0.722869  1
  Be  Be1  1  0.425711  0.722869  0.425711  1
  Be  Be2  1  0.722869  0.425711  0.425711  1
  Be  Be3  1  0.425711  0.425711  0.425711  1
  Be  Be4  1  0.824289  0.824289  0.527131  1
  Be  Be5  1  0.824289  0.527131  0.824289  1
  Be  Be6  1  0.527131  0.824289  0.824289  1
  Be  Be7  1  0.824289  0.824289  0.824289  1
  Be  Be8  1  0.625000  0.625000  0.125000  1
  Be  Be9  1  0.625000  0.125000  0.625000  1
  Be  Be10  1  0.125000  0.625000  0.625000  1
  Be  Be11  1  0.625000  0.625000  0.625000  1
  Nb  Nb12  1  0.050291  0.050291  0.449709  1
  Nb  Nb13  1  0.449709  0.050291  0.449709  1
  Nb  Nb14  1  0.050291  0.449709  0.449709  1
  Nb  Nb15  1  0.449709  0.449709  0.050291  1
  Nb  Nb16  1  0.050291  0.449709  0.050291  1
  Nb  Nb17  1  0.449709  0.050291  0.050291  1
  Nb  Nb18  1  0.199709  0.199709  0.800291  1
  Nb  Nb19  1  0.800291  0.199709  0.800291  1
  Nb  Nb20  1  0.199709  0.800291  0.800291  1
  Nb  Nb21  1  0.800291  0.800291  0.199709  1
  Nb  Nb22  1  0.199709  0.800291  0.199709  1
  Nb  Nb23  1  0.800291  0.199709  0.199709  1
  C  C24  1  0.250000  0.250000  0.250000  1
  C  C25  1  0.000000  0.000000  0.000000  1
