# generated using pymatgen
data_Ce2B6Ir2Rh7
_symmetry_space_group_name_H-M   'P 1'
_cell_length_a   5.64581247
_cell_length_b   5.65694371
_cell_length_c   8.60739100
_cell_angle_alpha   90.00000000
_cell_angle_beta   90.00000000
_cell_angle_gamma   120.06525342
_symmetry_Int_Tables_number   1
_chemical_formula_structural   Ce2B6Ir2Rh7
_chemical_formula_sum   'Ce2 B6 Ir2 Rh7'
_cell_volume   237.91648202
_cell_formula_units_Z   1
loop_
 _symmetry_equiv_pos_site_id
 _symmetry_equiv_pos_as_xyz
  1  'x, y, z'
loop_
 _atom_site_type_symbol
 _atom_site_label
 _atom_site_symmetry_multiplicity
 _atom_site_fract_x
 _atom_site_fract_y
 _atom_site_fract_z
 _atom_site_occupancy
  Ce  Ce0  1  0.000000  0.000000  0.703025  1
  Ce  Ce1  1  0.000000  0.000000  0.296975  1
  B  B2  1  0.667011  0.333506  0.000000  1
  B  B3  1  0.332989  0.666494  0.000000  1
  B  B4  1  0.665812  0.332905  0.667557  1
  B  B5  1  0.334188  0.667095  0.667557  1
  B  B6  1  0.334188  0.667095  0.332443  1
  B  B7  1  0.665812  0.332905  0.332443  1
  Ir  Ir8  1  0.500000  0.500000  0.500000  1
  Ir  Ir9  1  0.500000  0.000000  0.500000  1
  Rh  Rh10  1  0.500000  0.500000  0.837290  1
  Rh  Rh11  1  0.500000  0.000000  0.837290  1
  Rh  Rh12  1  0.000000  0.500000  0.836860  1
  Rh  Rh13  1  0.500000  0.500000  0.162710  1
  Rh  Rh14  1  0.500000  0.000000  0.162710  1
  Rh  Rh15  1  0.000000  0.500000  0.163140  1
  Rh  Rh16  1  0.000000  0.500000  0.500000  1
