# generated using pymatgen
data_Ta4Cr2Co2SiP3
_symmetry_space_group_name_H-M   'P 1'
_cell_length_a   3.57174900
_cell_length_b   6.19456888
_cell_length_c   7.20689484
_cell_angle_alpha   89.46500584
_cell_angle_beta   90.00000000
_cell_angle_gamma   90.00000000
_symmetry_Int_Tables_number   1
_chemical_formula_structural   Ta4Cr2Co2SiP3
_chemical_formula_sum   'Ta4 Cr2 Co2 Si1 P3'
_cell_volume   159.44880567
_cell_formula_units_Z   1
loop_
 _symmetry_equiv_pos_site_id
 _symmetry_equiv_pos_as_xyz
  1  'x, y, z'
loop_
 _atom_site_type_symbol
 _atom_site_label
 _atom_site_symmetry_multiplicity
 _atom_site_fract_x
 _atom_site_fract_y
 _atom_site_fract_z
 _atom_site_occupancy
  Ta  Ta0  1  0.250000  0.019565  0.827930  1
  Ta  Ta1  1  0.250000  0.532154  0.672538  1
  Ta  Ta2  1  0.750000  0.975544  0.171793  1
  Ta  Ta3  1  0.750000  0.467893  0.330404  1
  Cr  Cr4  1  0.250000  0.143513  0.440761  1
  Cr  Cr5  1  0.750000  0.854386  0.563935  1
  Co  Co6  1  0.250000  0.647283  0.060819  1
  Co  Co7  1  0.750000  0.360231  0.932069  1
  Si  Si8  1  0.250000  0.278707  0.117633  1
  P  P9  1  0.250000  0.769543  0.366374  1
  P  P10  1  0.750000  0.721520  0.881009  1
  P  P11  1  0.750000  0.229661  0.634735  1
