# generated using pymatgen
data_Tm3FeCo6(P3Ru)2
_symmetry_space_group_name_H-M   'P 1'
_cell_length_a   3.74794400
_cell_length_b   10.59591800
_cell_length_c   12.24435900
_cell_angle_alpha   90.00000000
_cell_angle_beta   90.00000000
_cell_angle_gamma   90.00000000
_symmetry_Int_Tables_number   1
_chemical_formula_structural   Tm3FeCo6(P3Ru)2
_chemical_formula_sum   'Tm6 Fe2 Co12 P12 Ru4'
_cell_volume   486.25909382
_cell_formula_units_Z   2
loop_
 _symmetry_equiv_pos_site_id
 _symmetry_equiv_pos_as_xyz
  1  'x, y, z'
loop_
 _atom_site_type_symbol
 _atom_site_label
 _atom_site_symmetry_multiplicity
 _atom_site_fract_x
 _atom_site_fract_y
 _atom_site_fract_z
 _atom_site_occupancy
  Tm  Tm0  1  0.000000  0.500000  0.528518  1
  Tm  Tm1  1  0.500000  0.000000  0.477365  1
  Tm  Tm2  1  0.500000  0.819433  0.201304  1
  Tm  Tm3  1  0.500000  0.180567  0.201304  1
  Tm  Tm4  1  0.000000  0.681471  0.797341  1
  Tm  Tm5  1  0.000000  0.318529  0.797341  1
  Fe  Fe6  1  0.000000  0.500000  0.986674  1
  Fe  Fe7  1  0.500000  0.000000  0.011776  1
  Co  Co8  1  0.000000  0.200333  0.573866  1
  Co  Co9  1  0.000000  0.799667  0.573866  1
  Co  Co10  1  0.500000  0.879330  0.711346  1
  Co  Co11  1  0.500000  0.120670  0.711346  1
  Co  Co12  1  0.000000  0.621269  0.286344  1
  Co  Co13  1  0.000000  0.378731  0.286344  1
  Co  Co14  1  0.500000  0.331420  0.990175  1
  Co  Co15  1  0.500000  0.668580  0.990175  1
  Co  Co16  1  0.000000  0.168092  0.008340  1
  Co  Co17  1  0.000000  0.831908  0.008340  1
  Co  Co18  1  0.500000  0.500000  0.702652  1
  Co  Co19  1  0.000000  0.000000  0.297069  1
  P  P20  1  0.500000  0.309892  0.622446  1
  P  P21  1  0.500000  0.690108  0.622446  1
  P  P22  1  0.000000  0.183696  0.381192  1
  P  P23  1  0.000000  0.816304  0.381192  1
  P  P24  1  0.500000  0.500000  0.882135  1
  P  P25  1  0.000000  0.000000  0.116751  1
  P  P26  1  0.500000  0.846169  0.894724  1
  P  P27  1  0.500000  0.153831  0.894724  1
  P  P28  1  0.000000  0.653778  0.103869  1
  P  P29  1  0.000000  0.346222  0.103869  1
  P  P30  1  0.500000  0.500000  0.344631  1
  P  P31  1  0.000000  0.000000  0.651673  1
  Ru  Ru32  1  0.500000  0.295519  0.430635  1
  Ru  Ru33  1  0.500000  0.704481  0.430635  1
  Ru  Ru34  1  0.500000  0.500000  0.154725  1
  Ru  Ru35  1  0.000000  0.000000  0.842869  1
