# generated using pymatgen
data_Er2Tm2Zn4Si3Ge
_symmetry_space_group_name_H-M   'P 1'
_cell_length_a   4.16460600
_cell_length_b   4.16460635
_cell_length_c   15.32840600
_cell_angle_alpha   90.00000000
_cell_angle_beta   90.00000000
_cell_angle_gamma   119.99999720
_symmetry_Int_Tables_number   1
_chemical_formula_structural   Er2Tm2Zn4Si3Ge
_chemical_formula_sum   'Er2 Tm2 Zn4 Si3 Ge1'
_cell_volume   230.23721147
_cell_formula_units_Z   1
loop_
 _symmetry_equiv_pos_site_id
 _symmetry_equiv_pos_as_xyz
  1  'x, y, z'
loop_
 _atom_site_type_symbol
 _atom_site_label
 _atom_site_symmetry_multiplicity
 _atom_site_fract_x
 _atom_site_fract_y
 _atom_site_fract_z
 _atom_site_occupancy
  Er  Er0  1  0.000000  0.000000  0.250859  1
  Er  Er1  1  0.000000  0.000000  0.747454  1
  Tm  Tm2  1  0.000000  0.000000  0.001991  1
  Tm  Tm3  1  0.000000  0.000000  0.499734  1
  Zn  Zn4  1  0.333333  0.666667  0.141497  1
  Zn  Zn5  1  0.666667  0.333333  0.854400  1
  Zn  Zn6  1  0.666667  0.333333  0.638816  1
  Zn  Zn7  1  0.333333  0.666667  0.360386  1
  Si  Si8  1  0.333333  0.666667  0.616489  1
  Si  Si9  1  0.666667  0.333333  0.383706  1
  Si  Si10  1  0.666667  0.333333  0.117967  1
  Ge  Ge11  1  0.333333  0.666667  0.886699  1
