# generated using pymatgen
data_Sc6ReAs2
_symmetry_space_group_name_H-M   'P 1'
_cell_length_a   7.33114374
_cell_length_b   3.99992700
_cell_length_c   7.33074101
_cell_angle_alpha   90.00000000
_cell_angle_beta   120.00180882
_cell_angle_gamma   90.00000000
_symmetry_Int_Tables_number   1
_chemical_formula_structural   Sc6ReAs2
_chemical_formula_sum   'Sc6 Re1 As2'
_cell_volume   186.16343836
_cell_formula_units_Z   1
loop_
 _symmetry_equiv_pos_site_id
 _symmetry_equiv_pos_as_xyz
  1  'x, y, z'
loop_
 _atom_site_type_symbol
 _atom_site_label
 _atom_site_symmetry_multiplicity
 _atom_site_fract_x
 _atom_site_fract_y
 _atom_site_fract_z
 _atom_site_occupancy
  Sc  Sc0  1  0.403840  0.000000  0.000000  1
  Sc  Sc1  1  0.754962  0.499999  0.000000  1
  Sc  Sc2  1  0.245104  0.499999  0.245164  1
  Sc  Sc3  1  0.999981  0.000000  0.403881  1
  Sc  Sc4  1  0.596099  0.000000  0.596118  1
  Sc  Sc5  1  0.999939  0.499999  0.754834  1
  Re  Re6  1  0.000086  0.000000  0.000000  1
  As  As7  1  0.666624  0.499999  0.333266  1
  As  As8  1  0.333358  0.499999  0.666732  1
