# generated using pymatgen
data_TmHf2Zr(Al3Ir)6
_symmetry_space_group_name_H-M   'P 1'
_cell_length_a   7.48643704
_cell_length_b   7.47924304
_cell_length_c   9.28101900
_cell_angle_alpha   90.00000000
_cell_angle_beta   90.00000000
_cell_angle_gamma   119.82486528
_symmetry_Int_Tables_number   1
_chemical_formula_structural   TmHf2Zr(Al3Ir)6
_chemical_formula_sum   'Tm1 Hf2 Zr1 Al18 Ir6'
_cell_volume   450.84042004
_cell_formula_units_Z   1
loop_
 _symmetry_equiv_pos_site_id
 _symmetry_equiv_pos_as_xyz
  1  'x, y, z'
loop_
 _atom_site_type_symbol
 _atom_site_label
 _atom_site_symmetry_multiplicity
 _atom_site_fract_x
 _atom_site_fract_y
 _atom_site_fract_z
 _atom_site_occupancy
  Tm  Tm0  1  0.329298  0.005362  0.750000  1
  Hf  Hf1  1  0.994552  0.671446  0.250000  1
  Hf  Hf2  1  0.671318  0.994502  0.250000  1
  Zr  Zr3  1  0.005419  0.329654  0.750000  1
  Al  Al4  1  0.123219  0.124131  0.250000  1
  Al  Al5  1  0.872701  0.875545  0.750000  1
  Al  Al6  1  0.997709  0.334449  0.077280  1
  Al  Al7  1  0.000137  0.663265  0.924894  1
  Al  Al8  1  0.000137  0.663265  0.575106  1
  Al  Al9  1  0.334692  0.998193  0.420192  1
  Al  Al10  1  0.997709  0.334449  0.422720  1
  Al  Al11  1  0.667602  0.002047  0.575141  1
  Al  Al12  1  0.667602  0.002047  0.924859  1
  Al  Al13  1  0.334692  0.998193  0.079808  1
  Al  Al14  1  0.331363  0.333333  0.557083  1
  Al  Al15  1  0.668309  0.668248  0.439996  1
  Al  Al16  1  0.668309  0.668248  0.060004  1
  Al  Al17  1  0.331363  0.333333  0.942917  1
  Al  Al18  1  0.338572  0.552159  0.250000  1
  Al  Al19  1  0.665290  0.451930  0.750000  1
  Al  Al20  1  0.553117  0.339411  0.250000  1
  Al  Al21  1  0.447502  0.657533  0.750000  1
  Ir  Ir22  1  0.672603  0.327552  0.001366  1
  Ir  Ir23  1  0.328064  0.673626  0.001647  1
  Ir  Ir24  1  0.328064  0.673626  0.498353  1
  Ir  Ir25  1  0.672603  0.327552  0.498634  1
  Ir  Ir26  1  0.999027  0.998447  0.001606  1
  Ir  Ir27  1  0.999027  0.998447  0.498394  1
