# generated using pymatgen
data_Ti8Mo4OsPt3
_symmetry_space_group_name_H-M   'P 1'
_cell_length_a   6.25582700
_cell_length_b   4.44336200
_cell_length_c   8.89207300
_cell_angle_alpha   90.00000000
_cell_angle_beta   90.00001560
_cell_angle_gamma   90.00000000
_symmetry_Int_Tables_number   1
_chemical_formula_structural   Ti8Mo4OsPt3
_chemical_formula_sum   'Ti8 Mo4 Os1 Pt3'
_cell_volume   247.17209928
_cell_formula_units_Z   1
loop_
 _symmetry_equiv_pos_site_id
 _symmetry_equiv_pos_as_xyz
  1  'x, y, z'
loop_
 _atom_site_type_symbol
 _atom_site_label
 _atom_site_symmetry_multiplicity
 _atom_site_fract_x
 _atom_site_fract_y
 _atom_site_fract_z
 _atom_site_occupancy
  Ti  Ti0  1  0.492381  0.750000  0.124997  1
  Ti  Ti1  1  0.007502  0.750000  0.125006  1
  Ti  Ti2  1  0.496848  0.250001  0.370537  1
  Ti  Ti3  1  0.002977  0.250001  0.370548  1
  Ti  Ti4  1  0.999342  0.750000  0.625005  1
  Ti  Ti5  1  0.500803  0.750000  0.625007  1
  Ti  Ti6  1  0.003120  0.250001  0.879467  1
  Ti  Ti7  1  0.496984  0.250001  0.879459  1
  Mo  Mo8  1  0.749859  0.250001  0.124982  1
  Mo  Mo9  1  0.250064  0.750000  0.377135  1
  Mo  Mo10  1  0.749921  0.250001  0.624991  1
  Mo  Mo11  1  0.250161  0.750000  0.872879  1
  Os  Os12  1  0.250003  0.250001  0.124984  1
  Pt  Pt13  1  0.749924  0.750000  0.374673  1
  Pt  Pt14  1  0.250069  0.250001  0.625026  1
  Pt  Pt15  1  0.750040  0.750000  0.875302  1
