# generated using pymatgen
data_Li2Y3AlHgGe2
_symmetry_space_group_name_H-M   'P 1'
_cell_length_a   7.09448600
_cell_length_b   7.08759606
_cell_length_c   4.36071500
_cell_angle_alpha   90.00000000
_cell_angle_beta   90.00000000
_cell_angle_gamma   120.03216242
_symmetry_Int_Tables_number   1
_chemical_formula_structural   Li2Y3AlHgGe2
_chemical_formula_sum   'Li2 Y3 Al1 Hg1 Ge2'
_cell_volume   189.83111037
_cell_formula_units_Z   1
loop_
 _symmetry_equiv_pos_site_id
 _symmetry_equiv_pos_as_xyz
  1  'x, y, z'
loop_
 _atom_site_type_symbol
 _atom_site_label
 _atom_site_symmetry_multiplicity
 _atom_site_fract_x
 _atom_site_fract_y
 _atom_site_fract_z
 _atom_site_occupancy
  Li  Li0  1  0.757241  0.755906  0.500000  1
  Li  Li1  1  0.001335  0.244094  0.500000  1
  Y  Y2  1  0.999797  0.568238  0.000000  1
  Y  Y3  1  0.571689  0.000000  0.000000  1
  Y  Y4  1  0.431559  0.431762  0.000000  1
  Al  Al5  1  0.245655  0.000000  0.500000  1
  Hg  Hg6  1  0.997105  0.000000  0.000000  1
  Ge  Ge7  1  0.332770  0.669921  0.500000  1
  Ge  Ge8  1  0.662850  0.330079  0.500000  1
