# generated using pymatgen
data_Rb3NaLiNbP3
_symmetry_space_group_name_H-M   'P 1'
_cell_length_a   10.33449973
_cell_length_b   10.33449915
_cell_length_c   15.82663600
_cell_angle_alpha   90.00000000
_cell_angle_beta   90.00000000
_cell_angle_gamma   143.44254800
_symmetry_Int_Tables_number   1
_chemical_formula_structural   Rb3NaLiNbP3
_chemical_formula_sum   'Rb12 Na4 Li4 Nb4 P12'
_cell_volume   1006.79952701
_cell_formula_units_Z   4
loop_
 _symmetry_equiv_pos_site_id
 _symmetry_equiv_pos_as_xyz
  1  'x, y, z'
loop_
 _atom_site_type_symbol
 _atom_site_label
 _atom_site_symmetry_multiplicity
 _atom_site_fract_x
 _atom_site_fract_y
 _atom_site_fract_z
 _atom_site_occupancy
  Rb  Rb0  1  0.942098  0.612948  0.827507  1
  Rb  Rb1  1  0.557902  0.887052  0.327507  1
  Rb  Rb2  1  0.387052  0.057902  0.172493  1
  Rb  Rb3  1  0.057902  0.387052  0.172493  1
  Rb  Rb4  1  0.887052  0.557902  0.327507  1
  Rb  Rb5  1  0.442098  0.112948  0.672493  1
  Rb  Rb6  1  0.612948  0.942098  0.827507  1
  Rb  Rb7  1  0.288990  0.288990  0.316339  1
  Rb  Rb8  1  0.788990  0.788990  0.183661  1
  Rb  Rb9  1  0.211010  0.211010  0.816339  1
  Rb  Rb10  1  0.711010  0.711010  0.683661  1
  Rb  Rb11  1  0.112948  0.442098  0.672493  1
  Na  Na12  1  0.755384  0.244616  0.000000  1
  Na  Na13  1  0.744616  0.255384  0.500000  1
  Na  Na14  1  0.244616  0.755384  0.000000  1
  Na  Na15  1  0.255384  0.744616  0.500000  1
  Li  Li16  1  0.922874  0.077126  0.000000  1
  Li  Li17  1  0.577126  0.422874  0.500000  1
  Li  Li18  1  0.077126  0.922874  0.000000  1
  Li  Li19  1  0.422874  0.577126  0.500000  1
  Nb  Nb20  1  0.580345  0.419655  0.000000  1
  Nb  Nb21  1  0.919655  0.080345  0.500000  1
  Nb  Nb22  1  0.419655  0.580345  0.000000  1
  Nb  Nb23  1  0.080345  0.919655  0.500000  1
  P  P24  1  0.871903  0.571786  0.089740  1
  P  P25  1  0.428214  0.128097  0.910260  1
  P  P26  1  0.628097  0.928214  0.589740  1
  P  P27  1  0.928214  0.628097  0.589740  1
  P  P28  1  0.128097  0.428214  0.910260  1
  P  P29  1  0.571786  0.871903  0.089740  1
  P  P30  1  0.371903  0.071786  0.410260  1
  P  P31  1  0.220788  0.220788  0.582333  1
  P  P32  1  0.720788  0.720788  0.917667  1
  P  P33  1  0.279212  0.279212  0.082333  1
  P  P34  1  0.071786  0.371903  0.410260  1
  P  P35  1  0.779212  0.779212  0.417667  1
