# generated using pymatgen
data_Lu6Pt3Au17
_symmetry_space_group_name_H-M   'P 1'
_cell_length_a   10.75296600
_cell_length_b   10.75296401
_cell_length_c   4.89220400
_cell_angle_alpha   90.00000000
_cell_angle_beta   90.00000000
_cell_angle_gamma   119.99999997
_symmetry_Int_Tables_number   1
_chemical_formula_structural   Lu6Pt3Au17
_chemical_formula_sum   'Lu6 Pt3 Au17'
_cell_volume   489.88219486
_cell_formula_units_Z   1
loop_
 _symmetry_equiv_pos_site_id
 _symmetry_equiv_pos_as_xyz
  1  'x, y, z'
loop_
 _atom_site_type_symbol
 _atom_site_label
 _atom_site_symmetry_multiplicity
 _atom_site_fract_x
 _atom_site_fract_y
 _atom_site_fract_z
 _atom_site_occupancy
  Lu  Lu0  1  0.653044  0.752857  0.250000  1
  Lu  Lu1  1  0.247143  0.900187  0.250000  1
  Lu  Lu2  1  0.099813  0.346956  0.250000  1
  Lu  Lu3  1  0.352573  0.251449  0.750000  1
  Lu  Lu4  1  0.748551  0.101124  0.750000  1
  Lu  Lu5  1  0.898876  0.647427  0.750000  1
  Pt  Pt6  1  0.877805  0.051218  0.250000  1
  Pt  Pt7  1  0.948782  0.826587  0.250000  1
  Pt  Pt8  1  0.173413  0.122195  0.250000  1
  Au  Au9  1  0.124153  0.949051  0.750000  1
  Au  Au10  1  0.050949  0.175102  0.750000  1
  Au  Au11  1  0.824898  0.875847  0.750000  1
  Au  Au12  1  0.566475  0.976677  0.250000  1
  Au  Au13  1  0.023323  0.589798  0.250000  1
  Au  Au14  1  0.410202  0.433525  0.250000  1
  Au  Au15  1  0.436289  0.022978  0.750000  1
  Au  Au16  1  0.977022  0.413311  0.750000  1
  Au  Au17  1  0.586689  0.563711  0.750000  1
  Au  Au18  1  0.794736  0.277238  0.250000  1
  Au  Au19  1  0.722762  0.517498  0.250000  1
  Au  Au20  1  0.482502  0.205264  0.250000  1
  Au  Au21  1  0.207160  0.721005  0.750000  1
  Au  Au22  1  0.278995  0.486154  0.750000  1
  Au  Au23  1  0.513846  0.792840  0.750000  1
  Au  Au24  1  0.666667  0.333333  0.750000  1
  Au  Au25  1  0.333333  0.666667  0.250000  1
