# generated using pymatgen
data_Eu4Zr3TaO14
_symmetry_space_group_name_H-M   'P 1'
_cell_length_a   7.61487279
_cell_length_b   7.61487397
_cell_length_c   7.61487258
_cell_angle_alpha   59.87697106
_cell_angle_beta   59.87696667
_cell_angle_gamma   59.87696895
_symmetry_Int_Tables_number   1
_chemical_formula_structural   Eu4Zr3TaO14
_chemical_formula_sum   'Eu4 Zr3 Ta1 O14'
_cell_volume   311.35722999
_cell_formula_units_Z   1
loop_
 _symmetry_equiv_pos_site_id
 _symmetry_equiv_pos_as_xyz
  1  'x, y, z'
loop_
 _atom_site_type_symbol
 _atom_site_label
 _atom_site_symmetry_multiplicity
 _atom_site_fract_x
 _atom_site_fract_y
 _atom_site_fract_z
 _atom_site_occupancy
  Eu  Eu0  1  0.625000  0.125000  0.625000  1
  Eu  Eu1  1  0.625000  0.625000  0.125000  1
  Eu  Eu2  1  0.125000  0.625000  0.625000  1
  Eu  Eu3  1  0.625000  0.625000  0.625000  1
  Zr  Zr4  1  0.625000  0.125000  0.125000  1
  Zr  Zr5  1  0.125000  0.125000  0.625000  1
  Zr  Zr6  1  0.125000  0.625000  0.125000  1
  Ta  Ta7  1  0.125000  0.125000  0.125000  1
  O  O8  1  0.204614  0.788823  0.788823  1
  O  O9  1  0.788823  0.788823  0.204614  1
  O  O10  1  0.788823  0.204614  0.788823  1
  O  O11  1  0.197942  0.810438  0.197942  1
  O  O12  1  0.197942  0.197942  0.810438  1
  O  O13  1  0.810438  0.197942  0.197942  1
  O  O14  1  0.439562  0.052058  0.052058  1
  O  O15  1  0.052058  0.052058  0.439562  1
  O  O16  1  0.052058  0.439562  0.052058  1
  O  O17  1  0.461177  0.045386  0.461177  1
  O  O18  1  0.752073  0.752073  0.752073  1
  O  O19  1  0.461177  0.461177  0.045386  1
  O  O20  1  0.045386  0.461177  0.461177  1
  O  O21  1  0.497927  0.497927  0.497927  1
