# generated using pymatgen
data_Dy3Co4Cu2Ni5B4
_symmetry_space_group_name_H-M   'P 1'
_cell_length_a   5.03295500
_cell_length_b   5.03790116
_cell_length_c   9.89869800
_cell_angle_alpha   90.00000000
_cell_angle_beta   90.00000000
_cell_angle_gamma   119.96753451
_symmetry_Int_Tables_number   1
_chemical_formula_structural   Dy3Co4Cu2Ni5B4
_chemical_formula_sum   'Dy3 Co4 Cu2 Ni5 B4'
_cell_volume   217.43195978
_cell_formula_units_Z   1
loop_
 _symmetry_equiv_pos_site_id
 _symmetry_equiv_pos_as_xyz
  1  'x, y, z'
loop_
 _atom_site_type_symbol
 _atom_site_label
 _atom_site_symmetry_multiplicity
 _atom_site_fract_x
 _atom_site_fract_y
 _atom_site_fract_z
 _atom_site_occupancy
  Dy  Dy0  1  0.000000  0.000000  0.656745  1
  Dy  Dy1  1  0.000000  0.000000  0.344339  1
  Dy  Dy2  1  0.000000  0.000000  0.996587  1
  Co  Co3  1  0.500000  0.500000  0.499444  1
  Co  Co4  1  0.000000  0.500000  0.499444  1
  Co  Co5  1  0.500000  0.000000  0.789973  1
  Co  Co6  1  0.500000  0.000000  0.500363  1
  Cu  Cu7  1  0.334822  0.669646  0.999773  1
  Cu  Cu8  1  0.665178  0.330354  0.999773  1
  Ni  Ni9  1  0.500000  0.000000  0.206789  1
  Ni  Ni10  1  0.500000  0.500000  0.207528  1
  Ni  Ni11  1  0.000000  0.500000  0.207528  1
  Ni  Ni12  1  0.500000  0.500000  0.793762  1
  Ni  Ni13  1  0.000000  0.500000  0.793762  1
  B  B14  1  0.335264  0.670530  0.649162  1
  B  B15  1  0.664736  0.329470  0.649162  1
  B  B16  1  0.666176  0.332352  0.352934  1
  B  B17  1  0.333824  0.667648  0.352934  1
