# generated using pymatgen
data_Ca2TbHo(SiPd2)4
_symmetry_space_group_name_H-M   'P 1'
_cell_length_a   5.54875017
_cell_length_b   6.99347300
_cell_length_c   7.38660816
_cell_angle_alpha   90.00000000
_cell_angle_beta   89.85807015
_cell_angle_gamma   90.00000000
_symmetry_Int_Tables_number   1
_chemical_formula_structural   Ca2TbHo(SiPd2)4
_chemical_formula_sum   'Ca2 Tb1 Ho1 Si4 Pd8'
_cell_volume   286.63670537
_cell_formula_units_Z   1
loop_
 _symmetry_equiv_pos_site_id
 _symmetry_equiv_pos_as_xyz
  1  'x, y, z'
loop_
 _atom_site_type_symbol
 _atom_site_label
 _atom_site_symmetry_multiplicity
 _atom_site_fract_x
 _atom_site_fract_y
 _atom_site_fract_z
 _atom_site_occupancy
  Ca  Ca0  1  0.134026  0.750000  0.525941  1
  Ca  Ca1  1  0.866130  0.250000  0.473876  1
  Tb  Tb2  1  0.358977  0.750000  0.027236  1
  Ho  Ho3  1  0.641908  0.250000  0.972964  1
  Si  Si4  1  0.860583  0.750000  0.876064  1
  Si  Si5  1  0.139936  0.250000  0.123452  1
  Si  Si6  1  0.364885  0.250000  0.623560  1
  Si  Si7  1  0.635452  0.750000  0.377212  1
  Pd  Pd8  1  0.593025  0.552032  0.677562  1
  Pd  Pd9  1  0.407402  0.447360  0.322526  1
  Pd  Pd10  1  0.101156  0.446582  0.828512  1
  Pd  Pd11  1  0.407402  0.052640  0.322526  1
  Pd  Pd12  1  0.897468  0.552665  0.171247  1
  Pd  Pd13  1  0.593025  0.947968  0.677562  1
  Pd  Pd14  1  0.897468  0.947335  0.171247  1
  Pd  Pd15  1  0.101156  0.053418  0.828512  1
