# generated using pymatgen
data_Ho11Er5MgHg3Rh4
_symmetry_space_group_name_H-M   'P 1'
_cell_length_a   9.55579321
_cell_length_b   9.52990102
_cell_length_c   9.55017800
_cell_angle_alpha   59.92959053
_cell_angle_beta   60.01943652
_cell_angle_gamma   59.97006992
_symmetry_Int_Tables_number   1
_chemical_formula_structural   Ho11Er5MgHg3Rh4
_chemical_formula_sum   'Ho11 Er5 Mg1 Hg3 Rh4'
_cell_volume   614.58987379
_cell_formula_units_Z   1
loop_
 _symmetry_equiv_pos_site_id
 _symmetry_equiv_pos_as_xyz
  1  'x, y, z'
loop_
 _atom_site_type_symbol
 _atom_site_label
 _atom_site_symmetry_multiplicity
 _atom_site_fract_x
 _atom_site_fract_y
 _atom_site_fract_z
 _atom_site_occupancy
  Ho  Ho0  1  0.809726  0.810465  0.189905  1
  Ho  Ho1  1  0.935793  0.563016  0.563671  1
  Ho  Ho2  1  0.562171  0.937277  0.935796  1
  Ho  Ho3  1  0.562171  0.937277  0.564756  1
  Ho  Ho4  1  0.935793  0.563016  0.937521  1
  Ho  Ho5  1  0.562778  0.564421  0.936400  1
  Ho  Ho6  1  0.935197  0.938180  0.563312  1
  Ho  Ho7  1  0.351044  0.348575  0.347410  1
  Ho  Ho8  1  0.351044  0.348575  0.952971  1
  Ho  Ho9  1  0.351880  0.952334  0.347893  1
  Ho  Ho10  1  0.940921  0.353482  0.352798  1
  Er  Er11  1  0.809360  0.189467  0.190229  1
  Er  Er12  1  0.185722  0.812482  0.813459  1
  Er  Er13  1  0.185722  0.812482  0.188336  1
  Er  Er14  1  0.809360  0.189467  0.810944  1
  Er  Er15  1  0.186126  0.187681  0.813096  1
  Mg  Mg16  1  0.282511  0.572906  0.572292  1
  Hg  Hg17  1  0.581972  0.586790  0.586745  1
  Hg  Hg18  1  0.581972  0.586790  0.244494  1
  Hg  Hg19  1  0.582502  0.242353  0.587573  1
  Rh  Rh20  1  0.140584  0.144028  0.143119  1
  Rh  Rh21  1  0.140584  0.144028  0.572269  1
  Rh  Rh22  1  0.140608  0.571963  0.143715  1
  Rh  Rh23  1  0.574460  0.142943  0.141298  1
