# generated using pymatgen
data_Re2Ag2OF11
_symmetry_space_group_name_H-M   'P 1'
_cell_length_a   5.07426497
_cell_length_b   5.07426515
_cell_length_c   9.51370442
_cell_angle_alpha   89.83882133
_cell_angle_beta   89.83882273
_cell_angle_gamma   91.60292112
_symmetry_Int_Tables_number   1
_chemical_formula_structural   Re2Ag2OF11
_chemical_formula_sum   'Re2 Ag2 O1 F11'
_cell_volume   244.86259112
_cell_formula_units_Z   1
loop_
 _symmetry_equiv_pos_site_id
 _symmetry_equiv_pos_as_xyz
  1  'x, y, z'
loop_
 _atom_site_type_symbol
 _atom_site_label
 _atom_site_symmetry_multiplicity
 _atom_site_fract_x
 _atom_site_fract_y
 _atom_site_fract_z
 _atom_site_occupancy
  Re  Re0  1  0.999023  0.999023  0.999581  1
  Re  Re1  1  0.015306  0.015306  0.488904  1
  Ag  Ag2  1  0.485972  0.485972  0.256418  1
  Ag  Ag3  1  0.511283  0.511283  0.748765  1
  O  O4  1  0.190845  0.190845  0.363808  1
  F  F5  1  0.268979  0.268979  0.996725  1
  F  F6  1  0.729057  0.729057  0.002900  1
  F  F7  1  0.730943  0.259053  0.501478  1
  F  F8  1  0.259053  0.730943  0.501478  1
  F  F9  1  0.817328  0.817328  0.633146  1
  F  F10  1  0.805669  0.805669  0.359388  1
  F  F11  1  0.801289  0.190913  0.863022  1
  F  F12  1  0.808888  0.196649  0.138442  1
  F  F13  1  0.188803  0.188803  0.644480  1
  F  F14  1  0.196649  0.808888  0.138442  1
  F  F15  1  0.190913  0.801289  0.863022  1
