# generated using pymatgen
data_Pr5Co4(P4Ru5)3
_symmetry_space_group_name_H-M   'P 1'
_cell_length_a   12.58814400
_cell_length_b   12.58814358
_cell_length_c   3.91321400
_cell_angle_alpha   90.00000000
_cell_angle_beta   90.00000000
_cell_angle_gamma   120.00000112
_symmetry_Int_Tables_number   1
_chemical_formula_structural   Pr5Co4(P4Ru5)3
_chemical_formula_sum   'Pr5 Co4 P12 Ru15'
_cell_volume   537.01648224
_cell_formula_units_Z   1
loop_
 _symmetry_equiv_pos_site_id
 _symmetry_equiv_pos_as_xyz
  1  'x, y, z'
loop_
 _atom_site_type_symbol
 _atom_site_label
 _atom_site_symmetry_multiplicity
 _atom_site_fract_x
 _atom_site_fract_y
 _atom_site_fract_z
 _atom_site_occupancy
  Pr  Pr0  1  0.666667  0.333333  0.000000  1
  Pr  Pr1  1  0.333333  0.666667  0.000000  1
  Pr  Pr2  1  0.182613  0.182613  0.500000  1
  Pr  Pr3  1  0.817387  0.000000  0.500000  1
  Pr  Pr4  1  0.000000  0.817387  0.500000  1
  Co  Co5  1  0.717161  0.717161  0.500000  1
  Co  Co6  1  0.282839  0.000000  0.500000  1
  Co  Co7  1  0.000000  0.282839  0.500000  1
  Co  Co8  1  0.000000  0.000000  0.000000  1
  P  P9  1  0.373421  0.373421  0.000000  1
  P  P10  1  0.626579  0.000000  0.000000  1
  P  P11  1  0.000000  0.626579  0.000000  1
  P  P12  1  0.838285  0.310571  0.500000  1
  P  P13  1  0.689429  0.527713  0.500000  1
  P  P14  1  0.472287  0.161715  0.500000  1
  P  P15  1  0.310571  0.838285  0.500000  1
  P  P16  1  0.527713  0.689429  0.500000  1
  P  P17  1  0.161715  0.472287  0.500000  1
  P  P18  1  0.817367  0.817367  0.000000  1
  P  P19  1  0.182633  0.000000  0.000000  1
  P  P20  1  0.000000  0.182633  0.000000  1
  Ru  Ru21  1  0.821845  0.196006  0.000000  1
  Ru  Ru22  1  0.803994  0.625838  0.000000  1
  Ru  Ru23  1  0.374162  0.178155  0.000000  1
  Ru  Ru24  1  0.196006  0.821845  0.000000  1
  Ru  Ru25  1  0.625838  0.803994  0.000000  1
  Ru  Ru26  1  0.178155  0.374162  0.000000  1
  Ru  Ru27  1  0.556976  0.556976  0.000000  1
  Ru  Ru28  1  0.443024  0.000000  0.000000  1
  Ru  Ru29  1  0.000000  0.443024  0.000000  1
  Ru  Ru30  1  0.637951  0.125030  0.500000  1
  Ru  Ru31  1  0.874970  0.512922  0.500000  1
  Ru  Ru32  1  0.487078  0.362049  0.500000  1
  Ru  Ru33  1  0.125030  0.637951  0.500000  1
  Ru  Ru34  1  0.512922  0.874970  0.500000  1
  Ru  Ru35  1  0.362049  0.487078  0.500000  1
