# generated using pymatgen
data_Tb6GaSi5Rh2
_symmetry_space_group_name_H-M   'P 1'
_cell_length_a   5.67676291
_cell_length_b   5.67676337
_cell_length_c   13.52798800
_cell_angle_alpha   109.10499259
_cell_angle_beta   109.10499420
_cell_angle_gamma   43.54612049
_symmetry_Int_Tables_number   1
_chemical_formula_structural   Tb6GaSi5Rh2
_chemical_formula_sum   'Tb6 Ga1 Si5 Rh2'
_cell_volume   281.06933080
_cell_formula_units_Z   1
loop_
 _symmetry_equiv_pos_site_id
 _symmetry_equiv_pos_as_xyz
  1  'x, y, z'
loop_
 _atom_site_type_symbol
 _atom_site_label
 _atom_site_symmetry_multiplicity
 _atom_site_fract_x
 _atom_site_fract_y
 _atom_site_fract_z
 _atom_site_occupancy
  Tb  Tb0  1  0.398988  0.398988  0.078906  1
  Tb  Tb1  1  0.745365  0.745365  0.232732  1
  Tb  Tb2  1  0.520688  0.520688  0.375568  1
  Tb  Tb3  1  0.478528  0.478528  0.625546  1
  Tb  Tb4  1  0.254136  0.254136  0.770904  1
  Tb  Tb5  1  0.601817  0.601817  0.915901  1
  Ga  Ga6  1  0.114135  0.114135  0.074213  1
  Si  Si7  1  0.046559  0.046559  0.237968  1
  Si  Si8  1  0.870840  0.870840  0.458640  1
  Si  Si9  1  0.129906  0.129906  0.543685  1
  Si  Si10  1  0.950406  0.950406  0.762363  1
  Si  Si11  1  0.888770  0.888770  0.923212  1
  Rh  Rh12  1  0.247572  0.247572  0.415911  1
  Rh  Rh13  1  0.752287  0.752287  0.584452  1
