# generated using pymatgen
data_Lu4HgC2Br
_symmetry_space_group_name_H-M   'P 1'
_cell_length_a   3.58304100
_cell_length_b   3.58304166
_cell_length_c   14.47208600
_cell_angle_alpha   90.00000000
_cell_angle_beta   90.00000000
_cell_angle_gamma   120.00000316
_symmetry_Int_Tables_number   1
_chemical_formula_structural   Lu4HgC2Br
_chemical_formula_sum   'Lu4 Hg1 C2 Br1'
_cell_volume   160.90346173
_cell_formula_units_Z   1
loop_
 _symmetry_equiv_pos_site_id
 _symmetry_equiv_pos_as_xyz
  1  'x, y, z'
loop_
 _atom_site_type_symbol
 _atom_site_label
 _atom_site_symmetry_multiplicity
 _atom_site_fract_x
 _atom_site_fract_y
 _atom_site_fract_z
 _atom_site_occupancy
  Lu  Lu0  1  0.666667  0.333333  0.090735  1
  Lu  Lu1  1  0.666667  0.333333  0.409265  1
  Lu  Lu2  1  0.333333  0.666666  0.586190  1
  Lu  Lu3  1  0.333333  0.666666  0.913809  1
  Hg  Hg4  1  0.666667  0.333333  0.750000  1
  C  C5  1  0.000000  0.000000  0.014320  1
  C  C6  1  0.000000  0.000000  0.485680  1
  Br  Br7  1  0.333333  0.666666  0.250000  1
