# generated using pymatgen
data_DyY7(SiI6)2
_symmetry_space_group_name_H-M   'P 1'
_cell_length_a   4.21265400
_cell_length_b   14.01239505
_cell_length_c   14.79234905
_cell_angle_alpha   89.99048402
_cell_angle_beta   90.00000000
_cell_angle_gamma   90.00000000
_symmetry_Int_Tables_number   1
_chemical_formula_structural   DyY7(SiI6)2
_chemical_formula_sum   'Dy1 Y7 Si2 I12'
_cell_volume   873.18306358
_cell_formula_units_Z   1
loop_
 _symmetry_equiv_pos_site_id
 _symmetry_equiv_pos_as_xyz
  1  'x, y, z'
loop_
 _atom_site_type_symbol
 _atom_site_label
 _atom_site_symmetry_multiplicity
 _atom_site_fract_x
 _atom_site_fract_y
 _atom_site_fract_z
 _atom_site_occupancy
  Dy  Dy0  1  0.000000  0.111123  0.574458  1
  Y  Y1  1  0.500000  0.114016  0.347815  1
  Y  Y2  1  0.500000  0.885903  0.652141  1
  Y  Y3  1  0.500000  0.614132  0.152264  1
  Y  Y4  1  0.500000  0.385865  0.847717  1
  Y  Y5  1  0.000000  0.888932  0.425550  1
  Y  Y6  1  0.000000  0.611214  0.925438  1
  Y  Y7  1  0.000000  0.388779  0.074562  1
  Si  Si8  1  0.500000  0.000354  0.500239  1
  Si  Si9  1  0.500000  0.499994  0.999993  1
  I  I10  1  0.500000  0.245173  0.161573  1
  I  I11  1  0.500000  0.754841  0.838431  1
  I  I12  1  0.500000  0.745181  0.338449  1
  I  I13  1  0.500000  0.254502  0.661395  1
  I  I14  1  0.000000  0.258382  0.414629  1
  I  I15  1  0.000000  0.741434  0.585636  1
  I  I16  1  0.000000  0.758568  0.085625  1
  I  I17  1  0.000000  0.241416  0.914359  1
  I  I18  1  0.000000  0.999262  0.240589  1
  I  I19  1  0.000000  0.000950  0.759145  1
  I  I20  1  0.000000  0.499242  0.259423  1
  I  I21  1  0.000000  0.500736  0.740569  1
