# generated using pymatgen
data_Th3Sn4Au3
_symmetry_space_group_name_H-M   'P 1'
_cell_length_a   8.74749254
_cell_length_b   8.74749302
_cell_length_c   8.74749300
_cell_angle_alpha   109.47122060
_cell_angle_beta   109.47122171
_cell_angle_gamma   109.47122172
_symmetry_Int_Tables_number   1
_chemical_formula_structural   Th3Sn4Au3
_chemical_formula_sum   'Th6 Sn8 Au6'
_cell_volume   515.26291550
_cell_formula_units_Z   2
loop_
 _symmetry_equiv_pos_site_id
 _symmetry_equiv_pos_as_xyz
  1  'x, y, z'
loop_
 _atom_site_type_symbol
 _atom_site_label
 _atom_site_symmetry_multiplicity
 _atom_site_fract_x
 _atom_site_fract_y
 _atom_site_fract_z
 _atom_site_occupancy
  Th  Th0  1  0.875000  0.250000  0.125000  1
  Th  Th1  1  0.625000  0.750000  0.375000  1
  Th  Th2  1  0.250000  0.125000  0.875000  1
  Th  Th3  1  0.750000  0.375000  0.625000  1
  Th  Th4  1  0.125000  0.875000  0.250000  1
  Th  Th5  1  0.375000  0.625000  0.750000  1
  Sn  Sn6  1  0.682068  0.500000  0.000000  1
  Sn  Sn7  1  0.500000  0.000000  0.682068  1
  Sn  Sn8  1  0.000000  0.682068  0.500000  1
  Sn  Sn9  1  0.817932  0.817932  0.817932  1
  Sn  Sn10  1  0.500000  0.000000  0.182068  1
  Sn  Sn11  1  0.182068  0.500000  0.000000  1
  Sn  Sn12  1  0.000000  0.182068  0.500000  1
  Sn  Sn13  1  0.317932  0.317932  0.317932  1
  Au  Au14  1  0.375000  0.250000  0.625000  1
  Au  Au15  1  0.125000  0.750000  0.875000  1
  Au  Au16  1  0.250000  0.625000  0.375000  1
  Au  Au17  1  0.750000  0.875000  0.125000  1
  Au  Au18  1  0.625000  0.375000  0.250000  1
  Au  Au19  1  0.875000  0.125000  0.750000  1
