# generated using pymatgen
data_Th14Tc4NiPd
_symmetry_space_group_name_H-M   'P 1'
_cell_length_a   9.95766282
_cell_length_b   9.95766237
_cell_length_c   6.31209281
_cell_angle_alpha   90.07267407
_cell_angle_beta   89.92732782
_cell_angle_gamma   119.31023821
_symmetry_Int_Tables_number   1
_chemical_formula_structural   Th14Tc4NiPd
_chemical_formula_sum   'Th14 Tc4 Ni1 Pd1'
_cell_volume   545.75176135
_cell_formula_units_Z   1
loop_
 _symmetry_equiv_pos_site_id
 _symmetry_equiv_pos_as_xyz
  1  'x, y, z'
loop_
 _atom_site_type_symbol
 _atom_site_label
 _atom_site_symmetry_multiplicity
 _atom_site_fract_x
 _atom_site_fract_y
 _atom_site_fract_z
 _atom_site_occupancy
  Th  Th0  1  0.331844  0.668156  0.038361  1
  Th  Th1  1  0.664005  0.335995  0.544616  1
  Th  Th2  1  0.123629  0.876371  0.251656  1
  Th  Th3  1  0.252028  0.125978  0.752774  1
  Th  Th4  1  0.874022  0.747972  0.752774  1
  Th  Th5  1  0.138792  0.258096  0.253511  1
  Th  Th6  1  0.741904  0.861208  0.253511  1
  Th  Th7  1  0.878397  0.121603  0.761486  1
  Th  Th8  1  0.542177  0.457823  0.042438  1
  Th  Th9  1  0.080651  0.545032  0.543214  1
  Th  Th10  1  0.454968  0.919349  0.543214  1
  Th  Th11  1  0.536636  0.076224  0.038230  1
  Th  Th12  1  0.923776  0.463364  0.038230  1
  Th  Th13  1  0.457328  0.542672  0.548021  1
  Tc  Tc14  1  0.627664  0.822063  0.798130  1
  Tc  Tc15  1  0.177937  0.372336  0.798130  1
  Tc  Tc16  1  0.820954  0.627531  0.294904  1
  Tc  Tc17  1  0.372469  0.179046  0.294904  1
  Ni  Ni18  1  0.186198  0.813802  0.803260  1
  Pd  Pd19  1  0.814620  0.185380  0.308640  1
