# generated using pymatgen
data_EuFe2NiSb12Ru
_symmetry_space_group_name_H-M   'P 1'
_cell_length_a   8.03022233
_cell_length_b   7.97656551
_cell_length_c   8.01470571
_cell_angle_alpha   109.30188790
_cell_angle_beta   109.54638722
_cell_angle_gamma   109.48284704
_symmetry_Int_Tables_number   1
_chemical_formula_structural   EuFe2NiSb12Ru
_chemical_formula_sum   'Eu1 Fe2 Ni1 Sb12 Ru1'
_cell_volume   395.59355373
_cell_formula_units_Z   1
loop_
 _symmetry_equiv_pos_site_id
 _symmetry_equiv_pos_as_xyz
  1  'x, y, z'
loop_
 _atom_site_type_symbol
 _atom_site_label
 _atom_site_symmetry_multiplicity
 _atom_site_fract_x
 _atom_site_fract_y
 _atom_site_fract_z
 _atom_site_occupancy
  Eu  Eu0  1  0.000000  0.000000  0.000000  1
  Fe  Fe1  1  0.500000  0.500000  0.500000  1
  Fe  Fe2  1  0.000000  0.000000  0.500000  1
  Ni  Ni3  1  0.500000  0.000000  0.000000  1
  Sb  Sb4  1  0.667634  0.837129  0.503972  1
  Sb  Sb5  1  0.332366  0.162871  0.496028  1
  Sb  Sb6  1  0.843680  0.177230  0.341297  1
  Sb  Sb7  1  0.824448  0.668941  0.166068  1
  Sb  Sb8  1  0.832804  0.502331  0.657274  1
  Sb  Sb9  1  0.175552  0.331059  0.833932  1
  Sb  Sb10  1  0.156320  0.822770  0.658703  1
  Sb  Sb11  1  0.502824  0.659066  0.836136  1
  Sb  Sb12  1  0.497176  0.340934  0.163864  1
  Sb  Sb13  1  0.167196  0.497669  0.342726  1
  Sb  Sb14  1  0.343765  0.845102  0.183474  1
  Sb  Sb15  1  0.656235  0.154898  0.816526  1
  Ru  Ru16  1  0.000000  0.500000  0.000000  1
