# generated using pymatgen
data_HoLu3Zn4Si3Ge
_symmetry_space_group_name_H-M   'P 1'
_cell_length_a   4.15705400
_cell_length_b   4.15705368
_cell_length_c   15.15323400
_cell_angle_alpha   90.00000000
_cell_angle_beta   90.00000000
_cell_angle_gamma   120.00000254
_symmetry_Int_Tables_number   1
_chemical_formula_structural   HoLu3Zn4Si3Ge
_chemical_formula_sum   'Ho1 Lu3 Zn4 Si3 Ge1'
_cell_volume   226.78130443
_cell_formula_units_Z   1
loop_
 _symmetry_equiv_pos_site_id
 _symmetry_equiv_pos_as_xyz
  1  'x, y, z'
loop_
 _atom_site_type_symbol
 _atom_site_label
 _atom_site_symmetry_multiplicity
 _atom_site_fract_x
 _atom_site_fract_y
 _atom_site_fract_z
 _atom_site_occupancy
  Ho  Ho0  1  0.000000  0.000000  0.499546  1
  Lu  Lu1  1  0.000000  0.000000  0.248801  1
  Lu  Lu2  1  0.000000  0.000000  0.749284  1
  Lu  Lu3  1  0.000000  0.000000  0.002050  1
  Zn  Zn4  1  0.333333  0.666667  0.144036  1
  Zn  Zn5  1  0.666667  0.333333  0.853579  1
  Zn  Zn6  1  0.666667  0.333333  0.642104  1
  Zn  Zn7  1  0.333333  0.666667  0.356493  1
  Si  Si8  1  0.333333  0.666667  0.618756  1
  Si  Si9  1  0.666667  0.333333  0.380864  1
  Si  Si10  1  0.666667  0.333333  0.116703  1
  Ge  Ge11  1  0.333333  0.666667  0.887787  1
