# generated using pymatgen
data_Ho4Zn4SiRh8
_symmetry_space_group_name_H-M   'P 1'
_cell_length_a   7.20909405
_cell_length_b   7.14970598
_cell_length_c   7.20909365
_cell_angle_alpha   108.72671273
_cell_angle_beta   111.29562278
_cell_angle_gamma   108.72672407
_symmetry_Int_Tables_number   1
_chemical_formula_structural   Ho4Zn4SiRh8
_chemical_formula_sum   'Ho4 Zn4 Si1 Rh8'
_cell_volume   284.70646621
_cell_formula_units_Z   1
loop_
 _symmetry_equiv_pos_site_id
 _symmetry_equiv_pos_as_xyz
  1  'x, y, z'
loop_
 _atom_site_type_symbol
 _atom_site_label
 _atom_site_symmetry_multiplicity
 _atom_site_fract_x
 _atom_site_fract_y
 _atom_site_fract_z
 _atom_site_occupancy
  Ho  Ho0  1  0.990985  0.981970  0.490985  1
  Ho  Ho1  1  0.032081  0.520445  0.032081  1
  Ho  Ho2  1  0.490985  0.981970  0.990985  1
  Ho  Ho3  1  0.488364  0.520445  0.488364  1
  Zn  Zn4  1  0.747823  0.251274  0.503451  1
  Zn  Zn5  1  0.745261  0.490522  0.245261  1
  Zn  Zn6  1  0.503451  0.251274  0.747823  1
  Zn  Zn7  1  0.245261  0.490522  0.745261  1
  Si  Si8  1  0.998554  0.997109  0.998554  1
  Rh  Rh9  1  0.247844  0.758812  0.510967  1
  Rh  Rh10  1  0.510967  0.758812  0.247844  1
  Rh  Rh11  1  0.717020  0.699743  0.982723  1
  Rh  Rh12  1  0.297160  0.029964  0.297160  1
  Rh  Rh13  1  0.986798  0.268717  0.281919  1
  Rh  Rh14  1  0.281919  0.268717  0.986798  1
  Rh  Rh15  1  0.732804  0.029964  0.732804  1
  Rh  Rh16  1  0.982723  0.699743  0.717020  1
