# generated using pymatgen
data_Tb9ScSb9Te
_symmetry_space_group_name_H-M   'P 1'
_cell_length_a   7.56745425
_cell_length_b   8.80923856
_cell_length_c   9.78655290
_cell_angle_alpha   103.02026858
_cell_angle_beta   97.37517890
_cell_angle_gamma   106.91757683
_symmetry_Int_Tables_number   1
_chemical_formula_structural   Tb9ScSb9Te
_chemical_formula_sum   'Tb9 Sc1 Sb9 Te1'
_cell_volume   594.81900120
_cell_formula_units_Z   1
loop_
 _symmetry_equiv_pos_site_id
 _symmetry_equiv_pos_as_xyz
  1  'x, y, z'
loop_
 _atom_site_type_symbol
 _atom_site_label
 _atom_site_symmetry_multiplicity
 _atom_site_fract_x
 _atom_site_fract_y
 _atom_site_fract_z
 _atom_site_occupancy
  Tb  Tb0  1  0.901406  0.549765  0.800109  1
  Tb  Tb1  1  0.695602  0.151224  0.396229  1
  Tb  Tb2  1  0.495303  0.748383  0.998678  1
  Tb  Tb3  1  0.696939  0.645492  0.398608  1
  Tb  Tb4  1  0.309822  0.357314  0.604180  1
  Tb  Tb5  1  0.100042  0.948298  0.196053  1
  Tb  Tb6  1  0.499028  0.249284  0.998348  1
  Tb  Tb7  1  0.306021  0.848509  0.601571  1
  Tb  Tb8  1  0.098022  0.449695  0.199391  1
  Sc  Sc9  1  0.898374  0.052528  0.808490  1
  Sb  Sb10  1  0.798238  0.600730  0.100460  1
  Sb  Sb11  1  0.608308  0.195512  0.701815  1
  Sb  Sb12  1  0.400197  0.800790  0.299459  1
  Sb  Sb13  1  0.801652  0.097648  0.093814  1
  Sb  Sb14  1  0.192207  0.389914  0.896253  1
  Sb  Sb15  1  0.610309  0.710449  0.703022  1
  Sb  Sb16  1  0.397542  0.298682  0.300349  1
  Sb  Sb17  1  0.190921  0.903691  0.895733  1
  Sb  Sb18  1  0.001315  0.499525  0.500160  1
  Te  Te19  1  0.998753  0.002564  0.507277  1
