# generated using pymatgen
data_Tb2SmCu2Ni7
_symmetry_space_group_name_H-M   'P 1'
_cell_length_a   5.10571100
_cell_length_b   5.10296716
_cell_length_c   16.40516100
_cell_angle_alpha   90.00000000
_cell_angle_beta   90.00000000
_cell_angle_gamma   119.97349578
_symmetry_Int_Tables_number   1
_chemical_formula_structural   Tb2SmCu2Ni7
_chemical_formula_sum   'Tb4 Sm2 Cu4 Ni14'
_cell_volume   370.25936955
_cell_formula_units_Z   2
loop_
 _symmetry_equiv_pos_site_id
 _symmetry_equiv_pos_as_xyz
  1  'x, y, z'
loop_
 _atom_site_type_symbol
 _atom_site_label
 _atom_site_symmetry_multiplicity
 _atom_site_fract_x
 _atom_site_fract_y
 _atom_site_fract_z
 _atom_site_occupancy
  Tb  Tb0  1  0.333242  0.666629  0.540370  1
  Tb  Tb1  1  0.666758  0.333371  0.040370  1
  Tb  Tb2  1  0.666758  0.333371  0.459630  1
  Tb  Tb3  1  0.333242  0.666629  0.959630  1
  Sm  Sm4  1  0.333359  0.666682  0.750000  1
  Sm  Sm5  1  0.666641  0.333318  0.250000  1
  Cu  Cu6  1  0.333248  0.666643  0.250000  1
  Cu  Cu7  1  0.666752  0.333357  0.750000  1
  Cu  Cu8  1  0.000081  0.000000  0.250000  1
  Cu  Cu9  1  0.999919  0.000000  0.750000  1
  Ni  Ni10  1  0.000000  0.000000  0.000000  1
  Ni  Ni11  1  0.000000  0.000000  0.500000  1
  Ni  Ni12  1  0.166993  0.333823  0.124630  1
  Ni  Ni13  1  0.833007  0.666177  0.624630  1
  Ni  Ni14  1  0.666295  0.833145  0.124639  1
  Ni  Ni15  1  0.166999  0.833158  0.124619  1
  Ni  Ni16  1  0.833001  0.166842  0.624619  1
  Ni  Ni17  1  0.333705  0.166855  0.624639  1
  Ni  Ni18  1  0.833007  0.666177  0.875370  1
  Ni  Ni19  1  0.833001  0.166842  0.875381  1
  Ni  Ni20  1  0.333705  0.166855  0.875361  1
  Ni  Ni21  1  0.666295  0.833145  0.375361  1
  Ni  Ni22  1  0.166999  0.833158  0.375381  1
  Ni  Ni23  1  0.166993  0.333823  0.375370  1
