# generated using pymatgen
data_DyY5Ho10(In3Os)2
_symmetry_space_group_name_H-M   'P 1'
_cell_length_a   10.34601301
_cell_length_b   10.33677200
_cell_length_c   7.14961109
_cell_angle_alpha   89.92011654
_cell_angle_beta   90.00225745
_cell_angle_gamma   120.02668392
_symmetry_Int_Tables_number   1
_chemical_formula_structural   DyY5Ho10(In3Os)2
_chemical_formula_sum   'Dy1 Y5 Ho10 In6 Os2'
_cell_volume   661.99334257
_cell_formula_units_Z   1
loop_
 _symmetry_equiv_pos_site_id
 _symmetry_equiv_pos_as_xyz
  1  'x, y, z'
loop_
 _atom_site_type_symbol
 _atom_site_label
 _atom_site_symmetry_multiplicity
 _atom_site_fract_x
 _atom_site_fract_y
 _atom_site_fract_z
 _atom_site_occupancy
  Dy  Dy0  1  0.534191  0.068370  0.507375  1
  Y  Y1  1  0.933473  0.466818  0.507570  1
  Y  Y2  1  0.533346  0.466807  0.507548  1
  Y  Y3  1  0.466710  0.933412  0.007533  1
  Y  Y4  1  0.066834  0.533358  0.007546  1
  Y  Y5  1  0.466495  0.533363  0.007517  1
  Ho  Ho6  1  0.176797  0.353608  0.710972  1
  Ho  Ho7  1  0.646337  0.823594  0.710619  1
  Ho  Ho8  1  0.177259  0.823578  0.710625  1
  Ho  Ho9  1  0.822815  0.645616  0.210749  1
  Ho  Ho10  1  0.353208  0.176302  0.211685  1
  Ho  Ho11  1  0.823096  0.176312  0.211677  1
  Ho  Ho12  1  0.666608  0.333209  0.885223  1
  Ho  Ho13  1  0.333574  0.667169  0.384830  1
  Ho  Ho14  1  0.999893  0.999795  0.490942  1
  Ho  Ho15  1  0.999947  0.999879  0.991146  1
  In  In16  1  0.836843  0.673682  0.755832  1
  In  In17  1  0.326704  0.163451  0.756690  1
  In  In18  1  0.836742  0.163462  0.756719  1
  In  In19  1  0.163296  0.326597  0.256425  1
  In  In20  1  0.673562  0.836268  0.255986  1
  In  In21  1  0.162712  0.836277  0.256030  1
  Os  Os22  1  0.666207  0.332403  0.278820  1
  Os  Os23  1  0.333347  0.666669  0.777987  1
