# generated using pymatgen
data_Tb5Lu3(Co4P3)4
_symmetry_space_group_name_H-M   'P 1'
_cell_length_a   12.37577500
_cell_length_b   12.37577515
_cell_length_c   3.75790100
_cell_angle_alpha   90.00000000
_cell_angle_beta   90.00000000
_cell_angle_gamma   119.99999693
_symmetry_Int_Tables_number   1
_chemical_formula_structural   Tb5Lu3(Co4P3)4
_chemical_formula_sum   'Tb5 Lu3 Co16 P12'
_cell_volume   498.44907560
_cell_formula_units_Z   1
loop_
 _symmetry_equiv_pos_site_id
 _symmetry_equiv_pos_as_xyz
  1  'x, y, z'
loop_
 _atom_site_type_symbol
 _atom_site_label
 _atom_site_symmetry_multiplicity
 _atom_site_fract_x
 _atom_site_fract_y
 _atom_site_fract_z
 _atom_site_occupancy
  Tb  Tb0  1  0.817419  0.000000  0.500000  1
  Tb  Tb1  1  0.000000  0.817419  0.500000  1
  Tb  Tb2  1  0.182581  0.182581  0.500000  1
  Tb  Tb3  1  0.333333  0.666667  0.000000  1
  Tb  Tb4  1  0.666667  0.333333  0.000000  1
  Lu  Lu5  1  0.440811  0.000000  0.000000  1
  Lu  Lu6  1  0.000000  0.440811  0.000000  1
  Lu  Lu7  1  0.559189  0.559189  0.000000  1
  Co  Co8  1  0.276320  0.000000  0.500000  1
  Co  Co9  1  0.000000  0.276320  0.500000  1
  Co  Co10  1  0.723680  0.723680  0.500000  1
  Co  Co11  1  0.627172  0.806559  0.000000  1
  Co  Co12  1  0.193441  0.820612  0.000000  1
  Co  Co13  1  0.179388  0.372828  0.000000  1
  Co  Co14  1  0.372828  0.179388  0.000000  1
  Co  Co15  1  0.806559  0.627172  0.000000  1
  Co  Co16  1  0.820612  0.193441  0.000000  1
  Co  Co17  1  0.522753  0.876461  0.500000  1
  Co  Co18  1  0.123539  0.646293  0.500000  1
  Co  Co19  1  0.353707  0.477247  0.500000  1
  Co  Co20  1  0.477247  0.353707  0.500000  1
  Co  Co21  1  0.876461  0.522753  0.500000  1
  Co  Co22  1  0.646293  0.123539  0.500000  1
  Co  Co23  1  0.000000  0.000000  0.000000  1
  P  P24  1  0.179392  0.000000  0.000000  1
  P  P25  1  0.000000  0.179392  0.000000  1
  P  P26  1  0.820608  0.820608  0.000000  1
  P  P27  1  0.523252  0.696693  0.500000  1
  P  P28  1  0.303307  0.826559  0.500000  1
  P  P29  1  0.173441  0.476748  0.500000  1
  P  P30  1  0.476748  0.173441  0.500000  1
  P  P31  1  0.696693  0.523252  0.500000  1
  P  P32  1  0.826559  0.303307  0.500000  1
  P  P33  1  0.649243  0.000000  0.000000  1
  P  P34  1  0.000000  0.649243  0.000000  1
  P  P35  1  0.350757  0.350757  0.000000  1
