# generated using pymatgen
data_Ce2DyY7(Al2Ru3)2
_symmetry_space_group_name_H-M   'P 1'
_cell_length_a   8.48539700
_cell_length_b   8.39617218
_cell_length_c   8.37106796
_cell_angle_alpha   109.99486902
_cell_angle_beta   109.29306679
_cell_angle_gamma   110.25676458
_symmetry_Int_Tables_number   1
_chemical_formula_structural   Ce2DyY7(Al2Ru3)2
_chemical_formula_sum   'Ce2 Dy1 Y7 Al4 Ru6'
_cell_volume   452.55815415
_cell_formula_units_Z   1
loop_
 _symmetry_equiv_pos_site_id
 _symmetry_equiv_pos_as_xyz
  1  'x, y, z'
loop_
 _atom_site_type_symbol
 _atom_site_label
 _atom_site_symmetry_multiplicity
 _atom_site_fract_x
 _atom_site_fract_y
 _atom_site_fract_z
 _atom_site_occupancy
  Ce  Ce0  1  0.943892  0.251111  0.195880  1
  Ce  Ce1  1  0.198014  0.943035  0.251876  1
  Dy  Dy2  1  0.782464  0.786944  0.779561  1
  Y  Y3  1  0.317118  0.565712  0.754668  1
  Y  Y4  1  0.751384  0.316731  0.567727  1
  Y  Y5  1  0.567087  0.748546  0.312833  1
  Y  Y6  1  0.722904  0.503819  0.998573  1
  Y  Y7  1  0.998955  0.720556  0.506025  1
  Y  Y8  1  0.501329  0.991436  0.717328  1
  Y  Y9  1  0.254386  0.189697  0.933322  1
  Al  Al10  1  0.416684  0.411646  0.410123  1
  Al  Al11  1  0.091488  0.491462  0.996385  1
  Al  Al12  1  0.997763  0.090774  0.501819  1
  Al  Al13  1  0.502007  0.010333  0.094571  1
  Ru  Ru14  1  0.868925  0.116325  0.740719  1
  Ru  Ru15  1  0.754983  0.906205  0.122393  1
  Ru  Ru16  1  0.127069  0.763859  0.911121  1
  Ru  Ru17  1  0.222264  0.587623  0.361018  1
  Ru  Ru18  1  0.355818  0.219804  0.592359  1
  Ru  Ru19  1  0.625465  0.384384  0.251697  1
