# generated using pymatgen
data_Nd4P3Cl
_symmetry_space_group_name_H-M   'P 1'
_cell_length_a   8.35934805
_cell_length_b   4.14069300
_cell_length_c   5.85302104
_cell_angle_alpha   90.00000000
_cell_angle_beta   90.00038018
_cell_angle_gamma   90.00000000
_symmetry_Int_Tables_number   1
_chemical_formula_structural   Nd4P3Cl
_chemical_formula_sum   'Nd4 P3 Cl1'
_cell_volume   202.59350839
_cell_formula_units_Z   1
loop_
 _symmetry_equiv_pos_site_id
 _symmetry_equiv_pos_as_xyz
  1  'x, y, z'
loop_
 _atom_site_type_symbol
 _atom_site_label
 _atom_site_symmetry_multiplicity
 _atom_site_fract_x
 _atom_site_fract_y
 _atom_site_fract_z
 _atom_site_occupancy
  Nd  Nd0  1  0.104216  0.749999  0.249892  1
  Nd  Nd1  1  0.645627  0.749999  0.250132  1
  Nd  Nd2  1  0.375073  0.249999  0.749903  1
  Nd  Nd3  1  0.875103  0.249999  0.750080  1
  P  P4  1  0.874896  0.249999  0.250056  1
  P  P5  1  0.130719  0.749999  0.749915  1
  P  P6  1  0.619485  0.749999  0.750140  1
  Cl  Cl7  1  0.374884  0.249999  0.249886  1
