# generated using pymatgen
data_La5Tb3Pr2Si8O3
_symmetry_space_group_name_H-M   'P 1'
_cell_length_a   10.75639500
_cell_length_b   10.77691242
_cell_length_c   4.55266900
_cell_angle_alpha   90.00000000
_cell_angle_beta   90.00000000
_cell_angle_gamma   119.93704480
_symmetry_Int_Tables_number   1
_chemical_formula_structural   La5Tb3Pr2Si8O3
_chemical_formula_sum   'La5 Tb3 Pr2 Si8 O3'
_cell_volume   457.33344352
_cell_formula_units_Z   1
loop_
 _symmetry_equiv_pos_site_id
 _symmetry_equiv_pos_as_xyz
  1  'x, y, z'
loop_
 _atom_site_type_symbol
 _atom_site_label
 _atom_site_symmetry_multiplicity
 _atom_site_fract_x
 _atom_site_fract_y
 _atom_site_fract_z
 _atom_site_occupancy
  La  La0  1  0.788190  0.576381  0.000000  1
  La  La1  1  0.999801  0.999602  0.000000  1
  La  La2  1  0.211964  0.423927  0.000000  1
  La  La3  1  0.423668  0.211437  0.000000  1
  La  La4  1  0.787768  0.211437  0.000000  1
  Tb  Tb5  1  0.000786  0.500981  0.500000  1
  Tb  Tb6  1  0.500195  0.500981  0.500000  1
  Tb  Tb7  1  0.499178  0.998356  0.500000  1
  Pr  Pr8  1  0.211796  0.788950  0.000000  1
  Pr  Pr9  1  0.577156  0.788950  0.000000  1
  Si  Si10  1  0.000102  0.776841  0.500000  1
  Si  Si11  1  0.999760  0.222535  0.500000  1
  Si  Si12  1  0.222775  0.222535  0.500000  1
  Si  Si13  1  0.776647  0.999699  0.500000  1
  Si  Si14  1  0.333628  0.667257  0.500000  1
  Si  Si15  1  0.223053  0.999699  0.500000  1
  Si  Si16  1  0.666656  0.333310  0.500000  1
  Si  Si17  1  0.776740  0.776841  0.500000  1
  O  O18  1  0.000314  0.500162  0.000000  1
  O  O19  1  0.499848  0.500162  0.000000  1
  O  O20  1  0.499977  0.999954  0.000000  1
