# generated using pymatgen
data_Hf6TiZn22Ge
_symmetry_space_group_name_H-M   'P 1'
_cell_length_a   8.76677487
_cell_length_b   8.76677520
_cell_length_c   8.76677500
_cell_angle_alpha   60.00000455
_cell_angle_beta   60.00000329
_cell_angle_gamma   59.99999691
_symmetry_Int_Tables_number   1
_chemical_formula_structural   Hf6TiZn22Ge
_chemical_formula_sum   'Hf6 Ti1 Zn22 Ge1'
_cell_volume   476.43603646
_cell_formula_units_Z   1
loop_
 _symmetry_equiv_pos_site_id
 _symmetry_equiv_pos_as_xyz
  1  'x, y, z'
loop_
 _atom_site_type_symbol
 _atom_site_label
 _atom_site_symmetry_multiplicity
 _atom_site_fract_x
 _atom_site_fract_y
 _atom_site_fract_z
 _atom_site_occupancy
  Hf  Hf0  1  0.711901  0.288099  0.288099  1
  Hf  Hf1  1  0.288099  0.711901  0.711901  1
  Hf  Hf2  1  0.288099  0.711901  0.288099  1
  Hf  Hf3  1  0.711901  0.288099  0.711901  1
  Hf  Hf4  1  0.288099  0.288099  0.711901  1
  Hf  Hf5  1  0.711901  0.711901  0.288099  1
  Ti  Ti6  1  0.000000  0.000000  0.000000  1
  Zn  Zn7  1  0.122639  0.122639  0.122639  1
  Zn  Zn8  1  0.877361  0.877361  0.877361  1
  Zn  Zn9  1  0.122639  0.122639  0.632085  1
  Zn  Zn10  1  0.122639  0.632085  0.122639  1
  Zn  Zn11  1  0.877361  0.877361  0.367915  1
  Zn  Zn12  1  0.877361  0.367915  0.877361  1
  Zn  Zn13  1  0.632085  0.122639  0.122639  1
  Zn  Zn14  1  0.367915  0.877361  0.877361  1
  Zn  Zn15  1  0.500000  0.000000  0.000000  1
  Zn  Zn16  1  0.000000  0.500000  0.500000  1
  Zn  Zn17  1  0.000000  0.500000  0.000000  1
  Zn  Zn18  1  0.500000  0.000000  0.500000  1
  Zn  Zn19  1  0.000000  0.000000  0.500000  1
  Zn  Zn20  1  0.500000  0.500000  0.000000  1
  Zn  Zn21  1  0.335877  0.335877  0.335877  1
  Zn  Zn22  1  0.664123  0.664123  0.664123  1
  Zn  Zn23  1  0.335877  0.335877  0.992371  1
  Zn  Zn24  1  0.335877  0.992371  0.335877  1
  Zn  Zn25  1  0.664123  0.664123  0.007629  1
  Zn  Zn26  1  0.664123  0.007629  0.664123  1
  Zn  Zn27  1  0.992371  0.335877  0.335877  1
  Zn  Zn28  1  0.007629  0.664123  0.664123  1
  Ge  Ge29  1  0.500000  0.500000  0.500000  1
