# generated using pymatgen
data_YTh5PtCl15
_symmetry_space_group_name_H-M   'P 1'
_cell_length_a   9.85041379
_cell_length_b   9.85041448
_cell_length_c   9.85041449
_cell_angle_alpha   110.15636595
_cell_angle_beta   109.12973038
_cell_angle_gamma   109.12973881
_symmetry_Int_Tables_number   1
_chemical_formula_structural   YTh5PtCl15
_chemical_formula_sum   'Y1 Th5 Pt1 Cl15'
_cell_volume   735.69022836
_cell_formula_units_Z   1
loop_
 _symmetry_equiv_pos_site_id
 _symmetry_equiv_pos_as_xyz
  1  'x, y, z'
loop_
 _atom_site_type_symbol
 _atom_site_label
 _atom_site_symmetry_multiplicity
 _atom_site_fract_x
 _atom_site_fract_y
 _atom_site_fract_z
 _atom_site_occupancy
  Y  Y0  1  0.000000  0.248380  0.248380  1
  Th  Th1  1  0.000000  0.744168  0.744168  1
  Th  Th2  1  0.248585  0.004562  0.253147  1
  Th  Th3  1  0.751415  0.004562  0.755976  1
  Th  Th4  1  0.248585  0.253147  0.004562  1
  Th  Th5  1  0.751415  0.755976  0.004562  1
  Pt  Pt6  1  0.000000  0.995449  0.995449  1
  Cl  Cl7  1  0.488501  0.244952  0.244952  1
  Cl  Cl8  1  0.511499  0.756451  0.756451  1
  Cl  Cl9  1  0.000000  0.244952  0.756451  1
  Cl  Cl10  1  0.000000  0.756451  0.244952  1
  Cl  Cl11  1  0.239584  0.487217  0.247633  1
  Cl  Cl12  1  0.760416  0.008049  0.247633  1
  Cl  Cl13  1  0.755765  0.510204  0.754439  1
  Cl  Cl14  1  0.244235  0.998674  0.754439  1
  Cl  Cl15  1  0.239584  0.247633  0.487217  1
  Cl  Cl16  1  0.755765  0.754439  0.510204  1
  Cl  Cl17  1  0.760416  0.247633  0.008049  1
  Cl  Cl18  1  0.244235  0.754439  0.998674  1
  Cl  Cl19  1  0.000000  0.494452  0.494452  1
  Cl  Cl20  1  0.500000  0.994106  0.494106  1
  Cl  Cl21  1  0.500000  0.494106  0.994106  1
