# generated using pymatgen
data_Zr20Co4(As3P)3
_symmetry_space_group_name_H-M   'P 1'
_cell_length_a   3.72129700
_cell_length_b   10.48119107
_cell_length_c   17.56024011
_cell_angle_alpha   89.98723383
_cell_angle_beta   90.00000000
_cell_angle_gamma   90.00000000
_symmetry_Int_Tables_number   1
_chemical_formula_structural   Zr20Co4(As3P)3
_chemical_formula_sum   'Zr20 Co4 As9 P3'
_cell_volume   684.91300078
_cell_formula_units_Z   1
loop_
 _symmetry_equiv_pos_site_id
 _symmetry_equiv_pos_as_xyz
  1  'x, y, z'
loop_
 _atom_site_type_symbol
 _atom_site_label
 _atom_site_symmetry_multiplicity
 _atom_site_fract_x
 _atom_site_fract_y
 _atom_site_fract_z
 _atom_site_occupancy
  Zr  Zr0  1  0.250000  0.127267  0.477361  1
  Zr  Zr1  1  0.750000  0.878378  0.523120  1
  Zr  Zr2  1  0.750000  0.627839  0.022618  1
  Zr  Zr3  1  0.250000  0.372311  0.977333  1
  Zr  Zr4  1  0.250000  0.060031  0.073427  1
  Zr  Zr5  1  0.750000  0.940059  0.926897  1
  Zr  Zr6  1  0.750000  0.555082  0.423257  1
  Zr  Zr7  1  0.250000  0.437234  0.574249  1
  Zr  Zr8  1  0.250000  0.485215  0.273080  1
  Zr  Zr9  1  0.750000  0.514145  0.725924  1
  Zr  Zr10  1  0.750000  0.985719  0.225405  1
  Zr  Zr11  1  0.250000  0.015198  0.775026  1
  Zr  Zr12  1  0.250000  0.814073  0.368175  1
  Zr  Zr13  1  0.750000  0.188300  0.629092  1
  Zr  Zr14  1  0.750000  0.311482  0.128539  1
  Zr  Zr15  1  0.250000  0.688349  0.871402  1
  Zr  Zr16  1  0.250000  0.758021  0.164350  1
  Zr  Zr17  1  0.750000  0.242049  0.835565  1
  Zr  Zr18  1  0.750000  0.258046  0.334612  1
  Zr  Zr19  1  0.250000  0.743145  0.666691  1
  Co  Co20  1  0.250000  0.365763  0.413339  1
  Co  Co21  1  0.750000  0.630447  0.591967  1
  Co  Co22  1  0.750000  0.867038  0.086690  1
  Co  Co23  1  0.250000  0.132741  0.913356  1
  As  As24  1  0.250000  0.686721  0.508564  1
  As  As25  1  0.250000  0.506041  0.116220  1
  As  As26  1  0.750000  0.493947  0.883673  1
  As  As27  1  0.750000  0.007195  0.382866  1
  As  As28  1  0.250000  0.994542  0.617591  1
  As  As29  1  0.250000  0.187310  0.219003  1
  As  As30  1  0.750000  0.813740  0.781711  1
  As  As31  1  0.750000  0.686797  0.279683  1
  As  As32  1  0.250000  0.312126  0.719966  1
  P  P33  1  0.250000  0.814244  0.010620  1
  P  P34  1  0.750000  0.185818  0.989375  1
  P  P35  1  0.750000  0.313587  0.489256  1
