# generated using pymatgen
data_Er20Ir9Ru2Rh
_symmetry_space_group_name_H-M   'P 1'
_cell_length_a   10.75236300
_cell_length_b   10.75236300
_cell_length_c   6.37081500
_cell_angle_alpha   90.00000000
_cell_angle_beta   90.00000000
_cell_angle_gamma   90.00000000
_symmetry_Int_Tables_number   1
_chemical_formula_structural   Er20Ir9Ru2Rh
_chemical_formula_sum   'Er20 Ir9 Ru2 Rh1'
_cell_volume   736.55101008
_cell_formula_units_Z   1
loop_
 _symmetry_equiv_pos_site_id
 _symmetry_equiv_pos_as_xyz
  1  'x, y, z'
loop_
 _atom_site_type_symbol
 _atom_site_label
 _atom_site_symmetry_multiplicity
 _atom_site_fract_x
 _atom_site_fract_y
 _atom_site_fract_z
 _atom_site_occupancy
  Er  Er0  1  0.292369  0.087067  0.379220  1
  Er  Er1  1  0.292113  0.913085  0.876249  1
  Er  Er2  1  0.707887  0.086915  0.876249  1
  Er  Er3  1  0.707631  0.912933  0.379220  1
  Er  Er4  1  0.586915  0.792113  0.876249  1
  Er  Er5  1  0.587067  0.207631  0.379220  1
  Er  Er6  1  0.412933  0.792369  0.379220  1
  Er  Er7  1  0.413085  0.207887  0.876249  1
  Er  Er8  1  0.207950  0.412852  0.623800  1
  Er  Er9  1  0.207686  0.587258  0.121121  1
  Er  Er10  1  0.792314  0.412742  0.121121  1
  Er  Er11  1  0.792050  0.587148  0.623800  1
  Er  Er12  1  0.912742  0.707686  0.121121  1
  Er  Er13  1  0.912852  0.292050  0.623800  1
  Er  Er14  1  0.087148  0.707950  0.623800  1
  Er  Er15  1  0.087258  0.292314  0.121121  1
  Er  Er16  1  0.000000  0.000000  0.499610  1
  Er  Er17  1  0.000000  0.000000  0.999746  1
  Er  Er18  1  0.500000  0.500000  0.999746  1
  Er  Er19  1  0.500000  0.500000  0.499610  1
  Ir  Ir20  1  0.847288  0.152922  0.249844  1
  Ir  Ir21  1  0.847080  0.846996  0.749742  1
  Ir  Ir22  1  0.152920  0.153004  0.749742  1
  Ir  Ir23  1  0.152712  0.847078  0.249844  1
  Ir  Ir24  1  0.653004  0.347080  0.749742  1
  Ir  Ir25  1  0.652922  0.652712  0.249844  1
  Ir  Ir26  1  0.347078  0.347288  0.249844  1
  Ir  Ir27  1  0.346996  0.652920  0.749742  1
  Ir  Ir28  1  0.000000  0.500000  0.378659  1
  Ru  Ru29  1  0.500000  0.000000  0.622689  1
  Ru  Ru30  1  0.000000  0.500000  0.878079  1
  Rh  Rh31  1  0.500000  0.000000  0.121954  1
