# generated using pymatgen
data_Hf3TcMo2As2P
_symmetry_space_group_name_H-M   'P 1'
_cell_length_a   7.01187600
_cell_length_b   7.04381943
_cell_length_c   3.43851400
_cell_angle_alpha   90.00000000
_cell_angle_beta   90.00000000
_cell_angle_gamma   119.85009783
_symmetry_Int_Tables_number   1
_chemical_formula_structural   Hf3TcMo2As2P
_chemical_formula_sum   'Hf3 Tc1 Mo2 As2 P1'
_cell_volume   147.29835538
_cell_formula_units_Z   1
loop_
 _symmetry_equiv_pos_site_id
 _symmetry_equiv_pos_as_xyz
  1  'x, y, z'
loop_
 _atom_site_type_symbol
 _atom_site_label
 _atom_site_symmetry_multiplicity
 _atom_site_fract_x
 _atom_site_fract_y
 _atom_site_fract_z
 _atom_site_occupancy
  Hf  Hf0  1  0.997613  0.601937  0.500000  1
  Hf  Hf1  1  0.395677  0.398063  0.500000  1
  Hf  Hf2  1  0.604705  0.000000  0.500000  1
  Tc  Tc3  1  0.248813  0.000000  0.000000  1
  Mo  Mo4  1  0.753185  0.751964  0.000000  1
  Mo  Mo5  1  0.001222  0.248036  0.000000  1
  As  As6  1  0.665111  0.332288  0.000000  1
  As  As7  1  0.332822  0.667712  0.000000  1
  P  P8  1  0.000851  0.000000  0.500000  1
