# generated using pymatgen
data_Y2Er2TcOsC4
_symmetry_space_group_name_H-M   'P 1'
_cell_length_a   5.07990200
_cell_length_b   6.53270911
_cell_length_c   9.77388629
_cell_angle_alpha   89.68343176
_cell_angle_beta   90.00000000
_cell_angle_gamma   90.00000000
_symmetry_Int_Tables_number   1
_chemical_formula_structural   Y2Er2TcOsC4
_chemical_formula_sum   'Y4 Er4 Tc2 Os2 C8'
_cell_volume   324.34656846
_cell_formula_units_Z   2
loop_
 _symmetry_equiv_pos_site_id
 _symmetry_equiv_pos_as_xyz
  1  'x, y, z'
loop_
 _atom_site_type_symbol
 _atom_site_label
 _atom_site_symmetry_multiplicity
 _atom_site_fract_x
 _atom_site_fract_y
 _atom_site_fract_z
 _atom_site_occupancy
  Y  Y0  1  0.250000  0.532637  0.215100  1
  Y  Y1  1  0.750000  0.467363  0.784900  1
  Y  Y2  1  0.750000  0.969083  0.712832  1
  Y  Y3  1  0.250000  0.030917  0.287168  1
  Er  Er4  1  0.250000  0.676005  0.556088  1
  Er  Er5  1  0.750000  0.323995  0.443912  1
  Er  Er6  1  0.750000  0.824744  0.056618  1
  Er  Er7  1  0.250000  0.175256  0.943382  1
  Tc  Tc8  1  0.250000  0.721258  0.865777  1
  Tc  Tc9  1  0.750000  0.278742  0.134223  1
  Os  Os10  1  0.750000  0.777255  0.365503  1
  Os  Os11  1  0.250000  0.222745  0.634497  1
  C  C12  1  0.250000  0.454221  0.758985  1
  C  C13  1  0.750000  0.545779  0.241015  1
  C  C14  1  0.750000  0.044620  0.259824  1
  C  C15  1  0.250000  0.955380  0.740176  1
  C  C16  1  0.250000  0.826150  0.050499  1
  C  C17  1  0.750000  0.173850  0.949501  1
  C  C18  1  0.750000  0.672417  0.551070  1
  C  C19  1  0.250000  0.327583  0.448930  1
