# generated using pymatgen
data_LuNb(Bi3O7)2
_symmetry_space_group_name_H-M   'P 1'
_cell_length_a   6.62838233
_cell_length_b   6.85713544
_cell_length_c   7.78172583
_cell_angle_alpha   106.63980239
_cell_angle_beta   89.63860235
_cell_angle_gamma   99.84066249
_symmetry_Int_Tables_number   1
_chemical_formula_structural   LuNb(Bi3O7)2
_chemical_formula_sum   'Lu1 Nb1 Bi6 O14'
_cell_volume   333.55483155
_cell_formula_units_Z   1
loop_
 _symmetry_equiv_pos_site_id
 _symmetry_equiv_pos_as_xyz
  1  'x, y, z'
loop_
 _atom_site_type_symbol
 _atom_site_label
 _atom_site_symmetry_multiplicity
 _atom_site_fract_x
 _atom_site_fract_y
 _atom_site_fract_z
 _atom_site_occupancy
  Lu  Lu0  1  0.458818  0.998840  0.249138  1
  Nb  Nb1  1  0.998397  0.004834  0.003485  1
  Bi  Bi2  1  0.997953  0.004685  0.497851  1
  Bi  Bi3  1  0.522968  0.995216  0.750771  1
  Bi  Bi4  1  0.248772  0.528379  0.882917  1
  Bi  Bi5  1  0.735073  0.493667  0.113595  1
  Bi  Bi6  1  0.720832  0.463686  0.602231  1
  Bi  Bi7  1  0.266710  0.512529  0.380983  1
  O  O8  1  0.462638  0.660052  0.181521  1
  O  O9  1  0.531922  0.361086  0.817940  1
  O  O10  1  0.302004  0.941133  0.964507  1
  O  O11  1  0.730316  0.037118  0.083698  1
  O  O12  1  0.299208  0.926281  0.509685  1
  O  O13  1  0.702536  0.088330  0.483719  1
  O  O14  1  0.520163  0.338210  0.347508  1
  O  O15  1  0.458873  0.645780  0.637051  1
  O  O16  1  0.926883  0.685718  0.969954  1
  O  O17  1  0.089534  0.302067  0.026634  1
  O  O18  1  0.092426  0.334157  0.615215  1
  O  O19  1  0.891776  0.680490  0.376827  1
  O  O20  1  0.915410  0.934648  0.743883  1
  O  O21  1  0.126787  0.063094  0.260886  1
