# generated using pymatgen
data_Ho4TmBi2Ir
_symmetry_space_group_name_H-M   'P 1'
_cell_length_a   7.94862598
_cell_length_b   8.98396731
_cell_length_c   12.46653711
_cell_angle_alpha   89.97001527
_cell_angle_beta   90.09923184
_cell_angle_gamma   89.99956629
_symmetry_Int_Tables_number   1
_chemical_formula_structural   Ho4TmBi2Ir
_chemical_formula_sum   'Ho16 Tm4 Bi8 Ir4'
_cell_volume   890.23640008
_cell_formula_units_Z   4
loop_
 _symmetry_equiv_pos_site_id
 _symmetry_equiv_pos_as_xyz
  1  'x, y, z'
loop_
 _atom_site_type_symbol
 _atom_site_label
 _atom_site_symmetry_multiplicity
 _atom_site_fract_x
 _atom_site_fract_y
 _atom_site_fract_z
 _atom_site_occupancy
  Ho  Ho0  1  0.839221  0.750248  0.793731  1
  Ho  Ho1  1  0.161107  0.249898  0.206307  1
  Ho  Ho2  1  0.339407  0.249774  0.706030  1
  Ho  Ho3  1  0.660300  0.750068  0.294007  1
  Ho  Ho4  1  0.375603  0.750155  0.690937  1
  Ho  Ho5  1  0.623779  0.249703  0.309073  1
  Ho  Ho6  1  0.876007  0.249830  0.808662  1
  Ho  Ho7  1  0.124618  0.750297  0.191337  1
  Ho  Ho8  1  0.946987  0.750390  0.501621  1
  Ho  Ho9  1  0.053867  0.249733  0.498254  1
  Ho  Ho10  1  0.446646  0.249588  0.998371  1
  Ho  Ho11  1  0.552546  0.750288  0.001547  1
  Ho  Ho12  1  0.824387  0.042036  0.066018  1
  Ho  Ho13  1  0.675659  0.458209  0.565882  1
  Ho  Ho14  1  0.824099  0.458106  0.066024  1
  Ho  Ho15  1  0.175877  0.542106  0.933866  1
  Tm  Tm16  1  0.673693  0.041897  0.565600  1
  Tm  Tm17  1  0.326279  0.957941  0.434264  1
  Tm  Tm18  1  0.173983  0.957809  0.934152  1
  Tm  Tm19  1  0.326025  0.541940  0.434275  1
  Bi  Bi20  1  0.566744  0.491400  0.826866  1
  Bi  Bi21  1  0.433180  0.508707  0.173312  1
  Bi  Bi22  1  0.066489  0.508695  0.673123  1
  Bi  Bi23  1  0.433339  0.991264  0.173343  1
  Bi  Bi24  1  0.934032  0.491534  0.327048  1
  Bi  Bi25  1  0.566157  0.008524  0.826823  1
  Bi  Bi26  1  0.934157  0.008485  0.327025  1
  Bi  Bi27  1  0.065880  0.991387  0.673119  1
  Ir  Ir28  1  0.570395  0.750576  0.508378  1
  Ir  Ir29  1  0.428257  0.249562  0.491311  1
  Ir  Ir30  1  0.072155  0.249419  0.991112  1
  Ir  Ir31  1  0.929124  0.750433  0.008585  1
