# generated using pymatgen
data_TaMnVS6
_symmetry_space_group_name_H-M   'P 1'
_cell_length_a   5.52396767
_cell_length_b   5.52406655
_cell_length_c   6.82531812
_cell_angle_alpha   82.32105125
_cell_angle_beta   82.31796941
_cell_angle_gamma   119.99791491
_symmetry_Int_Tables_number   1
_chemical_formula_structural   TaMnVS6
_chemical_formula_sum   'Ta1 Mn1 V1 S6'
_cell_volume   173.81084408
_cell_formula_units_Z   1
loop_
 _symmetry_equiv_pos_site_id
 _symmetry_equiv_pos_as_xyz
  1  'x, y, z'
loop_
 _atom_site_type_symbol
 _atom_site_label
 _atom_site_symmetry_multiplicity
 _atom_site_fract_x
 _atom_site_fract_y
 _atom_site_fract_z
 _atom_site_occupancy
  Ta  Ta0  1  0.499858  0.833253  0.500028  1
  Mn  Mn1  1  0.167051  0.167132  0.499728  1
  V  V2  1  0.833332  0.499827  0.499947  1
  S  S3  1  0.569574  0.255550  0.272958  1
  S  S4  1  0.227690  0.555656  0.272875  1
  S  S5  1  0.927456  0.913530  0.273189  1
  S  S6  1  0.777738  0.763774  0.727215  1
  S  S7  1  0.419664  0.105655  0.727116  1
  S  S8  1  0.077540  0.405527  0.727243  1
