# generated using pymatgen
data_Dy12Ni4SnAu
_symmetry_space_group_name_H-M   'P 1'
_cell_length_a   8.36911161
_cell_length_b   8.36911234
_cell_length_c   8.36911247
_cell_angle_alpha   112.82757529
_cell_angle_beta   109.03459630
_cell_angle_gamma   106.61276552
_symmetry_Int_Tables_number   1
_chemical_formula_structural   Dy12Ni4SnAu
_chemical_formula_sum   'Dy12 Ni4 Sn1 Au1'
_cell_volume   449.89114218
_cell_formula_units_Z   1
loop_
 _symmetry_equiv_pos_site_id
 _symmetry_equiv_pos_as_xyz
  1  'x, y, z'
loop_
 _atom_site_type_symbol
 _atom_site_label
 _atom_site_symmetry_multiplicity
 _atom_site_fract_x
 _atom_site_fract_y
 _atom_site_fract_z
 _atom_site_occupancy
  Dy  Dy0  1  0.023346  0.721200  0.302145  1
  Dy  Dy1  1  0.976654  0.278800  0.697855  1
  Dy  Dy2  1  0.580945  0.278800  0.302145  1
  Dy  Dy3  1  0.419055  0.721200  0.697855  1
  Dy  Dy4  1  0.675800  0.867947  0.192147  1
  Dy  Dy5  1  0.324200  0.516346  0.192147  1
  Dy  Dy6  1  0.324200  0.132053  0.807853  1
  Dy  Dy7  1  0.675800  0.483654  0.807853  1
  Dy  Dy8  1  0.180546  0.205238  0.385785  1
  Dy  Dy9  1  0.819454  0.205238  0.024691  1
  Dy  Dy10  1  0.180546  0.794762  0.975309  1
  Dy  Dy11  1  0.819454  0.794762  0.614215  1
  Ni  Ni12  1  0.640479  0.500000  0.140479  1
  Ni  Ni13  1  0.359521  0.500000  0.859521  1
  Ni  Ni14  1  0.874979  0.874979  0.000000  1
  Ni  Ni15  1  0.125021  0.125021  0.000000  1
  Sn  Sn16  1  0.500000  0.000000  0.500000  1
  Au  Au17  1  0.000000  0.500000  0.500000  1
