# generated using pymatgen
data_TbTm6Co2Sn23Ru4
_symmetry_space_group_name_H-M   'P 1'
_cell_length_a   9.75448400
_cell_length_b   9.76196641
_cell_length_c   10.04535507
_cell_angle_alpha   89.99999789
_cell_angle_beta   89.91743233
_cell_angle_gamma   120.02538297
_symmetry_Int_Tables_number   1
_chemical_formula_structural   TbTm6Co2Sn23Ru4
_chemical_formula_sum   'Tb1 Tm6 Co2 Sn23 Ru4'
_cell_volume   828.18201162
_cell_formula_units_Z   1
loop_
 _symmetry_equiv_pos_site_id
 _symmetry_equiv_pos_as_xyz
  1  'x, y, z'
loop_
 _atom_site_type_symbol
 _atom_site_label
 _atom_site_symmetry_multiplicity
 _atom_site_fract_x
 _atom_site_fract_y
 _atom_site_fract_z
 _atom_site_occupancy
  Tb  Tb0  1  0.000000  0.000000  0.000000  1
  Tm  Tm1  1  0.484352  0.518678  0.305811  1
  Tm  Tm2  1  0.515648  0.481322  0.694189  1
  Tm  Tm3  1  0.484352  0.965673  0.305811  1
  Tm  Tm4  1  0.515648  0.034327  0.694189  1
  Tm  Tm5  1  0.034075  0.517037  0.304155  1
  Tm  Tm6  1  0.965925  0.482963  0.695845  1
  Co  Co7  1  0.340639  0.170319  0.199247  1
  Co  Co8  1  0.659361  0.829681  0.800753  1
  Sn  Sn9  1  0.349852  0.002427  0.003584  1
  Sn  Sn10  1  0.650148  0.997573  0.996416  1
  Sn  Sn11  1  0.000000  0.350071  0.000000  1
  Sn  Sn12  1  0.000000  0.649929  0.000000  1
  Sn  Sn13  1  0.650148  0.652575  0.996416  1
  Sn  Sn14  1  0.349852  0.347425  0.003584  1
  Sn  Sn15  1  0.336837  0.668419  0.817034  1
  Sn  Sn16  1  0.663163  0.331581  0.182966  1
  Sn  Sn17  1  0.000000  0.000000  0.500000  1
  Sn  Sn18  1  0.780292  0.219757  0.460723  1
  Sn  Sn19  1  0.219708  0.780243  0.539277  1
  Sn  Sn20  1  0.780292  0.560535  0.460723  1
  Sn  Sn21  1  0.219708  0.439465  0.539277  1
  Sn  Sn22  1  0.436299  0.218149  0.453752  1
  Sn  Sn23  1  0.563701  0.781851  0.546248  1
  Sn  Sn24  1  0.333398  0.666700  0.125320  1
  Sn  Sn25  1  0.666602  0.333300  0.874680  1
  Sn  Sn26  1  0.123383  0.887047  0.272458  1
  Sn  Sn27  1  0.876617  0.112953  0.727542  1
  Sn  Sn28  1  0.123383  0.236336  0.272458  1
  Sn  Sn29  1  0.876617  0.763664  0.727542  1
  Sn  Sn30  1  0.759591  0.879796  0.274874  1
  Sn  Sn31  1  0.240409  0.120204  0.725126  1
  Ru  Ru32  1  0.829788  0.168926  0.201115  1
  Ru  Ru33  1  0.170212  0.831074  0.798885  1
  Ru  Ru34  1  0.829788  0.660862  0.201115  1
  Ru  Ru35  1  0.170212  0.339138  0.798885  1
