# generated using pymatgen
data_La3Pr17(Ir2Rh)4
_symmetry_space_group_name_H-M   'P 1'
_cell_length_a   11.32097564
_cell_length_b   11.33126836
_cell_length_c   6.69729924
_cell_angle_alpha   89.98361209
_cell_angle_beta   89.88827204
_cell_angle_gamma   90.05362460
_symmetry_Int_Tables_number   1
_chemical_formula_structural   La3Pr17(Ir2Rh)4
_chemical_formula_sum   'La3 Pr17 Ir8 Rh4'
_cell_volume   859.13428599
_cell_formula_units_Z   1
loop_
 _symmetry_equiv_pos_site_id
 _symmetry_equiv_pos_as_xyz
  1  'x, y, z'
loop_
 _atom_site_type_symbol
 _atom_site_label
 _atom_site_symmetry_multiplicity
 _atom_site_fract_x
 _atom_site_fract_y
 _atom_site_fract_z
 _atom_site_occupancy
  La  La0  1  0.291582  0.092491  0.387122  1
  La  La1  1  0.291286  0.907256  0.886939  1
  La  La2  1  0.708480  0.091795  0.886988  1
  Pr  Pr3  1  0.708690  0.908220  0.385201  1
  Pr  Pr4  1  0.591980  0.790186  0.884481  1
  Pr  Pr5  1  0.591372  0.209459  0.384941  1
  Pr  Pr6  1  0.409996  0.790062  0.384803  1
  Pr  Pr7  1  0.408769  0.210559  0.884535  1
  Pr  Pr8  1  0.208446  0.409681  0.615411  1
  Pr  Pr9  1  0.208433  0.590330  0.115505  1
  Pr  Pr10  1  0.791448  0.409852  0.115159  1
  Pr  Pr11  1  0.791405  0.590875  0.614693  1
  Pr  Pr12  1  0.908664  0.708757  0.114658  1
  Pr  Pr13  1  0.909166  0.291679  0.613522  1
  Pr  Pr14  1  0.090602  0.708239  0.614298  1
  Pr  Pr15  1  0.090743  0.291647  0.113836  1
  Pr  Pr16  1  0.999299  0.999486  0.498790  1
  Pr  Pr17  1  0.999877  0.000212  0.999586  1
  Pr  Pr18  1  0.499967  0.499935  0.000902  1
  Pr  Pr19  1  0.500311  0.499892  0.501181  1
  Ir  Ir20  1  0.844874  0.153476  0.248524  1
  Ir  Ir21  1  0.846023  0.846001  0.749511  1
  Ir  Ir22  1  0.154788  0.153740  0.747914  1
  Ir  Ir23  1  0.155039  0.846183  0.248340  1
  Ir  Ir24  1  0.654054  0.345680  0.750383  1
  Ir  Ir25  1  0.653822  0.653717  0.249904  1
  Ir  Ir26  1  0.346000  0.345765  0.250857  1
  Ir  Ir27  1  0.346156  0.654504  0.750527  1
  Rh  Rh28  1  0.499203  0.000393  0.115745  1
  Rh  Rh29  1  0.499463  0.000001  0.617786  1
  Rh  Rh30  1  0.000110  0.499731  0.883970  1
  Rh  Rh31  1  0.999952  0.500196  0.383986  1
