# generated using pymatgen
data_Dy16Ni3Hg4Ru
_symmetry_space_group_name_H-M   'P 1'
_cell_length_a   9.52556525
_cell_length_b   9.52596114
_cell_length_c   9.52583379
_cell_angle_alpha   59.76328259
_cell_angle_beta   59.76193395
_cell_angle_gamma   59.76239381
_symmetry_Int_Tables_number   1
_chemical_formula_structural   Dy16Ni3Hg4Ru
_chemical_formula_sum   'Dy16 Ni3 Hg4 Ru1'
_cell_volume   607.91039348
_cell_formula_units_Z   1
loop_
 _symmetry_equiv_pos_site_id
 _symmetry_equiv_pos_as_xyz
  1  'x, y, z'
loop_
 _atom_site_type_symbol
 _atom_site_label
 _atom_site_symmetry_multiplicity
 _atom_site_fract_x
 _atom_site_fract_y
 _atom_site_fract_z
 _atom_site_occupancy
  Dy  Dy0  1  0.598460  0.598386  0.598417  1
  Dy  Dy1  1  0.602483  0.602409  0.198988  1
  Dy  Dy2  1  0.602452  0.199023  0.602419  1
  Dy  Dy3  1  0.198991  0.602421  0.602463  1
  Dy  Dy4  1  0.060460  0.438589  0.438577  1
  Dy  Dy5  1  0.437441  0.060793  0.060766  1
  Dy  Dy6  1  0.438586  0.060476  0.438591  1
  Dy  Dy7  1  0.060773  0.437443  0.060795  1
  Dy  Dy8  1  0.438574  0.438590  0.060469  1
  Dy  Dy9  1  0.060752  0.060809  0.437445  1
  Dy  Dy10  1  0.186803  0.815161  0.815129  1
  Dy  Dy11  1  0.808748  0.188147  0.188168  1
  Dy  Dy12  1  0.815160  0.186783  0.815167  1
  Dy  Dy13  1  0.188176  0.808741  0.188184  1
  Dy  Dy14  1  0.815125  0.815164  0.186808  1
  Dy  Dy15  1  0.188163  0.188150  0.808750  1
  Ni  Ni16  1  0.392526  0.392527  0.823936  1
  Ni  Ni17  1  0.392519  0.823960  0.392515  1
  Ni  Ni18  1  0.823923  0.392532  0.392522  1
  Hg  Hg19  1  0.834079  0.834092  0.834084  1
  Hg  Hg20  1  0.834243  0.834253  0.493683  1
  Hg  Hg21  1  0.834250  0.493665  0.834254  1
  Hg  Hg22  1  0.493679  0.834252  0.834248  1
  Ru  Ru23  1  0.393635  0.393637  0.393625  1
