# generated using pymatgen
data_YbTh(Ni5Sn)2
_symmetry_space_group_name_H-M   'P 1'
_cell_length_a   4.86886002
_cell_length_b   4.86711947
_cell_length_c   19.76702400
_cell_angle_alpha   90.00000000
_cell_angle_beta   90.00000000
_cell_angle_gamma   120.02289258
_symmetry_Int_Tables_number   1
_chemical_formula_structural   YbTh(Ni5Sn)2
_chemical_formula_sum   'Yb2 Th2 Ni20 Sn4'
_cell_volume   405.57482340
_cell_formula_units_Z   2
loop_
 _symmetry_equiv_pos_site_id
 _symmetry_equiv_pos_as_xyz
  1  'x, y, z'
loop_
 _atom_site_type_symbol
 _atom_site_label
 _atom_site_symmetry_multiplicity
 _atom_site_fract_x
 _atom_site_fract_y
 _atom_site_fract_z
 _atom_site_occupancy
  Yb  Yb0  1  0.000000  0.000000  0.500000  1
  Yb  Yb1  1  0.000000  0.000000  0.000000  1
  Th  Th2  1  0.333334  0.666667  0.250000  1
  Th  Th3  1  0.666666  0.333333  0.750000  1
  Ni  Ni4  1  0.834315  0.165695  0.354594  1
  Ni  Ni5  1  0.834328  0.668649  0.354596  1
  Ni  Ni6  1  0.331368  0.165684  0.354591  1
  Ni  Ni7  1  0.165685  0.834305  0.645406  1
  Ni  Ni8  1  0.165672  0.331351  0.645404  1
  Ni  Ni9  1  0.668632  0.834316  0.645409  1
  Ni  Ni10  1  0.165685  0.834305  0.854594  1
  Ni  Ni11  1  0.165672  0.331351  0.854596  1
  Ni  Ni12  1  0.668632  0.834316  0.854591  1
  Ni  Ni13  1  0.834315  0.165695  0.145406  1
  Ni  Ni14  1  0.834328  0.668649  0.145404  1
  Ni  Ni15  1  0.331368  0.165684  0.145409  1
  Ni  Ni16  1  0.333329  0.666624  0.956272  1
  Ni  Ni17  1  0.666671  0.333376  0.043728  1
  Ni  Ni18  1  0.666671  0.333376  0.456272  1
  Ni  Ni19  1  0.333329  0.666624  0.543728  1
  Ni  Ni20  1  0.333329  0.666635  0.750000  1
  Ni  Ni21  1  0.666671  0.333365  0.250000  1
  Ni  Ni22  1  0.999991  0.999972  0.250000  1
  Ni  Ni23  1  0.000009  0.000028  0.750000  1
  Sn  Sn24  1  0.333333  0.666659  0.416293  1
  Sn  Sn25  1  0.666667  0.333341  0.583707  1
  Sn  Sn26  1  0.666667  0.333341  0.916293  1
  Sn  Sn27  1  0.333333  0.666659  0.083707  1
