# generated using pymatgen
data_DyEr5Al24OsRu7
_symmetry_space_group_name_H-M   'P 1'
_cell_length_a   8.78480209
_cell_length_b   8.78353695
_cell_length_c   9.58882500
_cell_angle_alpha   90.09178904
_cell_angle_beta   89.90904969
_cell_angle_gamma   120.10107973
_symmetry_Int_Tables_number   1
_chemical_formula_structural   DyEr5Al24OsRu7
_chemical_formula_sum   'Dy1 Er5 Al24 Os1 Ru7'
_cell_volume   640.10829104
_cell_formula_units_Z   1
loop_
 _symmetry_equiv_pos_site_id
 _symmetry_equiv_pos_as_xyz
  1  'x, y, z'
loop_
 _atom_site_type_symbol
 _atom_site_label
 _atom_site_symmetry_multiplicity
 _atom_site_fract_x
 _atom_site_fract_y
 _atom_site_fract_z
 _atom_site_occupancy
  Dy  Dy0  1  0.195256  0.387480  0.249316  1
  Er  Er1  1  0.804506  0.612143  0.750715  1
  Er  Er2  1  0.612204  0.804567  0.249286  1
  Er  Er3  1  0.387866  0.195490  0.750712  1
  Er  Er4  1  0.193779  0.806269  0.250391  1
  Er  Er5  1  0.806200  0.193784  0.749609  1
  Al  Al6  1  0.332973  0.667264  0.018603  1
  Al  Al7  1  0.667101  0.332884  0.981280  1
  Al  Al8  1  0.666664  0.333322  0.519227  1
  Al  Al9  1  0.333412  0.666829  0.480889  1
  Al  Al10  1  0.162831  0.325969  0.577193  1
  Al  Al11  1  0.837158  0.674006  0.422913  1
  Al  Al12  1  0.674011  0.837163  0.577098  1
  Al  Al13  1  0.837106  0.674010  0.077159  1
  Al  Al14  1  0.326023  0.162768  0.422952  1
  Al  Al15  1  0.162884  0.325963  0.922728  1
  Al  Al16  1  0.162741  0.837270  0.577489  1
  Al  Al17  1  0.326019  0.162822  0.077122  1
  Al  Al18  1  0.837162  0.162669  0.422563  1
  Al  Al19  1  0.674018  0.837111  0.922827  1
  Al  Al20  1  0.837178  0.162655  0.077617  1
  Al  Al21  1  0.162727  0.837283  0.922329  1
  Al  Al22  1  0.561504  0.122112  0.250236  1
  Al  Al23  1  0.438482  0.877864  0.749763  1
  Al  Al24  1  0.877680  0.438516  0.250235  1
  Al  Al25  1  0.122138  0.561519  0.749766  1
  Al  Al26  1  0.562364  0.437896  0.250601  1
  Al  Al27  1  0.437863  0.562142  0.749397  1
  Al  Al28  1  0.000011  0.999735  0.249992  1
  Al  Al29  1  0.999914  0.000105  0.750007  1
  Os  Os30  1  0.500186  0.500093  0.999880  1
  Ru  Ru31  1  0.500026  0.000056  0.999984  1
  Ru  Ru32  1  0.999918  0.500086  0.999899  1
  Ru  Ru33  1  0.500031  0.000055  0.500017  1
  Ru  Ru34  1  0.999914  0.500080  0.500100  1
  Ru  Ru35  1  0.500170  0.500079  0.500110  1
  Ru  Ru36  1  0.999990  0.999970  0.999972  1
  Ru  Ru37  1  0.999991  0.999974  0.500023  1
