# generated using pymatgen
data_Pr16Y4Sn9Bi7
_symmetry_space_group_name_H-M   'P 1'
_cell_length_a   8.41192315
_cell_length_b   8.46177139
_cell_length_c   16.21569102
_cell_angle_alpha   90.06286352
_cell_angle_beta   89.60286178
_cell_angle_gamma   89.88435782
_symmetry_Int_Tables_number   1
_chemical_formula_structural   Pr16Y4Sn9Bi7
_chemical_formula_sum   'Pr16 Y4 Sn9 Bi7'
_cell_volume   1154.19837686
_cell_formula_units_Z   1
loop_
 _symmetry_equiv_pos_site_id
 _symmetry_equiv_pos_as_xyz
  1  'x, y, z'
loop_
 _atom_site_type_symbol
 _atom_site_label
 _atom_site_symmetry_multiplicity
 _atom_site_fract_x
 _atom_site_fract_y
 _atom_site_fract_z
 _atom_site_occupancy
  Pr  Pr0  1  0.395123  0.838571  0.880385  1
  Pr  Pr1  1  0.898540  0.663302  0.618847  1
  Pr  Pr2  1  0.601131  0.162004  0.380573  1
  Pr  Pr3  1  0.101580  0.338780  0.118612  1
  Pr  Pr4  1  0.606121  0.165770  0.118987  1
  Pr  Pr5  1  0.101294  0.336699  0.380912  1
  Pr  Pr6  1  0.397633  0.838698  0.620097  1
  Pr  Pr7  1  0.892971  0.660281  0.882625  1
  Pr  Pr8  1  0.561644  0.331865  0.891869  1
  Pr  Pr9  1  0.063303  0.169947  0.612203  1
  Pr  Pr10  1  0.437111  0.669217  0.388379  1
  Pr  Pr11  1  0.941473  0.823260  0.109674  1
  Pr  Pr12  1  0.447370  0.668115  0.108396  1
  Pr  Pr13  1  0.937328  0.829469  0.387768  1
  Pr  Pr14  1  0.563700  0.331128  0.611621  1
  Pr  Pr15  1  0.054441  0.174232  0.891237  1
  Y  Y16  1  0.227581  0.498207  0.750605  1
  Y  Y17  1  0.728074  0.004128  0.750678  1
  Y  Y18  1  0.772799  0.501673  0.246356  1
  Y  Y19  1  0.272270  0.995800  0.248750  1
  Sn  Sn20  1  0.766693  0.481934  0.048402  1
  Sn  Sn21  1  0.596324  0.629157  0.749996  1
  Sn  Sn22  1  0.094430  0.872465  0.751277  1
  Sn  Sn23  1  0.402757  0.371598  0.250115  1
  Sn  Sn24  1  0.903843  0.127143  0.249868  1
  Sn  Sn25  1  0.364063  0.143327  0.751397  1
  Sn  Sn26  1  0.864348  0.360085  0.750315  1
  Sn  Sn27  1  0.636107  0.858707  0.249520  1
  Sn  Sn28  1  0.137809  0.639604  0.249378  1
  Bi  Bi29  1  0.264732  0.014729  0.048409  1
  Bi  Bi30  1  0.762129  0.487678  0.449964  1
  Bi  Bi31  1  0.737516  0.988549  0.549487  1
  Bi  Bi32  1  0.234490  0.516948  0.951561  1
  Bi  Bi33  1  0.733003  0.983505  0.951713  1
  Bi  Bi34  1  0.238391  0.512435  0.549508  1
  Bi  Bi35  1  0.261874  0.010989  0.450513  1
