# generated using pymatgen
data_Mg4As6Ir3Ru4
_symmetry_space_group_name_H-M   'P 1'
_cell_length_a   7.04258788
_cell_length_b   7.05684627
_cell_length_c   7.05611073
_cell_angle_alpha   109.51444479
_cell_angle_beta   109.40947178
_cell_angle_gamma   109.44438350
_symmetry_Int_Tables_number   1
_chemical_formula_structural   Mg4As6Ir3Ru4
_chemical_formula_sum   'Mg4 As6 Ir3 Ru4'
_cell_volume   270.10276859
_cell_formula_units_Z   1
loop_
 _symmetry_equiv_pos_site_id
 _symmetry_equiv_pos_as_xyz
  1  'x, y, z'
loop_
 _atom_site_type_symbol
 _atom_site_label
 _atom_site_symmetry_multiplicity
 _atom_site_fract_x
 _atom_site_fract_y
 _atom_site_fract_z
 _atom_site_occupancy
  Mg  Mg0  1  0.999510  0.999022  0.499503  1
  Mg  Mg1  1  0.500032  0.000057  0.000033  1
  Mg  Mg2  1  0.000427  0.500456  0.000948  1
  Mg  Mg3  1  0.500023  0.500439  0.499509  1
  As  As4  1  0.687121  0.687242  0.994541  1
  As  As5  1  0.307391  0.307264  0.994464  1
  As  As6  1  0.000219  0.687234  0.692784  1
  As  As7  1  0.999764  0.307239  0.312750  1
  As  As8  1  0.692645  0.005609  0.692784  1
  As  As9  1  0.312910  0.005500  0.312768  1
  Ir  Ir10  1  0.499921  0.750302  0.249672  1
  Ir  Ir11  1  0.749788  0.499462  0.249654  1
  Ir  Ir12  1  0.250273  0.750314  0.500539  1
  Ru  Ru13  1  0.999987  0.999989  0.999965  1
  Ru  Ru14  1  0.249010  0.498042  0.749108  1
  Ru  Ru15  1  0.751033  0.250868  0.501962  1
  Ru  Ru16  1  0.499945  0.250960  0.749017  1
