# generated using pymatgen
data_ScCrCo4As3
_symmetry_space_group_name_H-M   'P 1'
_cell_length_a   3.70194300
_cell_length_b   10.62924200
_cell_length_c   12.20384800
_cell_angle_alpha   90.00000000
_cell_angle_beta   90.00000000
_cell_angle_gamma   90.00000000
_symmetry_Int_Tables_number   1
_chemical_formula_structural   ScCrCo4As3
_chemical_formula_sum   'Sc4 Cr4 Co16 As12'
_cell_volume   480.20736018
_cell_formula_units_Z   4
loop_
 _symmetry_equiv_pos_site_id
 _symmetry_equiv_pos_as_xyz
  1  'x, y, z'
loop_
 _atom_site_type_symbol
 _atom_site_label
 _atom_site_symmetry_multiplicity
 _atom_site_fract_x
 _atom_site_fract_y
 _atom_site_fract_z
 _atom_site_occupancy
  Sc  Sc0  1  0.250000  0.579249  0.706928  1
  Sc  Sc1  1  0.250000  0.920751  0.206928  1
  Sc  Sc2  1  0.750000  0.420751  0.293072  1
  Sc  Sc3  1  0.750000  0.079249  0.793072  1
  Cr  Cr4  1  0.250000  0.707473  0.990876  1
  Cr  Cr5  1  0.250000  0.792527  0.490876  1
  Cr  Cr6  1  0.750000  0.292527  0.009124  1
  Cr  Cr7  1  0.750000  0.207473  0.509124  1
  Co  Co8  1  0.250000  0.406086  0.487347  1
  Co  Co9  1  0.250000  0.093914  0.987347  1
  Co  Co10  1  0.750000  0.593914  0.512653  1
  Co  Co11  1  0.750000  0.906086  0.012653  1
  Co  Co12  1  0.250000  0.216291  0.175587  1
  Co  Co13  1  0.250000  0.283710  0.675587  1
  Co  Co14  1  0.750000  0.783710  0.824413  1
  Co  Co15  1  0.750000  0.716290  0.324413  1
  Co  Co16  1  0.250000  0.884365  0.698736  1
  Co  Co17  1  0.250000  0.615635  0.198736  1
  Co  Co18  1  0.750000  0.115635  0.301264  1
  Co  Co19  1  0.750000  0.384365  0.801264  1
  Co  Co20  1  0.250000  0.463624  0.932136  1
  Co  Co21  1  0.250000  0.036376  0.432136  1
  Co  Co22  1  0.750000  0.536376  0.067864  1
  Co  Co23  1  0.750000  0.963624  0.567864  1
  As  As24  1  0.250000  0.417348  0.117238  1
  As  As25  1  0.250000  0.082652  0.617238  1
  As  As26  1  0.750000  0.582652  0.882762  1
  As  As27  1  0.750000  0.917348  0.382762  1
  As  As28  1  0.250000  0.262114  0.864823  1
  As  As29  1  0.250000  0.237886  0.364823  1
  As  As30  1  0.750000  0.737886  0.135177  1
  As  As31  1  0.750000  0.762114  0.635177  1
  As  As32  1  0.250000  0.591985  0.387726  1
  As  As33  1  0.250000  0.908015  0.887726  1
  As  As34  1  0.750000  0.408015  0.612274  1
  As  As35  1  0.750000  0.091985  0.112274  1
