# generated using pymatgen
data_GdPN3
_symmetry_space_group_name_H-M   'P 1'
_cell_length_a   7.18150974
_cell_length_b   7.18151028
_cell_length_c   5.00189667
_cell_angle_alpha   86.53109001
_cell_angle_beta   86.53108499
_cell_angle_gamma   101.46141059
_symmetry_Int_Tables_number   1
_chemical_formula_structural   GdPN3
_chemical_formula_sum   'Gd4 P4 N12'
_cell_volume   251.66624158
_cell_formula_units_Z   4
loop_
 _symmetry_equiv_pos_site_id
 _symmetry_equiv_pos_as_xyz
  1  'x, y, z'
loop_
 _atom_site_type_symbol
 _atom_site_label
 _atom_site_symmetry_multiplicity
 _atom_site_fract_x
 _atom_site_fract_y
 _atom_site_fract_z
 _atom_site_occupancy
  Gd  Gd0  1  0.290675  0.709325  0.750000  1
  Gd  Gd1  1  0.709325  0.290675  0.250000  1
  Gd  Gd2  1  0.092876  0.907124  0.250000  1
  Gd  Gd3  1  0.907124  0.092876  0.750000  1
  P  P4  1  0.378442  0.233023  0.825015  1
  P  P5  1  0.621558  0.766977  0.174985  1
  P  P6  1  0.766977  0.621558  0.674985  1
  P  P7  1  0.233023  0.378442  0.325015  1
  N  N8  1  0.970366  0.759431  0.697731  1
  N  N9  1  0.770872  0.391651  0.773409  1
  N  N10  1  0.759431  0.970366  0.197731  1
  N  N11  1  0.229128  0.608349  0.226591  1
  N  N12  1  0.029634  0.240569  0.302269  1
  N  N13  1  0.240569  0.029634  0.802269  1
  N  N14  1  0.608349  0.229128  0.726591  1
  N  N15  1  0.607533  0.705160  0.860976  1
  N  N16  1  0.392467  0.294840  0.139024  1
  N  N17  1  0.391651  0.770872  0.273409  1
  N  N18  1  0.705160  0.607533  0.360976  1
  N  N19  1  0.294840  0.392467  0.639024  1
