# generated using pymatgen
data_Tb4VPt3F28
_symmetry_space_group_name_H-M   'P 1'
_cell_length_a   5.55635074
_cell_length_b   8.93338837
_cell_length_c   11.98365598
_cell_angle_alpha   62.40964057
_cell_angle_beta   90.13170481
_cell_angle_gamma   90.05769262
_symmetry_Int_Tables_number   1
_chemical_formula_structural   Tb4VPt3F28
_chemical_formula_sum   'Tb4 V1 Pt3 F28'
_cell_volume   527.18827937
_cell_formula_units_Z   1
loop_
 _symmetry_equiv_pos_site_id
 _symmetry_equiv_pos_as_xyz
  1  'x, y, z'
loop_
 _atom_site_type_symbol
 _atom_site_label
 _atom_site_symmetry_multiplicity
 _atom_site_fract_x
 _atom_site_fract_y
 _atom_site_fract_z
 _atom_site_occupancy
  Tb  Tb0  1  0.258552  0.810810  0.263387  1
  Tb  Tb1  1  0.739613  0.186415  0.735001  1
  Tb  Tb2  1  0.760923  0.184122  0.236217  1
  Tb  Tb3  1  0.239528  0.811875  0.768330  1
  V  V4  1  0.755617  0.725193  0.044037  1
  Pt  Pt5  1  0.243223  0.271907  0.958267  1
  Pt  Pt6  1  0.258420  0.272593  0.456419  1
  Pt  Pt7  1  0.741070  0.726598  0.543961  1
  F  F8  1  0.933558  0.703222  0.415229  1
  F  F9  1  0.063696  0.297275  0.583674  1
  F  F10  1  0.439644  0.297729  0.085036  1
  F  F11  1  0.550072  0.713019  0.922352  1
  F  F12  1  0.486238  0.731540  0.138525  1
  F  F13  1  0.537332  0.266900  0.869267  1
  F  F14  1  0.965736  0.275367  0.362570  1
  F  F15  1  0.034349  0.725673  0.636585  1
  F  F16  1  0.957284  0.745416  0.165899  1
  F  F17  1  0.051478  0.251905  0.827468  1
  F  F18  1  0.449183  0.256904  0.323788  1
  F  F19  1  0.553775  0.744210  0.676906  1
  F  F20  1  0.768956  0.492942  0.134613  1
  F  F21  1  0.233921  0.519127  0.859349  1
  F  F22  1  0.270342  0.520083  0.357148  1
  F  F23  1  0.727133  0.478687  0.643009  1
  F  F24  1  0.943814  0.283759  0.042368  1
  F  F25  1  0.036078  0.720001  0.953187  1
  F  F26  1  0.441233  0.719362  0.458072  1
  F  F27  1  0.558786  0.280237  0.541422  1
  F  F28  1  0.744221  0.974580  0.450089  1
  F  F29  1  0.258040  0.024951  0.550244  1
  F  F30  1  0.242098  0.024111  0.050374  1
  F  F31  1  0.758942  0.957089  0.951353  1
  F  F32  1  0.584651  0.970312  0.231697  1
  F  F33  1  0.412354  0.033361  0.768009  1
  F  F34  1  0.085537  0.029830  0.267007  1
  F  F35  1  0.914604  0.972897  0.729141  1
