# generated using pymatgen
data_HoNb(NiSn)2
_symmetry_space_group_name_H-M   'P 1'
_cell_length_a   7.63110209
_cell_length_b   7.63110205
_cell_length_c   7.63110338
_cell_angle_alpha   33.07627584
_cell_angle_beta   33.07627596
_cell_angle_gamma   33.07628012
_symmetry_Int_Tables_number   1
_chemical_formula_structural   HoNb(NiSn)2
_chemical_formula_sum   'Ho1 Nb1 Ni2 Sn2'
_cell_volume   117.80373201
_cell_formula_units_Z   1
loop_
 _symmetry_equiv_pos_site_id
 _symmetry_equiv_pos_as_xyz
  1  'x, y, z'
loop_
 _atom_site_type_symbol
 _atom_site_label
 _atom_site_symmetry_multiplicity
 _atom_site_fract_x
 _atom_site_fract_y
 _atom_site_fract_z
 _atom_site_occupancy
  Ho  Ho0  1  0.999881  0.999881  0.999881  1
  Nb  Nb1  1  0.501838  0.501838  0.501838  1
  Ni  Ni2  1  0.129797  0.129797  0.129797  1
  Ni  Ni3  1  0.617589  0.617589  0.617589  1
  Sn  Sn4  1  0.754038  0.754038  0.754038  1
  Sn  Sn5  1  0.246857  0.246857  0.246857  1
