# generated using pymatgen
data_Ta6MnCo6
_symmetry_space_group_name_H-M   'P 1'
_cell_length_a   4.87306938
_cell_length_b   4.87306993
_cell_length_c   9.16632008
_cell_angle_alpha   74.58468456
_cell_angle_beta   74.58468542
_cell_angle_gamma   59.99999353
_symmetry_Int_Tables_number   1
_chemical_formula_structural   Ta6MnCo6
_chemical_formula_sum   'Ta6 Mn1 Co6'
_cell_volume   179.40923241
_cell_formula_units_Z   1
loop_
 _symmetry_equiv_pos_site_id
 _symmetry_equiv_pos_as_xyz
  1  'x, y, z'
loop_
 _atom_site_type_symbol
 _atom_site_label
 _atom_site_symmetry_multiplicity
 _atom_site_fract_x
 _atom_site_fract_y
 _atom_site_fract_z
 _atom_site_occupancy
  Ta  Ta0  1  0.165146  0.165146  0.504562  1
  Ta  Ta1  1  0.834854  0.834854  0.495438  1
  Ta  Ta2  1  0.344372  0.344372  0.966885  1
  Ta  Ta3  1  0.655628  0.655628  0.033115  1
  Ta  Ta4  1  0.449581  0.449581  0.651255  1
  Ta  Ta5  1  0.550419  0.550419  0.348745  1
  Mn  Mn6  1  0.000000  0.000000  0.000000  1
  Co  Co7  1  0.591238  0.090977  0.226808  1
  Co  Co8  1  0.090977  0.090977  0.226808  1
  Co  Co9  1  0.090977  0.591238  0.226808  1
  Co  Co10  1  0.408762  0.909023  0.773192  1
  Co  Co11  1  0.909023  0.909023  0.773192  1
  Co  Co12  1  0.909023  0.408762  0.773192  1
