# generated using pymatgen
data_Th4Mn(Si2Ir)5
_symmetry_space_group_name_H-M   'P 1'
_cell_length_a   8.23088129
_cell_length_b   8.23088085
_cell_length_c   8.23088118
_cell_angle_alpha   137.53670748
_cell_angle_beta   105.43102493
_cell_angle_gamma   89.78295869
_symmetry_Int_Tables_number   1
_chemical_formula_structural   Th4Mn(Si2Ir)5
_chemical_formula_sum   'Th4 Mn1 Si10 Ir5'
_cell_volume   346.64965438
_cell_formula_units_Z   1
loop_
 _symmetry_equiv_pos_site_id
 _symmetry_equiv_pos_as_xyz
  1  'x, y, z'
loop_
 _atom_site_type_symbol
 _atom_site_label
 _atom_site_symmetry_multiplicity
 _atom_site_fract_x
 _atom_site_fract_y
 _atom_site_fract_z
 _atom_site_occupancy
  Th  Th0  1  0.862500  0.630101  0.234841  1
  Th  Th1  1  0.137501  0.372340  0.767601  1
  Th  Th2  1  0.395260  0.127660  0.265159  1
  Th  Th3  1  0.604740  0.869899  0.732399  1
  Mn  Mn4  1  0.000000  0.750000  0.750000  1
  Si  Si5  1  0.500000  0.750000  0.250000  1
  Si  Si6  1  0.500000  0.250000  0.750000  1
  Si  Si7  1  0.224126  0.974126  0.750000  1
  Si  Si8  1  0.775874  0.525874  0.750000  1
  Si  Si9  1  0.772890  0.022890  0.250000  1
  Si  Si10  1  0.227110  0.477110  0.250000  1
  Si  Si11  1  0.042430  0.885713  0.137121  1
  Si  Si12  1  0.957570  0.094691  0.843283  1
  Si  Si13  1  0.748593  0.405309  0.362879  1
  Si  Si14  1  0.251407  0.614287  0.656717  1
  Ir  Ir15  1  0.000000  0.250000  0.250000  1
  Ir  Ir16  1  0.245915  0.861626  0.387158  1
  Ir  Ir17  1  0.754085  0.141245  0.615713  1
  Ir  Ir18  1  0.474468  0.358755  0.112842  1
  Ir  Ir19  1  0.525532  0.638374  0.884287  1
