# generated using pymatgen
data_HoS23
_symmetry_space_group_name_H-M   'P 1'
_cell_length_a   5.71318557
_cell_length_b   9.47225849
_cell_length_c   14.86865582
_cell_angle_alpha   86.11606965
_cell_angle_beta   80.21568029
_cell_angle_gamma   90.57713763
_symmetry_Int_Tables_number   1
_chemical_formula_structural   HoS23
_chemical_formula_sum   'Ho1 S23'
_cell_volume   790.92786147
_cell_formula_units_Z   1
loop_
 _symmetry_equiv_pos_site_id
 _symmetry_equiv_pos_as_xyz
  1  'x, y, z'
loop_
 _atom_site_type_symbol
 _atom_site_label
 _atom_site_symmetry_multiplicity
 _atom_site_fract_x
 _atom_site_fract_y
 _atom_site_fract_z
 _atom_site_occupancy
  Ho  Ho0  1  0.650931  0.211539  0.391805  1
  S  S1  1  0.530293  0.934353  0.382128  1
  S  S2  1  0.984256  0.308659  0.129304  1
  S  S3  1  0.820228  0.229579  0.542063  1
  S  S4  1  0.336991  0.851035  0.503583  1
  S  S5  1  0.158352  0.265027  0.002030  1
  S  S6  1  0.797777  0.737048  0.025630  1
  S  S7  1  0.187893  0.271060  0.367037  1
  S  S8  1  0.653871  0.483780  0.324494  1
  S  S9  1  0.818106  0.120221  0.194208  1
  S  S10  1  0.217832  0.877989  0.122874  1
  S  S11  1  0.713527  0.640655  0.604036  1
  S  S12  1  0.297902  0.396893  0.600734  1
  S  S13  1  0.181815  0.886822  0.851101  1
  S  S14  1  0.768038  0.132751  0.881587  1
  S  S15  1  0.016174  0.695291  0.120518  1
  S  S16  1  0.540093  0.832120  0.605325  1
  S  S17  1  0.463898  0.194516  0.580839  1
  S  S18  1  0.986849  0.703989  0.897386  1
  S  S19  1  0.950479  0.312986  0.903137  1
  S  S20  1  0.385906  0.406807  0.267836  1
  S  S21  1  0.082826  0.988681  0.232953  1
  S  S22  1  0.478531  0.496068  0.685314  1
  S  S23  1  0.977430  0.022130  0.784076  1
