# generated using pymatgen
data_DyHo3(ErGa5)2
_symmetry_space_group_name_H-M   'P 1'
_cell_length_a   6.07922502
_cell_length_b   9.61938804
_cell_length_c   11.48830900
_cell_angle_alpha   90.00000000
_cell_angle_beta   90.00000000
_cell_angle_gamma   89.99006308
_symmetry_Int_Tables_number   1
_chemical_formula_structural   DyHo3(ErGa5)2
_chemical_formula_sum   'Dy2 Ho6 Er4 Ga20'
_cell_volume   671.81819986
_cell_formula_units_Z   2
loop_
 _symmetry_equiv_pos_site_id
 _symmetry_equiv_pos_as_xyz
  1  'x, y, z'
loop_
 _atom_site_type_symbol
 _atom_site_label
 _atom_site_symmetry_multiplicity
 _atom_site_fract_x
 _atom_site_fract_y
 _atom_site_fract_z
 _atom_site_occupancy
  Dy  Dy0  1  0.890598  0.509740  0.351702  1
  Dy  Dy1  1  0.609402  0.990260  0.851702  1
  Ho  Ho2  1  0.109382  0.009729  0.648271  1
  Ho  Ho3  1  0.390618  0.490271  0.148271  1
  Ho  Ho4  1  0.109406  0.490262  0.648433  1
  Ho  Ho5  1  0.390594  0.009738  0.148433  1
  Ho  Ho6  1  0.890654  0.990282  0.351663  1
  Ho  Ho7  1  0.609346  0.509718  0.851663  1
  Er  Er8  1  0.848549  0.749963  0.074346  1
  Er  Er9  1  0.651451  0.750037  0.574346  1
  Er  Er10  1  0.151359  0.249974  0.925664  1
  Er  Er11  1  0.348641  0.250026  0.425664  1
  Ga  Ga12  1  0.874940  0.052920  0.090518  1
  Ga  Ga13  1  0.625060  0.447080  0.590518  1
  Ga  Ga14  1  0.125088  0.552889  0.909530  1
  Ga  Ga15  1  0.374912  0.947111  0.409530  1
  Ga  Ga16  1  0.124914  0.947057  0.909570  1
  Ga  Ga17  1  0.375086  0.552943  0.409570  1
  Ga  Ga18  1  0.874897  0.447068  0.090345  1
  Ga  Ga19  1  0.625103  0.052932  0.590345  1
  Ga  Ga20  1  0.173130  0.750098  0.251483  1
  Ga  Ga21  1  0.326870  0.749902  0.751483  1
  Ga  Ga22  1  0.827072  0.250103  0.748399  1
  Ga  Ga23  1  0.672928  0.249897  0.248399  1
  Ga  Ga24  1  0.372860  0.749941  0.005150  1
  Ga  Ga25  1  0.127140  0.750059  0.505150  1
  Ga  Ga26  1  0.627096  0.250150  0.995002  1
  Ga  Ga27  1  0.872904  0.249850  0.495002  1
  Ga  Ga28  1  0.603241  0.750165  0.299223  1
  Ga  Ga29  1  0.896759  0.749835  0.799223  1
  Ga  Ga30  1  0.396535  0.250034  0.700699  1
  Ga  Ga31  1  0.103465  0.249966  0.200699  1
