# generated using pymatgen
data_Ho8Ta9Ti2Si16Pd
_symmetry_space_group_name_H-M   'P 1'
_cell_length_a   7.04292252
_cell_length_b   7.03712121
_cell_length_c   12.89765147
_cell_angle_alpha   90.21585193
_cell_angle_beta   89.80510000
_cell_angle_gamma   89.62768945
_symmetry_Int_Tables_number   1
_chemical_formula_structural   Ho8Ta9Ti2Si16Pd
_chemical_formula_sum   'Ho8 Ta9 Ti2 Si16 Pd1'
_cell_volume   639.21032163
_cell_formula_units_Z   1
loop_
 _symmetry_equiv_pos_site_id
 _symmetry_equiv_pos_as_xyz
  1  'x, y, z'
loop_
 _atom_site_type_symbol
 _atom_site_label
 _atom_site_symmetry_multiplicity
 _atom_site_fract_x
 _atom_site_fract_y
 _atom_site_fract_z
 _atom_site_occupancy
  Ho  Ho0  1  0.342041  0.001123  0.467433  1
  Ho  Ho1  1  0.496380  0.842912  0.718408  1
  Ho  Ho2  1  0.502139  0.157714  0.216082  1
  Ho  Ho3  1  0.842941  0.496266  0.282053  1
  Ho  Ho4  1  0.158154  0.501734  0.784363  1
  Ho  Ho5  1  0.655038  0.003551  0.968137  1
  Ho  Ho6  1  0.001892  0.340398  0.532218  1
  Ho  Ho7  1  0.001831  0.658702  0.031674  1
  Ta  Ta8  1  0.173906  0.824675  0.249124  1
  Ta  Ta9  1  0.825840  0.174596  0.751478  1
  Ta  Ta10  1  0.670697  0.669808  0.499602  1
  Ta  Ta11  1  0.148620  0.007415  0.875425  1
  Ta  Ta12  1  0.498017  0.651451  0.121293  1
  Ta  Ta13  1  0.503018  0.348580  0.623330  1
  Ta  Ta14  1  0.652579  0.497168  0.878803  1
  Ta  Ta15  1  0.349384  0.504727  0.376482  1
  Ta  Ta16  1  0.849495  0.990479  0.374081  1
  Ti  Ti17  1  0.008863  0.149444  0.123837  1
  Ti  Ti18  1  0.989726  0.847750  0.625885  1
  Si  Si19  1  0.201194  0.133506  0.682485  1
  Si  Si20  1  0.370884  0.716823  0.929125  1
  Si  Si21  1  0.634762  0.291588  0.430571  1
  Si  Si22  1  0.718683  0.369250  0.071528  1
  Si  Si23  1  0.292136  0.636128  0.569879  1
  Si  Si24  1  0.798147  0.867286  0.181061  1
  Si  Si25  1  0.136204  0.200842  0.316341  1
  Si  Si26  1  0.864535  0.798288  0.818185  1
  Si  Si27  1  0.288560  0.946132  0.063766  1
  Si  Si28  1  0.545814  0.792088  0.312126  1
  Si  Si29  1  0.450774  0.209890  0.813356  1
  Si  Si30  1  0.793017  0.546534  0.686705  1
  Si  Si31  1  0.208389  0.451105  0.185550  1
  Si  Si32  1  0.706776  0.045344  0.564939  1
  Si  Si33  1  0.947136  0.290777  0.937758  1
  Si  Si34  1  0.046328  0.704578  0.436794  1
  Pd  Pd35  1  0.326102  0.331349  0.000123  1
