# generated using pymatgen
data_Gd4LuAl2Pb
_symmetry_space_group_name_H-M   'P 1'
_cell_length_a   8.95558937
_cell_length_b   8.95558875
_cell_length_c   8.95559100
_cell_angle_alpha   128.36610389
_cell_angle_beta   128.36610887
_cell_angle_gamma   76.03269372
_symmetry_Int_Tables_number   1
_chemical_formula_structural   Gd4LuAl2Pb
_chemical_formula_sum   'Gd8 Lu2 Al4 Pb2'
_cell_volume   429.28819691
_cell_formula_units_Z   2
loop_
 _symmetry_equiv_pos_site_id
 _symmetry_equiv_pos_as_xyz
  1  'x, y, z'
loop_
 _atom_site_type_symbol
 _atom_site_label
 _atom_site_symmetry_multiplicity
 _atom_site_fract_x
 _atom_site_fract_y
 _atom_site_fract_z
 _atom_site_occupancy
  Gd  Gd0  1  0.519102  0.019102  0.831041  1
  Gd  Gd1  1  0.188076  0.688076  0.169009  1
  Gd  Gd2  1  0.019025  0.188024  0.499968  1
  Gd  Gd3  1  0.688024  0.519025  0.499968  1
  Gd  Gd4  1  0.480898  0.980898  0.168959  1
  Gd  Gd5  1  0.811924  0.311924  0.830991  1
  Gd  Gd6  1  0.980975  0.811976  0.500032  1
  Gd  Gd7  1  0.311976  0.480975  0.500032  1
  Lu  Lu8  1  0.500000  0.500000  0.000000  1
  Lu  Lu9  1  0.000000  0.000000  0.000000  1
  Al  Al10  1  0.876072  0.376072  0.252199  1
  Al  Al11  1  0.123928  0.623928  0.747801  1
  Al  Al12  1  0.376112  0.123888  0.500000  1
  Al  Al13  1  0.623888  0.876112  0.500000  1
  Pb  Pb14  1  0.250037  0.249963  0.000000  1
  Pb  Pb15  1  0.749963  0.750037  0.000000  1
