# generated using pymatgen
data_RbCe2YF10
_symmetry_space_group_name_H-M   'P 1'
_cell_length_a   8.54375385
_cell_length_b   8.54375411
_cell_length_c   8.66826300
_cell_angle_alpha   59.51674763
_cell_angle_beta   59.51674662
_cell_angle_gamma   60.96650445
_symmetry_Int_Tables_number   1
_chemical_formula_structural   RbCe2YF10
_chemical_formula_sum   'Rb2 Ce4 Y2 F20'
_cell_volume   447.22626779
_cell_formula_units_Z   2
loop_
 _symmetry_equiv_pos_site_id
 _symmetry_equiv_pos_as_xyz
  1  'x, y, z'
loop_
 _atom_site_type_symbol
 _atom_site_label
 _atom_site_symmetry_multiplicity
 _atom_site_fract_x
 _atom_site_fract_y
 _atom_site_fract_z
 _atom_site_occupancy
  Rb  Rb0  1  0.250000  0.250000  0.250000  1
  Rb  Rb1  1  0.750000  0.750000  0.750000  1
  Ce  Ce2  1  0.758663  0.241337  0.241337  1
  Ce  Ce3  1  0.241337  0.758663  0.758663  1
  Ce  Ce4  1  0.241337  0.758663  0.241337  1
  Ce  Ce5  1  0.758663  0.241337  0.758663  1
  Y  Y6  1  0.238376  0.238376  0.761624  1
  Y  Y7  1  0.761624  0.761624  0.238376  1
  F  F8  1  0.824174  0.508104  0.491896  1
  F  F9  1  0.175826  0.491896  0.508104  1
  F  F10  1  0.508104  0.824174  0.175826  1
  F  F11  1  0.491896  0.175826  0.824174  1
  F  F12  1  0.508104  0.824174  0.491896  1
  F  F13  1  0.175826  0.491896  0.824174  1
  F  F14  1  0.491896  0.175826  0.508104  1
  F  F15  1  0.824174  0.508104  0.175826  1
  F  F16  1  0.500000  0.500000  0.838563  1
  F  F17  1  0.500000  0.500000  0.161437  1
  F  F18  1  0.161437  0.838563  0.500000  1
  F  F19  1  0.838563  0.161437  0.500000  1
  F  F20  1  0.115913  0.115913  0.101080  1
  F  F21  1  0.884087  0.884087  0.898920  1
  F  F22  1  0.115913  0.115913  0.667094  1
  F  F23  1  0.101080  0.667094  0.115913  1
  F  F24  1  0.884087  0.884087  0.332906  1
  F  F25  1  0.898920  0.332906  0.884087  1
  F  F26  1  0.667094  0.101080  0.115913  1
  F  F27  1  0.332906  0.898920  0.884087  1
