# generated using pymatgen
data_Tb9Ho(CoRu)2
_symmetry_space_group_name_H-M   'P 1'
_cell_length_a   6.33243035
_cell_length_b   7.10832327
_cell_length_c   8.55627642
_cell_angle_alpha   96.36043676
_cell_angle_beta   111.71845843
_cell_angle_gamma   90.00000630
_symmetry_Int_Tables_number   1
_chemical_formula_structural   Tb9Ho(CoRu)2
_chemical_formula_sum   'Tb9 Ho1 Co2 Ru2'
_cell_volume   355.25023624
_cell_formula_units_Z   1
loop_
 _symmetry_equiv_pos_site_id
 _symmetry_equiv_pos_as_xyz
  1  'x, y, z'
loop_
 _atom_site_type_symbol
 _atom_site_label
 _atom_site_symmetry_multiplicity
 _atom_site_fract_x
 _atom_site_fract_y
 _atom_site_fract_z
 _atom_site_occupancy
  Tb  Tb0  1  0.977274  0.911871  0.189513  1
  Tb  Tb1  1  0.787761  0.588129  0.810487  1
  Tb  Tb2  1  0.013286  0.083202  0.814642  1
  Tb  Tb3  1  0.198645  0.416798  0.185358  1
  Tb  Tb4  1  0.647973  0.811520  0.431924  1
  Tb  Tb5  1  0.216049  0.688480  0.568076  1
  Tb  Tb6  1  0.358823  0.181935  0.566591  1
  Tb  Tb7  1  0.792232  0.318065  0.433409  1
  Tb  Tb8  1  0.427930  0.750000  0.000000  1
  Ho  Ho9  1  0.576195  0.250000  0.000000  1
  Co  Co10  1  0.824670  0.575893  0.222021  1
  Co  Co11  1  0.602649  0.924107  0.777979  1
  Ru  Ru12  1  0.177808  0.427522  0.779101  1
  Ru  Ru13  1  0.398705  0.072478  0.220899  1
