# generated using pymatgen
data_CeSm2In3Rh2Au
_symmetry_space_group_name_H-M   'P 1'
_cell_length_a   7.83423548
_cell_length_b   7.79581918
_cell_length_c   3.88440200
_cell_angle_alpha   90.00000000
_cell_angle_beta   90.00000000
_cell_angle_gamma   119.64890479
_symmetry_Int_Tables_number   1
_chemical_formula_structural   CeSm2In3Rh2Au
_chemical_formula_sum   'Ce1 Sm2 In3 Rh2 Au1'
_cell_volume   206.17633234
_cell_formula_units_Z   1
loop_
 _symmetry_equiv_pos_site_id
 _symmetry_equiv_pos_as_xyz
  1  'x, y, z'
loop_
 _atom_site_type_symbol
 _atom_site_label
 _atom_site_symmetry_multiplicity
 _atom_site_fract_x
 _atom_site_fract_y
 _atom_site_fract_z
 _atom_site_occupancy
  Ce  Ce0  1  0.605365  0.024352  0.000000  1
  Sm  Sm1  1  0.988038  0.588048  0.000000  1
  Sm  Sm2  1  0.415247  0.398461  0.000000  1
  In  In3  1  0.745399  0.740976  0.500000  1
  In  In4  1  0.005345  0.258308  0.500000  1
  In  In5  1  0.249866  0.003181  0.500000  1
  Rh  Rh6  1  0.663024  0.316106  0.500000  1
  Rh  Rh7  1  0.990028  0.997731  0.000000  1
  Au  Au8  1  0.337688  0.672836  0.500000  1
