# generated using pymatgen
data_Nd2Er6AlPd24
_symmetry_space_group_name_H-M   'P 1'
_cell_length_a   8.36555724
_cell_length_b   8.36555724
_cell_length_c   8.36555724
_cell_angle_alpha   90.14942993
_cell_angle_beta   89.85057007
_cell_angle_gamma   89.85057007
_symmetry_Int_Tables_number   1
_chemical_formula_structural   Nd2Er6AlPd24
_chemical_formula_sum   'Nd2 Er6 Al1 Pd24'
_cell_volume   585.43702782
_cell_formula_units_Z   1
loop_
 _symmetry_equiv_pos_site_id
 _symmetry_equiv_pos_as_xyz
  1  'x, y, z'
loop_
 _atom_site_type_symbol
 _atom_site_label
 _atom_site_symmetry_multiplicity
 _atom_site_fract_x
 _atom_site_fract_y
 _atom_site_fract_z
 _atom_site_occupancy
  Nd  Nd0  1  0.252159  0.747841  0.747841  1
  Nd  Nd1  1  0.747841  0.252159  0.252159  1
  Er  Er2  1  0.251957  0.251712  0.251712  1
  Er  Er3  1  0.748043  0.748288  0.748288  1
  Er  Er4  1  0.748288  0.748043  0.251712  1
  Er  Er5  1  0.748288  0.251712  0.748043  1
  Er  Er6  1  0.251712  0.251957  0.748288  1
  Er  Er7  1  0.251712  0.748288  0.251957  1
  Al  Al8  1  0.000000  0.000000  0.000000  1
  Pd  Pd9  1  0.259800  0.497610  0.003602  1
  Pd  Pd10  1  0.740200  0.502390  0.996398  1
  Pd  Pd11  1  0.003602  0.259800  0.502390  1
  Pd  Pd12  1  0.497610  0.259800  0.996398  1
  Pd  Pd13  1  0.996398  0.740200  0.497610  1
  Pd  Pd14  1  0.502390  0.740200  0.003602  1
  Pd  Pd15  1  0.497610  0.996398  0.259800  1
  Pd  Pd16  1  0.259800  0.003602  0.497610  1
  Pd  Pd17  1  0.502390  0.003602  0.740200  1
  Pd  Pd18  1  0.740200  0.996398  0.502390  1
  Pd  Pd19  1  0.003602  0.502390  0.259800  1
  Pd  Pd20  1  0.996398  0.497610  0.740200  1
  Pd  Pd21  1  0.253061  0.496717  0.496717  1
  Pd  Pd22  1  0.746939  0.503283  0.503283  1
  Pd  Pd23  1  0.496717  0.253061  0.503283  1
  Pd  Pd24  1  0.503283  0.746939  0.496717  1
  Pd  Pd25  1  0.496717  0.503283  0.253061  1
  Pd  Pd26  1  0.503283  0.496717  0.746939  1
  Pd  Pd27  1  0.288796  0.003120  0.003120  1
  Pd  Pd28  1  0.711204  0.996880  0.996880  1
  Pd  Pd29  1  0.003120  0.288796  0.996880  1
  Pd  Pd30  1  0.996880  0.711204  0.003120  1
  Pd  Pd31  1  0.003120  0.996880  0.288796  1
  Pd  Pd32  1  0.996880  0.003120  0.711204  1
