# generated using pymatgen
data_YLu7In3Fe
_symmetry_space_group_name_H-M   'P 1'
_cell_length_a   10.13394300
_cell_length_b   10.13394368
_cell_length_c   6.96487200
_cell_angle_alpha   90.00000000
_cell_angle_beta   90.00000000
_cell_angle_gamma   120.00000757
_symmetry_Int_Tables_number   1
_chemical_formula_structural   YLu7In3Fe
_chemical_formula_sum   'Y2 Lu14 In6 Fe2'
_cell_volume   619.44204727
_cell_formula_units_Z   2
loop_
 _symmetry_equiv_pos_site_id
 _symmetry_equiv_pos_as_xyz
  1  'x, y, z'
loop_
 _atom_site_type_symbol
 _atom_site_label
 _atom_site_symmetry_multiplicity
 _atom_site_fract_x
 _atom_site_fract_y
 _atom_site_fract_z
 _atom_site_occupancy
  Y  Y0  1  0.000000  0.000000  0.495778  1
  Y  Y1  1  0.000000  0.000000  0.995778  1
  Lu  Lu2  1  0.464706  0.535294  0.481450  1
  Lu  Lu3  1  0.070588  0.535294  0.481450  1
  Lu  Lu4  1  0.464706  0.929412  0.481450  1
  Lu  Lu5  1  0.535294  0.464706  0.981450  1
  Lu  Lu6  1  0.929412  0.464706  0.981450  1
  Lu  Lu7  1  0.535294  0.070588  0.981450  1
  Lu  Lu8  1  0.819481  0.180519  0.277619  1
  Lu  Lu9  1  0.361037  0.180519  0.277619  1
  Lu  Lu10  1  0.819481  0.638963  0.277619  1
  Lu  Lu11  1  0.180519  0.819481  0.777619  1
  Lu  Lu12  1  0.638963  0.819481  0.777619  1
  Lu  Lu13  1  0.180519  0.361037  0.777619  1
  Lu  Lu14  1  0.333333  0.666667  0.089990  1
  Lu  Lu15  1  0.666667  0.333333  0.589990  1
  In  In16  1  0.163837  0.836163  0.234309  1
  In  In17  1  0.672325  0.836163  0.234309  1
  In  In18  1  0.163837  0.327675  0.234309  1
  In  In19  1  0.836163  0.163837  0.734309  1
  In  In20  1  0.327675  0.163837  0.734309  1
  In  In21  1  0.836163  0.672325  0.734309  1
  Fe  Fe22  1  0.333333  0.666667  0.706373  1
  Fe  Fe23  1  0.666667  0.333333  0.206373  1
