# generated using pymatgen
data_Cs5IO6
_symmetry_space_group_name_H-M   'P 1'
_cell_length_a   6.96163494
_cell_length_b   6.96163516
_cell_length_c   6.67866600
_cell_angle_alpha   99.60273643
_cell_angle_beta   99.60273674
_cell_angle_gamma   120.45528474
_symmetry_Int_Tables_number   1
_chemical_formula_structural   Cs5IO6
_chemical_formula_sum   'Cs5 I1 O6'
_cell_volume   262.80172386
_cell_formula_units_Z   1
loop_
 _symmetry_equiv_pos_site_id
 _symmetry_equiv_pos_as_xyz
  1  'x, y, z'
loop_
 _atom_site_type_symbol
 _atom_site_label
 _atom_site_symmetry_multiplicity
 _atom_site_fract_x
 _atom_site_fract_y
 _atom_site_fract_z
 _atom_site_occupancy
  Cs  Cs0  1  0.667713  0.332288  0.000000  1
  Cs  Cs1  1  0.332288  0.667713  0.000000  1
  Cs  Cs2  1  0.830639  0.169361  0.499999  1
  Cs  Cs3  1  0.500000  0.500000  0.499999  1
  Cs  Cs4  1  0.169361  0.830639  0.499999  1
  I  I5  1  0.000000  0.000000  0.000000  1
  O  O6  1  0.284463  0.059386  0.175995  1
  O  O7  1  0.059386  0.284463  0.175995  1
  O  O8  1  0.833600  0.833600  0.182663  1
  O  O9  1  0.166400  0.166400  0.817337  1
  O  O10  1  0.940614  0.715537  0.824005  1
  O  O11  1  0.715537  0.940614  0.824005  1
