# generated using pymatgen
data_SrTb2Ga8Ag3
_symmetry_space_group_name_H-M   'P 1'
_cell_length_a   4.39025376
_cell_length_b   8.50400853
_cell_length_c   8.50400909
_cell_angle_alpha   68.53757380
_cell_angle_beta   75.04095091
_cell_angle_gamma   75.04094394
_symmetry_Int_Tables_number   1
_chemical_formula_structural   SrTb2Ga8Ag3
_chemical_formula_sum   'Sr1 Tb2 Ga8 Ag3'
_cell_volume   280.69545855
_cell_formula_units_Z   1
loop_
 _symmetry_equiv_pos_site_id
 _symmetry_equiv_pos_as_xyz
  1  'x, y, z'
loop_
 _atom_site_type_symbol
 _atom_site_label
 _atom_site_symmetry_multiplicity
 _atom_site_fract_x
 _atom_site_fract_y
 _atom_site_fract_z
 _atom_site_occupancy
  Sr  Sr0  1  0.500000  0.500000  0.500000  1
  Tb  Tb1  1  0.200174  0.799826  0.799826  1
  Tb  Tb2  1  0.799826  0.200174  0.200174  1
  Ga  Ga3  1  0.353968  0.362387  0.929675  1
  Ga  Ga4  1  0.646032  0.637613  0.070325  1
  Ga  Ga5  1  0.353968  0.929675  0.362387  1
  Ga  Ga6  1  0.646032  0.070325  0.637613  1
  Ga  Ga7  1  0.162938  0.471220  0.202904  1
  Ga  Ga8  1  0.837062  0.528780  0.797096  1
  Ga  Ga9  1  0.162938  0.202904  0.471220  1
  Ga  Ga10  1  0.837062  0.797096  0.528780  1
  Ag  Ag11  1  0.500000  0.000000  0.000000  1
  Ag  Ag12  1  0.000000  0.809368  0.190632  1
  Ag  Ag13  1  0.000000  0.190632  0.809368  1
