# generated using pymatgen
data_Ca10GaTc3N14
_symmetry_space_group_name_H-M   'P 1'
_cell_length_a   6.13405416
_cell_length_b   8.72620554
_cell_length_c   8.85014700
_cell_angle_alpha   113.82744331
_cell_angle_beta   98.60881497
_cell_angle_gamma   89.68588029
_symmetry_Int_Tables_number   1
_chemical_formula_structural   Ca10GaTc3N14
_chemical_formula_sum   'Ca10 Ga1 Tc3 N14'
_cell_volume   427.66994129
_cell_formula_units_Z   1
loop_
 _symmetry_equiv_pos_site_id
 _symmetry_equiv_pos_as_xyz
  1  'x, y, z'
loop_
 _atom_site_type_symbol
 _atom_site_label
 _atom_site_symmetry_multiplicity
 _atom_site_fract_x
 _atom_site_fract_y
 _atom_site_fract_z
 _atom_site_occupancy
  Ca  Ca0  1  0.853190  0.579040  0.337917  1
  Ca  Ca1  1  0.262028  0.990533  0.560290  1
  Ca  Ca2  1  0.699997  0.409141  0.846890  1
  Ca  Ca3  1  0.292016  0.581096  0.139924  1
  Ca  Ca4  1  0.397664  0.785913  0.913433  1
  Ca  Ca5  1  0.607847  0.214564  0.102712  1
  Ca  Ca6  1  0.153382  0.395462  0.650483  1
  Ca  Ca7  1  0.883654  0.843696  0.759947  1
  Ca  Ca8  1  0.118884  0.153748  0.248476  1
  Ca  Ca9  1  0.730242  0.028933  0.437180  1
  Ga  Ga10  1  0.589214  0.351634  0.476709  1
  Tc  Tc11  1  0.417553  0.653208  0.526162  1
  Tc  Tc12  1  0.122671  0.216560  0.916565  1
  Tc  Tc13  1  0.875735  0.776353  0.081778  1
  N  N14  1  0.546181  0.565149  0.684022  1
  N  N15  1  0.449909  0.457168  0.324379  1
  N  N16  1  0.145041  0.717519  0.580180  1
  N  N17  1  0.867689  0.296652  0.409775  1
  N  N18  1  0.402937  0.183054  0.484724  1
  N  N19  1  0.595980  0.821278  0.527381  1
  N  N20  1  0.950519  0.142962  0.709456  1
  N  N21  1  0.047487  0.850434  0.287954  1
  N  N22  1  0.232877  0.046064  0.970872  1
  N  N23  1  0.762313  0.950635  0.033550  1
  N  N24  1  0.366033  0.330864  0.908746  1
  N  N25  1  0.962603  0.354381  0.074653  1
  N  N26  1  0.033820  0.644736  0.916307  1
  N  N27  1  0.632530  0.659223  0.089533  1
