# generated using pymatgen
data_Y5Bi2Ir
_symmetry_space_group_name_H-M   'P 1'
_cell_length_a   8.03538300
_cell_length_b   9.04244400
_cell_length_c   12.53852600
_cell_angle_alpha   90.00000000
_cell_angle_beta   90.00000000
_cell_angle_gamma   90.00000000
_symmetry_Int_Tables_number   1
_chemical_formula_structural   Y5Bi2Ir
_chemical_formula_sum   'Y20 Bi8 Ir4'
_cell_volume   911.04303988
_cell_formula_units_Z   4
loop_
 _symmetry_equiv_pos_site_id
 _symmetry_equiv_pos_as_xyz
  1  'x, y, z'
loop_
 _atom_site_type_symbol
 _atom_site_label
 _atom_site_symmetry_multiplicity
 _atom_site_fract_x
 _atom_site_fract_y
 _atom_site_fract_z
 _atom_site_occupancy
  Y  Y0  1  0.840943  0.750000  0.793019  1
  Y  Y1  1  0.159057  0.250000  0.206981  1
  Y  Y2  1  0.340943  0.250000  0.706981  1
  Y  Y3  1  0.659057  0.750000  0.293019  1
  Y  Y4  1  0.376433  0.750000  0.693230  1
  Y  Y5  1  0.623567  0.250000  0.306770  1
  Y  Y6  1  0.876433  0.250000  0.806770  1
  Y  Y7  1  0.123567  0.750000  0.193230  1
  Y  Y8  1  0.946089  0.750000  0.501281  1
  Y  Y9  1  0.053911  0.250000  0.498719  1
  Y  Y10  1  0.446089  0.250000  0.998719  1
  Y  Y11  1  0.553911  0.750000  0.001281  1
  Y  Y12  1  0.676385  0.041809  0.566221  1
  Y  Y13  1  0.323615  0.958191  0.433779  1
  Y  Y14  1  0.176385  0.958191  0.933779  1
  Y  Y15  1  0.323615  0.541809  0.433779  1
  Y  Y16  1  0.823615  0.041809  0.066221  1
  Y  Y17  1  0.676385  0.458191  0.566221  1
  Y  Y18  1  0.823615  0.458191  0.066221  1
  Y  Y19  1  0.176385  0.541809  0.933779  1
  Bi  Bi20  1  0.569215  0.491302  0.827488  1
  Bi  Bi21  1  0.430785  0.508698  0.172512  1
  Bi  Bi22  1  0.069215  0.508698  0.672512  1
  Bi  Bi23  1  0.430785  0.991302  0.172512  1
  Bi  Bi24  1  0.930785  0.491302  0.327488  1
  Bi  Bi25  1  0.569215  0.008698  0.827488  1
  Bi  Bi26  1  0.930785  0.008698  0.327488  1
  Bi  Bi27  1  0.069215  0.991302  0.672512  1
  Ir  Ir28  1  0.570341  0.750000  0.509048  1
  Ir  Ir29  1  0.429659  0.250000  0.490952  1
  Ir  Ir30  1  0.070341  0.250000  0.990952  1
  Ir  Ir31  1  0.929659  0.750000  0.009048  1
