# generated using pymatgen
data_Ba4TbTcO8
_symmetry_space_group_name_H-M   'P 1'
_cell_length_a   7.45348305
_cell_length_b   7.45348281
_cell_length_c   5.99474300
_cell_angle_alpha   90.00000000
_cell_angle_beta   90.00000000
_cell_angle_gamma   132.86487413
_symmetry_Int_Tables_number   1
_chemical_formula_structural   Ba4TbTcO8
_chemical_formula_sum   'Ba4 Tb1 Tc1 O8'
_cell_volume   244.10092008
_cell_formula_units_Z   1
loop_
 _symmetry_equiv_pos_site_id
 _symmetry_equiv_pos_as_xyz
  1  'x, y, z'
loop_
 _atom_site_type_symbol
 _atom_site_label
 _atom_site_symmetry_multiplicity
 _atom_site_fract_x
 _atom_site_fract_y
 _atom_site_fract_z
 _atom_site_occupancy
  Ba  Ba0  1  0.354100  0.645900  0.000000  1
  Ba  Ba1  1  0.852505  0.147495  0.500000  1
  Ba  Ba2  1  0.147495  0.852505  0.500000  1
  Ba  Ba3  1  0.645900  0.354100  0.000000  1
  Tb  Tb4  1  0.000000  0.000000  0.000000  1
  Tc  Tc5  1  0.500000  0.500000  0.500000  1
  O  O6  1  0.263853  0.263853  0.731011  1
  O  O7  1  0.736147  0.736147  0.268989  1
  O  O8  1  0.736147  0.736147  0.731011  1
  O  O9  1  0.263853  0.263853  0.268989  1
  O  O10  1  0.166252  0.833748  0.000000  1
  O  O11  1  0.650060  0.349940  0.500000  1
  O  O12  1  0.349940  0.650060  0.500000  1
  O  O13  1  0.833748  0.166252  0.000000  1
