# generated using pymatgen
data_Hf3AlGe2Ir3
_symmetry_space_group_name_H-M   'P 1'
_cell_length_a   6.57900900
_cell_length_b   6.57901018
_cell_length_c   4.00581900
_cell_angle_alpha   90.00000000
_cell_angle_beta   90.00000000
_cell_angle_gamma   119.99999909
_symmetry_Int_Tables_number   1
_chemical_formula_structural   Hf3AlGe2Ir3
_chemical_formula_sum   'Hf3 Al1 Ge2 Ir3'
_cell_volume   150.15610583
_cell_formula_units_Z   1
loop_
 _symmetry_equiv_pos_site_id
 _symmetry_equiv_pos_as_xyz
  1  'x, y, z'
loop_
 _atom_site_type_symbol
 _atom_site_label
 _atom_site_symmetry_multiplicity
 _atom_site_fract_x
 _atom_site_fract_y
 _atom_site_fract_z
 _atom_site_occupancy
  Hf  Hf0  1  0.434484  0.000000  0.500000  1
  Hf  Hf1  1  0.000000  0.434484  0.500000  1
  Hf  Hf2  1  0.565516  0.565516  0.500000  1
  Al  Al3  1  0.000000  0.000000  0.500000  1
  Ge  Ge4  1  0.333333  0.666667  0.000000  1
  Ge  Ge5  1  0.666667  0.333333  0.000000  1
  Ir  Ir6  1  0.754764  0.000000  0.000000  1
  Ir  Ir7  1  0.000000  0.754764  0.000000  1
  Ir  Ir8  1  0.245236  0.245236  0.000000  1
