# generated using pymatgen
data_Y8HoTm3Ga20
_symmetry_space_group_name_H-M   'P 1'
_cell_length_a   6.09153901
_cell_length_b   9.61609000
_cell_length_c   11.56843202
_cell_angle_alpha   90.00000000
_cell_angle_beta   90.00555480
_cell_angle_gamma   90.00000000
_symmetry_Int_Tables_number   1
_chemical_formula_structural   Y8HoTm3Ga20
_chemical_formula_sum   'Y8 Ho1 Tm3 Ga20'
_cell_volume   677.64157864
_cell_formula_units_Z   1
loop_
 _symmetry_equiv_pos_site_id
 _symmetry_equiv_pos_as_xyz
  1  'x, y, z'
loop_
 _atom_site_type_symbol
 _atom_site_label
 _atom_site_symmetry_multiplicity
 _atom_site_fract_x
 _atom_site_fract_y
 _atom_site_fract_z
 _atom_site_occupancy
  Y  Y0  1  0.891254  0.509265  0.351240  1
  Y  Y1  1  0.608725  0.990858  0.850864  1
  Y  Y2  1  0.108905  0.009655  0.648782  1
  Y  Y3  1  0.390757  0.490507  0.148823  1
  Y  Y4  1  0.108905  0.490345  0.648782  1
  Y  Y5  1  0.390757  0.009493  0.148823  1
  Y  Y6  1  0.891254  0.990735  0.351240  1
  Y  Y7  1  0.608725  0.509142  0.850864  1
  Ho  Ho8  1  0.848983  0.750000  0.075301  1
  Tm  Tm9  1  0.651202  0.750000  0.575041  1
  Tm  Tm10  1  0.151111  0.250000  0.924744  1
  Tm  Tm11  1  0.349018  0.250000  0.424744  1
  Ga  Ga12  1  0.876209  0.054509  0.089611  1
  Ga  Ga13  1  0.623576  0.446261  0.589418  1
  Ga  Ga14  1  0.123526  0.553352  0.910195  1
  Ga  Ga15  1  0.376454  0.946549  0.410715  1
  Ga  Ga16  1  0.123526  0.946648  0.910195  1
  Ga  Ga17  1  0.376454  0.553451  0.410715  1
  Ga  Ga18  1  0.876209  0.445491  0.089611  1
  Ga  Ga19  1  0.623576  0.053739  0.589418  1
  Ga  Ga20  1  0.172024  0.750000  0.252424  1
  Ga  Ga21  1  0.329634  0.750000  0.751611  1
  Ga  Ga22  1  0.829564  0.250000  0.748013  1
  Ga  Ga23  1  0.670513  0.250000  0.248091  1
  Ga  Ga24  1  0.373148  0.750000  0.003353  1
  Ga  Ga25  1  0.125734  0.750000  0.504086  1
  Ga  Ga26  1  0.624832  0.250000  0.996186  1
  Ga  Ga27  1  0.874513  0.250000  0.496230  1
  Ga  Ga28  1  0.601186  0.750000  0.300265  1
  Ga  Ga29  1  0.899185  0.750000  0.798767  1
  Ga  Ga30  1  0.399119  0.250000  0.700863  1
  Ga  Ga31  1  0.101419  0.250000  0.200988  1
