# generated using pymatgen
data_Pr4Nd16Si15Br
_symmetry_space_group_name_H-M   'P 1'
_cell_length_a   7.85986643
_cell_length_b   7.95315108
_cell_length_c   15.24223799
_cell_angle_alpha   89.62324680
_cell_angle_beta   85.06693880
_cell_angle_gamma   89.85494732
_symmetry_Int_Tables_number   1
_chemical_formula_structural   Pr4Nd16Si15Br
_chemical_formula_sum   'Pr4 Nd16 Si15 Br1'
_cell_volume   949.25134221
_cell_formula_units_Z   1
loop_
 _symmetry_equiv_pos_site_id
 _symmetry_equiv_pos_as_xyz
  1  'x, y, z'
loop_
 _atom_site_type_symbol
 _atom_site_label
 _atom_site_symmetry_multiplicity
 _atom_site_fract_x
 _atom_site_fract_y
 _atom_site_fract_z
 _atom_site_occupancy
  Pr  Pr0  1  0.163700  0.510343  0.744815  1
  Pr  Pr1  1  0.866093  0.329954  0.620016  1
  Pr  Pr2  1  0.463805  0.689929  0.895716  1
  Pr  Pr3  1  0.963710  0.811208  0.897015  1
  Nd  Nd4  1  0.180206  0.677158  0.121480  1
  Nd  Nd5  1  0.679966  0.817771  0.121144  1
  Nd  Nd6  1  0.321380  0.180796  0.880514  1
  Nd  Nd7  1  0.146091  0.667345  0.382758  1
  Nd  Nd8  1  0.036757  0.186368  0.104714  1
  Nd  Nd9  1  0.364010  0.167845  0.616162  1
  Nd  Nd10  1  0.836005  0.491798  0.243917  1
  Nd  Nd11  1  0.333335  0.004152  0.252331  1
  Nd  Nd12  1  0.483893  0.309786  0.394084  1
  Nd  Nd13  1  0.820847  0.321961  0.879369  1
  Nd  Nd14  1  0.013602  0.834045  0.606171  1
  Nd  Nd15  1  0.493523  0.691687  0.607161  1
  Nd  Nd16  1  0.997797  0.169515  0.395676  1
  Nd  Nd17  1  0.634746  0.842733  0.382166  1
  Nd  Nd18  1  0.665247  0.995942  0.746500  1
  Nd  Nd19  1  0.536425  0.308870  0.104443  1
  Si  Si20  1  0.455385  0.601321  0.252379  1
  Si  Si21  1  0.224007  0.374981  0.249593  1
  Si  Si22  1  0.546174  0.399126  0.751366  1
  Si  Si23  1  0.635913  0.026215  0.958030  1
  Si  Si24  1  0.046262  0.106451  0.752894  1
  Si  Si25  1  0.771394  0.623967  0.751140  1
  Si  Si26  1  0.724230  0.121229  0.249313  1
  Si  Si27  1  0.291512  0.970097  0.454351  1
  Si  Si28  1  0.953342  0.893687  0.250092  1
  Si  Si29  1  0.366405  0.974312  0.043647  1
  Si  Si30  1  0.715533  0.028902  0.542578  1
  Si  Si31  1  0.135861  0.472532  0.958548  1
  Si  Si32  1  0.213285  0.472058  0.542951  1
  Si  Si33  1  0.866040  0.521877  0.043570  1
  Si  Si34  1  0.274315  0.883034  0.752402  1
  Br  Br35  1  0.779203  0.521003  0.450994  1
