# generated using pymatgen
data_Zr13Sn3(Ir2N)4
_symmetry_space_group_name_H-M   'P 1'
_cell_length_a   8.76586185
_cell_length_b   8.78650523
_cell_length_c   8.76586100
_cell_angle_alpha   60.07768796
_cell_angle_beta   59.99999942
_cell_angle_gamma   60.07768381
_symmetry_Int_Tables_number   1
_chemical_formula_structural   Zr13Sn3(Ir2N)4
_chemical_formula_sum   'Zr13 Sn3 Ir8 N4'
_cell_volume   477.96856517
_cell_formula_units_Z   1
loop_
 _symmetry_equiv_pos_site_id
 _symmetry_equiv_pos_as_xyz
  1  'x, y, z'
loop_
 _atom_site_type_symbol
 _atom_site_label
 _atom_site_symmetry_multiplicity
 _atom_site_fract_x
 _atom_site_fract_y
 _atom_site_fract_z
 _atom_site_occupancy
  Zr  Zr0  1  0.625000  0.125000  0.625000  1
  Zr  Zr1  1  0.812466  0.815719  0.185907  1
  Zr  Zr2  1  0.184302  0.189225  0.813236  1
  Zr  Zr3  1  0.813236  0.189225  0.813236  1
  Zr  Zr4  1  0.185907  0.815719  0.185907  1
  Zr  Zr5  1  0.185907  0.815719  0.812466  1
  Zr  Zr6  1  0.813236  0.189225  0.184302  1
  Zr  Zr7  1  0.437534  0.434281  0.064093  1
  Zr  Zr8  1  0.065698  0.060775  0.436764  1
  Zr  Zr9  1  0.436764  0.060775  0.436764  1
  Zr  Zr10  1  0.064093  0.434281  0.064093  1
  Zr  Zr11  1  0.064093  0.434281  0.437534  1
  Zr  Zr12  1  0.436764  0.060775  0.065698  1
  Sn  Sn13  1  0.125000  0.625000  0.625000  1
  Sn  Sn14  1  0.625000  0.625000  0.125000  1
  Sn  Sn15  1  0.625000  0.625000  0.625000  1
  Ir  Ir16  1  0.772580  0.402137  0.412642  1
  Ir  Ir17  1  0.408713  0.773861  0.408713  1
  Ir  Ir18  1  0.412642  0.402137  0.772580  1
  Ir  Ir19  1  0.412642  0.402137  0.412642  1
  Ir  Ir20  1  0.477420  0.847863  0.837358  1
  Ir  Ir21  1  0.841287  0.476139  0.841287  1
  Ir  Ir22  1  0.837358  0.847863  0.477420  1
  Ir  Ir23  1  0.837358  0.847863  0.837358  1
  N  N24  1  0.625000  0.125000  0.125000  1
  N  N25  1  0.125000  0.625000  0.125000  1
  N  N26  1  0.125000  0.125000  0.625000  1
  N  N27  1  0.125000  0.125000  0.125000  1
