# generated using pymatgen
data_CaSm2Ga6(NiRh2)3
_symmetry_space_group_name_H-M   'P 1'
_cell_length_a   9.70201103
_cell_length_b   9.39273132
_cell_length_c   3.84631300
_cell_angle_alpha   90.00000000
_cell_angle_beta   90.00000000
_cell_angle_gamma   120.02042987
_symmetry_Int_Tables_number   1
_chemical_formula_structural   CaSm2Ga6(NiRh2)3
_chemical_formula_sum   'Ca1 Sm2 Ga6 Ni3 Rh6'
_cell_volume   303.48656846
_cell_formula_units_Z   1
loop_
 _symmetry_equiv_pos_site_id
 _symmetry_equiv_pos_as_xyz
  1  'x, y, z'
loop_
 _atom_site_type_symbol
 _atom_site_label
 _atom_site_symmetry_multiplicity
 _atom_site_fract_x
 _atom_site_fract_y
 _atom_site_fract_z
 _atom_site_occupancy
  Ca  Ca0  1  0.002450  0.997902  0.000000  1
  Sm  Sm1  1  0.327984  0.662846  0.500000  1
  Sm  Sm2  1  0.669873  0.336854  0.500000  1
  Ga  Ga3  1  0.321665  0.313085  0.500000  1
  Ga  Ga4  1  0.684620  0.000061  0.500000  1
  Ga  Ga5  1  0.675772  0.689411  0.500000  1
  Ga  Ga6  1  0.989829  0.304926  0.500000  1
  Ga  Ga7  1  0.999999  0.681049  0.500000  1
  Ga  Ga8  1  0.329238  0.011210  0.500000  1
  Ni  Ni9  1  0.644569  0.828346  0.000000  1
  Ni  Ni10  1  0.364207  0.182699  0.000000  1
  Ni  Ni11  1  0.819665  0.168933  0.000000  1
  Rh  Rh12  1  0.173533  0.347692  0.000000  1
  Rh  Rh13  1  0.816910  0.644956  0.000000  1
  Rh  Rh14  1  0.184762  0.825440  0.000000  1
  Rh  Rh15  1  0.510522  0.010739  0.000000  1
  Rh  Rh16  1  0.988601  0.488802  0.000000  1
  Rh  Rh17  1  0.495799  0.505048  0.000000  1
