# generated using pymatgen
data_Th3Ga2SbIr3
_symmetry_space_group_name_H-M   'P 1'
_cell_length_a   7.41133337
_cell_length_b   7.41133307
_cell_length_c   4.05648900
_cell_angle_alpha   90.00000000
_cell_angle_beta   90.00000000
_cell_angle_gamma   119.21846769
_symmetry_Int_Tables_number   1
_chemical_formula_structural   Th3Ga2SbIr3
_chemical_formula_sum   'Th3 Ga2 Sb1 Ir3'
_cell_volume   194.46443974
_cell_formula_units_Z   1
loop_
 _symmetry_equiv_pos_site_id
 _symmetry_equiv_pos_as_xyz
  1  'x, y, z'
loop_
 _atom_site_type_symbol
 _atom_site_label
 _atom_site_symmetry_multiplicity
 _atom_site_fract_x
 _atom_site_fract_y
 _atom_site_fract_z
 _atom_site_occupancy
  Th  Th0  1  0.401696  0.401696  0.500000  1
  Th  Th1  1  0.585948  0.008058  0.500000  1
  Th  Th2  1  0.008058  0.585948  0.500000  1
  Ga  Ga3  1  0.247079  0.003240  0.000000  1
  Ga  Ga4  1  0.003240  0.247079  0.000000  1
  Sb  Sb5  1  0.755891  0.755891  0.000000  1
  Ir  Ir6  1  0.661798  0.322334  0.000000  1
  Ir  Ir7  1  0.322334  0.661798  0.000000  1
  Ir  Ir8  1  0.013957  0.013957  0.500000  1
