# generated using pymatgen
data_Tb4Ho3ErPt4
_symmetry_space_group_name_H-M   'P 1'
_cell_length_a   4.76026300
_cell_length_b   7.15550421
_cell_length_c   8.82286019
_cell_angle_alpha   90.01594701
_cell_angle_beta   90.00000000
_cell_angle_gamma   90.00000000
_symmetry_Int_Tables_number   1
_chemical_formula_structural   Tb4Ho3ErPt4
_chemical_formula_sum   'Tb4 Ho3 Er1 Pt4'
_cell_volume   300.52497518
_cell_formula_units_Z   1
loop_
 _symmetry_equiv_pos_site_id
 _symmetry_equiv_pos_as_xyz
  1  'x, y, z'
loop_
 _atom_site_type_symbol
 _atom_site_label
 _atom_site_symmetry_multiplicity
 _atom_site_fract_x
 _atom_site_fract_y
 _atom_site_fract_z
 _atom_site_occupancy
  Tb  Tb0  1  0.750000  0.507639  0.831726  1
  Tb  Tb1  1  0.250000  0.493000  0.169009  1
  Tb  Tb2  1  0.750000  0.007015  0.667754  1
  Tb  Tb3  1  0.250000  0.991818  0.331422  1
  Ho  Ho4  1  0.250000  0.356318  0.580722  1
  Ho  Ho5  1  0.750000  0.143991  0.081184  1
  Ho  Ho6  1  0.250000  0.856331  0.918820  1
  Er  Er7  1  0.750000  0.643324  0.419305  1
  Pt  Pt8  1  0.750000  0.243300  0.408747  1
  Pt  Pt9  1  0.250000  0.756778  0.590169  1
  Pt  Pt10  1  0.750000  0.742678  0.092045  1
  Pt  Pt11  1  0.250000  0.257805  0.909098  1
