# generated using pymatgen
data_Gd2Zr(GaNi)3
_symmetry_space_group_name_H-M   'P 1'
_cell_length_a   7.06180600
_cell_length_b   7.05152707
_cell_length_c   3.64150800
_cell_angle_alpha   90.00000000
_cell_angle_beta   90.00000000
_cell_angle_gamma   120.04822229
_symmetry_Int_Tables_number   1
_chemical_formula_structural   Gd2Zr(GaNi)3
_chemical_formula_sum   'Gd2 Zr1 Ga3 Ni3'
_cell_volume   156.96384283
_cell_formula_units_Z   1
loop_
 _symmetry_equiv_pos_site_id
 _symmetry_equiv_pos_as_xyz
  1  'x, y, z'
loop_
 _atom_site_type_symbol
 _atom_site_label
 _atom_site_symmetry_multiplicity
 _atom_site_fract_x
 _atom_site_fract_y
 _atom_site_fract_z
 _atom_site_occupancy
  Gd  Gd0  1  0.999534  0.587589  0.500000  1
  Gd  Gd1  1  0.411945  0.412411  0.500000  1
  Zr  Zr2  1  0.588992  0.000000  0.500000  1
  Ga  Ga3  1  0.255387  0.000000  0.000000  1
  Ga  Ga4  1  0.749622  0.758507  0.000000  1
  Ga  Ga5  1  0.991114  0.241493  0.000000  1
  Ni  Ni6  1  0.662147  0.313850  0.000000  1
  Ni  Ni7  1  0.348296  0.686150  0.000000  1
  Ni  Ni8  1  0.992964  0.000000  0.500000  1
