# generated using pymatgen
data_NaLiZnSe2
_symmetry_space_group_name_H-M   'P 1'
_cell_length_a   4.16905100
_cell_length_b   4.16905118
_cell_length_c   7.13480200
_cell_angle_alpha   90.00000000
_cell_angle_beta   90.00000000
_cell_angle_gamma   120.00000647
_symmetry_Int_Tables_number   1
_chemical_formula_structural   NaLiZnSe2
_chemical_formula_sum   'Na1 Li1 Zn1 Se2'
_cell_volume   107.39571748
_cell_formula_units_Z   1
loop_
 _symmetry_equiv_pos_site_id
 _symmetry_equiv_pos_as_xyz
  1  'x, y, z'
loop_
 _atom_site_type_symbol
 _atom_site_label
 _atom_site_symmetry_multiplicity
 _atom_site_fract_x
 _atom_site_fract_y
 _atom_site_fract_z
 _atom_site_occupancy
  Na  Na0  1  0.666667  0.333333  0.026420  1
  Li  Li1  1  0.000000  0.000000  0.357584  1
  Zn  Zn2  1  0.333333  0.666667  0.611046  1
  Se  Se3  1  0.000000  0.000000  0.737183  1
  Se  Se4  1  0.333333  0.666667  0.267767  1
