# generated using pymatgen
data_V3(NiAs)4
_symmetry_space_group_name_H-M   'P 1'
_cell_length_a   5.98034863
_cell_length_b   3.68273000
_cell_length_c   7.03683619
_cell_angle_alpha   90.00000000
_cell_angle_beta   90.97374889
_cell_angle_gamma   90.00000000
_symmetry_Int_Tables_number   1
_chemical_formula_structural   V3(NiAs)4
_chemical_formula_sum   'V3 Ni4 As4'
_cell_volume   154.95696462
_cell_formula_units_Z   1
loop_
 _symmetry_equiv_pos_site_id
 _symmetry_equiv_pos_as_xyz
  1  'x, y, z'
loop_
 _atom_site_type_symbol
 _atom_site_label
 _atom_site_symmetry_multiplicity
 _atom_site_fract_x
 _atom_site_fract_y
 _atom_site_fract_z
 _atom_site_occupancy
  V  V0  1  0.970546  0.749999  0.188571  1
  V  V1  1  0.461676  0.749999  0.319696  1
  V  V2  1  0.534628  0.250000  0.682991  1
  Ni  Ni3  1  0.637133  0.250000  0.059994  1
  Ni  Ni4  1  0.150737  0.250000  0.439768  1
  Ni  Ni5  1  0.856863  0.749999  0.563418  1
  Ni  Ni6  1  0.375065  0.749999  0.943835  1
  As  As7  1  0.240095  0.250000  0.110099  1
  As  As8  1  0.753126  0.250000  0.378007  1
  As  As9  1  0.244394  0.749999  0.630060  1
  As  As10  1  0.773711  0.749999  0.880821  1
