# generated using pymatgen
data_Tm3(SiIr)2
_symmetry_space_group_name_H-M   'P 1'
_cell_length_a   5.49939026
_cell_length_b   5.49939059
_cell_length_c   13.14361600
_cell_angle_alpha   90.00000000
_cell_angle_beta   90.00000000
_cell_angle_gamma   136.69611216
_symmetry_Int_Tables_number   1
_chemical_formula_structural   Tm3(SiIr)2
_chemical_formula_sum   'Tm6 Si4 Ir4'
_cell_volume   272.63671544
_cell_formula_units_Z   2
loop_
 _symmetry_equiv_pos_site_id
 _symmetry_equiv_pos_as_xyz
  1  'x, y, z'
loop_
 _atom_site_type_symbol
 _atom_site_label
 _atom_site_symmetry_multiplicity
 _atom_site_fract_x
 _atom_site_fract_y
 _atom_site_fract_z
 _atom_site_occupancy
  Tm  Tm0  1  0.774581  0.225419  0.604425  1
  Tm  Tm1  1  0.517687  0.482313  0.250000  1
  Tm  Tm2  1  0.225419  0.774581  0.395575  1
  Tm  Tm3  1  0.774581  0.225419  0.895575  1
  Tm  Tm4  1  0.482313  0.517687  0.750000  1
  Tm  Tm5  1  0.225419  0.774581  0.104425  1
  Si  Si6  1  0.062552  0.937448  0.590758  1
  Si  Si7  1  0.062552  0.937448  0.909242  1
  Si  Si8  1  0.937448  0.062552  0.409242  1
  Si  Si9  1  0.937448  0.062552  0.090758  1
  Ir  Ir10  1  0.809573  0.190427  0.250000  1
  Ir  Ir11  1  0.190427  0.809573  0.750000  1
  Ir  Ir12  1  0.500000  0.500000  0.000000  1
  Ir  Ir13  1  0.500000  0.500000  0.500000  1
