# generated using pymatgen
data_LaSmDy4(RuO7)2
_symmetry_space_group_name_H-M   'P 1'
_cell_length_a   6.45717402
_cell_length_b   6.45717302
_cell_length_c   7.50523246
_cell_angle_alpha   89.93681201
_cell_angle_beta   89.93680956
_cell_angle_gamma   110.09530693
_symmetry_Int_Tables_number   1
_chemical_formula_structural   LaSmDy4(RuO7)2
_chemical_formula_sum   'La1 Sm1 Dy4 Ru2 O14'
_cell_volume   293.88028755
_cell_formula_units_Z   1
loop_
 _symmetry_equiv_pos_site_id
 _symmetry_equiv_pos_as_xyz
  1  'x, y, z'
loop_
 _atom_site_type_symbol
 _atom_site_label
 _atom_site_symmetry_multiplicity
 _atom_site_fract_x
 _atom_site_fract_y
 _atom_site_fract_z
 _atom_site_occupancy
  La  La0  1  0.000000  0.000000  0.000000  1
  Sm  Sm1  1  0.000000  0.000000  0.500000  1
  Dy  Dy2  1  0.480536  0.928132  0.748479  1
  Dy  Dy3  1  0.519464  0.071868  0.251521  1
  Dy  Dy4  1  0.928132  0.480536  0.748479  1
  Dy  Dy5  1  0.071868  0.519464  0.251521  1
  Ru  Ru6  1  0.500000  0.500000  0.500000  1
  Ru  Ru7  1  0.500000  0.500000  0.000000  1
  O  O8  1  0.589971  0.589971  0.750209  1
  O  O9  1  0.410029  0.410029  0.249791  1
  O  O10  1  0.838162  0.114979  0.744293  1
  O  O11  1  0.161838  0.885021  0.255707  1
  O  O12  1  0.114979  0.838162  0.744293  1
  O  O13  1  0.885021  0.161838  0.255707  1
  O  O14  1  0.444061  0.182899  0.961877  1
  O  O15  1  0.560335  0.817690  0.462260  1
  O  O16  1  0.182899  0.444061  0.961877  1
  O  O17  1  0.817690  0.560335  0.462260  1
  O  O18  1  0.439665  0.182310  0.537740  1
  O  O19  1  0.555939  0.817101  0.038123  1
  O  O20  1  0.817101  0.555939  0.038123  1
  O  O21  1  0.182310  0.439665  0.537740  1
