# generated using pymatgen
data_Tb2Th(SnRu)3
_symmetry_space_group_name_H-M   'P 1'
_cell_length_a   7.66268600
_cell_length_b   7.33167087
_cell_length_c   4.09167400
_cell_angle_alpha   90.00000000
_cell_angle_beta   90.00000000
_cell_angle_gamma   121.50510066
_symmetry_Int_Tables_number   1
_chemical_formula_structural   Tb2Th(SnRu)3
_chemical_formula_sum   'Tb2 Th1 Sn3 Ru3'
_cell_volume   195.98692833
_cell_formula_units_Z   1
loop_
 _symmetry_equiv_pos_site_id
 _symmetry_equiv_pos_as_xyz
  1  'x, y, z'
loop_
 _atom_site_type_symbol
 _atom_site_label
 _atom_site_symmetry_multiplicity
 _atom_site_fract_x
 _atom_site_fract_y
 _atom_site_fract_z
 _atom_site_occupancy
  Tb  Tb0  1  0.998848  0.592283  0.500000  1
  Tb  Tb1  1  0.406564  0.407717  0.500000  1
  Th  Th2  1  0.583402  0.000000  0.500000  1
  Sn  Sn3  1  0.744252  0.725930  0.000000  1
  Sn  Sn4  1  0.018322  0.274070  0.000000  1
  Sn  Sn5  1  0.236078  0.000000  0.000000  1
  Ru  Ru6  1  0.361917  0.702159  0.000000  1
  Ru  Ru7  1  0.990858  0.000000  0.500000  1
  Ru  Ru8  1  0.659758  0.297841  0.000000  1
