# generated using pymatgen
data_Th8Ti11Si16Mo
_symmetry_space_group_name_H-M   'P 1'
_cell_length_a   7.17908303
_cell_length_b   7.17908233
_cell_length_c   13.25693291
_cell_angle_alpha   89.91077139
_cell_angle_beta   90.08923020
_cell_angle_gamma   89.94667413
_symmetry_Int_Tables_number   1
_chemical_formula_structural   Th8Ti11Si16Mo
_chemical_formula_sum   'Th8 Ti11 Si16 Mo1'
_cell_volume   683.25013466
_cell_formula_units_Z   1
loop_
 _symmetry_equiv_pos_site_id
 _symmetry_equiv_pos_as_xyz
  1  'x, y, z'
loop_
 _atom_site_type_symbol
 _atom_site_label
 _atom_site_symmetry_multiplicity
 _atom_site_fract_x
 _atom_site_fract_y
 _atom_site_fract_z
 _atom_site_occupancy
  Th  Th0  1  0.996420  0.662224  0.031275  1
  Th  Th1  1  0.001314  0.338949  0.531485  1
  Th  Th2  1  0.662224  0.996420  0.968725  1
  Th  Th3  1  0.162336  0.503471  0.781249  1
  Th  Th4  1  0.837522  0.498828  0.281884  1
  Th  Th5  1  0.503471  0.162336  0.218751  1
  Th  Th6  1  0.498828  0.837522  0.718116  1
  Th  Th7  1  0.338949  0.001314  0.468515  1
  Ti  Ti8  1  0.340824  0.506658  0.375489  1
  Ti  Ti9  1  0.841049  0.991804  0.377634  1
  Ti  Ti10  1  0.006806  0.159656  0.124478  1
  Ti  Ti11  1  0.991804  0.841049  0.622366  1
  Ti  Ti12  1  0.506658  0.340824  0.624511  1
  Ti  Ti13  1  0.159656  0.006806  0.875522  1
  Ti  Ti14  1  0.826701  0.171824  0.749105  1
  Ti  Ti15  1  0.171824  0.826701  0.250895  1
  Ti  Ti16  1  0.327470  0.327470  0.000000  1
  Ti  Ti17  1  0.493447  0.659574  0.126720  1
  Ti  Ti18  1  0.659574  0.493447  0.873280  1
  Si  Si19  1  0.041803  0.713842  0.434545  1
  Si  Si20  1  0.957903  0.286220  0.934182  1
  Si  Si21  1  0.713842  0.041803  0.565455  1
  Si  Si22  1  0.212616  0.458104  0.184139  1
  Si  Si23  1  0.786774  0.542982  0.684159  1
  Si  Si24  1  0.458104  0.212616  0.815861  1
  Si  Si25  1  0.542982  0.786774  0.315841  1
  Si  Si26  1  0.286220  0.957903  0.065818  1
  Si  Si27  1  0.803808  0.876523  0.187597  1
  Si  Si28  1  0.305572  0.622556  0.563789  1
  Si  Si29  1  0.697279  0.375986  0.062949  1
  Si  Si30  1  0.622556  0.305572  0.436211  1
  Si  Si31  1  0.375986  0.697279  0.937051  1
  Si  Si32  1  0.123719  0.195704  0.312617  1
  Si  Si33  1  0.195704  0.123719  0.687383  1
  Si  Si34  1  0.876523  0.803808  0.812403  1
  Mo  Mo35  1  0.671730  0.671730  0.500000  1
