# generated using pymatgen
data_LiYbPr(As3Pd10)2
_symmetry_space_group_name_H-M   'P 1'
_cell_length_a   8.88397695
_cell_length_b   8.88397627
_cell_length_c   8.88397700
_cell_angle_alpha   60.00000102
_cell_angle_beta   60.00000354
_cell_angle_gamma   59.99999554
_symmetry_Int_Tables_number   1
_chemical_formula_structural   LiYbPr(As3Pd10)2
_chemical_formula_sum   'Li1 Yb1 Pr1 As6 Pd20'
_cell_volume   495.80082052
_cell_formula_units_Z   1
loop_
 _symmetry_equiv_pos_site_id
 _symmetry_equiv_pos_as_xyz
  1  'x, y, z'
loop_
 _atom_site_type_symbol
 _atom_site_label
 _atom_site_symmetry_multiplicity
 _atom_site_fract_x
 _atom_site_fract_y
 _atom_site_fract_z
 _atom_site_occupancy
  Li  Li0  1  0.000000  0.000000  0.000000  1
  Yb  Yb1  1  0.250000  0.250000  0.250000  1
  Pr  Pr2  1  0.750000  0.750000  0.750000  1
  As  As3  1  0.738071  0.261929  0.261929  1
  As  As4  1  0.261929  0.738070  0.738071  1
  As  As5  1  0.261932  0.738071  0.261929  1
  As  As6  1  0.738069  0.261929  0.738071  1
  As  As7  1  0.261932  0.261929  0.738071  1
  As  As8  1  0.738069  0.738071  0.261928  1
  Pd  Pd9  1  0.382562  0.382559  0.382558  1
  Pd  Pd10  1  0.615154  0.615156  0.615156  1
  Pd  Pd11  1  0.382559  0.382559  0.852322  1
  Pd  Pd12  1  0.382560  0.852320  0.382559  1
  Pd  Pd13  1  0.615155  0.615156  0.154535  1
  Pd  Pd14  1  0.615155  0.154535  0.615155  1
  Pd  Pd15  1  0.852318  0.382560  0.382559  1
  Pd  Pd16  1  0.154537  0.615155  0.615156  1
  Pd  Pd17  1  0.348795  0.000361  0.000360  1
  Pd  Pd18  1  0.650482  0.000361  0.000362  1
  Pd  Pd19  1  0.000361  0.348793  0.650486  1
  Pd  Pd20  1  0.000360  0.650486  0.348793  1
  Pd  Pd21  1  0.000361  0.348797  0.000355  1
  Pd  Pd22  1  0.650487  0.000356  0.348796  1
  Pd  Pd23  1  0.000359  0.650482  0.000364  1
  Pd  Pd24  1  0.348792  0.000364  0.650484  1
  Pd  Pd25  1  0.000360  0.000355  0.348798  1
  Pd  Pd26  1  0.000360  0.000364  0.650482  1
  Pd  Pd27  1  0.650486  0.348795  0.000357  1
  Pd  Pd28  1  0.348793  0.650484  0.000364  1
