# generated using pymatgen
data_Dy4Hf3ScRh4
_symmetry_space_group_name_H-M   'P 1'
_cell_length_a   4.56809000
_cell_length_b   6.98863547
_cell_length_c   8.33874210
_cell_angle_alpha   90.11906001
_cell_angle_beta   90.00000000
_cell_angle_gamma   90.00000000
_symmetry_Int_Tables_number   1
_chemical_formula_structural   Dy4Hf3ScRh4
_chemical_formula_sum   'Dy4 Hf3 Sc1 Rh4'
_cell_volume   266.21139683
_cell_formula_units_Z   1
loop_
 _symmetry_equiv_pos_site_id
 _symmetry_equiv_pos_as_xyz
  1  'x, y, z'
loop_
 _atom_site_type_symbol
 _atom_site_label
 _atom_site_symmetry_multiplicity
 _atom_site_fract_x
 _atom_site_fract_y
 _atom_site_fract_z
 _atom_site_occupancy
  Dy  Dy0  1  0.250000  0.985998  0.323583  1
  Dy  Dy1  1  0.250000  0.483407  0.175070  1
  Dy  Dy2  1  0.750000  0.018421  0.680011  1
  Dy  Dy3  1  0.750000  0.513156  0.821652  1
  Hf  Hf4  1  0.250000  0.364678  0.573650  1
  Hf  Hf5  1  0.250000  0.857538  0.927518  1
  Hf  Hf6  1  0.750000  0.643894  0.424402  1
  Sc  Sc7  1  0.750000  0.137256  0.076089  1
  Rh  Rh8  1  0.250000  0.231586  0.902380  1
  Rh  Rh9  1  0.250000  0.736113  0.588447  1
  Rh  Rh10  1  0.750000  0.757240  0.088559  1
  Rh  Rh11  1  0.750000  0.270714  0.418638  1
