# generated using pymatgen
data_NaGe(AsRh2)3
_symmetry_space_group_name_H-M   'P 1'
_cell_length_a   7.31286700
_cell_length_b   7.31286710
_cell_length_c   3.73625600
_cell_angle_alpha   90.00000000
_cell_angle_beta   90.00000000
_cell_angle_gamma   119.99999503
_symmetry_Int_Tables_number   1
_chemical_formula_structural   NaGe(AsRh2)3
_chemical_formula_sum   'Na1 Ge1 As3 Rh6'
_cell_volume   173.03845736
_cell_formula_units_Z   1
loop_
 _symmetry_equiv_pos_site_id
 _symmetry_equiv_pos_as_xyz
  1  'x, y, z'
loop_
 _atom_site_type_symbol
 _atom_site_label
 _atom_site_symmetry_multiplicity
 _atom_site_fract_x
 _atom_site_fract_y
 _atom_site_fract_z
 _atom_site_occupancy
  Na  Na0  1  0.000000  0.000000  0.000000  1
  Ge  Ge1  1  0.333333  0.666667  0.000000  1
  As  As2  1  0.812387  0.624773  0.500000  1
  As  As3  1  0.375227  0.187613  0.500000  1
  As  As4  1  0.812387  0.187613  0.500000  1
  Rh  Rh5  1  0.536908  0.073815  0.000000  1
  Rh  Rh6  1  0.603239  0.801620  0.500000  1
  Rh  Rh7  1  0.198380  0.396761  0.500000  1
  Rh  Rh8  1  0.536908  0.463092  0.000000  1
  Rh  Rh9  1  0.198380  0.801620  0.500000  1
  Rh  Rh10  1  0.926185  0.463092  0.000000  1
