# generated using pymatgen
data_ErTm3(Zn2In)2
_symmetry_space_group_name_H-M   'P 1'
_cell_length_a   7.34559728
_cell_length_b   7.34559728
_cell_length_c   4.12779300
_cell_angle_alpha   90.00000000
_cell_angle_beta   90.00000000
_cell_angle_gamma   90.26254878
_symmetry_Int_Tables_number   1
_chemical_formula_structural   ErTm3(Zn2In)2
_chemical_formula_sum   'Er1 Tm3 Zn4 In2'
_cell_volume   222.72428829
_cell_formula_units_Z   1
loop_
 _symmetry_equiv_pos_site_id
 _symmetry_equiv_pos_as_xyz
  1  'x, y, z'
loop_
 _atom_site_type_symbol
 _atom_site_label
 _atom_site_symmetry_multiplicity
 _atom_site_fract_x
 _atom_site_fract_y
 _atom_site_fract_z
 _atom_site_occupancy
  Er  Er0  1  0.329374  0.170626  0.500000  1
  Tm  Tm1  1  0.829479  0.329645  0.500000  1
  Tm  Tm2  1  0.170355  0.670522  0.500000  1
  Tm  Tm3  1  0.670821  0.829180  0.500000  1
  Zn  Zn4  1  0.624669  0.123699  0.000000  1
  Zn  Zn5  1  0.123098  0.376903  0.000000  1
  Zn  Zn6  1  0.876040  0.623961  0.000000  1
  Zn  Zn7  1  0.376302  0.875332  0.000000  1
  In  In8  1  0.999699  0.999836  0.000000  1
  In  In9  1  0.500164  0.500301  0.000000  1
