# generated using pymatgen
data_Ta3Ga2BPt
_symmetry_space_group_name_H-M   'P 1'
_cell_length_a   8.41987109
_cell_length_b   8.41987123
_cell_length_c   8.41987000
_cell_angle_alpha   59.99999698
_cell_angle_beta   59.99999643
_cell_angle_gamma   60.00000044
_symmetry_Int_Tables_number   1
_chemical_formula_structural   Ta3Ga2BPt
_chemical_formula_sum   'Ta12 Ga8 B4 Pt4'
_cell_volume   422.08630414
_cell_formula_units_Z   4
loop_
 _symmetry_equiv_pos_site_id
 _symmetry_equiv_pos_as_xyz
  1  'x, y, z'
loop_
 _atom_site_type_symbol
 _atom_site_label
 _atom_site_symmetry_multiplicity
 _atom_site_fract_x
 _atom_site_fract_y
 _atom_site_fract_z
 _atom_site_occupancy
  Ta  Ta0  1  0.562982  0.937018  0.562982  1
  Ta  Ta1  1  0.312982  0.687018  0.687018  1
  Ta  Ta2  1  0.687018  0.312982  0.312982  1
  Ta  Ta3  1  0.312982  0.687018  0.312982  1
  Ta  Ta4  1  0.687018  0.687018  0.312982  1
  Ta  Ta5  1  0.312982  0.312982  0.687018  1
  Ta  Ta6  1  0.562982  0.562982  0.937018  1
  Ta  Ta7  1  0.937018  0.562982  0.562982  1
  Ta  Ta8  1  0.562982  0.937018  0.937018  1
  Ta  Ta9  1  0.937018  0.937018  0.562982  1
  Ta  Ta10  1  0.687018  0.312982  0.687018  1
  Ta  Ta11  1  0.937018  0.562982  0.937018  1
  Ga  Ga12  1  0.912747  0.912747  0.912747  1
  Ga  Ga13  1  0.988240  0.337253  0.337253  1
  Ga  Ga14  1  0.337253  0.988240  0.337253  1
  Ga  Ga15  1  0.337253  0.337253  0.988240  1
  Ga  Ga16  1  0.912747  0.261760  0.912747  1
  Ga  Ga17  1  0.912747  0.912747  0.261760  1
  Ga  Ga18  1  0.261760  0.912747  0.912747  1
  Ga  Ga19  1  0.337253  0.337253  0.337253  1
  B  B20  1  0.625000  0.625000  0.625000  1
  B  B21  1  0.125000  0.625000  0.625000  1
  B  B22  1  0.625000  0.125000  0.625000  1
  B  B23  1  0.625000  0.625000  0.125000  1
  Pt  Pt24  1  0.125000  0.125000  0.125000  1
  Pt  Pt25  1  0.625000  0.125000  0.125000  1
  Pt  Pt26  1  0.125000  0.625000  0.125000  1
  Pt  Pt27  1  0.125000  0.125000  0.625000  1
