# generated using pymatgen
data_Sm8HfSc11Sn16
_symmetry_space_group_name_H-M   'P 1'
_cell_length_a   7.78759145
_cell_length_b   7.97820944
_cell_length_c   14.94805100
_cell_angle_alpha   90.00000000
_cell_angle_beta   90.00000000
_cell_angle_gamma   90.09017905
_symmetry_Int_Tables_number   1
_chemical_formula_structural   Sm8HfSc11Sn16
_chemical_formula_sum   'Sm8 Hf1 Sc11 Sn16'
_cell_volume   928.73673778
_cell_formula_units_Z   1
loop_
 _symmetry_equiv_pos_site_id
 _symmetry_equiv_pos_as_xyz
  1  'x, y, z'
loop_
 _atom_site_type_symbol
 _atom_site_label
 _atom_site_symmetry_multiplicity
 _atom_site_fract_x
 _atom_site_fract_y
 _atom_site_fract_z
 _atom_site_occupancy
  Sm  Sm0  1  0.509433  0.324004  0.905910  1
  Sm  Sm1  1  0.009865  0.175251  0.594229  1
  Sm  Sm2  1  0.490126  0.676413  0.405864  1
  Sm  Sm3  1  0.989502  0.825227  0.094500  1
  Sm  Sm4  1  0.490126  0.676413  0.094136  1
  Sm  Sm5  1  0.989502  0.825227  0.405500  1
  Sm  Sm6  1  0.509433  0.324004  0.594090  1
  Sm  Sm7  1  0.009865  0.175251  0.905771  1
  Hf  Hf8  1  0.328913  0.007135  0.250000  1
  Sc  Sc9  1  0.344131  0.839483  0.872809  1
  Sc  Sc10  1  0.844646  0.661700  0.628004  1
  Sc  Sc11  1  0.655025  0.159574  0.371918  1
  Sc  Sc12  1  0.155352  0.338357  0.128852  1
  Sc  Sc13  1  0.655025  0.159574  0.128082  1
  Sc  Sc14  1  0.155352  0.338357  0.371148  1
  Sc  Sc15  1  0.344131  0.839483  0.627191  1
  Sc  Sc16  1  0.844646  0.661700  0.871996  1
  Sc  Sc17  1  0.172843  0.505783  0.750000  1
  Sc  Sc18  1  0.673379  0.994738  0.750000  1
  Sc  Sc19  1  0.827579  0.492942  0.250000  1
  Sn  Sn20  1  0.317936  0.043503  0.045754  1
  Sn  Sn21  1  0.818952  0.455595  0.457018  1
  Sn  Sn22  1  0.682300  0.955524  0.542970  1
  Sn  Sn23  1  0.180901  0.544412  0.957717  1
  Sn  Sn24  1  0.682300  0.955524  0.957030  1
  Sn  Sn25  1  0.180901  0.544412  0.542283  1
  Sn  Sn26  1  0.317936  0.043503  0.454246  1
  Sn  Sn27  1  0.818952  0.455595  0.042982  1
  Sn  Sn28  1  0.536239  0.626317  0.750000  1
  Sn  Sn29  1  0.037594  0.873355  0.750000  1
  Sn  Sn30  1  0.464200  0.372885  0.250000  1
  Sn  Sn31  1  0.963494  0.124712  0.250000  1
  Sn  Sn32  1  0.314913  0.148638  0.750000  1
  Sn  Sn33  1  0.814941  0.351724  0.750000  1
  Sn  Sn34  1  0.682440  0.852083  0.250000  1
  Sn  Sn35  1  0.187126  0.651601  0.250000  1
