# generated using pymatgen
data_Ti2SiPIr2
_symmetry_space_group_name_H-M   'P 1'
_cell_length_a   3.80335100
_cell_length_b   6.30310800
_cell_length_c   7.21293500
_cell_angle_alpha   90.00000000
_cell_angle_beta   90.00000000
_cell_angle_gamma   90.00000000
_symmetry_Int_Tables_number   1
_chemical_formula_structural   Ti2SiPIr2
_chemical_formula_sum   'Ti4 Si2 P2 Ir4'
_cell_volume   172.91520110
_cell_formula_units_Z   2
loop_
 _symmetry_equiv_pos_site_id
 _symmetry_equiv_pos_as_xyz
  1  'x, y, z'
loop_
 _atom_site_type_symbol
 _atom_site_label
 _atom_site_symmetry_multiplicity
 _atom_site_fract_x
 _atom_site_fract_y
 _atom_site_fract_z
 _atom_site_occupancy
  Ti  Ti0  1  0.250000  0.025884  0.826588  1
  Ti  Ti1  1  0.250000  0.525884  0.673412  1
  Ti  Ti2  1  0.750000  0.976758  0.177234  1
  Ti  Ti3  1  0.750000  0.476758  0.322766  1
  Si  Si4  1  0.750000  0.234338  0.624055  1
  Si  Si5  1  0.750000  0.734338  0.875945  1
  P  P6  1  0.250000  0.764064  0.377210  1
  P  P7  1  0.250000  0.264064  0.122790  1
  Ir  Ir8  1  0.250000  0.150567  0.434347  1
  Ir  Ir9  1  0.250000  0.650567  0.065653  1
  Ir  Ir10  1  0.750000  0.848388  0.559834  1
  Ir  Ir11  1  0.750000  0.348388  0.940166  1
