# generated using pymatgen
data_Tl3In7S12
_symmetry_space_group_name_H-M   'P 1'
_cell_length_a   13.57451900
_cell_length_b   9.89546665
_cell_length_c   10.46432000
_cell_angle_alpha   83.89618921
_cell_angle_beta   90.00000000
_cell_angle_gamma   90.00000000
_symmetry_Int_Tables_number   1
_chemical_formula_structural   Tl3In7S12
_chemical_formula_sum   'Tl6 In14 S24'
_cell_volume   1397.66363451
_cell_formula_units_Z   2
loop_
 _symmetry_equiv_pos_site_id
 _symmetry_equiv_pos_as_xyz
  1  'x, y, z'
loop_
 _atom_site_type_symbol
 _atom_site_label
 _atom_site_symmetry_multiplicity
 _atom_site_fract_x
 _atom_site_fract_y
 _atom_site_fract_z
 _atom_site_occupancy
  Tl  Tl0  1  0.265780  0.020677  0.477906  1
  Tl  Tl1  1  0.765780  0.979323  0.522094  1
  Tl  Tl2  1  0.023611  0.130063  0.205913  1
  Tl  Tl3  1  0.523611  0.869937  0.794087  1
  Tl  Tl4  1  0.013437  0.624212  0.174308  1
  Tl  Tl5  1  0.513437  0.375788  0.825692  1
  In  In6  1  0.283617  0.032014  0.031216  1
  In  In7  1  0.783617  0.967986  0.968784  1
  In  In8  1  0.766315  0.287771  0.192020  1
  In  In9  1  0.266315  0.712229  0.807980  1
  In  In10  1  0.372983  0.692520  0.177896  1
  In  In11  1  0.872983  0.307480  0.822104  1
  In  In12  1  0.767517  0.476385  0.483022  1
  In  In13  1  0.267517  0.523615  0.516978  1
  In  In14  1  0.672507  0.669370  0.172493  1
  In  In15  1  0.172507  0.330630  0.827507  1
  In  In16  1  0.536717  0.022798  0.198554  1
  In  In17  1  0.036717  0.977202  0.801446  1
  In  In18  1  0.513292  0.367573  0.363017  1
  In  In19  1  0.013292  0.632427  0.636983  1
  S  S20  1  0.962122  0.924382  0.015247  1
  S  S21  1  0.197839  0.247083  0.054918  1
  S  S22  1  0.314553  0.331175  0.680849  1
  S  S23  1  0.814553  0.668825  0.319151  1
  S  S24  1  0.697839  0.752917  0.945082  1
  S  S25  1  0.610912  0.425418  0.152841  1
  S  S26  1  0.842679  0.534486  0.693492  1
  S  S27  1  0.342679  0.465514  0.306508  1
  S  S28  1  0.334426  0.736835  0.588230  1
  S  S29  1  0.834426  0.263165  0.411770  1
  S  S30  1  0.590048  0.472272  0.539429  1
  S  S31  1  0.090048  0.527728  0.460571  1
  S  S32  1  0.405741  0.645204  0.952432  1
  S  S33  1  0.905741  0.354796  0.047568  1
  S  S34  1  0.743364  0.140320  0.787948  1
  S  S35  1  0.243364  0.859680  0.212052  1
  S  S36  1  0.528192  0.772224  0.280605  1
  S  S37  1  0.028192  0.227776  0.719395  1
  S  S38  1  0.723259  0.040501  0.182330  1
  S  S39  1  0.223259  0.959499  0.817670  1
  S  S40  1  0.488048  0.118706  0.396421  1
  S  S41  1  0.988048  0.881294  0.603579  1
  S  S42  1  0.110912  0.574582  0.847159  1
  S  S43  1  0.462122  0.075618  0.984753  1
