# generated using pymatgen
data_Sr2NpAs2Se
_symmetry_space_group_name_H-M   'P 1'
_cell_length_a   4.31094300
_cell_length_b   4.31094312
_cell_length_c   10.76028400
_cell_angle_alpha   90.00000000
_cell_angle_beta   90.00000000
_cell_angle_gamma   120.00000677
_symmetry_Int_Tables_number   1
_chemical_formula_structural   Sr2NpAs2Se
_chemical_formula_sum   'Sr2 Np1 As2 Se1'
_cell_volume   173.18046807
_cell_formula_units_Z   1
loop_
 _symmetry_equiv_pos_site_id
 _symmetry_equiv_pos_as_xyz
  1  'x, y, z'
loop_
 _atom_site_type_symbol
 _atom_site_label
 _atom_site_symmetry_multiplicity
 _atom_site_fract_x
 _atom_site_fract_y
 _atom_site_fract_z
 _atom_site_occupancy
  Sr  Sr0  1  0.666667  0.333333  0.827611  1
  Sr  Sr1  1  0.333333  0.666667  0.172389  1
  Np  Np2  1  0.000000  0.000000  0.500000  1
  As  As3  1  0.666667  0.333333  0.359694  1
  As  As4  1  0.333333  0.666667  0.640306  1
  Se  Se5  1  0.000000  0.000000  0.000000  1
