# generated using pymatgen
data_ErLu(Re2Si)4
_symmetry_space_group_name_H-M   'P 1'
_cell_length_a   7.39133137
_cell_length_b   7.39133082
_cell_length_c   4.13073500
_cell_angle_alpha   90.00000000
_cell_angle_beta   90.00000000
_cell_angle_gamma   90.53829137
_symmetry_Int_Tables_number   1
_chemical_formula_structural   ErLu(Re2Si)4
_chemical_formula_sum   'Er1 Lu1 Re8 Si4'
_cell_volume   225.65942731
_cell_formula_units_Z   1
loop_
 _symmetry_equiv_pos_site_id
 _symmetry_equiv_pos_as_xyz
  1  'x, y, z'
loop_
 _atom_site_type_symbol
 _atom_site_label
 _atom_site_symmetry_multiplicity
 _atom_site_fract_x
 _atom_site_fract_y
 _atom_site_fract_z
 _atom_site_occupancy
  Er  Er0  1  0.000000  0.000000  0.500000  1
  Lu  Lu1  1  0.500000  0.500000  0.000000  1
  Re  Re2  1  0.657161  0.903668  0.000000  1
  Re  Re3  1  0.160131  0.592142  0.500000  1
  Re  Re4  1  0.096332  0.342839  0.000000  1
  Re  Re5  1  0.903668  0.657161  0.000000  1
  Re  Re6  1  0.407858  0.839869  0.500000  1
  Re  Re7  1  0.592142  0.160131  0.500000  1
  Re  Re8  1  0.342839  0.096332  0.000000  1
  Re  Re9  1  0.839869  0.407858  0.500000  1
  Si  Si10  1  0.209550  0.790450  0.000000  1
  Si  Si11  1  0.790450  0.209550  0.000000  1
  Si  Si12  1  0.706926  0.706926  0.500000  1
  Si  Si13  1  0.293074  0.293074  0.500000  1
