# generated using pymatgen
data_Nb12Co8Mo3RuN4
_symmetry_space_group_name_H-M   'P 1'
_cell_length_a   8.15852832
_cell_length_b   8.15852903
_cell_length_c   8.15852845
_cell_angle_alpha   59.83036844
_cell_angle_beta   59.83036588
_cell_angle_gamma   59.83036533
_symmetry_Int_Tables_number   1
_chemical_formula_structural   Nb12Co8Mo3RuN4
_chemical_formula_sum   'Nb12 Co8 Mo3 Ru1 N4'
_cell_volume   382.51213705
_cell_formula_units_Z   1
loop_
 _symmetry_equiv_pos_site_id
 _symmetry_equiv_pos_as_xyz
  1  'x, y, z'
loop_
 _atom_site_type_symbol
 _atom_site_label
 _atom_site_symmetry_multiplicity
 _atom_site_fract_x
 _atom_site_fract_y
 _atom_site_fract_z
 _atom_site_occupancy
  Nb  Nb0  1  0.807919  0.807919  0.193991  1
  Nb  Nb1  1  0.189620  0.189620  0.809969  1
  Nb  Nb2  1  0.807919  0.193991  0.807919  1
  Nb  Nb3  1  0.189620  0.809969  0.189620  1
  Nb  Nb4  1  0.193991  0.807919  0.807919  1
  Nb  Nb5  1  0.809969  0.189620  0.189620  1
  Nb  Nb6  1  0.442081  0.442081  0.056009  1
  Nb  Nb7  1  0.060380  0.060380  0.440031  1
  Nb  Nb8  1  0.442081  0.056009  0.442081  1
  Nb  Nb9  1  0.060380  0.440031  0.060380  1
  Nb  Nb10  1  0.056009  0.442081  0.442081  1
  Nb  Nb11  1  0.440031  0.060380  0.060380  1
  Co  Co12  1  0.729973  0.423805  0.423805  1
  Co  Co13  1  0.423805  0.729973  0.423805  1
  Co  Co14  1  0.423805  0.423805  0.729973  1
  Co  Co15  1  0.422317  0.422317  0.422317  1
  Co  Co16  1  0.520027  0.826195  0.826195  1
  Co  Co17  1  0.826195  0.520027  0.826195  1
  Co  Co18  1  0.826195  0.826195  0.520027  1
  Co  Co19  1  0.827683  0.827683  0.827683  1
  Mo  Mo20  1  0.125000  0.625000  0.625000  1
  Mo  Mo21  1  0.625000  0.125000  0.625000  1
  Mo  Mo22  1  0.625000  0.625000  0.125000  1
  Ru  Ru23  1  0.625000  0.625000  0.625000  1
  N  N24  1  0.625000  0.125000  0.125000  1
  N  N25  1  0.125000  0.625000  0.125000  1
  N  N26  1  0.125000  0.125000  0.625000  1
  N  N27  1  0.125000  0.125000  0.125000  1
