# generated using pymatgen
data_La6ErTm3(In3Br)2
_symmetry_space_group_name_H-M   'P 1'
_cell_length_a   9.59789800
_cell_length_b   9.59789757
_cell_length_c   6.79169000
_cell_angle_alpha   90.00000000
_cell_angle_beta   90.00000000
_cell_angle_gamma   120.00000147
_symmetry_Int_Tables_number   1
_chemical_formula_structural   La6ErTm3(In3Br)2
_chemical_formula_sum   'La6 Er1 Tm3 In6 Br2'
_cell_volume   541.82709795
_cell_formula_units_Z   1
loop_
 _symmetry_equiv_pos_site_id
 _symmetry_equiv_pos_as_xyz
  1  'x, y, z'
loop_
 _atom_site_type_symbol
 _atom_site_label
 _atom_site_symmetry_multiplicity
 _atom_site_fract_x
 _atom_site_fract_y
 _atom_site_fract_z
 _atom_site_occupancy
  La  La0  1  0.730727  0.730808  0.250065  1
  La  La1  1  0.000080  0.730808  0.749935  1
  La  La2  1  0.730727  0.999920  0.749935  1
  La  La3  1  0.269192  0.269273  0.749935  1
  La  La4  1  0.000080  0.269273  0.250065  1
  La  La5  1  0.269192  0.999920  0.250065  1
  Er  Er6  1  0.666667  0.333333  0.000000  1
  Tm  Tm7  1  0.333333  0.666667  0.500000  1
  Tm  Tm8  1  0.666667  0.333333  0.500000  1
  Tm  Tm9  1  0.333333  0.666667  0.000000  1
  In  In10  1  0.394078  0.999853  0.749945  1
  In  In11  1  0.000147  0.605922  0.250055  1
  In  In12  1  0.605774  0.999853  0.250055  1
  In  In13  1  0.000147  0.394226  0.749945  1
  In  In14  1  0.394078  0.394226  0.250055  1
  In  In15  1  0.605774  0.605922  0.749945  1
  Br  Br16  1  0.000000  0.000000  0.500000  1
  Br  Br17  1  0.000000  0.000000  0.000000  1
