# generated using pymatgen
data_Er3ScGa2Ir2Pt
_symmetry_space_group_name_H-M   'P 1'
_cell_length_a   7.18712732
_cell_length_b   7.21390965
_cell_length_c   4.04985600
_cell_angle_alpha   90.00000000
_cell_angle_beta   90.00000000
_cell_angle_gamma   120.75018707
_symmetry_Int_Tables_number   1
_chemical_formula_structural   Er3ScGa2Ir2Pt
_chemical_formula_sum   'Er3 Sc1 Ga2 Ir2 Pt1'
_cell_volume   180.45269162
_cell_formula_units_Z   1
loop_
 _symmetry_equiv_pos_site_id
 _symmetry_equiv_pos_as_xyz
  1  'x, y, z'
loop_
 _atom_site_type_symbol
 _atom_site_label
 _atom_site_symmetry_multiplicity
 _atom_site_fract_x
 _atom_site_fract_y
 _atom_site_fract_z
 _atom_site_occupancy
  Er  Er0  1  0.387708  0.393248  0.500000  1
  Er  Er1  1  0.579517  0.006452  0.500000  1
  Er  Er2  1  0.018119  0.586586  0.500000  1
  Sc  Sc3  1  0.764062  0.768834  0.000000  1
  Ga  Ga4  1  0.245454  0.991905  0.000000  1
  Ga  Ga5  1  0.000209  0.247453  0.000000  1
  Ir  Ir6  1  0.336301  0.664631  0.000000  1
  Ir  Ir7  1  0.004615  0.004391  0.500000  1
  Pt  Pt8  1  0.664019  0.336504  0.000000  1
