# generated using pymatgen
data_Li8Dy8Sn7Sb
_symmetry_space_group_name_H-M   'P 1'
_cell_length_a   9.37289600
_cell_length_b   9.37002037
_cell_length_c   7.29268035
_cell_angle_alpha   90.03068233
_cell_angle_beta   90.00000000
_cell_angle_gamma   120.01015258
_symmetry_Int_Tables_number   1
_chemical_formula_structural   Li8Dy8Sn7Sb
_chemical_formula_sum   'Li8 Dy8 Sn7 Sb1'
_cell_volume   554.60990435
_cell_formula_units_Z   1
loop_
 _symmetry_equiv_pos_site_id
 _symmetry_equiv_pos_as_xyz
  1  'x, y, z'
loop_
 _atom_site_type_symbol
 _atom_site_label
 _atom_site_symmetry_multiplicity
 _atom_site_fract_x
 _atom_site_fract_y
 _atom_site_fract_z
 _atom_site_occupancy
  Li  Li0  1  0.166729  0.333459  0.288695  1
  Li  Li1  1  0.166858  0.833204  0.289260  1
  Li  Li2  1  0.666346  0.833204  0.289260  1
  Li  Li3  1  0.833352  0.666704  0.788898  1
  Li  Li4  1  0.832608  0.166393  0.789709  1
  Li  Li5  1  0.333785  0.166393  0.789709  1
  Li  Li6  1  0.333679  0.667358  0.667527  1
  Li  Li7  1  0.666709  0.333417  0.168267  1
  Dy  Dy8  1  0.512688  0.025375  0.494141  1
  Dy  Dy9  1  0.515379  0.489291  0.492322  1
  Dy  Dy10  1  0.973913  0.489291  0.492322  1
  Dy  Dy11  1  0.487410  0.974821  0.994421  1
  Dy  Dy12  1  0.489490  0.513052  0.994885  1
  Dy  Dy13  1  0.023561  0.513052  0.994885  1
  Dy  Dy14  1  0.998895  0.997789  0.499276  1
  Dy  Dy15  1  0.998998  0.997997  0.001489  1
  Sn  Sn16  1  0.166592  0.832616  0.729891  1
  Sn  Sn17  1  0.666024  0.832616  0.729891  1
  Sn  Sn18  1  0.833179  0.666358  0.230678  1
  Sn  Sn19  1  0.833748  0.167210  0.230168  1
  Sn  Sn20  1  0.333462  0.167210  0.230168  1
  Sn  Sn21  1  0.332926  0.665854  0.261851  1
  Sn  Sn22  1  0.666876  0.333752  0.762116  1
  Sb  Sb23  1  0.166793  0.333585  0.732166  1
