# generated using pymatgen
data_Y6ScCo17(Si5P)2
_symmetry_space_group_name_H-M   'P 1'
_cell_length_a   3.77698300
_cell_length_b   10.80641700
_cell_length_c   12.47288800
_cell_angle_alpha   90.00000000
_cell_angle_beta   90.00000000
_cell_angle_gamma   90.00000000
_symmetry_Int_Tables_number   1
_chemical_formula_structural   Y6ScCo17(Si5P)2
_chemical_formula_sum   'Y6 Sc1 Co17 Si10 P2'
_cell_volume   509.08907226
_cell_formula_units_Z   1
loop_
 _symmetry_equiv_pos_site_id
 _symmetry_equiv_pos_as_xyz
  1  'x, y, z'
loop_
 _atom_site_type_symbol
 _atom_site_label
 _atom_site_symmetry_multiplicity
 _atom_site_fract_x
 _atom_site_fract_y
 _atom_site_fract_z
 _atom_site_occupancy
  Y  Y0  1  0.000000  0.500000  0.529519  1
  Y  Y1  1  0.500000  0.000000  0.473748  1
  Y  Y2  1  0.500000  0.820313  0.206082  1
  Y  Y3  1  0.500000  0.179687  0.206082  1
  Y  Y4  1  0.000000  0.683840  0.795404  1
  Y  Y5  1  0.000000  0.316160  0.795404  1
  Sc  Sc6  1  0.500000  0.500000  0.145859  1
  Co  Co7  1  0.000000  0.000000  0.847147  1
  Co  Co8  1  0.500000  0.500000  0.699669  1
  Co  Co9  1  0.000000  0.000000  0.302313  1
  Co  Co10  1  0.000000  0.500000  0.986834  1
  Co  Co11  1  0.500000  0.000000  0.015995  1
  Co  Co12  1  0.500000  0.325623  0.993868  1
  Co  Co13  1  0.500000  0.674377  0.993868  1
  Co  Co14  1  0.000000  0.164264  0.002501  1
  Co  Co15  1  0.000000  0.835736  0.002501  1
  Co  Co16  1  0.500000  0.299493  0.433426  1
  Co  Co17  1  0.500000  0.700507  0.433426  1
  Co  Co18  1  0.000000  0.197383  0.571554  1
  Co  Co19  1  0.000000  0.802617  0.571554  1
  Co  Co20  1  0.500000  0.883900  0.707676  1
  Co  Co21  1  0.500000  0.116100  0.707676  1
  Co  Co22  1  0.000000  0.619925  0.289966  1
  Co  Co23  1  0.000000  0.380075  0.289966  1
  Si  Si24  1  0.500000  0.500000  0.885210  1
  Si  Si25  1  0.000000  0.000000  0.116730  1
  Si  Si26  1  0.500000  0.500000  0.352231  1
  Si  Si27  1  0.000000  0.000000  0.661138  1
  Si  Si28  1  0.500000  0.302963  0.616291  1
  Si  Si29  1  0.500000  0.697037  0.616291  1
  Si  Si30  1  0.000000  0.196050  0.386592  1
  Si  Si31  1  0.000000  0.803950  0.386592  1
  Si  Si32  1  0.500000  0.856111  0.890659  1
  Si  Si33  1  0.500000  0.143889  0.890659  1
  P  P34  1  0.000000  0.664093  0.097782  1
  P  P35  1  0.000000  0.335907  0.097782  1
