# generated using pymatgen
data_Ba4HoTcO8
_symmetry_space_group_name_H-M   'P 1'
_cell_length_a   7.43571979
_cell_length_b   7.43571864
_cell_length_c   5.95971800
_cell_angle_alpha   90.00000000
_cell_angle_beta   90.00000000
_cell_angle_gamma   132.98011353
_symmetry_Int_Tables_number   1
_chemical_formula_structural   Ba4HoTcO8
_chemical_formula_sum   'Ba4 Ho1 Tc1 O8'
_cell_volume   241.06804924
_cell_formula_units_Z   1
loop_
 _symmetry_equiv_pos_site_id
 _symmetry_equiv_pos_as_xyz
  1  'x, y, z'
loop_
 _atom_site_type_symbol
 _atom_site_label
 _atom_site_symmetry_multiplicity
 _atom_site_fract_x
 _atom_site_fract_y
 _atom_site_fract_z
 _atom_site_occupancy
  Ba  Ba0  1  0.353850  0.646150  0.000000  1
  Ba  Ba1  1  0.852732  0.147268  0.500000  1
  Ba  Ba2  1  0.147268  0.852732  0.500000  1
  Ba  Ba3  1  0.646150  0.353850  0.000000  1
  Ho  Ho4  1  0.000000  0.000000  0.000000  1
  Tc  Tc5  1  0.500000  0.500000  0.500000  1
  O  O6  1  0.262525  0.262525  0.732449  1
  O  O7  1  0.737475  0.737475  0.267551  1
  O  O8  1  0.737475  0.737475  0.732449  1
  O  O9  1  0.262525  0.262525  0.267551  1
  O  O10  1  0.165095  0.834905  0.000000  1
  O  O11  1  0.650288  0.349712  0.500000  1
  O  O12  1  0.349712  0.650288  0.500000  1
  O  O13  1  0.834905  0.165095  0.000000  1
