# generated using pymatgen
data_KRb2YSb2
_symmetry_space_group_name_H-M   'P 1'
_cell_length_a   10.19594864
_cell_length_b   10.19594871
_cell_length_c   10.19594842
_cell_angle_alpha   131.25927839
_cell_angle_beta   68.02402061
_cell_angle_gamma   135.62274076
_symmetry_Int_Tables_number   1
_chemical_formula_structural   KRb2YSb2
_chemical_formula_sum   'K2 Rb4 Y2 Sb4'
_cell_volume   547.66820683
_cell_formula_units_Z   2
loop_
 _symmetry_equiv_pos_site_id
 _symmetry_equiv_pos_as_xyz
  1  'x, y, z'
loop_
 _atom_site_type_symbol
 _atom_site_label
 _atom_site_symmetry_multiplicity
 _atom_site_fract_x
 _atom_site_fract_y
 _atom_site_fract_z
 _atom_site_occupancy
  K  K0  1  0.750000  0.250000  0.500000  1
  K  K1  1  0.250000  0.750000  0.500000  1
  Rb  Rb2  1  0.315469  0.715227  0.030695  1
  Rb  Rb3  1  0.184531  0.215226  0.399758  1
  Rb  Rb4  1  0.815469  0.784774  0.600242  1
  Rb  Rb5  1  0.684531  0.284774  0.969305  1
  Y  Y6  1  0.250000  0.250000  0.000000  1
  Y  Y7  1  0.750000  0.750000  0.000000  1
  Sb  Sb8  1  0.901823  0.202627  0.104448  1
  Sb  Sb9  1  0.598179  0.702626  0.300805  1
  Sb  Sb10  1  0.401822  0.297374  0.699195  1
  Sb  Sb11  1  0.098178  0.797374  0.895552  1
