# generated using pymatgen
data_Ho4Tm4Re(B8Ru)3
_symmetry_space_group_name_H-M   'P 1'
_cell_length_a   3.63834000
_cell_length_b   9.09104020
_cell_length_c   11.47627801
_cell_angle_alpha   90.11495652
_cell_angle_beta   90.00000000
_cell_angle_gamma   90.00000000
_symmetry_Int_Tables_number   1
_chemical_formula_structural   Ho4Tm4Re(B8Ru)3
_chemical_formula_sum   'Ho4 Tm4 Re1 B24 Ru3'
_cell_volume   379.59199518
_cell_formula_units_Z   1
loop_
 _symmetry_equiv_pos_site_id
 _symmetry_equiv_pos_as_xyz
  1  'x, y, z'
loop_
 _atom_site_type_symbol
 _atom_site_label
 _atom_site_symmetry_multiplicity
 _atom_site_fract_x
 _atom_site_fract_y
 _atom_site_fract_z
 _atom_site_occupancy
  Ho  Ho0  1  0.000000  0.322390  0.415104  1
  Ho  Ho1  1  0.000000  0.680525  0.587957  1
  Ho  Ho2  1  0.000000  0.822218  0.083535  1
  Ho  Ho3  1  0.000000  0.176609  0.913422  1
  Tm  Tm4  1  0.000000  0.943244  0.371270  1
  Tm  Tm5  1  0.000000  0.056257  0.627635  1
  Tm  Tm6  1  0.000000  0.442756  0.128471  1
  Tm  Tm7  1  0.000000  0.555933  0.872505  1
  Re  Re8  1  0.000000  0.862137  0.820888  1
  B  B9  1  0.500000  0.554140  0.433365  1
  B  B10  1  0.500000  0.446152  0.566927  1
  B  B11  1  0.500000  0.053896  0.067407  1
  B  B12  1  0.500000  0.947065  0.933372  1
  B  B13  1  0.500000  0.749073  0.419452  1
  B  B14  1  0.500000  0.251216  0.580293  1
  B  B15  1  0.500000  0.248826  0.080757  1
  B  B16  1  0.500000  0.750501  0.919403  1
  B  B17  1  0.500000  0.790855  0.265580  1
  B  B18  1  0.500000  0.208828  0.733408  1
  B  B19  1  0.500000  0.291295  0.234469  1
  B  B20  1  0.500000  0.707812  0.765667  1
  B  B21  1  0.500000  0.630548  0.184877  1
  B  B22  1  0.500000  0.368784  0.814771  1
  B  B23  1  0.500000  0.131298  0.315266  1
  B  B24  1  0.500000  0.869228  0.684964  1
  B  B25  1  0.500000  0.982955  0.212702  1
  B  B26  1  0.500000  0.018428  0.787109  1
  B  B27  1  0.500000  0.482779  0.287805  1
  B  B28  1  0.500000  0.517111  0.712768  1
  B  B29  1  0.500000  0.603974  0.029549  1
  B  B30  1  0.500000  0.393948  0.971285  1
  B  B31  1  0.500000  0.105910  0.470306  1
  B  B32  1  0.500000  0.894931  0.528321  1
  Ru  Ru33  1  0.000000  0.637973  0.320807  1
  Ru  Ru34  1  0.000000  0.362180  0.678793  1
  Ru  Ru35  1  0.000000  0.138226  0.179787  1
