# generated using pymatgen
data_Zr9TiCuSiSb6
_symmetry_space_group_name_H-M   'P 1'
_cell_length_a   8.60850000
_cell_length_b   8.60850114
_cell_length_c   5.82108100
_cell_angle_alpha   90.00000000
_cell_angle_beta   90.00000000
_cell_angle_gamma   119.99999564
_symmetry_Int_Tables_number   1
_chemical_formula_structural   Zr9TiCuSiSb6
_chemical_formula_sum   'Zr9 Ti1 Cu1 Si1 Sb6'
_cell_volume   373.58490355
_cell_formula_units_Z   1
loop_
 _symmetry_equiv_pos_site_id
 _symmetry_equiv_pos_as_xyz
  1  'x, y, z'
loop_
 _atom_site_type_symbol
 _atom_site_label
 _atom_site_symmetry_multiplicity
 _atom_site_fract_x
 _atom_site_fract_y
 _atom_site_fract_z
 _atom_site_occupancy
  Zr  Zr0  1  0.333333  0.666667  0.000000  1
  Zr  Zr1  1  0.333333  0.666667  0.500000  1
  Zr  Zr2  1  0.666667  0.333333  0.500000  1
  Zr  Zr3  1  0.737158  0.737753  0.746617  1
  Zr  Zr4  1  0.262247  0.999404  0.746617  1
  Zr  Zr5  1  0.000596  0.262842  0.746617  1
  Zr  Zr6  1  0.262247  0.262842  0.253383  1
  Zr  Zr7  1  0.737158  0.999404  0.253383  1
  Zr  Zr8  1  0.000596  0.737753  0.253383  1
  Ti  Ti9  1  0.666667  0.333333  0.000000  1
  Cu  Cu10  1  0.000000  0.000000  0.000000  1
  Si  Si11  1  0.000000  0.000000  0.500000  1
  Sb  Sb12  1  0.392763  0.389002  0.756599  1
  Sb  Sb13  1  0.610998  0.003761  0.756599  1
  Sb  Sb14  1  0.996239  0.607237  0.756599  1
  Sb  Sb15  1  0.610998  0.607237  0.243401  1
  Sb  Sb16  1  0.392763  0.003761  0.243401  1
  Sb  Sb17  1  0.996239  0.389002  0.243401  1
