# generated using pymatgen
data_NdCo2(PRh)3
_symmetry_space_group_name_H-M   'P 1'
_cell_length_a   3.83162900
_cell_length_b   10.72987200
_cell_length_c   12.31559500
_cell_angle_alpha   90.00000000
_cell_angle_beta   90.00000000
_cell_angle_gamma   90.00000000
_symmetry_Int_Tables_number   1
_chemical_formula_structural   NdCo2(PRh)3
_chemical_formula_sum   'Nd4 Co8 P12 Rh12'
_cell_volume   506.32968677
_cell_formula_units_Z   4
loop_
 _symmetry_equiv_pos_site_id
 _symmetry_equiv_pos_as_xyz
  1  'x, y, z'
loop_
 _atom_site_type_symbol
 _atom_site_label
 _atom_site_symmetry_multiplicity
 _atom_site_fract_x
 _atom_site_fract_y
 _atom_site_fract_z
 _atom_site_occupancy
  Nd  Nd0  1  0.250000  0.583381  0.708329  1
  Nd  Nd1  1  0.250000  0.916619  0.208329  1
  Nd  Nd2  1  0.750000  0.416619  0.291671  1
  Nd  Nd3  1  0.750000  0.083381  0.791671  1
  Co  Co4  1  0.250000  0.882824  0.695692  1
  Co  Co5  1  0.250000  0.617176  0.195692  1
  Co  Co6  1  0.750000  0.117176  0.304308  1
  Co  Co7  1  0.750000  0.382824  0.804308  1
  Co  Co8  1  0.250000  0.463804  0.933960  1
  Co  Co9  1  0.250000  0.036196  0.433960  1
  Co  Co10  1  0.750000  0.536196  0.066040  1
  Co  Co11  1  0.750000  0.963804  0.566040  1
  P  P12  1  0.250000  0.431413  0.109066  1
  P  P13  1  0.250000  0.068587  0.609066  1
  P  P14  1  0.750000  0.568587  0.890934  1
  P  P15  1  0.750000  0.931413  0.390934  1
  P  P16  1  0.250000  0.276883  0.871539  1
  P  P17  1  0.250000  0.223117  0.371539  1
  P  P18  1  0.750000  0.723117  0.128461  1
  P  P19  1  0.750000  0.776883  0.628461  1
  P  P20  1  0.250000  0.603234  0.383178  1
  P  P21  1  0.250000  0.896766  0.883178  1
  P  P22  1  0.750000  0.396766  0.616822  1
  P  P23  1  0.750000  0.103234  0.116822  1
  Rh  Rh24  1  0.250000  0.714895  0.990487  1
  Rh  Rh25  1  0.250000  0.785105  0.490487  1
  Rh  Rh26  1  0.750000  0.285105  0.009513  1
  Rh  Rh27  1  0.750000  0.214895  0.509513  1
  Rh  Rh28  1  0.250000  0.408196  0.482153  1
  Rh  Rh29  1  0.250000  0.091804  0.982153  1
  Rh  Rh30  1  0.750000  0.591804  0.517847  1
  Rh  Rh31  1  0.750000  0.908196  0.017847  1
  Rh  Rh32  1  0.250000  0.224779  0.179477  1
  Rh  Rh33  1  0.250000  0.275221  0.679477  1
  Rh  Rh34  1  0.750000  0.775221  0.820523  1
  Rh  Rh35  1  0.750000  0.724779  0.320523  1
