# generated using pymatgen
data_Dy6TmLu9(CdIr)4
_symmetry_space_group_name_H-M   'P 1'
_cell_length_a   9.51383923
_cell_length_b   9.51304807
_cell_length_c   9.52933002
_cell_angle_alpha   59.95012462
_cell_angle_beta   59.94808393
_cell_angle_gamma   59.88519016
_symmetry_Int_Tables_number   1
_chemical_formula_structural   Dy6TmLu9(CdIr)4
_chemical_formula_sum   'Dy6 Tm1 Lu9 Cd4 Ir4'
_cell_volume   608.85051571
_cell_formula_units_Z   1
loop_
 _symmetry_equiv_pos_site_id
 _symmetry_equiv_pos_as_xyz
  1  'x, y, z'
loop_
 _atom_site_type_symbol
 _atom_site_label
 _atom_site_symmetry_multiplicity
 _atom_site_fract_x
 _atom_site_fract_y
 _atom_site_fract_z
 _atom_site_occupancy
  Dy  Dy0  1  0.189662  0.810519  0.810674  1
  Dy  Dy1  1  0.810457  0.189851  0.189238  1
  Dy  Dy2  1  0.810519  0.189659  0.810671  1
  Dy  Dy3  1  0.189867  0.810428  0.189245  1
  Dy  Dy4  1  0.810718  0.810729  0.189255  1
  Dy  Dy5  1  0.189547  0.189568  0.810507  1
  Tm  Tm6  1  0.599289  0.599300  0.598204  1
  Lu  Lu7  1  0.599008  0.599010  0.204032  1
  Lu  Lu8  1  0.599357  0.203922  0.598356  1
  Lu  Lu9  1  0.203938  0.599356  0.598316  1
  Lu  Lu10  1  0.061753  0.437151  0.438656  1
  Lu  Lu11  1  0.437192  0.061595  0.062368  1
  Lu  Lu12  1  0.437165  0.061718  0.438704  1
  Lu  Lu13  1  0.061579  0.437196  0.062379  1
  Lu  Lu14  1  0.437955  0.437949  0.062111  1
  Lu  Lu15  1  0.062052  0.062061  0.437874  1
  Cd  Cd16  1  0.830099  0.830074  0.830682  1
  Cd  Cd17  1  0.830162  0.830143  0.509098  1
  Cd  Cd18  1  0.830597  0.507393  0.831084  1
  Cd  Cd19  1  0.507358  0.830591  0.831098  1
  Ir  Ir20  1  0.392289  0.392317  0.390916  1
  Ir  Ir21  1  0.391869  0.391898  0.824903  1
  Ir  Ir22  1  0.392149  0.825426  0.390814  1
  Ir  Ir23  1  0.825422  0.392147  0.390814  1
