# generated using pymatgen
data_NdHo(Si7Rh3)2
_symmetry_space_group_name_H-M   'P 1'
_cell_length_a   8.01392672
_cell_length_b   8.01392704
_cell_length_c   8.01392709
_cell_angle_alpha   57.09423258
_cell_angle_beta   57.09422701
_cell_angle_gamma   57.09422615
_symmetry_Int_Tables_number   1
_chemical_formula_structural   NdHo(Si7Rh3)2
_chemical_formula_sum   'Nd1 Ho1 Si14 Rh6'
_cell_volume   339.56051837
_cell_formula_units_Z   1
loop_
 _symmetry_equiv_pos_site_id
 _symmetry_equiv_pos_as_xyz
  1  'x, y, z'
loop_
 _atom_site_type_symbol
 _atom_site_label
 _atom_site_symmetry_multiplicity
 _atom_site_fract_x
 _atom_site_fract_y
 _atom_site_fract_z
 _atom_site_occupancy
  Nd  Nd0  1  0.500000  0.500000  0.500000  1
  Ho  Ho1  1  0.000000  0.000000  0.000000  1
  Si  Si2  1  0.750078  0.750078  0.750078  1
  Si  Si3  1  0.249922  0.249922  0.249922  1
  Si  Si4  1  0.852566  0.064249  0.672795  1
  Si  Si5  1  0.672795  0.852566  0.064249  1
  Si  Si6  1  0.064249  0.672795  0.852566  1
  Si  Si7  1  0.648910  0.828436  0.434597  1
  Si  Si8  1  0.434597  0.648910  0.828436  1
  Si  Si9  1  0.828436  0.434597  0.648910  1
  Si  Si10  1  0.171564  0.565403  0.351090  1
  Si  Si11  1  0.565403  0.351090  0.171564  1
  Si  Si12  1  0.351090  0.171564  0.565403  1
  Si  Si13  1  0.935751  0.327205  0.147434  1
  Si  Si14  1  0.327205  0.147434  0.935751  1
  Si  Si15  1  0.147434  0.935751  0.327205  1
  Rh  Rh16  1  0.067405  0.429553  0.751728  1
  Rh  Rh17  1  0.248272  0.932595  0.570447  1
  Rh  Rh18  1  0.570447  0.248272  0.932595  1
  Rh  Rh19  1  0.932595  0.570447  0.248272  1
  Rh  Rh20  1  0.429553  0.751728  0.067405  1
  Rh  Rh21  1  0.751728  0.067405  0.429553  1
