# generated using pymatgen
data_NaMn4Br7O
_symmetry_space_group_name_H-M   'P 1'
_cell_length_a   7.83304967
_cell_length_b   7.81354443
_cell_length_c   7.81238300
_cell_angle_alpha   58.28274455
_cell_angle_beta   58.02257740
_cell_angle_gamma   58.11384434
_symmetry_Int_Tables_number   1
_chemical_formula_structural   NaMn4Br7O
_chemical_formula_sum   'Na1 Mn4 Br7 O1'
_cell_volume   323.68138940
_cell_formula_units_Z   1
loop_
 _symmetry_equiv_pos_site_id
 _symmetry_equiv_pos_as_xyz
  1  'x, y, z'
loop_
 _atom_site_type_symbol
 _atom_site_label
 _atom_site_symmetry_multiplicity
 _atom_site_fract_x
 _atom_site_fract_y
 _atom_site_fract_z
 _atom_site_occupancy
  Na  Na0  1  0.046710  0.048615  0.048397  1
  Mn  Mn1  1  0.373223  0.372746  0.373598  1
  Mn  Mn2  1  0.347146  0.347730  0.895771  1
  Mn  Mn3  1  0.347612  0.895763  0.346448  1
  Mn  Mn4  1  0.895545  0.347408  0.347957  1
  Br  Br5  1  0.602259  0.602641  0.602130  1
  Br  Br6  1  0.620605  0.618394  0.114592  1
  Br  Br7  1  0.619652  0.114543  0.619109  1
  Br  Br8  1  0.115040  0.620176  0.620197  1
  Br  Br9  1  0.620394  0.124322  0.123663  1
  Br  Br10  1  0.124383  0.124978  0.620496  1
  Br  Br11  1  0.124959  0.620392  0.125465  1
  O  O12  1  0.162470  0.162294  0.162175  1
