# generated using pymatgen
data_Nd5Zr3(P3Rh4)4
_symmetry_space_group_name_H-M   'P 1'
_cell_length_a   12.98878300
_cell_length_b   12.98878321
_cell_length_c   3.97900500
_cell_angle_alpha   90.00000000
_cell_angle_beta   90.00000000
_cell_angle_gamma   120.00000200
_symmetry_Int_Tables_number   1
_chemical_formula_structural   Nd5Zr3(P3Rh4)4
_chemical_formula_sum   'Nd5 Zr3 P12 Rh16'
_cell_volume   581.35583715
_cell_formula_units_Z   1
loop_
 _symmetry_equiv_pos_site_id
 _symmetry_equiv_pos_as_xyz
  1  'x, y, z'
loop_
 _atom_site_type_symbol
 _atom_site_label
 _atom_site_symmetry_multiplicity
 _atom_site_fract_x
 _atom_site_fract_y
 _atom_site_fract_z
 _atom_site_occupancy
  Nd  Nd0  1  0.186335  0.186335  0.500000  1
  Nd  Nd1  1  0.813665  0.000000  0.500000  1
  Nd  Nd2  1  0.000000  0.813665  0.500000  1
  Nd  Nd3  1  0.333333  0.666667  0.000000  1
  Nd  Nd4  1  0.666667  0.333333  0.000000  1
  Zr  Zr5  1  0.555130  0.555130  0.000000  1
  Zr  Zr6  1  0.444870  0.000000  0.000000  1
  Zr  Zr7  1  0.000000  0.444870  0.000000  1
  P  P8  1  0.822564  0.822564  0.000000  1
  P  P9  1  0.177436  0.000000  0.000000  1
  P  P10  1  0.000000  0.177436  0.000000  1
  P  P11  1  0.167586  0.480747  0.500000  1
  P  P12  1  0.519253  0.686839  0.500000  1
  P  P13  1  0.313161  0.832414  0.500000  1
  P  P14  1  0.686839  0.519253  0.500000  1
  P  P15  1  0.832414  0.313161  0.500000  1
  P  P16  1  0.480747  0.167586  0.500000  1
  P  P17  1  0.355611  0.355611  0.000000  1
  P  P18  1  0.644389  0.000000  0.000000  1
  P  P19  1  0.000000  0.644389  0.000000  1
  Rh  Rh20  1  0.720061  0.720061  0.500000  1
  Rh  Rh21  1  0.279939  0.000000  0.500000  1
  Rh  Rh22  1  0.000000  0.279939  0.500000  1
  Rh  Rh23  1  0.177342  0.374529  0.000000  1
  Rh  Rh24  1  0.625471  0.802813  0.000000  1
  Rh  Rh25  1  0.197187  0.822658  0.000000  1
  Rh  Rh26  1  0.802813  0.625471  0.000000  1
  Rh  Rh27  1  0.822658  0.197187  0.000000  1
  Rh  Rh28  1  0.374529  0.177342  0.000000  1
  Rh  Rh29  1  0.355648  0.485590  0.500000  1
  Rh  Rh30  1  0.514410  0.870059  0.500000  1
  Rh  Rh31  1  0.129941  0.644352  0.500000  1
  Rh  Rh32  1  0.870059  0.514410  0.500000  1
  Rh  Rh33  1  0.644352  0.129941  0.500000  1
  Rh  Rh34  1  0.485590  0.355648  0.500000  1
  Rh  Rh35  1  0.000000  0.000000  0.000000  1
