# generated using pymatgen
data_Zr2Ru3Rh3C
_symmetry_space_group_name_H-M   'P 1'
_cell_length_a   5.70283390
_cell_length_b   5.70283462
_cell_length_c   5.70522525
_cell_angle_alpha   60.01386816
_cell_angle_beta   60.01386884
_cell_angle_gamma   59.99999709
_symmetry_Int_Tables_number   1
_chemical_formula_structural   Zr2Ru3Rh3C
_chemical_formula_sum   'Zr2 Ru3 Rh3 C1'
_cell_volume   131.22914345
_cell_formula_units_Z   1
loop_
 _symmetry_equiv_pos_site_id
 _symmetry_equiv_pos_as_xyz
  1  'x, y, z'
loop_
 _atom_site_type_symbol
 _atom_site_label
 _atom_site_symmetry_multiplicity
 _atom_site_fract_x
 _atom_site_fract_y
 _atom_site_fract_z
 _atom_site_occupancy
  Zr  Zr0  1  0.249576  0.249576  0.251273  1
  Zr  Zr1  1  0.749570  0.749570  0.751291  1
  Ru  Ru2  1  0.754542  0.754542  0.246937  1
  Ru  Ru3  1  0.754542  0.243978  0.246937  1
  Ru  Ru4  1  0.243978  0.754542  0.246937  1
  Rh  Rh5  1  0.244776  0.244776  0.756647  1
  Rh  Rh6  1  0.753798  0.244776  0.756647  1
  Rh  Rh7  1  0.244776  0.753798  0.756647  1
  C  C8  1  0.504440  0.504440  0.486681  1
