# generated using pymatgen
data_LaTh3(Zn5Ge)2
_symmetry_space_group_name_H-M   'P 1'
_cell_length_a   8.42546657
_cell_length_b   8.42546835
_cell_length_c   8.91648057
_cell_angle_alpha   90.54207875
_cell_angle_beta   89.45792188
_cell_angle_gamma   149.35560870
_symmetry_Int_Tables_number   1
_chemical_formula_structural   LaTh3(Zn5Ge)2
_chemical_formula_sum   'La1 Th3 Zn10 Ge2'
_cell_volume   322.61321584
_cell_formula_units_Z   1
loop_
 _symmetry_equiv_pos_site_id
 _symmetry_equiv_pos_as_xyz
  1  'x, y, z'
loop_
 _atom_site_type_symbol
 _atom_site_label
 _atom_site_symmetry_multiplicity
 _atom_site_fract_x
 _atom_site_fract_y
 _atom_site_fract_z
 _atom_site_occupancy
  La  La0  1  0.000000  0.000000  0.000000  1
  Th  Th1  1  0.202391  0.797609  0.249895  1
  Th  Th2  1  0.797609  0.202391  0.750105  1
  Th  Th3  1  0.000000  0.000000  0.500000  1
  Zn  Zn4  1  0.815597  0.184403  0.392493  1
  Zn  Zn5  1  0.184403  0.815597  0.607507  1
  Zn  Zn6  1  0.814340  0.185660  0.106771  1
  Zn  Zn7  1  0.185660  0.814340  0.893229  1
  Zn  Zn8  1  0.653144  0.346856  0.479624  1
  Zn  Zn9  1  0.346856  0.653144  0.520376  1
  Zn  Zn10  1  0.653491  0.346509  0.021380  1
  Zn  Zn11  1  0.346509  0.653491  0.978620  1
  Zn  Zn12  1  0.401462  0.598538  0.251284  1
  Zn  Zn13  1  0.598538  0.401462  0.748716  1
  Ge  Ge14  1  0.556718  0.443282  0.253795  1
  Ge  Ge15  1  0.443282  0.556718  0.746205  1
