# generated using pymatgen
data_Dy4Y4Cd2IrPt
_symmetry_space_group_name_H-M   'P 1'
_cell_length_a   9.66579141
_cell_length_b   9.66579150
_cell_length_c   9.65537600
_cell_angle_alpha   60.03564593
_cell_angle_beta   60.03564564
_cell_angle_gamma   60.24081274
_symmetry_Int_Tables_number   1
_chemical_formula_structural   Dy4Y4Cd2IrPt
_chemical_formula_sum   'Dy8 Y8 Cd4 Ir2 Pt2'
_cell_volume   639.36348952
_cell_formula_units_Z   2
loop_
 _symmetry_equiv_pos_site_id
 _symmetry_equiv_pos_as_xyz
  1  'x, y, z'
loop_
 _atom_site_type_symbol
 _atom_site_label
 _atom_site_symmetry_multiplicity
 _atom_site_fract_x
 _atom_site_fract_y
 _atom_site_fract_z
 _atom_site_occupancy
  Dy  Dy0  1  0.350455  0.350455  0.346087  1
  Dy  Dy1  1  0.350455  0.350455  0.953003  1
  Dy  Dy2  1  0.355633  0.945002  0.349682  1
  Dy  Dy3  1  0.945002  0.355633  0.349682  1
  Dy  Dy4  1  0.806618  0.190306  0.190546  1
  Dy  Dy5  1  0.190306  0.806618  0.812530  1
  Dy  Dy6  1  0.190306  0.806618  0.190546  1
  Dy  Dy7  1  0.806618  0.190306  0.812530  1
  Y  Y8  1  0.191694  0.191694  0.808306  1
  Y  Y9  1  0.810902  0.810902  0.189098  1
  Y  Y10  1  0.937619  0.564594  0.561638  1
  Y  Y11  1  0.564594  0.937619  0.936149  1
  Y  Y12  1  0.564594  0.937619  0.561638  1
  Y  Y13  1  0.937619  0.564594  0.936149  1
  Y  Y14  1  0.563269  0.563269  0.936731  1
  Y  Y15  1  0.937279  0.937279  0.562721  1
  Cd  Cd16  1  0.581112  0.581112  0.581652  1
  Cd  Cd17  1  0.581112  0.581112  0.256127  1
  Cd  Cd18  1  0.580495  0.255974  0.581766  1
  Cd  Cd19  1  0.255974  0.580495  0.581766  1
  Ir  Ir20  1  0.142040  0.572975  0.142493  1
  Ir  Ir21  1  0.572975  0.142040  0.142493  1
  Pt  Pt22  1  0.141667  0.141667  0.145842  1
  Pt  Pt23  1  0.141667  0.141667  0.570824  1
