# generated using pymatgen
data_DyEr2Th(AlRh)4
_symmetry_space_group_name_H-M   'P 1'
_cell_length_a   4.21610700
_cell_length_b   6.92578351
_cell_length_c   8.02733330
_cell_angle_alpha   90.09427231
_cell_angle_beta   90.00000000
_cell_angle_gamma   90.00000000
_symmetry_Int_Tables_number   1
_chemical_formula_structural   DyEr2Th(AlRh)4
_chemical_formula_sum   'Dy1 Er2 Th1 Al4 Rh4'
_cell_volume   234.39656546
_cell_formula_units_Z   1
loop_
 _symmetry_equiv_pos_site_id
 _symmetry_equiv_pos_as_xyz
  1  'x, y, z'
loop_
 _atom_site_type_symbol
 _atom_site_label
 _atom_site_symmetry_multiplicity
 _atom_site_fract_x
 _atom_site_fract_y
 _atom_site_fract_z
 _atom_site_occupancy
  Dy  Dy0  1  0.250000  0.040195  0.323236  1
  Er  Er1  1  0.750000  0.457884  0.813592  1
  Er  Er2  1  0.750000  0.958748  0.680419  1
  Th  Th3  1  0.250000  0.539580  0.175986  1
  Al  Al4  1  0.250000  0.633198  0.565582  1
  Al  Al5  1  0.750000  0.360597  0.444898  1
  Al  Al6  1  0.750000  0.876762  0.057219  1
  Al  Al7  1  0.250000  0.131838  0.936170  1
  Rh  Rh8  1  0.250000  0.760284  0.881360  1
  Rh  Rh9  1  0.750000  0.244843  0.122153  1
  Rh  Rh10  1  0.750000  0.735779  0.377005  1
  Rh  Rh11  1  0.250000  0.260291  0.622378  1
