# generated using pymatgen
data_ThCu2Ni2Pt
_symmetry_space_group_name_H-M   'P 1'
_cell_length_a   5.15323277
_cell_length_b   5.15323177
_cell_length_c   4.15397500
_cell_angle_alpha   90.00000000
_cell_angle_beta   90.00000000
_cell_angle_gamma   123.63466270
_symmetry_Int_Tables_number   1
_chemical_formula_structural   ThCu2Ni2Pt
_chemical_formula_sum   'Th1 Cu2 Ni2 Pt1'
_cell_volume   91.84437721
_cell_formula_units_Z   1
loop_
 _symmetry_equiv_pos_site_id
 _symmetry_equiv_pos_as_xyz
  1  'x, y, z'
loop_
 _atom_site_type_symbol
 _atom_site_label
 _atom_site_symmetry_multiplicity
 _atom_site_fract_x
 _atom_site_fract_y
 _atom_site_fract_z
 _atom_site_occupancy
  Th  Th0  1  0.000000  0.000000  0.000000  1
  Cu  Cu1  1  0.500000  0.000000  0.500000  1
  Cu  Cu2  1  0.000000  0.500000  0.500000  1
  Ni  Ni3  1  0.682489  0.317511  0.000000  1
  Ni  Ni4  1  0.317511  0.682489  0.000000  1
  Pt  Pt5  1  0.500000  0.500000  0.500000  1
