# generated using pymatgen
data_Sr3Yb2(TcN3)2
_symmetry_space_group_name_H-M   'P 1'
_cell_length_a   6.19744338
_cell_length_b   6.85686294
_cell_length_c   12.34062089
_cell_angle_alpha   90.00000126
_cell_angle_beta   103.23580330
_cell_angle_gamma   123.58687796
_symmetry_Int_Tables_number   1
_chemical_formula_structural   Sr3Yb2(TcN3)2
_chemical_formula_sum   'Sr6 Yb4 Tc4 N12'
_cell_volume   420.03854351
_cell_formula_units_Z   2
loop_
 _symmetry_equiv_pos_site_id
 _symmetry_equiv_pos_as_xyz
  1  'x, y, z'
loop_
 _atom_site_type_symbol
 _atom_site_label
 _atom_site_symmetry_multiplicity
 _atom_site_fract_x
 _atom_site_fract_y
 _atom_site_fract_z
 _atom_site_occupancy
  Sr  Sr0  1  0.329093  0.039882  0.732263  1
  Sr  Sr1  1  0.670907  0.710789  0.767737  1
  Sr  Sr2  1  0.670907  0.960118  0.267737  1
  Sr  Sr3  1  0.329093  0.289211  0.232263  1
  Sr  Sr4  1  0.000000  0.389395  0.750000  1
  Sr  Sr5  1  0.000000  0.610605  0.250000  1
  Yb  Yb6  1  0.118473  0.808239  0.001025  1
  Yb  Yb7  1  0.881527  0.689765  0.498975  1
  Yb  Yb8  1  0.881527  0.191761  0.998975  1
  Yb  Yb9  1  0.118473  0.310235  0.501025  1
  Tc  Tc10  1  0.517873  0.844639  0.527676  1
  Tc  Tc11  1  0.482127  0.326766  0.972324  1
  Tc  Tc12  1  0.482127  0.155361  0.472324  1
  Tc  Tc13  1  0.517873  0.673234  0.027676  1
  N  N14  1  0.881160  0.984907  0.613005  1
  N  N15  1  0.118840  0.103748  0.886995  1
  N  N16  1  0.118840  0.015093  0.386995  1
  N  N17  1  0.881160  0.896252  0.113005  1
  N  N18  1  0.267480  0.674473  0.614168  1
  N  N19  1  0.732520  0.406993  0.885832  1
  N  N20  1  0.732520  0.325527  0.385832  1
  N  N21  1  0.267480  0.593007  0.114168  1
  N  N22  1  0.567711  0.356455  0.601543  1
  N  N23  1  0.432289  0.788744  0.898457  1
  N  N24  1  0.432289  0.643545  0.398457  1
  N  N25  1  0.567711  0.211256  0.101543  1
