# generated using pymatgen
data_Pr2Dy3Cr3(P3Ir4)4
_symmetry_space_group_name_H-M   'P 1'
_cell_length_a   12.69399800
_cell_length_b   12.69511578
_cell_length_c   3.97717300
_cell_angle_alpha   90.00000000
_cell_angle_beta   90.00000000
_cell_angle_gamma   119.99708223
_symmetry_Int_Tables_number   1
_chemical_formula_structural   Pr2Dy3Cr3(P3Ir4)4
_chemical_formula_sum   'Pr2 Dy3 Cr3 P12 Ir16'
_cell_volume   555.07666934
_cell_formula_units_Z   1
loop_
 _symmetry_equiv_pos_site_id
 _symmetry_equiv_pos_as_xyz
  1  'x, y, z'
loop_
 _atom_site_type_symbol
 _atom_site_label
 _atom_site_symmetry_multiplicity
 _atom_site_fract_x
 _atom_site_fract_y
 _atom_site_fract_z
 _atom_site_occupancy
  Pr  Pr0  1  0.999793  0.810190  0.000000  1
  Pr  Pr1  1  0.189603  0.189810  0.000000  1
  Dy  Dy2  1  0.333460  0.666628  0.500000  1
  Dy  Dy3  1  0.666832  0.333372  0.500000  1
  Dy  Dy4  1  0.809578  0.000000  0.000000  1
  Cr  Cr5  1  0.999249  0.451993  0.500000  1
  Cr  Cr6  1  0.547256  0.548007  0.500000  1
  Cr  Cr7  1  0.454028  0.000000  0.500000  1
  P  P8  1  0.000157  0.629232  0.500000  1
  P  P9  1  0.370925  0.370768  0.500000  1
  P  P10  1  0.631846  0.000000  0.500000  1
  P  P11  1  0.515749  0.684930  0.000000  1
  P  P12  1  0.315544  0.830894  0.000000  1
  P  P13  1  0.168610  0.483388  0.000000  1
  P  P14  1  0.484650  0.169106  0.000000  1
  P  P15  1  0.685222  0.516612  0.000000  1
  P  P16  1  0.830819  0.315070  0.000000  1
  P  P17  1  0.997476  0.178194  0.500000  1
  P  P18  1  0.819282  0.821806  0.500000  1
  P  P19  1  0.179455  0.000000  0.500000  1
  Ir  Ir20  1  0.509092  0.868704  0.000000  1
  Ir  Ir21  1  0.131440  0.639388  0.000000  1
  Ir  Ir22  1  0.360200  0.491421  0.000000  1
  Ir  Ir23  1  0.492053  0.360612  0.000000  1
  Ir  Ir24  1  0.868780  0.508579  0.000000  1
  Ir  Ir25  1  0.640389  0.131296  0.000000  1
  Ir  Ir26  1  0.998542  0.287658  0.000000  1
  Ir  Ir27  1  0.710884  0.712342  0.000000  1
  Ir  Ir28  1  0.289722  0.000000  0.000000  1
  Ir  Ir29  1  0.622945  0.802765  0.500000  1
  Ir  Ir30  1  0.202163  0.821389  0.500000  1
  Ir  Ir31  1  0.177994  0.380369  0.500000  1
  Ir  Ir32  1  0.380773  0.178611  0.500000  1
  Ir  Ir33  1  0.797624  0.619631  0.500000  1
  Ir  Ir34  1  0.820180  0.197235  0.500000  1
  Ir  Ir35  1  0.997686  0.000000  0.500000  1
