# generated using pymatgen
data_Li3Sm2YAgSn4
_symmetry_space_group_name_H-M   'P 1'
_cell_length_a   4.65268914
_cell_length_b   7.16570265
_cell_length_c   8.74367022
_cell_angle_alpha   114.03507929
_cell_angle_beta   105.42997030
_cell_angle_gamma   90.00000143
_symmetry_Int_Tables_number   1
_chemical_formula_structural   Li3Sm2YAgSn4
_chemical_formula_sum   'Li3 Sm2 Y1 Ag1 Sn4'
_cell_volume   254.68915908
_cell_formula_units_Z   1
loop_
 _symmetry_equiv_pos_site_id
 _symmetry_equiv_pos_as_xyz
  1  'x, y, z'
loop_
 _atom_site_type_symbol
 _atom_site_label
 _atom_site_symmetry_multiplicity
 _atom_site_fract_x
 _atom_site_fract_y
 _atom_site_fract_z
 _atom_site_occupancy
  Li  Li0  1  0.327669  0.014609  0.655338  1
  Li  Li1  1  0.670396  0.981180  0.340792  1
  Li  Li2  1  0.325377  0.634476  0.650755  1
  Sm  Sm3  1  0.871742  0.374702  0.743483  1
  Sm  Sm4  1  0.128606  0.629628  0.257211  1
  Y  Y5  1  0.001992  0.002312  0.003986  1
  Ag  Ag6  1  0.674246  0.366164  0.348493  1
  Sn  Sn7  1  0.214794  0.202773  0.429590  1
  Sn  Sn8  1  0.788596  0.795157  0.577191  1
  Sn  Sn9  1  0.497753  0.297843  0.995505  1
  Sn  Sn10  1  0.498827  0.701155  0.997655  1
