# generated using pymatgen
data_CaTbDy2(Ga2Ag)4
_symmetry_space_group_name_H-M   'P 1'
_cell_length_a   4.35845300
_cell_length_b   7.01010693
_cell_length_c   10.31353070
_cell_angle_alpha   89.49334152
_cell_angle_beta   90.00000000
_cell_angle_gamma   90.00000000
_symmetry_Int_Tables_number   1
_chemical_formula_structural   CaTbDy2(Ga2Ag)4
_chemical_formula_sum   'Ca1 Tb1 Dy2 Ga8 Ag4'
_cell_volume   315.09926849
_cell_formula_units_Z   1
loop_
 _symmetry_equiv_pos_site_id
 _symmetry_equiv_pos_as_xyz
  1  'x, y, z'
loop_
 _atom_site_type_symbol
 _atom_site_label
 _atom_site_symmetry_multiplicity
 _atom_site_fract_x
 _atom_site_fract_y
 _atom_site_fract_z
 _atom_site_occupancy
  Ca  Ca0  1  0.750000  0.223889  0.173783  1
  Tb  Tb1  1  0.250000  0.277979  0.672757  1
  Dy  Dy2  1  0.250000  0.779203  0.827520  1
  Dy  Dy3  1  0.750000  0.719793  0.326433  1
  Ga  Ga4  1  0.250000  0.924512  0.151648  1
  Ga  Ga5  1  0.750000  0.071727  0.843180  1
  Ga  Ga6  1  0.750000  0.575217  0.655667  1
  Ga  Ga7  1  0.250000  0.429391  0.350055  1
  Ga  Ga8  1  0.250000  0.705209  0.537064  1
  Ga  Ga9  1  0.750000  0.300150  0.466140  1
  Ga  Ga10  1  0.750000  0.796125  0.034660  1
  Ga  Ga11  1  0.250000  0.200306  0.963371  1
  Ag  Ag12  1  0.250000  0.542851  0.096267  1
  Ag  Ag13  1  0.750000  0.455041  0.902054  1
  Ag  Ag14  1  0.750000  0.955456  0.596191  1
  Ag  Ag15  1  0.250000  0.043151  0.403213  1
