# generated using pymatgen
data_PrHgPd3Au
_symmetry_space_group_name_H-M   'P 1'
_cell_length_a   5.52464669
_cell_length_b   5.52464687
_cell_length_c   5.48082196
_cell_angle_alpha   59.73513561
_cell_angle_beta   59.73513176
_cell_angle_gamma   59.99999587
_symmetry_Int_Tables_number   1
_chemical_formula_structural   PrHgPd3Au
_chemical_formula_sum   'Pr1 Hg1 Pd3 Au1'
_cell_volume   117.81196170
_cell_formula_units_Z   1
loop_
 _symmetry_equiv_pos_site_id
 _symmetry_equiv_pos_as_xyz
  1  'x, y, z'
loop_
 _atom_site_type_symbol
 _atom_site_label
 _atom_site_symmetry_multiplicity
 _atom_site_fract_x
 _atom_site_fract_y
 _atom_site_fract_z
 _atom_site_occupancy
  Pr  Pr0  1  0.249513  0.249513  0.251460  1
  Hg  Hg1  1  0.000295  0.000295  0.999115  1
  Pd  Pd2  1  0.625650  0.123594  0.625107  1
  Pd  Pd3  1  0.123594  0.625650  0.625107  1
  Pd  Pd4  1  0.625650  0.625650  0.625107  1
  Au  Au5  1  0.625298  0.625298  0.124105  1
