# generated using pymatgen
data_Ho5Tm(SnIr)6
_symmetry_space_group_name_H-M   'P 1'
_cell_length_a   7.51816000
_cell_length_b   7.45290855
_cell_length_c   7.89206600
_cell_angle_alpha   90.00000000
_cell_angle_beta   90.00000000
_cell_angle_gamma   120.33402185
_symmetry_Int_Tables_number   1
_chemical_formula_structural   Ho5Tm(SnIr)6
_chemical_formula_sum   'Ho5 Tm1 Sn6 Ir6'
_cell_volume   381.66916516
_cell_formula_units_Z   1
loop_
 _symmetry_equiv_pos_site_id
 _symmetry_equiv_pos_as_xyz
  1  'x, y, z'
loop_
 _atom_site_type_symbol
 _atom_site_label
 _atom_site_symmetry_multiplicity
 _atom_site_fract_x
 _atom_site_fract_y
 _atom_site_fract_z
 _atom_site_occupancy
  Ho  Ho0  1  0.406638  0.001927  0.250000  1
  Ho  Ho1  1  0.596453  0.595438  0.750000  1
  Ho  Ho2  1  0.595093  0.596817  0.250000  1
  Ho  Ho3  1  0.996338  0.402546  0.250000  1
  Ho  Ho4  1  0.005593  0.406398  0.750000  1
  Tm  Tm5  1  0.399372  0.997645  0.750000  1
  Sn  Sn6  1  0.260815  0.261874  0.498973  1
  Sn  Sn7  1  0.260815  0.261874  0.001027  1
  Sn  Sn8  1  0.742803  0.000440  0.995915  1
  Sn  Sn9  1  0.998005  0.737627  0.499263  1
  Sn  Sn10  1  0.742803  0.000440  0.504085  1
  Sn  Sn11  1  0.998005  0.737627  0.000737  1
  Ir  Ir12  1  0.662259  0.327083  0.506420  1
  Ir  Ir13  1  0.662259  0.327083  0.993580  1
  Ir  Ir14  1  0.334739  0.672698  0.999591  1
  Ir  Ir15  1  0.334739  0.672698  0.500409  1
  Ir  Ir16  1  0.004435  0.999874  0.750000  1
  Ir  Ir17  1  0.998839  0.999912  0.250000  1
