# generated using pymatgen
data_CsRb2Cu3As2
_symmetry_space_group_name_H-M   'P 1'
_cell_length_a   7.91346717
_cell_length_b   7.91346777
_cell_length_c   7.91346706
_cell_angle_alpha   45.97112719
_cell_angle_beta   45.97112239
_cell_angle_gamma   45.97112587
_symmetry_Int_Tables_number   1
_chemical_formula_structural   CsRb2Cu3As2
_chemical_formula_sum   'Cs1 Rb2 Cu3 As2'
_cell_volume   233.65409193
_cell_formula_units_Z   1
loop_
 _symmetry_equiv_pos_site_id
 _symmetry_equiv_pos_as_xyz
  1  'x, y, z'
loop_
 _atom_site_type_symbol
 _atom_site_label
 _atom_site_symmetry_multiplicity
 _atom_site_fract_x
 _atom_site_fract_y
 _atom_site_fract_z
 _atom_site_occupancy
  Cs  Cs0  1  0.500000  0.500000  0.500000  1
  Rb  Rb1  1  0.911007  0.911007  0.911007  1
  Rb  Rb2  1  0.088993  0.088993  0.088993  1
  Cu  Cu3  1  0.000000  0.500000  0.500000  1
  Cu  Cu4  1  0.500000  0.500000  0.000000  1
  Cu  Cu5  1  0.500000  0.000000  0.500000  1
  As  As6  1  0.259955  0.259955  0.259955  1
  As  As7  1  0.740045  0.740045  0.740045  1
