# generated using pymatgen
data_RbPr2CuS4
_symmetry_space_group_name_H-M   'P 1'
_cell_length_a   4.14214800
_cell_length_b   7.41810787
_cell_length_c   14.16684400
_cell_angle_alpha   90.00000000
_cell_angle_beta   90.00000000
_cell_angle_gamma   106.21195955
_symmetry_Int_Tables_number   1
_chemical_formula_structural   RbPr2CuS4
_chemical_formula_sum   'Rb2 Pr4 Cu2 S8'
_cell_volume   417.99356358
_cell_formula_units_Z   2
loop_
 _symmetry_equiv_pos_site_id
 _symmetry_equiv_pos_as_xyz
  1  'x, y, z'
loop_
 _atom_site_type_symbol
 _atom_site_label
 _atom_site_symmetry_multiplicity
 _atom_site_fract_x
 _atom_site_fract_y
 _atom_site_fract_z
 _atom_site_occupancy
  Rb  Rb0  1  0.105692  0.211385  0.250000  1
  Rb  Rb1  1  0.894307  0.788614  0.750000  1
  Pr  Pr2  1  0.365630  0.731261  0.061470  1
  Pr  Pr3  1  0.365630  0.731261  0.438530  1
  Pr  Pr4  1  0.634369  0.268739  0.561470  1
  Pr  Pr5  1  0.634369  0.268739  0.938530  1
  Cu  Cu6  1  0.833898  0.667798  0.250000  1
  Cu  Cu7  1  0.166101  0.332202  0.750000  1
  S  S8  1  0.000000  0.000000  0.000000  1
  S  S9  1  0.740238  0.480477  0.113014  1
  S  S10  1  0.423259  0.846517  0.250000  1
  S  S11  1  0.740238  0.480477  0.386986  1
  S  S12  1  0.000000  0.000000  0.500000  1
  S  S13  1  0.259762  0.519523  0.613014  1
  S  S14  1  0.576740  0.153482  0.750000  1
  S  S15  1  0.259762  0.519523  0.886986  1
