# generated using pymatgen
data_YHo2Al3Cu2Pd
_symmetry_space_group_name_H-M   'P 1'
_cell_length_a   7.10752943
_cell_length_b   7.07723743
_cell_length_c   3.99352500
_cell_angle_alpha   90.00000000
_cell_angle_beta   90.00000000
_cell_angle_gamma   120.01559897
_symmetry_Int_Tables_number   1
_chemical_formula_structural   YHo2Al3Cu2Pd
_chemical_formula_sum   'Y1 Ho2 Al3 Cu2 Pd1'
_cell_volume   173.94068862
_cell_formula_units_Z   1
loop_
 _symmetry_equiv_pos_site_id
 _symmetry_equiv_pos_as_xyz
  1  'x, y, z'
loop_
 _atom_site_type_symbol
 _atom_site_label
 _atom_site_symmetry_multiplicity
 _atom_site_fract_x
 _atom_site_fract_y
 _atom_site_fract_z
 _atom_site_occupancy
  Y  Y0  1  0.413194  0.414063  0.500000  1
  Ho  Ho1  1  0.586979  0.999705  0.500000  1
  Ho  Ho2  1  0.001114  0.587743  0.500000  1
  Al  Al3  1  0.766522  0.765233  0.000000  1
  Al  Al4  1  0.234920  0.001105  0.000000  1
  Al  Al5  1  0.999102  0.233633  0.000000  1
  Cu  Cu6  1  0.996994  0.998184  0.500000  1
  Cu  Cu7  1  0.331634  0.667631  0.000000  1
  Pd  Pd8  1  0.669541  0.332702  0.000000  1
