# generated using pymatgen
data_Tl2Si6SnO15
_symmetry_space_group_name_H-M   'P 1'
_cell_length_a   7.09113828
_cell_length_b   7.42160513
_cell_length_c   7.74346600
_cell_angle_alpha   99.58126553
_cell_angle_beta   105.17151153
_cell_angle_gamma   112.31179913
_symmetry_Int_Tables_number   1
_chemical_formula_structural   Tl2Si6SnO15
_chemical_formula_sum   'Tl2 Si6 Sn1 O15'
_cell_volume   347.37294783
_cell_formula_units_Z   1
loop_
 _symmetry_equiv_pos_site_id
 _symmetry_equiv_pos_as_xyz
  1  'x, y, z'
loop_
 _atom_site_type_symbol
 _atom_site_label
 _atom_site_symmetry_multiplicity
 _atom_site_fract_x
 _atom_site_fract_y
 _atom_site_fract_z
 _atom_site_occupancy
  Tl  Tl0  1  0.294232  0.717103  0.823915  1
  Tl  Tl1  1  0.705768  0.282897  0.176085  1
  Si  Si2  1  0.705066  0.815516  0.266573  1
  Si  Si3  1  0.294934  0.184484  0.733427  1
  Si  Si4  1  0.154835  0.837210  0.366031  1
  Si  Si5  1  0.845165  0.162790  0.633969  1
  Si  Si6  1  0.324512  0.503076  0.316218  1
  Si  Si7  1  0.675488  0.496924  0.683782  1
  Sn  Sn8  1  0.000000  0.000000  0.000000  1
  O  O9  1  0.467985  0.612538  0.192701  1
  O  O10  1  0.532015  0.387462  0.807299  1
  O  O11  1  0.220619  0.651413  0.391070  1
  O  O12  1  0.779381  0.348587  0.608930  1
  O  O13  1  0.873549  0.715514  0.806970  1
  O  O14  1  0.126451  0.284486  0.193030  1
  O  O15  1  0.896251  0.746237  0.349606  1
  O  O16  1  0.103749  0.253763  0.650394  1
  O  O17  1  0.736424  0.907550  0.094604  1
  O  O18  1  0.500000  0.500000  0.500000  1
  O  O19  1  0.297874  0.018480  0.566677  1
  O  O20  1  0.702126  0.981520  0.433323  1
  O  O21  1  0.813912  0.090188  0.813572  1
  O  O22  1  0.186088  0.909812  0.186428  1
  O  O23  1  0.263576  0.092450  0.905396  1
