# generated using pymatgen
data_Tb12DyLuRh6
_symmetry_space_group_name_H-M   'P 1'
_cell_length_a   9.82419200
_cell_length_b   9.82419127
_cell_length_c   6.19374200
_cell_angle_alpha   90.00000000
_cell_angle_beta   90.00000000
_cell_angle_gamma   120.00000246
_symmetry_Int_Tables_number   1
_chemical_formula_structural   Tb12DyLuRh6
_chemical_formula_sum   'Tb12 Dy1 Lu1 Rh6'
_cell_volume   517.69906739
_cell_formula_units_Z   1
loop_
 _symmetry_equiv_pos_site_id
 _symmetry_equiv_pos_as_xyz
  1  'x, y, z'
loop_
 _atom_site_type_symbol
 _atom_site_label
 _atom_site_symmetry_multiplicity
 _atom_site_fract_x
 _atom_site_fract_y
 _atom_site_fract_z
 _atom_site_occupancy
  Tb  Tb0  1  0.123782  0.876218  0.253891  1
  Tb  Tb1  1  0.752436  0.876218  0.253891  1
  Tb  Tb2  1  0.123782  0.247564  0.253891  1
  Tb  Tb3  1  0.875864  0.124136  0.754109  1
  Tb  Tb4  1  0.248271  0.124136  0.754109  1
  Tb  Tb5  1  0.875864  0.751729  0.754109  1
  Tb  Tb6  1  0.541060  0.458940  0.445102  1
  Tb  Tb7  1  0.917879  0.458940  0.445102  1
  Tb  Tb8  1  0.541060  0.082121  0.445102  1
  Tb  Tb9  1  0.459392  0.540608  0.945063  1
  Tb  Tb10  1  0.081218  0.540608  0.945063  1
  Tb  Tb11  1  0.459392  0.918782  0.945063  1
  Dy  Dy12  1  0.333333  0.666667  0.458294  1
  Lu  Lu13  1  0.666667  0.333333  0.960270  1
  Rh  Rh14  1  0.809143  0.190857  0.178464  1
  Rh  Rh15  1  0.381715  0.190857  0.178464  1
  Rh  Rh16  1  0.809143  0.618285  0.178464  1
  Rh  Rh17  1  0.190345  0.809655  0.679370  1
  Rh  Rh18  1  0.619308  0.809655  0.679370  1
  Rh  Rh19  1  0.190345  0.380692  0.679370  1
