# generated using pymatgen
data_SrPa5(Sb4Pt3)2
_symmetry_space_group_name_H-M   'P 1'
_cell_length_a   8.51819750
_cell_length_b   8.51655764
_cell_length_c   8.51787711
_cell_angle_alpha   109.31917010
_cell_angle_beta   109.75926669
_cell_angle_gamma   109.33860731
_symmetry_Int_Tables_number   1
_chemical_formula_structural   SrPa5(Sb4Pt3)2
_chemical_formula_sum   'Sr1 Pa5 Sb8 Pt6'
_cell_volume   475.66040616
_cell_formula_units_Z   1
loop_
 _symmetry_equiv_pos_site_id
 _symmetry_equiv_pos_as_xyz
  1  'x, y, z'
loop_
 _atom_site_type_symbol
 _atom_site_label
 _atom_site_symmetry_multiplicity
 _atom_site_fract_x
 _atom_site_fract_y
 _atom_site_fract_z
 _atom_site_occupancy
  Sr  Sr0  1  0.875001  0.249995  0.124999  1
  Pa  Pa1  1  0.625000  0.749996  0.375000  1
  Pa  Pa2  1  0.248346  0.123269  0.875987  1
  Pa  Pa3  1  0.752707  0.376734  0.625074  1
  Pa  Pa4  1  0.124025  0.872361  0.247282  1
  Pa  Pa5  1  0.374924  0.627642  0.751656  1
  Sb  Sb6  1  0.674149  0.496925  0.996319  1
  Sb  Sb7  1  0.499370  0.003057  0.677232  1
  Sb  Sb8  1  0.002390  0.676559  0.498457  1
  Sb  Sb9  1  0.821900  0.823472  0.825839  1
  Sb  Sb10  1  0.501569  0.003956  0.178088  1
  Sb  Sb11  1  0.174161  0.496028  0.997621  1
  Sb  Sb12  1  0.003675  0.177834  0.500639  1
  Sb  Sb13  1  0.322786  0.322161  0.325809  1
  Pt  Pt14  1  0.374986  0.250000  0.625020  1
  Pt  Pt15  1  0.125023  0.750029  0.875000  1
  Pt  Pt16  1  0.273820  0.639850  0.384288  1
  Pt  Pt17  1  0.744426  0.860145  0.133970  1
  Pt  Pt18  1  0.615685  0.389526  0.255526  1
  Pt  Pt19  1  0.866056  0.110460  0.726193  1
