# generated using pymatgen
data_Rb17Er5O16
_symmetry_space_group_name_H-M   'P 1'
_cell_length_a   20.46219539
_cell_length_b   20.46219481
_cell_length_c   7.35468994
_cell_angle_alpha   84.92913956
_cell_angle_beta   84.92914605
_cell_angle_gamma   159.37963172
_symmetry_Int_Tables_number   1
_chemical_formula_structural   Rb17Er5O16
_chemical_formula_sum   'Rb17 Er5 O16'
_cell_volume   943.01798995
_cell_formula_units_Z   1
loop_
 _symmetry_equiv_pos_site_id
 _symmetry_equiv_pos_as_xyz
  1  'x, y, z'
loop_
 _atom_site_type_symbol
 _atom_site_label
 _atom_site_symmetry_multiplicity
 _atom_site_fract_x
 _atom_site_fract_y
 _atom_site_fract_z
 _atom_site_occupancy
  Rb  Rb0  1  0.909190  0.081161  0.883282  1
  Rb  Rb1  1  0.776495  0.323194  0.461860  1
  Rb  Rb2  1  0.171416  0.826843  0.601623  1
  Rb  Rb3  1  0.329274  0.608150  0.010640  1
  Rb  Rb4  1  0.572947  0.480633  0.465436  1
  Rb  Rb5  1  0.001688  0.001688  0.578810  1
  Rb  Rb6  1  0.826843  0.171416  0.601623  1
  Rb  Rb7  1  0.480633  0.572947  0.465436  1
  Rb  Rb8  1  0.212286  0.674141  0.014404  1
  Rb  Rb9  1  0.323194  0.776495  0.461860  1
  Rb  Rb10  1  0.674141  0.212286  0.014404  1
  Rb  Rb11  1  0.081161  0.909190  0.883282  1
  Rb  Rb12  1  0.665592  0.391028  0.484907  1
  Rb  Rb13  1  0.608150  0.329274  0.010640  1
  Rb  Rb14  1  0.517011  0.424407  0.991436  1
  Rb  Rb15  1  0.424407  0.517011  0.991436  1
  Rb  Rb16  1  0.391028  0.665592  0.484907  1
  Er  Er17  1  0.997186  0.997186  0.073009  1
  Er  Er18  1  0.818152  0.176169  0.082717  1
  Er  Er19  1  0.176169  0.818152  0.082717  1
  Er  Er20  1  0.910965  0.090343  0.391043  1
  Er  Er21  1  0.090343  0.910965  0.391043  1
  O  O22  1  0.364191  0.178378  0.420903  1
  O  O23  1  0.125449  0.868062  0.195059  1
  O  O24  1  0.821509  0.634528  0.685835  1
  O  O25  1  0.178378  0.364191  0.420903  1
  O  O26  1  0.534657  0.908621  0.060864  1
  O  O27  1  0.634528  0.821509  0.685835  1
  O  O28  1  0.868062  0.125449  0.195059  1
  O  O29  1  0.725561  0.725561  0.044001  1
  O  O30  1  0.785803  0.213078  0.298486  1
  O  O31  1  0.089418  0.461317  0.792619  1
  O  O32  1  0.908621  0.534657  0.060864  1
  O  O33  1  0.213078  0.785803  0.298486  1
  O  O34  1  0.461317  0.089418  0.792619  1
  O  O35  1  0.955864  0.041703  0.246200  1
  O  O36  1  0.270249  0.270249  0.777879  1
  O  O37  1  0.041703  0.955864  0.246200  1
