# generated using pymatgen
data_TbDy3V2Cr2(WO6)4
_symmetry_space_group_name_H-M   'P 1'
_cell_length_a   7.44524344
_cell_length_b   5.24453796
_cell_length_c   11.18291800
_cell_angle_alpha   90.03305859
_cell_angle_beta   89.98022225
_cell_angle_gamma   89.98958911
_symmetry_Int_Tables_number   1
_chemical_formula_structural   TbDy3V2Cr2(WO6)4
_chemical_formula_sum   'Tb1 Dy3 V2 Cr2 W4 O24'
_cell_volume   436.65774841
_cell_formula_units_Z   1
loop_
 _symmetry_equiv_pos_site_id
 _symmetry_equiv_pos_as_xyz
  1  'x, y, z'
loop_
 _atom_site_type_symbol
 _atom_site_label
 _atom_site_symmetry_multiplicity
 _atom_site_fract_x
 _atom_site_fract_y
 _atom_site_fract_z
 _atom_site_occupancy
  Tb  Tb0  1  0.754559  0.294672  0.955980  1
  Dy  Dy1  1  0.253099  0.202676  0.047472  1
  Dy  Dy2  1  0.753102  0.702947  0.452680  1
  Dy  Dy3  1  0.254509  0.795330  0.543901  1
  V  V4  1  0.506213  0.300586  0.633801  1
  V  V5  1  0.006482  0.800629  0.866045  1
  Cr  Cr6  1  0.505812  0.699104  0.134150  1
  Cr  Cr7  1  0.006132  0.199018  0.366004  1
  W  W8  1  0.998344  0.692901  0.144483  1
  W  W9  1  0.498143  0.192914  0.355778  1
  W  W10  1  0.998658  0.307740  0.642216  1
  W  W11  1  0.498154  0.807484  0.857436  1
  O  O12  1  0.542929  0.992510  0.020972  1
  O  O13  1  0.959863  0.985041  0.029541  1
  O  O14  1  0.755828  0.574266  0.116900  1
  O  O15  1  0.246088  0.813557  0.142955  1
  O  O16  1  0.068938  0.373544  0.209480  1
  O  O17  1  0.437812  0.360917  0.213473  1
  O  O18  1  0.937883  0.861063  0.286760  1
  O  O19  1  0.569021  0.873751  0.290526  1
  O  O20  1  0.745968  0.313440  0.357498  1
  O  O21  1  0.255843  0.072838  0.383571  1
  O  O22  1  0.459016  0.485504  0.470665  1
  O  O23  1  0.043952  0.493037  0.479067  1
  O  O24  1  0.544357  0.004647  0.518729  1
  O  O25  1  0.959590  0.017047  0.525353  1
  O  O26  1  0.754936  0.428918  0.615735  1
  O  O27  1  0.246196  0.183834  0.642409  1
  O  O28  1  0.070879  0.625500  0.705453  1
  O  O29  1  0.436220  0.641086  0.715213  1
  O  O30  1  0.936824  0.140989  0.784409  1
  O  O31  1  0.570036  0.125081  0.794072  1
  O  O32  1  0.746154  0.685653  0.857290  1
  O  O33  1  0.254711  0.929296  0.884163  1
  O  O34  1  0.459132  0.517269  0.974503  1
  O  O35  1  0.045014  0.505193  0.981320  1
