# generated using pymatgen
data_Er4B16Mo2IrRh
_symmetry_space_group_name_H-M   'P 1'
_cell_length_a   3.57771100
_cell_length_b   5.98038635
_cell_length_c   11.58341346
_cell_angle_alpha   89.68586499
_cell_angle_beta   90.00000000
_cell_angle_gamma   90.00000000
_symmetry_Int_Tables_number   1
_chemical_formula_structural   Er4B16Mo2IrRh
_chemical_formula_sum   'Er4 B16 Mo2 Ir1 Rh1'
_cell_volume   247.83607837
_cell_formula_units_Z   1
loop_
 _symmetry_equiv_pos_site_id
 _symmetry_equiv_pos_as_xyz
  1  'x, y, z'
loop_
 _atom_site_type_symbol
 _atom_site_label
 _atom_site_symmetry_multiplicity
 _atom_site_fract_x
 _atom_site_fract_y
 _atom_site_fract_z
 _atom_site_occupancy
  Er  Er0  1  0.000000  0.627310  0.349601  1
  Er  Er1  1  0.000000  0.372568  0.650075  1
  Er  Er2  1  0.000000  0.129375  0.148382  1
  Er  Er3  1  0.000000  0.870350  0.851609  1
  B  B4  1  0.500000  0.788693  0.185859  1
  B  B5  1  0.500000  0.210992  0.814023  1
  B  B6  1  0.500000  0.290610  0.311875  1
  B  B7  1  0.500000  0.709365  0.688028  1
  B  B8  1  0.500000  0.864729  0.030753  1
  B  B9  1  0.500000  0.134956  0.969551  1
  B  B10  1  0.500000  0.367820  0.467810  1
  B  B11  1  0.500000  0.632072  0.532095  1
  B  B12  1  0.500000  0.884910  0.452892  1
  B  B13  1  0.500000  0.115092  0.547028  1
  B  B14  1  0.500000  0.386249  0.046972  1
  B  B15  1  0.500000  0.613341  0.952566  1
  B  B16  1  0.500000  0.975385  0.305317  1
  B  B17  1  0.500000  0.024250  0.694628  1
  B  B18  1  0.500000  0.475833  0.191856  1
  B  B19  1  0.500000  0.524765  0.808263  1
  Mo  Mo20  1  0.000000  0.128876  0.414126  1
  Mo  Mo21  1  0.000000  0.871190  0.586311  1
  Ir  Ir22  1  0.000000  0.357177  0.906085  1
  Rh  Rh23  1  0.000000  0.644095  0.094294  1
