# generated using pymatgen
data_Er4CuGeAs4Ir7
_symmetry_space_group_name_H-M   'P 1'
_cell_length_a   7.24255164
_cell_length_b   7.24255226
_cell_length_c   7.23885265
_cell_angle_alpha   110.18232677
_cell_angle_beta   107.78813491
_cell_angle_gamma   110.47664439
_symmetry_Int_Tables_number   1
_chemical_formula_structural   Er4CuGeAs4Ir7
_chemical_formula_sum   'Er4 Cu1 Ge1 As4 Ir7'
_cell_volume   292.03665332
_cell_formula_units_Z   1
loop_
 _symmetry_equiv_pos_site_id
 _symmetry_equiv_pos_as_xyz
  1  'x, y, z'
loop_
 _atom_site_type_symbol
 _atom_site_label
 _atom_site_symmetry_multiplicity
 _atom_site_fract_x
 _atom_site_fract_y
 _atom_site_fract_z
 _atom_site_occupancy
  Er  Er0  1  0.988879  0.999600  0.502235  1
  Er  Er1  1  0.988624  0.485730  0.988522  1
  Er  Er2  1  0.502791  0.999897  0.988522  1
  Er  Er3  1  0.502635  0.513356  0.502235  1
  Cu  Cu4  1  0.698130  0.999397  0.697527  1
  Ge  Ge5  1  0.999403  0.686413  0.685816  1
  As  As6  1  0.684475  0.684525  0.996917  1
  As  As7  1  0.328135  0.998359  0.326495  1
  As  As8  1  0.998377  0.318993  0.317370  1
  As  As9  1  0.312392  0.312442  0.996917  1
  Ir  Ir10  1  0.745849  0.250560  0.497485  1
  Ir  Ir11  1  0.746699  0.502069  0.248768  1
  Ir  Ir12  1  0.496619  0.250279  0.746897  1
  Ir  Ir13  1  0.246733  0.500846  0.747578  1
  Ir  Ir14  1  0.246926  0.751637  0.497485  1
  Ir  Ir15  1  0.496543  0.747339  0.243881  1
  Ir  Ir16  1  0.016791  0.998558  0.015350  1
