# generated using pymatgen
data_Ca5(AlAs3)2
_symmetry_space_group_name_H-M   'P 1'
_cell_length_a   4.18832900
_cell_length_b   11.41457600
_cell_length_c   13.23361500
_cell_angle_alpha   90.00000000
_cell_angle_beta   90.00000000
_cell_angle_gamma   90.00000000
_symmetry_Int_Tables_number   1
_chemical_formula_structural   Ca5(AlAs3)2
_chemical_formula_sum   'Ca10 Al4 As12'
_cell_volume   632.67266173
_cell_formula_units_Z   2
loop_
 _symmetry_equiv_pos_site_id
 _symmetry_equiv_pos_as_xyz
  1  'x, y, z'
loop_
 _atom_site_type_symbol
 _atom_site_label
 _atom_site_symmetry_multiplicity
 _atom_site_fract_x
 _atom_site_fract_y
 _atom_site_fract_z
 _atom_site_occupancy
  Ca  Ca0  1  0.500000  0.089283  0.751383  1
  Ca  Ca1  1  0.500000  0.589283  0.748617  1
  Ca  Ca2  1  0.500000  0.324962  0.513852  1
  Ca  Ca3  1  0.500000  0.675038  0.486148  1
  Ca  Ca4  1  0.500000  0.824962  0.986148  1
  Ca  Ca5  1  0.500000  0.910717  0.248617  1
  Ca  Ca6  1  0.500000  0.175038  0.013852  1
  Ca  Ca7  1  0.500000  0.500000  0.000000  1
  Ca  Ca8  1  0.500000  0.000000  0.500000  1
  Ca  Ca9  1  0.500000  0.410717  0.251383  1
  Al  Al10  1  0.000000  0.828467  0.787014  1
  Al  Al11  1  0.000000  0.171533  0.212986  1
  Al  Al12  1  0.000000  0.671533  0.287014  1
  Al  Al13  1  0.000000  0.328467  0.712986  1
  As  As14  1  0.500000  0.839116  0.681605  1
  As  As15  1  0.000000  0.481552  0.405222  1
  As  As16  1  0.500000  0.160884  0.318395  1
  As  As17  1  0.000000  0.018448  0.905222  1
  As  As18  1  0.000000  0.843298  0.401839  1
  As  As19  1  0.000000  0.981552  0.094778  1
  As  As20  1  0.000000  0.343298  0.098161  1
  As  As21  1  0.000000  0.518448  0.594778  1
  As  As22  1  0.000000  0.156702  0.598161  1
  As  As23  1  0.000000  0.656702  0.901839  1
  As  As24  1  0.500000  0.660884  0.181605  1
  As  As25  1  0.500000  0.339116  0.818395  1
