# generated using pymatgen
data_CsMnRhS3
_symmetry_space_group_name_H-M   'P 1'
_cell_length_a   7.75294519
_cell_length_b   7.75294393
_cell_length_c   5.41236691
_cell_angle_alpha   89.14454481
_cell_angle_beta   90.85545729
_cell_angle_gamma   103.92189579
_symmetry_Int_Tables_number   1
_chemical_formula_structural   CsMnRhS3
_chemical_formula_sum   'Cs2 Mn2 Rh2 S6'
_cell_volume   315.71399801
_cell_formula_units_Z   2
loop_
 _symmetry_equiv_pos_site_id
 _symmetry_equiv_pos_as_xyz
  1  'x, y, z'
loop_
 _atom_site_type_symbol
 _atom_site_label
 _atom_site_symmetry_multiplicity
 _atom_site_fract_x
 _atom_site_fract_y
 _atom_site_fract_z
 _atom_site_occupancy
  Cs  Cs0  1  0.178383  0.821616  0.240004  1
  Cs  Cs1  1  0.821615  0.178384  0.759995  1
  Mn  Mn2  1  0.363229  0.363226  0.500002  1
  Mn  Mn3  1  0.636774  0.636771  0.500002  1
  Rh  Rh4  1  0.357371  0.357373  0.999999  1
  Rh  Rh5  1  0.642627  0.642629  0.999999  1
  S  S6  1  0.131689  0.333953  0.274644  1
  S  S7  1  0.602551  0.397449  0.281913  1
  S  S8  1  0.666047  0.868311  0.274644  1
  S  S9  1  0.333952  0.131689  0.725358  1
  S  S10  1  0.397451  0.602549  0.718082  1
  S  S11  1  0.868311  0.666048  0.725358  1
