# generated using pymatgen
data_CePrMnN3
_symmetry_space_group_name_H-M   'P 1'
_cell_length_a   3.53807492
_cell_length_b   3.84319463
_cell_length_c   6.78449117
_cell_angle_alpha   106.45328961
_cell_angle_beta   105.11440016
_cell_angle_gamma   90.00001771
_symmetry_Int_Tables_number   1
_chemical_formula_structural   CePrMnN3
_chemical_formula_sum   'Ce1 Pr1 Mn1 N3'
_cell_volume   85.14180566
_cell_formula_units_Z   1
loop_
 _symmetry_equiv_pos_site_id
 _symmetry_equiv_pos_as_xyz
  1  'x, y, z'
loop_
 _atom_site_type_symbol
 _atom_site_label
 _atom_site_symmetry_multiplicity
 _atom_site_fract_x
 _atom_site_fract_y
 _atom_site_fract_z
 _atom_site_occupancy
  Ce  Ce0  1  0.353272  0.353272  0.706544  1
  Pr  Pr1  1  0.644565  0.644566  0.289134  1
  Mn  Mn2  1  0.000693  0.000693  0.001385  1
  N  N3  1  0.993778  0.493776  0.987553  1
  N  N4  1  0.165453  0.165453  0.330905  1
  N  N5  1  0.842239  0.842239  0.684479  1
