# generated using pymatgen
data_TlCl19
_symmetry_space_group_name_H-M   'P 1'
_cell_length_a   9.16512952
_cell_length_b   10.49819778
_cell_length_c   8.36386000
_cell_angle_alpha   64.35534568
_cell_angle_beta   77.94302046
_cell_angle_gamma   86.21201804
_symmetry_Int_Tables_number   1
_chemical_formula_structural   TlCl19
_chemical_formula_sum   'Tl1 Cl19'
_cell_volume   709.20287447
_cell_formula_units_Z   1
loop_
 _symmetry_equiv_pos_site_id
 _symmetry_equiv_pos_as_xyz
  1  'x, y, z'
loop_
 _atom_site_type_symbol
 _atom_site_label
 _atom_site_symmetry_multiplicity
 _atom_site_fract_x
 _atom_site_fract_y
 _atom_site_fract_z
 _atom_site_occupancy
  Tl  Tl0  1  0.806081  0.659919  0.360396  1
  Cl  Cl1  1  0.366588  0.495203  0.457749  1
  Cl  Cl2  1  0.920172  0.487770  0.996604  1
  Cl  Cl3  1  0.564984  0.401951  0.449601  1
  Cl  Cl4  1  0.114173  0.576017  0.981144  1
  Cl  Cl5  1  0.077051  0.684331  0.496164  1
  Cl  Cl6  1  0.630555  0.300501  0.974453  1
  Cl  Cl7  1  0.937985  0.440642  0.473865  1
  Cl  Cl8  1  0.396367  0.733252  0.958279  1
  Cl  Cl9  1  0.149184  0.862254  0.504273  1
  Cl  Cl10  1  0.715605  0.110289  0.008751  1
  Cl  Cl11  1  0.835197  0.160542  0.468298  1
  Cl  Cl12  1  0.291756  0.888873  0.014073  1
  Cl  Cl13  1  0.249404  0.092596  0.530933  1
  Cl  Cl14  1  0.842948  0.834992  0.050375  1
  Cl  Cl15  1  0.744837  0.975268  0.510531  1
  Cl  Cl16  1  0.131853  0.123582  0.070877  1
  Cl  Cl17  1  0.606975  0.707385  0.566409  1
  Cl  Cl18  1  0.217117  0.278664  0.828110  1
  Cl  Cl19  1  0.401170  0.185971  0.299116  1
