# generated using pymatgen
data_Sc5GaSn3
_symmetry_space_group_name_H-M   'P 1'
_cell_length_a   8.67951800
_cell_length_b   8.67951930
_cell_length_c   6.10891900
_cell_angle_alpha   90.00000000
_cell_angle_beta   90.00000000
_cell_angle_gamma   120.00000268
_symmetry_Int_Tables_number   1
_chemical_formula_structural   Sc5GaSn3
_chemical_formula_sum   'Sc10 Ga2 Sn6'
_cell_volume   398.55317009
_cell_formula_units_Z   2
loop_
 _symmetry_equiv_pos_site_id
 _symmetry_equiv_pos_as_xyz
  1  'x, y, z'
loop_
 _atom_site_type_symbol
 _atom_site_label
 _atom_site_symmetry_multiplicity
 _atom_site_fract_x
 _atom_site_fract_y
 _atom_site_fract_z
 _atom_site_occupancy
  Sc  Sc0  1  0.735738  0.735738  0.750000  1
  Sc  Sc1  1  0.264262  0.000000  0.750000  1
  Sc  Sc2  1  0.000000  0.264262  0.750000  1
  Sc  Sc3  1  0.264262  0.264262  0.250000  1
  Sc  Sc4  1  0.735738  0.000000  0.250000  1
  Sc  Sc5  1  0.000000  0.735738  0.250000  1
  Sc  Sc6  1  0.666667  0.333333  0.000000  1
  Sc  Sc7  1  0.333333  0.666667  0.000000  1
  Sc  Sc8  1  0.333333  0.666667  0.500000  1
  Sc  Sc9  1  0.666667  0.333333  0.500000  1
  Ga  Ga10  1  0.000000  0.000000  0.000000  1
  Ga  Ga11  1  0.000000  0.000000  0.500000  1
  Sn  Sn12  1  0.385457  0.385457  0.750000  1
  Sn  Sn13  1  0.614543  0.000000  0.750000  1
  Sn  Sn14  1  0.000000  0.614543  0.750000  1
  Sn  Sn15  1  0.614543  0.614543  0.250000  1
  Sn  Sn16  1  0.385457  0.000000  0.250000  1
  Sn  Sn17  1  0.000000  0.385457  0.250000  1
