# generated using pymatgen
data_TaTi2Al2AuN
_symmetry_space_group_name_H-M   'P 1'
_cell_length_a   8.31306980
_cell_length_b   8.30565855
_cell_length_c   8.31485606
_cell_angle_alpha   60.02286738
_cell_angle_beta   59.93428225
_cell_angle_gamma   60.03845638
_symmetry_Int_Tables_number   1
_chemical_formula_structural   TaTi2Al2AuN
_chemical_formula_sum   'Ta4 Ti8 Al8 Au4 N4'
_cell_volume   405.93825538
_cell_formula_units_Z   4
loop_
 _symmetry_equiv_pos_site_id
 _symmetry_equiv_pos_as_xyz
  1  'x, y, z'
loop_
 _atom_site_type_symbol
 _atom_site_label
 _atom_site_symmetry_multiplicity
 _atom_site_fract_x
 _atom_site_fract_y
 _atom_site_fract_z
 _atom_site_occupancy
  Ta  Ta0  1  0.927653  0.927660  0.572349  1
  Ta  Ta1  1  0.680187  0.320584  0.321832  1
  Ta  Ta2  1  0.320586  0.680192  0.677396  1
  Ta  Ta3  1  0.676044  0.676031  0.323962  1
  Ti  Ti4  1  0.677579  0.323243  0.674525  1
  Ti  Ti5  1  0.323235  0.677587  0.324641  1
  Ti  Ti6  1  0.573450  0.926243  0.572355  1
  Ti  Ti7  1  0.575741  0.924275  0.926358  1
  Ti  Ti8  1  0.924266  0.575738  0.573630  1
  Ti  Ti9  1  0.926248  0.573445  0.927960  1
  Ti  Ti10  1  0.324498  0.324493  0.675507  1
  Ti  Ti11  1  0.572523  0.572517  0.927478  1
  Al  Al12  1  0.912143  0.260863  0.914579  1
  Al  Al13  1  0.336740  0.335889  0.991086  1
  Al  Al14  1  0.994831  0.333406  0.336454  1
  Al  Al15  1  0.335896  0.336718  0.336297  1
  Al  Al16  1  0.260872  0.912145  0.912396  1
  Al  Al17  1  0.914163  0.912328  0.915308  1
  Al  Al18  1  0.912311  0.914178  0.258198  1
  Al  Al19  1  0.333416  0.994841  0.335310  1
  Au  Au20  1  0.125895  0.624434  0.127122  1
  Au  Au21  1  0.124216  0.129148  0.626839  1
  Au  Au22  1  0.624434  0.125901  0.122554  1
  Au  Au23  1  0.129151  0.124206  0.119797  1
  N  N24  1  0.619867  0.124459  0.629433  1
  N  N25  1  0.623242  0.626356  0.120419  1
  N  N26  1  0.124462  0.619869  0.626239  1
  N  N27  1  0.626352  0.623248  0.629977  1
