# generated using pymatgen
data_SmZr7(Si4Mo3)4
_symmetry_space_group_name_H-M   'P 1'
_cell_length_a   6.64415650
_cell_length_b   6.79413890
_cell_length_c   12.75743959
_cell_angle_alpha   90.06578573
_cell_angle_beta   89.99427502
_cell_angle_gamma   89.97311033
_symmetry_Int_Tables_number   1
_chemical_formula_structural   SmZr7(Si4Mo3)4
_chemical_formula_sum   'Sm1 Zr7 Si16 Mo12'
_cell_volume   575.88724352
_cell_formula_units_Z   1
loop_
 _symmetry_equiv_pos_site_id
 _symmetry_equiv_pos_as_xyz
  1  'x, y, z'
loop_
 _atom_site_type_symbol
 _atom_site_label
 _atom_site_symmetry_multiplicity
 _atom_site_fract_x
 _atom_site_fract_y
 _atom_site_fract_z
 _atom_site_occupancy
  Sm  Sm0  1  0.998355  0.167387  0.091585  1
  Zr  Zr1  1  0.498685  0.329668  0.092748  1
  Zr  Zr2  1  0.997125  0.172315  0.406844  1
  Zr  Zr3  1  0.503340  0.672141  0.593614  1
  Zr  Zr4  1  0.003913  0.825763  0.902202  1
  Zr  Zr5  1  0.505290  0.670833  0.904287  1
  Zr  Zr6  1  0.003701  0.828677  0.594212  1
  Zr  Zr7  1  0.496356  0.329179  0.409580  1
  Si  Si8  1  0.666094  0.041604  0.543263  1
  Si  Si9  1  0.167686  0.462526  0.954201  1
  Si  Si10  1  0.341446  0.954120  0.041478  1
  Si  Si11  1  0.834374  0.541565  0.458206  1
  Si  Si12  1  0.332969  0.958335  0.458470  1
  Si  Si13  1  0.833015  0.547113  0.041574  1
  Si  Si14  1  0.663607  0.039795  0.953928  1
  Si  Si15  1  0.165545  0.458370  0.543875  1
  Si  Si16  1  0.531765  0.376591  0.748654  1
  Si  Si17  1  0.032594  0.125834  0.750416  1
  Si  Si18  1  0.466862  0.624607  0.251077  1
  Si  Si19  1  0.965111  0.869873  0.253070  1
  Si  Si20  1  0.797495  0.635895  0.748219  1
  Si  Si21  1  0.299591  0.864688  0.748915  1
  Si  Si22  1  0.203867  0.364676  0.252527  1
  Si  Si23  1  0.695757  0.137904  0.252675  1
  Mo  Mo24  1  0.831407  0.334903  0.623586  1
  Mo  Mo25  1  0.334178  0.165504  0.874888  1
  Mo  Mo26  1  0.168513  0.664013  0.124480  1
  Mo  Mo27  1  0.665450  0.834193  0.378045  1
  Mo  Mo28  1  0.169616  0.663174  0.377995  1
  Mo  Mo29  1  0.665173  0.833594  0.125376  1
  Mo  Mo30  1  0.829396  0.337991  0.873925  1
  Mo  Mo31  1  0.331182  0.165159  0.623628  1
  Mo  Mo32  1  0.666537  0.989025  0.748134  1
  Mo  Mo33  1  0.165560  0.513259  0.749364  1
  Mo  Mo34  1  0.334560  0.007503  0.252716  1
  Mo  Mo35  1  0.833888  0.492223  0.252239  1
