# generated using pymatgen
data_NpBeB4
_symmetry_space_group_name_H-M   'P 1'
_cell_length_a   6.64363194
_cell_length_b   6.64362846
_cell_length_c   6.64363544
_cell_angle_alpha   113.65777323
_cell_angle_beta   113.65757303
_cell_angle_gamma   101.38832190
_symmetry_Int_Tables_number   1
_chemical_formula_structural   NpBeB4
_chemical_formula_sum   'Np4 Be4 B16'
_cell_volume   222.43126465
_cell_formula_units_Z   4
loop_
 _symmetry_equiv_pos_site_id
 _symmetry_equiv_pos_as_xyz
  1  'x, y, z'
loop_
 _atom_site_type_symbol
 _atom_site_label
 _atom_site_symmetry_multiplicity
 _atom_site_fract_x
 _atom_site_fract_y
 _atom_site_fract_z
 _atom_site_occupancy
  Np  Np0  1  0.194920  0.194919  0.999999  1
  Np  Np1  1  0.805067  0.805068  0.999999  1
  Np  Np2  1  0.749994  0.249994  0.500000  1
  Np  Np3  1  0.249997  0.749997  0.500000  1
  Be  Be4  1  0.499995  0.280140  0.780144  1
  Be  Be5  1  0.499995  0.719851  0.219856  1
  Be  Be6  1  0.719875  0.500021  0.219855  1
  Be  Be7  1  0.280166  0.500021  0.780146  1
  B  B8  1  0.113269  0.283297  0.396588  1
  B  B9  1  0.886708  0.716681  0.603412  1
  B  B10  1  0.886708  0.283297  0.170028  1
  B  B11  1  0.113270  0.716681  0.829972  1
  B  B12  1  0.716697  0.886726  0.603410  1
  B  B13  1  0.283315  0.113286  0.396589  1
  B  B14  1  0.716697  0.113286  0.829971  1
  B  B15  1  0.283315  0.886726  0.170029  1
  B  B16  1  0.425997  0.426006  0.542034  1
  B  B17  1  0.883973  0.883963  0.457966  1
  B  B18  1  0.574009  0.116017  0.999991  1
  B  B19  1  0.116027  0.574019  0.000009  1
  B  B20  1  0.574010  0.574019  0.457992  1
  B  B21  1  0.116026  0.116017  0.542008  1
  B  B22  1  0.883973  0.426006  0.000010  1
  B  B23  1  0.425996  0.883963  0.999990  1
