# generated using pymatgen
data_Hf2Nb4Co16Si6As
_symmetry_space_group_name_H-M   'P 1'
_cell_length_a   7.96518102
_cell_length_b   7.96518148
_cell_length_c   7.95257700
_cell_angle_alpha   60.05233730
_cell_angle_beta   60.05233538
_cell_angle_gamma   59.91230861
_symmetry_Int_Tables_number   1
_chemical_formula_structural   Hf2Nb4Co16Si6As
_chemical_formula_sum   'Hf2 Nb4 Co16 Si6 As1'
_cell_volume   356.81098243
_cell_formula_units_Z   1
loop_
 _symmetry_equiv_pos_site_id
 _symmetry_equiv_pos_as_xyz
  1  'x, y, z'
loop_
 _atom_site_type_symbol
 _atom_site_label
 _atom_site_symmetry_multiplicity
 _atom_site_fract_x
 _atom_site_fract_y
 _atom_site_fract_z
 _atom_site_occupancy
  Hf  Hf0  1  0.202213  0.797787  0.203363  1
  Hf  Hf1  1  0.202213  0.797787  0.796637  1
  Nb  Nb2  1  0.798341  0.201659  0.200621  1
  Nb  Nb3  1  0.795372  0.797609  0.203509  1
  Nb  Nb4  1  0.202391  0.204628  0.796491  1
  Nb  Nb5  1  0.798341  0.201659  0.799379  1
  Co  Co6  1  0.167443  0.167728  0.167218  1
  Co  Co7  1  0.503582  0.832534  0.831943  1
  Co  Co8  1  0.833269  0.500521  0.833106  1
  Co  Co9  1  0.832272  0.832557  0.502388  1
  Co  Co10  1  0.167466  0.496418  0.168057  1
  Co  Co11  1  0.167443  0.167728  0.497612  1
  Co  Co12  1  0.499479  0.166731  0.166894  1
  Co  Co13  1  0.832272  0.832557  0.832782  1
  Co  Co14  1  0.382183  0.377181  0.381232  1
  Co  Co15  1  0.137624  0.617697  0.622340  1
  Co  Co16  1  0.619317  0.143285  0.618700  1
  Co  Co17  1  0.622819  0.617817  0.140596  1
  Co  Co18  1  0.382303  0.862376  0.377660  1
  Co  Co19  1  0.382183  0.377181  0.859404  1
  Co  Co20  1  0.856715  0.380683  0.381300  1
  Co  Co21  1  0.622819  0.617817  0.618768  1
  Si  Si22  1  0.998343  0.499363  0.001792  1
  Si  Si23  1  0.500637  0.001657  0.998208  1
  Si  Si24  1  0.998343  0.499363  0.500501  1
  Si  Si25  1  0.500637  0.001657  0.499499  1
  Si  Si26  1  0.996373  0.003627  0.500000  1
  Si  Si27  1  0.501188  0.498812  0.000000  1
  As  As28  1  0.496420  0.503580  0.500000  1
