# generated using pymatgen
data_Er3Lu9(IrOs)2
_symmetry_space_group_name_H-M   'P 1'
_cell_length_a   7.23791733
_cell_length_b   8.87636600
_cell_length_c   6.25664629
_cell_angle_alpha   90.00000000
_cell_angle_beta   89.96524238
_cell_angle_gamma   90.00000000
_symmetry_Int_Tables_number   1
_chemical_formula_structural   Er3Lu9(IrOs)2
_chemical_formula_sum   'Er3 Lu9 Ir2 Os2'
_cell_volume   401.96694691
_cell_formula_units_Z   1
loop_
 _symmetry_equiv_pos_site_id
 _symmetry_equiv_pos_as_xyz
  1  'x, y, z'
loop_
 _atom_site_type_symbol
 _atom_site_label
 _atom_site_symmetry_multiplicity
 _atom_site_fract_x
 _atom_site_fract_y
 _atom_site_fract_z
 _atom_site_occupancy
  Er  Er0  1  0.536036  0.250000  0.876467  1
  Er  Er1  1  0.035884  0.250000  0.623881  1
  Er  Er2  1  0.464920  0.750000  0.122210  1
  Lu  Lu3  1  0.676374  0.059190  0.331799  1
  Lu  Lu4  1  0.174770  0.441280  0.169125  1
  Lu  Lu5  1  0.323365  0.563903  0.671975  1
  Lu  Lu6  1  0.823970  0.935835  0.826213  1
  Lu  Lu7  1  0.323365  0.936097  0.671975  1
  Lu  Lu8  1  0.823970  0.564165  0.826213  1
  Lu  Lu9  1  0.676374  0.440810  0.331799  1
  Lu  Lu10  1  0.174770  0.058720  0.169125  1
  Lu  Lu11  1  0.964464  0.750000  0.377331  1
  Ir  Ir12  1  0.885358  0.250000  0.043415  1
  Ir  Ir13  1  0.385137  0.250000  0.457438  1
  Os  Os14  1  0.114694  0.750000  0.964456  1
  Os  Os15  1  0.616552  0.750000  0.536577  1
