# generated using pymatgen
data_Tb4DyInGa2
_symmetry_space_group_name_H-M   'P 1'
_cell_length_a   7.76159200
_cell_length_b   7.76159200
_cell_length_c   14.39933800
_cell_angle_alpha   90.00000000
_cell_angle_beta   90.00000000
_cell_angle_gamma   90.00000000
_symmetry_Int_Tables_number   1
_chemical_formula_structural   Tb4DyInGa2
_chemical_formula_sum   'Tb16 Dy4 In4 Ga8'
_cell_volume   867.44938898
_cell_formula_units_Z   4
loop_
 _symmetry_equiv_pos_site_id
 _symmetry_equiv_pos_as_xyz
  1  'x, y, z'
loop_
 _atom_site_type_symbol
 _atom_site_label
 _atom_site_symmetry_multiplicity
 _atom_site_fract_x
 _atom_site_fract_y
 _atom_site_fract_z
 _atom_site_occupancy
  Tb  Tb0  1  0.672814  0.661297  0.605655  1
  Tb  Tb1  1  0.672814  0.338703  0.105655  1
  Tb  Tb2  1  0.827186  0.838703  0.394345  1
  Tb  Tb3  1  0.172814  0.838703  0.894345  1
  Tb  Tb4  1  0.327186  0.338703  0.605655  1
  Tb  Tb5  1  0.327186  0.661297  0.105655  1
  Tb  Tb6  1  0.172814  0.161297  0.394345  1
  Tb  Tb7  1  0.827186  0.161297  0.894345  1
  Tb  Tb8  1  0.661297  0.327186  0.394345  1
  Tb  Tb9  1  0.338703  0.327186  0.894345  1
  Tb  Tb10  1  0.161297  0.827186  0.605655  1
  Tb  Tb11  1  0.838703  0.827186  0.105655  1
  Tb  Tb12  1  0.338703  0.672814  0.394345  1
  Tb  Tb13  1  0.661297  0.672814  0.894345  1
  Tb  Tb14  1  0.838703  0.172814  0.605655  1
  Tb  Tb15  1  0.161297  0.172814  0.105655  1
  Dy  Dy16  1  0.000000  0.500000  0.759936  1
  Dy  Dy17  1  0.000000  0.500000  0.259936  1
  Dy  Dy18  1  0.500000  0.000000  0.240064  1
  Dy  Dy19  1  0.500000  0.000000  0.740064  1
  In  In20  1  0.000000  0.500000  0.495598  1
  In  In21  1  0.000000  0.500000  0.995598  1
  In  In22  1  0.500000  0.000000  0.504402  1
  In  In23  1  0.500000  0.000000  0.004402  1
  Ga  Ga24  1  0.875661  0.875661  0.750000  1
  Ga  Ga25  1  0.875661  0.124339  0.250000  1
  Ga  Ga26  1  0.624339  0.624339  0.250000  1
  Ga  Ga27  1  0.375661  0.624339  0.750000  1
  Ga  Ga28  1  0.124339  0.124339  0.750000  1
  Ga  Ga29  1  0.124339  0.875661  0.250000  1
  Ga  Ga30  1  0.375661  0.375661  0.250000  1
  Ga  Ga31  1  0.624339  0.375661  0.750000  1
