# generated using pymatgen
data_Tb13Dy6LuSn16
_symmetry_space_group_name_H-M   'P 1'
_cell_length_a   8.05093602
_cell_length_b   8.20112142
_cell_length_c   15.50226900
_cell_angle_alpha   90.00421975
_cell_angle_beta   89.99627087
_cell_angle_gamma   89.96657066
_symmetry_Int_Tables_number   1
_chemical_formula_structural   Tb13Dy6LuSn16
_chemical_formula_sum   'Tb13 Dy6 Lu1 Sn16'
_cell_volume   1023.56354441
_cell_formula_units_Z   1
loop_
 _symmetry_equiv_pos_site_id
 _symmetry_equiv_pos_as_xyz
  1  'x, y, z'
loop_
 _atom_site_type_symbol
 _atom_site_label
 _atom_site_symmetry_multiplicity
 _atom_site_fract_x
 _atom_site_fract_y
 _atom_site_fract_z
 _atom_site_occupancy
  Tb  Tb0  1  0.132605  0.336410  0.121381  1
  Tb  Tb1  1  0.632575  0.163617  0.121833  1
  Tb  Tb2  1  0.132515  0.336412  0.378613  1
  Tb  Tb3  1  0.367197  0.836273  0.622288  1
  Tb  Tb4  1  0.867987  0.663190  0.877733  1
  Tb  Tb5  1  0.519780  0.320727  0.901899  1
  Tb  Tb6  1  0.020277  0.179886  0.598064  1
  Tb  Tb7  1  0.480167  0.679743  0.402541  1
  Tb  Tb8  1  0.979983  0.820234  0.097713  1
  Tb  Tb9  1  0.480188  0.679661  0.097426  1
  Tb  Tb10  1  0.979944  0.820258  0.402394  1
  Tb  Tb11  1  0.519845  0.320800  0.598016  1
  Tb  Tb12  1  0.020245  0.179741  0.901863  1
  Dy  Dy13  1  0.367102  0.836364  0.877586  1
  Dy  Dy14  1  0.867827  0.663129  0.622242  1
  Dy  Dy15  1  0.632666  0.163486  0.378298  1
  Dy  Dy16  1  0.698457  0.997881  0.749904  1
  Dy  Dy17  1  0.800986  0.497530  0.250137  1
  Dy  Dy18  1  0.301118  0.002331  0.250047  1
  Lu  Lu19  1  0.199097  0.502975  0.750025  1
  Sn  Sn20  1  0.292917  0.035348  0.041327  1
  Sn  Sn21  1  0.792453  0.463869  0.458622  1
  Sn  Sn22  1  0.707367  0.963887  0.542139  1
  Sn  Sn23  1  0.207618  0.535894  0.956857  1
  Sn  Sn24  1  0.706734  0.964023  0.957587  1
  Sn  Sn25  1  0.206885  0.535668  0.543130  1
  Sn  Sn26  1  0.293269  0.035664  0.458391  1
  Sn  Sn27  1  0.792599  0.463982  0.041539  1
  Sn  Sn28  1  0.563898  0.618297  0.749915  1
  Sn  Sn29  1  0.065359  0.880534  0.749921  1
  Sn  Sn30  1  0.434498  0.381586  0.250200  1
  Sn  Sn31  1  0.934526  0.118468  0.250213  1
  Sn  Sn32  1  0.328334  0.148859  0.750029  1
  Sn  Sn33  1  0.829497  0.353612  0.749864  1
  Sn  Sn34  1  0.671513  0.853338  0.250171  1
  Sn  Sn35  1  0.171970  0.646322  0.250091  1
