# generated using pymatgen
data_UP4AuO14
_symmetry_space_group_name_H-M   'P 1'
_cell_length_a   8.98165341
_cell_length_b   5.03924060
_cell_length_c   7.58127366
_cell_angle_alpha   69.57995155
_cell_angle_beta   97.77846109
_cell_angle_gamma   92.04416321
_symmetry_Int_Tables_number   1
_chemical_formula_structural   UP4AuO14
_chemical_formula_sum   'U1 P4 Au1 O14'
_cell_volume   318.58780284
_cell_formula_units_Z   1
loop_
 _symmetry_equiv_pos_site_id
 _symmetry_equiv_pos_as_xyz
  1  'x, y, z'
loop_
 _atom_site_type_symbol
 _atom_site_label
 _atom_site_symmetry_multiplicity
 _atom_site_fract_x
 _atom_site_fract_y
 _atom_site_fract_z
 _atom_site_occupancy
  U  U0  1  0.052113  0.197360  0.290785  1
  P  P1  1  0.852522  0.591782  0.492564  1
  P  P2  1  0.271570  0.792093  0.113705  1
  P  P3  1  0.775789  0.228551  0.876202  1
  P  P4  1  0.382307  0.407984  0.498808  1
  Au  Au5  1  0.563568  0.790245  0.720520  1
  O  O6  1  0.741216  0.939346  0.852744  1
  O  O7  1  0.334031  0.895043  0.932839  1
  O  O8  1  0.993425  0.788613  0.474176  1
  O  O9  1  0.705114  0.737421  0.428027  1
  O  O10  1  0.384956  0.608311  0.614259  1
  O  O11  1  0.634245  0.389659  0.879560  1
  O  O12  1  0.876280  0.412649  0.719806  1
  O  O13  1  0.395317  0.596188  0.281716  1
  O  O14  1  0.128217  0.597844  0.121327  1
  O  O15  1  0.886807  0.372034  0.399975  1
  O  O16  1  0.225423  0.270700  0.501880  1
  O  O17  1  0.512861  0.195716  0.548175  1
  O  O18  1  0.884625  0.165776  0.061601  1
  O  O19  1  0.222824  0.022684  0.191330  1
