# generated using pymatgen
data_La2BiSbO7
_symmetry_space_group_name_H-M   'P 1'
_cell_length_a   6.78268639
_cell_length_b   6.78268694
_cell_length_c   7.77756200
_cell_angle_alpha   90.00000000
_cell_angle_beta   90.00000000
_cell_angle_gamma   110.94682380
_symmetry_Int_Tables_number   1
_chemical_formula_structural   La2BiSbO7
_chemical_formula_sum   'La4 Bi2 Sb2 O14'
_cell_volume   334.15905786
_cell_formula_units_Z   2
loop_
 _symmetry_equiv_pos_site_id
 _symmetry_equiv_pos_as_xyz
  1  'x, y, z'
loop_
 _atom_site_type_symbol
 _atom_site_label
 _atom_site_symmetry_multiplicity
 _atom_site_fract_x
 _atom_site_fract_y
 _atom_site_fract_z
 _atom_site_occupancy
  La  La0  1  0.003970  0.996030  0.500000  1
  La  La1  1  0.003970  0.996030  0.000000  1
  La  La2  1  0.491079  0.950815  0.750000  1
  La  La3  1  0.049185  0.508921  0.250000  1
  Bi  Bi4  1  0.516555  0.036965  0.250000  1
  Bi  Bi5  1  0.963035  0.483445  0.750000  1
  Sb  Sb6  1  0.498787  0.501213  0.500000  1
  Sb  Sb7  1  0.498787  0.501213  0.000000  1
  O  O8  1  0.432273  0.191591  0.532583  1
  O  O9  1  0.808409  0.567727  0.467417  1
  O  O10  1  0.432273  0.191591  0.967417  1
  O  O11  1  0.808409  0.567727  0.032583  1
  O  O12  1  0.558701  0.815926  0.464499  1
  O  O13  1  0.184074  0.441299  0.535501  1
  O  O14  1  0.558701  0.815926  0.035501  1
  O  O15  1  0.184074  0.441299  0.964499  1
  O  O16  1  0.162995  0.881726  0.250000  1
  O  O17  1  0.118274  0.837005  0.750000  1
  O  O18  1  0.860601  0.103549  0.750000  1
  O  O19  1  0.896451  0.139399  0.250000  1
  O  O20  1  0.409158  0.439761  0.250000  1
  O  O21  1  0.560239  0.590842  0.750000  1
