# generated using pymatgen
data_TbY3Th6(Si3C)2
_symmetry_space_group_name_H-M   'P 1'
_cell_length_a   8.75937500
_cell_length_b   8.75937502
_cell_length_c   6.39057100
_cell_angle_alpha   90.00000000
_cell_angle_beta   90.00000000
_cell_angle_gamma   120.00000372
_symmetry_Int_Tables_number   1
_chemical_formula_structural   TbY3Th6(Si3C)2
_chemical_formula_sum   'Tb1 Y3 Th6 Si6 C2'
_cell_volume   424.63571557
_cell_formula_units_Z   1
loop_
 _symmetry_equiv_pos_site_id
 _symmetry_equiv_pos_as_xyz
  1  'x, y, z'
loop_
 _atom_site_type_symbol
 _atom_site_label
 _atom_site_symmetry_multiplicity
 _atom_site_fract_x
 _atom_site_fract_y
 _atom_site_fract_z
 _atom_site_occupancy
  Tb  Tb0  1  0.666667  0.333333  0.000000  1
  Y  Y1  1  0.333333  0.666667  0.000000  1
  Y  Y2  1  0.333333  0.666667  0.500000  1
  Y  Y3  1  0.666667  0.333333  0.500000  1
  Th  Th4  1  0.767000  0.767015  0.749965  1
  Th  Th5  1  0.232985  0.999985  0.749965  1
  Th  Th6  1  0.000015  0.233000  0.749965  1
  Th  Th7  1  0.232985  0.233000  0.250035  1
  Th  Th8  1  0.767000  0.999985  0.250035  1
  Th  Th9  1  0.000015  0.767015  0.250035  1
  Si  Si10  1  0.401861  0.401932  0.749972  1
  Si  Si11  1  0.598068  0.999929  0.749972  1
  Si  Si12  1  0.000071  0.598139  0.749972  1
  Si  Si13  1  0.598068  0.598139  0.250028  1
  Si  Si14  1  0.401861  0.999929  0.250028  1
  Si  Si15  1  0.000071  0.401932  0.250028  1
  C  C16  1  0.000000  0.000000  0.000000  1
  C  C17  1  0.000000  0.000000  0.500000  1
