# generated using pymatgen
data_U4VTc3C8
_symmetry_space_group_name_H-M   'P 1'
_cell_length_a   3.17386500
_cell_length_b   5.57300606
_cell_length_c   10.99301612
_cell_angle_alpha   89.98298787
_cell_angle_beta   90.00000000
_cell_angle_gamma   90.00000000
_symmetry_Int_Tables_number   1
_chemical_formula_structural   U4VTc3C8
_chemical_formula_sum   'U4 V1 Tc3 C8'
_cell_volume   194.44411851
_cell_formula_units_Z   1
loop_
 _symmetry_equiv_pos_site_id
 _symmetry_equiv_pos_as_xyz
  1  'x, y, z'
loop_
 _atom_site_type_symbol
 _atom_site_label
 _atom_site_symmetry_multiplicity
 _atom_site_fract_x
 _atom_site_fract_y
 _atom_site_fract_z
 _atom_site_occupancy
  U  U0  1  0.250000  0.079534  0.859351  1
  U  U1  1  0.250000  0.585162  0.642982  1
  U  U2  1  0.750000  0.919241  0.140594  1
  U  U3  1  0.750000  0.416512  0.356616  1
  V  V4  1  0.250000  0.420679  0.099983  1
  Tc  Tc5  1  0.250000  0.915896  0.395278  1
  Tc  Tc6  1  0.750000  0.573792  0.900852  1
  Tc  Tc7  1  0.750000  0.085587  0.602335  1
  C  C8  1  0.250000  0.165448  0.241487  1
  C  C9  1  0.250000  0.659326  0.253140  1
  C  C10  1  0.750000  0.840354  0.755944  1
  C  C11  1  0.750000  0.340061  0.745778  1
  C  C12  1  0.250000  0.739010  0.995313  1
  C  C13  1  0.250000  0.245414  0.506264  1
  C  C14  1  0.750000  0.257614  0.011611  1
  C  C15  1  0.750000  0.756370  0.492471  1
