# generated using pymatgen
data_Tm2Si2Pt2Rh
_symmetry_space_group_name_H-M   'P 1'
_cell_length_a   4.20287300
_cell_length_b   6.60400300
_cell_length_c   8.73155900
_cell_angle_alpha   90.00000000
_cell_angle_beta   90.00000000
_cell_angle_gamma   90.00000000
_symmetry_Int_Tables_number   1
_chemical_formula_structural   Tm2Si2Pt2Rh
_chemical_formula_sum   'Tm4 Si4 Pt4 Rh2'
_cell_volume   242.35128218
_cell_formula_units_Z   2
loop_
 _symmetry_equiv_pos_site_id
 _symmetry_equiv_pos_as_xyz
  1  'x, y, z'
loop_
 _atom_site_type_symbol
 _atom_site_label
 _atom_site_symmetry_multiplicity
 _atom_site_fract_x
 _atom_site_fract_y
 _atom_site_fract_z
 _atom_site_occupancy
  Tm  Tm0  1  0.000000  0.884521  0.330971  1
  Tm  Tm1  1  0.000000  0.115479  0.669029  1
  Tm  Tm2  1  0.000000  0.384521  0.169029  1
  Tm  Tm3  1  0.000000  0.615479  0.830971  1
  Si  Si4  1  0.500000  0.569781  0.356680  1
  Si  Si5  1  0.500000  0.430219  0.643320  1
  Si  Si6  1  0.500000  0.069781  0.143320  1
  Si  Si7  1  0.500000  0.930219  0.856680  1
  Pt  Pt8  1  0.500000  0.694711  0.086744  1
  Pt  Pt9  1  0.500000  0.305289  0.913256  1
  Pt  Pt10  1  0.500000  0.194711  0.413256  1
  Pt  Pt11  1  0.500000  0.805289  0.586744  1
  Rh  Rh12  1  0.000000  0.500000  0.500000  1
  Rh  Rh13  1  0.000000  0.000000  0.000000  1
