# generated using pymatgen
data_YReF7
_symmetry_space_group_name_H-M   'P 1'
_cell_length_a   5.64075300
_cell_length_b   8.97226945
_cell_length_c   12.09264392
_cell_angle_alpha   62.54016993
_cell_angle_beta   90.00000000
_cell_angle_gamma   90.00000000
_symmetry_Int_Tables_number   1
_chemical_formula_structural   YReF7
_chemical_formula_sum   'Y4 Re4 F28'
_cell_volume   543.06016554
_cell_formula_units_Z   4
loop_
 _symmetry_equiv_pos_site_id
 _symmetry_equiv_pos_as_xyz
  1  'x, y, z'
loop_
 _atom_site_type_symbol
 _atom_site_label
 _atom_site_symmetry_multiplicity
 _atom_site_fract_x
 _atom_site_fract_y
 _atom_site_fract_z
 _atom_site_occupancy
  Y  Y0  1  0.258278  0.814027  0.264744  1
  Y  Y1  1  0.741722  0.185973  0.735256  1
  Y  Y2  1  0.758278  0.185973  0.235256  1
  Y  Y3  1  0.241722  0.814027  0.764744  1
  Re  Re4  1  0.757408  0.726364  0.043525  1
  Re  Re5  1  0.242592  0.273636  0.956475  1
  Re  Re6  1  0.257408  0.273636  0.456475  1
  Re  Re7  1  0.742592  0.726364  0.543525  1
  F  F8  1  0.949702  0.707206  0.418709  1
  F  F9  1  0.050298  0.292794  0.581291  1
  F  F10  1  0.449702  0.292794  0.081291  1
  F  F11  1  0.550298  0.707206  0.918709  1
  F  F12  1  0.477758  0.730313  0.141268  1
  F  F13  1  0.522242  0.269687  0.858732  1
  F  F14  1  0.977758  0.269687  0.358732  1
  F  F15  1  0.022242  0.730313  0.641268  1
  F  F16  1  0.958703  0.745280  0.171389  1
  F  F17  1  0.041297  0.254720  0.828611  1
  F  F18  1  0.458703  0.254720  0.328611  1
  F  F19  1  0.541297  0.745280  0.671389  1
  F  F20  1  0.768906  0.478395  0.142189  1
  F  F21  1  0.231094  0.521605  0.857811  1
  F  F22  1  0.268906  0.521605  0.357811  1
  F  F23  1  0.731094  0.478395  0.642189  1
  F  F24  1  0.952306  0.280602  0.047208  1
  F  F25  1  0.047694  0.719398  0.952792  1
  F  F26  1  0.452306  0.719398  0.452792  1
  F  F27  1  0.547694  0.280602  0.547208  1
  F  F28  1  0.741180  0.973588  0.446840  1
  F  F29  1  0.258820  0.026412  0.553160  1
  F  F30  1  0.241180  0.026412  0.053160  1
  F  F31  1  0.758820  0.973588  0.946840  1
  F  F32  1  0.578881  0.971667  0.232461  1
  F  F33  1  0.421119  0.028333  0.767539  1
  F  F34  1  0.078881  0.028333  0.267539  1
  F  F35  1  0.921119  0.971667  0.732461  1
