# generated using pymatgen
data_SrY2(AlIr2)3
_symmetry_space_group_name_H-M   'P 1'
_cell_length_a   5.63113900
_cell_length_b   5.63113975
_cell_length_c   15.68262300
_cell_angle_alpha   90.00000000
_cell_angle_beta   90.00000000
_cell_angle_gamma   120.00000149
_symmetry_Int_Tables_number   1
_chemical_formula_structural   SrY2(AlIr2)3
_chemical_formula_sum   'Sr2 Y4 Al6 Ir12'
_cell_volume   430.66728310
_cell_formula_units_Z   2
loop_
 _symmetry_equiv_pos_site_id
 _symmetry_equiv_pos_as_xyz
  1  'x, y, z'
loop_
 _atom_site_type_symbol
 _atom_site_label
 _atom_site_symmetry_multiplicity
 _atom_site_fract_x
 _atom_site_fract_y
 _atom_site_fract_z
 _atom_site_occupancy
  Sr  Sr0  1  0.333333  0.666667  0.750000  1
  Sr  Sr1  1  0.666667  0.333333  0.250000  1
  Y  Y2  1  0.333333  0.666667  0.542270  1
  Y  Y3  1  0.666667  0.333333  0.457730  1
  Y  Y4  1  0.666667  0.333333  0.042270  1
  Y  Y5  1  0.333333  0.666667  0.957730  1
  Al  Al6  1  0.000000  0.000000  0.250000  1
  Al  Al7  1  0.000000  0.000000  0.750000  1
  Al  Al8  1  0.333333  0.666667  0.250000  1
  Al  Al9  1  0.666667  0.333333  0.750000  1
  Al  Al10  1  0.000000  0.000000  0.000000  1
  Al  Al11  1  0.000000  0.000000  0.500000  1
  Ir  Ir12  1  0.169304  0.338606  0.124347  1
  Ir  Ir13  1  0.830696  0.661394  0.875653  1
  Ir  Ir14  1  0.661394  0.830696  0.124347  1
  Ir  Ir15  1  0.830696  0.661394  0.624347  1
  Ir  Ir16  1  0.338606  0.169304  0.875653  1
  Ir  Ir17  1  0.169304  0.338606  0.375653  1
  Ir  Ir18  1  0.169304  0.830696  0.124347  1
  Ir  Ir19  1  0.338606  0.169304  0.624347  1
  Ir  Ir20  1  0.830696  0.169304  0.875653  1
  Ir  Ir21  1  0.661394  0.830696  0.375653  1
  Ir  Ir22  1  0.830696  0.169304  0.624347  1
  Ir  Ir23  1  0.169304  0.830696  0.375653  1
