# generated using pymatgen
data_Dy2Er4PtI10
_symmetry_space_group_name_H-M   'P 1'
_cell_length_a   7.70365529
_cell_length_b   9.68777179
_cell_length_c   9.74551373
_cell_angle_alpha   107.22413082
_cell_angle_beta   96.83721107
_cell_angle_gamma   104.73495158
_symmetry_Int_Tables_number   1
_chemical_formula_structural   Dy2Er4PtI10
_chemical_formula_sum   'Dy2 Er4 Pt1 I10'
_cell_volume   656.81491235
_cell_formula_units_Z   1
loop_
 _symmetry_equiv_pos_site_id
 _symmetry_equiv_pos_as_xyz
  1  'x, y, z'
loop_
 _atom_site_type_symbol
 _atom_site_label
 _atom_site_symmetry_multiplicity
 _atom_site_fract_x
 _atom_site_fract_y
 _atom_site_fract_z
 _atom_site_occupancy
  Dy  Dy0  1  0.885254  0.959600  0.241905  1
  Dy  Dy1  1  0.114746  0.040400  0.758095  1
  Er  Er2  1  0.346781  0.125174  0.164718  1
  Er  Er3  1  0.653219  0.874826  0.835282  1
  Er  Er4  1  0.971937  0.285948  0.086589  1
  Er  Er5  1  0.028063  0.714052  0.913411  1
  Pt  Pt6  1  0.000000  0.000000  0.000000  1
  I  I7  1  0.355141  0.452794  0.272403  1
  I  I8  1  0.644859  0.547206  0.727597  1
  I  I9  1  0.914865  0.625493  0.178011  1
  I  I10  1  0.085135  0.374507  0.821989  1
  I  I11  1  0.452513  0.817197  0.091297  1
  I  I12  1  0.547487  0.182803  0.908703  1
  I  I13  1  0.261305  0.088243  0.462825  1
  I  I14  1  0.738695  0.911757  0.537175  1
  I  I15  1  0.778954  0.260199  0.346565  1
  I  I16  1  0.221046  0.739801  0.653435  1
