# generated using pymatgen
data_PrTmCd2(Ir2O7)2
_symmetry_space_group_name_H-M   'P 1'
_cell_length_a   7.27588313
_cell_length_b   7.27387560
_cell_length_c   7.18957300
_cell_angle_alpha   60.38265640
_cell_angle_beta   60.39164300
_cell_angle_gamma   61.19841042
_symmetry_Int_Tables_number   1
_chemical_formula_structural   PrTmCd2(Ir2O7)2
_chemical_formula_sum   'Pr1 Tm1 Cd2 Ir4 O14'
_cell_volume   273.01244483
_cell_formula_units_Z   1
loop_
 _symmetry_equiv_pos_site_id
 _symmetry_equiv_pos_as_xyz
  1  'x, y, z'
loop_
 _atom_site_type_symbol
 _atom_site_label
 _atom_site_symmetry_multiplicity
 _atom_site_fract_x
 _atom_site_fract_y
 _atom_site_fract_z
 _atom_site_occupancy
  Pr  Pr0  1  0.625000  0.125000  0.125000  1
  Tm  Tm1  1  0.125000  0.625000  0.125000  1
  Cd  Cd2  1  0.125000  0.125000  0.625000  1
  Cd  Cd3  1  0.125000  0.125000  0.125000  1
  Ir  Ir4  1  0.625000  0.625000  0.625000  1
  Ir  Ir5  1  0.125000  0.625000  0.625000  1
  Ir  Ir6  1  0.625000  0.125000  0.625000  1
  Ir  Ir7  1  0.625000  0.625000  0.125000  1
  O  O8  1  0.951482  0.561850  0.533114  1
  O  O9  1  0.299339  0.303020  0.698820  1
  O  O10  1  0.951482  0.561850  0.953555  1
  O  O11  1  0.705156  0.298948  0.294827  1
  O  O12  1  0.531025  0.547933  0.960521  1
  O  O13  1  0.544844  0.951052  0.548931  1
  O  O14  1  0.544844  0.951052  0.955173  1
  O  O15  1  0.233487  0.260580  0.252966  1
  O  O16  1  0.298518  0.688150  0.716886  1
  O  O17  1  0.705156  0.298948  0.701069  1
  O  O18  1  0.016513  0.989420  0.997034  1
  O  O19  1  0.950661  0.946980  0.551180  1
  O  O20  1  0.298518  0.688150  0.296445  1
  O  O21  1  0.718975  0.702067  0.289479  1
