# generated using pymatgen
data_YMg2P4Pd7
_symmetry_space_group_name_H-M   'P 1'
_cell_length_a   7.70277833
_cell_length_b   7.70277910
_cell_length_c   9.19366295
_cell_angle_alpha   56.80632103
_cell_angle_beta   56.80631525
_cell_angle_gamma   30.14556558
_symmetry_Int_Tables_number   1
_chemical_formula_structural   YMg2P4Pd7
_chemical_formula_sum   'Y1 Mg2 P4 Pd7'
_cell_volume   225.65537935
_cell_formula_units_Z   1
loop_
 _symmetry_equiv_pos_site_id
 _symmetry_equiv_pos_as_xyz
  1  'x, y, z'
loop_
 _atom_site_type_symbol
 _atom_site_label
 _atom_site_symmetry_multiplicity
 _atom_site_fract_x
 _atom_site_fract_y
 _atom_site_fract_z
 _atom_site_occupancy
  Y  Y0  1  0.500000  0.500000  0.500000  1
  Mg  Mg1  1  0.828961  0.828961  0.165723  1
  Mg  Mg2  1  0.171039  0.171039  0.834277  1
  P  P3  1  0.392599  0.392599  0.317565  1
  P  P4  1  0.607401  0.607401  0.682435  1
  P  P5  1  0.838559  0.838559  0.759953  1
  P  P6  1  0.161441  0.161441  0.240047  1
  Pd  Pd7  1  0.674830  0.674830  0.081189  1
  Pd  Pd8  1  0.008022  0.008022  0.212062  1
  Pd  Pd9  1  0.991978  0.991978  0.787938  1
  Pd  Pd10  1  0.500000  0.500000  0.000000  1
  Pd  Pd11  1  0.199402  0.199402  0.456974  1
  Pd  Pd12  1  0.800598  0.800598  0.543026  1
  Pd  Pd13  1  0.325170  0.325170  0.918811  1
