# generated using pymatgen
data_Hf18Re3SiMo5P
_symmetry_space_group_name_H-M   'P 1'
_cell_length_a   8.61376202
_cell_length_b   8.63771573
_cell_length_c   8.65397300
_cell_angle_alpha   90.00000000
_cell_angle_beta   90.00000000
_cell_angle_gamma   120.09202354
_symmetry_Int_Tables_number   1
_chemical_formula_structural   Hf18Re3SiMo5P
_chemical_formula_sum   'Hf18 Re3 Si1 Mo5 P1'
_cell_volume   557.10169471
_cell_formula_units_Z   1
loop_
 _symmetry_equiv_pos_site_id
 _symmetry_equiv_pos_as_xyz
  1  'x, y, z'
loop_
 _atom_site_type_symbol
 _atom_site_label
 _atom_site_symmetry_multiplicity
 _atom_site_fract_x
 _atom_site_fract_y
 _atom_site_fract_z
 _atom_site_occupancy
  Hf  Hf0  1  0.196640  0.803833  0.454592  1
  Hf  Hf1  1  0.196640  0.392806  0.454592  1
  Hf  Hf2  1  0.608656  0.804328  0.455169  1
  Hf  Hf3  1  0.802756  0.196269  0.549192  1
  Hf  Hf4  1  0.802756  0.606489  0.549192  1
  Hf  Hf5  1  0.393377  0.196689  0.548804  1
  Hf  Hf6  1  0.802756  0.196269  0.950808  1
  Hf  Hf7  1  0.802756  0.606489  0.950808  1
  Hf  Hf8  1  0.393377  0.196689  0.951196  1
  Hf  Hf9  1  0.196640  0.803833  0.045408  1
  Hf  Hf10  1  0.196640  0.392806  0.045408  1
  Hf  Hf11  1  0.608656  0.804328  0.044831  1
  Hf  Hf12  1  0.537922  0.463277  0.250000  1
  Hf  Hf13  1  0.537922  0.074645  0.250000  1
  Hf  Hf14  1  0.924864  0.462433  0.250000  1
  Hf  Hf15  1  0.461659  0.539816  0.750000  1
  Hf  Hf16  1  0.461659  0.921842  0.750000  1
  Hf  Hf17  1  0.076306  0.538153  0.750000  1
  Re  Re18  1  0.778373  0.889187  0.750000  1
  Re  Re19  1  0.999635  0.999817  0.498771  1
  Re  Re20  1  0.999635  0.999817  0.001229  1
  Si  Si21  1  0.334117  0.667060  0.250000  1
  Mo  Mo22  1  0.890254  0.110318  0.250000  1
  Mo  Mo23  1  0.890254  0.779934  0.250000  1
  Mo  Mo24  1  0.220916  0.110458  0.250000  1
  Mo  Mo25  1  0.108314  0.889923  0.750000  1
  Mo  Mo26  1  0.108314  0.218391  0.750000  1
  P  P27  1  0.668206  0.334102  0.750000  1
