# generated using pymatgen
data_ErU3(Al8Pt3)3
_symmetry_space_group_name_H-M   'P 1'
_cell_length_a   7.56315820
_cell_length_b   7.55731237
_cell_length_c   13.16550672
_cell_angle_alpha   84.71606595
_cell_angle_beta   101.03622548
_cell_angle_gamma   119.87501018
_symmetry_Int_Tables_number   1
_chemical_formula_structural   ErU3(Al8Pt3)3
_chemical_formula_sum   'Er1 U3 Al24 Pt9'
_cell_volume   640.43388380
_cell_formula_units_Z   1
loop_
 _symmetry_equiv_pos_site_id
 _symmetry_equiv_pos_as_xyz
  1  'x, y, z'
loop_
 _atom_site_type_symbol
 _atom_site_label
 _atom_site_symmetry_multiplicity
 _atom_site_fract_x
 _atom_site_fract_y
 _atom_site_fract_z
 _atom_site_occupancy
  Er  Er0  1  0.938079  0.332368  0.808665  1
  U  U1  1  0.733773  0.998180  0.195257  1
  U  U2  1  0.266199  0.001732  0.803622  1
  U  U3  1  0.062565  0.668846  0.195151  1
  Al  Al4  1  0.807731  0.868680  0.816188  1
  Al  Al5  1  0.193352  0.131542  0.182576  1
  Al  Al6  1  0.984585  0.668313  0.946421  1
  Al  Al7  1  0.016277  0.335277  0.056510  1
  Al  Al8  1  0.399780  0.664679  0.817224  1
  Al  Al9  1  0.599888  0.335073  0.181136  1
  Al  Al10  1  0.881062  0.663582  0.670422  1
  Al  Al11  1  0.119439  0.334339  0.329939  1
  Al  Al12  1  0.604044  0.459646  0.816993  1
  Al  Al13  1  0.396764  0.540448  0.182061  1
  Al  Al14  1  0.230048  0.342455  0.669659  1
  Al  Al15  1  0.767513  0.656492  0.331720  1
  Al  Al16  1  0.851704  0.332964  0.558983  1
  Al  Al17  1  0.186401  0.000443  0.558009  1
  Al  Al18  1  0.813876  0.000331  0.442171  1
  Al  Al19  1  0.351445  0.997637  0.052488  1
  Al  Al20  1  0.645987  0.001158  0.945488  1
  Al  Al21  1  0.558557  0.994324  0.670870  1
  Al  Al22  1  0.443765  0.006643  0.330072  1
  Al  Al23  1  0.520780  0.666182  0.561622  1
  Al  Al24  1  0.480290  0.333308  0.439454  1
  Al  Al25  1  0.685090  0.670531  0.047599  1
  Al  Al26  1  0.315864  0.330684  0.951545  1
  Al  Al27  1  0.147469  0.665242  0.442123  1
  Pt  Pt28  1  0.327319  0.666883  0.998914  1
  Pt  Pt29  1  0.546564  0.325418  0.638043  1
  Pt  Pt30  1  0.454347  0.673641  0.362343  1
  Pt  Pt31  1  0.887573  0.008603  0.639092  1
  Pt  Pt32  1  0.112453  0.991419  0.360491  1
  Pt  Pt33  1  0.671636  0.330961  0.998737  1
  Pt  Pt34  1  0.204387  0.666966  0.639139  1
  Pt  Pt35  1  0.794008  0.331475  0.360506  1
  Pt  Pt36  1  0.999387  0.003534  0.998766  1
