# generated using pymatgen
data_Tb11In9(RhAu)2
_symmetry_space_group_name_H-M   'P 1'
_cell_length_a   3.69888800
_cell_length_b   13.23248476
_cell_length_c   13.23773454
_cell_angle_alpha   110.77297822
_cell_angle_beta   90.00000000
_cell_angle_gamma   90.00000000
_symmetry_Int_Tables_number   1
_chemical_formula_structural   Tb11In9(RhAu)2
_chemical_formula_sum   'Tb11 In9 Rh2 Au2'
_cell_volume   605.80748250
_cell_formula_units_Z   1
loop_
 _symmetry_equiv_pos_site_id
 _symmetry_equiv_pos_as_xyz
  1  'x, y, z'
loop_
 _atom_site_type_symbol
 _atom_site_label
 _atom_site_symmetry_multiplicity
 _atom_site_fract_x
 _atom_site_fract_y
 _atom_site_fract_z
 _atom_site_occupancy
  Tb  Tb0  1  0.000000  0.930278  0.581065  1
  Tb  Tb1  1  0.000000  0.069722  0.418935  1
  Tb  Tb2  1  0.000000  0.581264  0.925338  1
  Tb  Tb3  1  0.000000  0.418736  0.074662  1
  Tb  Tb4  1  0.000000  0.158476  0.843532  1
  Tb  Tb5  1  0.000000  0.841524  0.156468  1
  Tb  Tb6  1  0.000000  0.380457  0.638258  1
  Tb  Tb7  1  0.000000  0.619543  0.361742  1
  Tb  Tb8  1  0.000000  0.684559  0.696796  1
  Tb  Tb9  1  0.000000  0.315441  0.303204  1
  Tb  Tb10  1  0.000000  0.000000  0.000000  1
  In  In11  1  0.500000  0.156545  0.636196  1
  In  In12  1  0.500000  0.843455  0.363804  1
  In  In13  1  0.500000  0.633681  0.156708  1
  In  In14  1  0.500000  0.366319  0.843292  1
  In  In15  1  0.500000  0.928971  0.784571  1
  In  In16  1  0.500000  0.071029  0.215429  1
  In  In17  1  0.500000  0.781240  0.924988  1
  In  In18  1  0.500000  0.218760  0.075012  1
  In  In19  1  0.500000  0.500000  0.500000  1
  Rh  Rh20  1  0.500000  0.549418  0.757200  1
  Rh  Rh21  1  0.500000  0.450582  0.242800  1
  Au  Au22  1  0.500000  0.748808  0.548383  1
  Au  Au23  1  0.500000  0.251192  0.451617  1
