# generated using pymatgen
data_NdDyU2(Al3Ir)6
_symmetry_space_group_name_H-M   'P 1'
_cell_length_a   7.59505682
_cell_length_b   7.59782087
_cell_length_c   9.44061800
_cell_angle_alpha   90.00000000
_cell_angle_beta   90.00000000
_cell_angle_gamma   119.58050374
_symmetry_Int_Tables_number   1
_chemical_formula_structural   NdDyU2(Al3Ir)6
_chemical_formula_sum   'Nd1 Dy1 U2 Al18 Ir6'
_cell_volume   473.77427230
_cell_formula_units_Z   1
loop_
 _symmetry_equiv_pos_site_id
 _symmetry_equiv_pos_as_xyz
  1  'x, y, z'
loop_
 _atom_site_type_symbol
 _atom_site_label
 _atom_site_symmetry_multiplicity
 _atom_site_fract_x
 _atom_site_fract_y
 _atom_site_fract_z
 _atom_site_occupancy
  Nd  Nd0  1  0.994101  0.669570  0.750000  1
  Dy  Dy1  1  0.330217  0.005758  0.250000  1
  U  U2  1  0.002979  0.328508  0.250000  1
  U  U3  1  0.671697  0.996786  0.750000  1
  Al  Al4  1  0.129128  0.130755  0.750000  1
  Al  Al5  1  0.871310  0.872180  0.250000  1
  Al  Al6  1  0.003004  0.335500  0.573128  1
  Al  Al7  1  0.999913  0.667051  0.422488  1
  Al  Al8  1  0.999913  0.667051  0.077512  1
  Al  Al9  1  0.334795  0.001707  0.926017  1
  Al  Al10  1  0.003004  0.335500  0.926872  1
  Al  Al11  1  0.662812  0.997153  0.075042  1
  Al  Al12  1  0.662812  0.997153  0.424958  1
  Al  Al13  1  0.334795  0.001707  0.573983  1
  Al  Al14  1  0.334598  0.332991  0.055116  1
  Al  Al15  1  0.665241  0.664929  0.948355  1
  Al  Al16  1  0.665241  0.664929  0.551645  1
  Al  Al17  1  0.334598  0.332991  0.444884  1
  Al  Al18  1  0.342340  0.549142  0.750000  1
  Al  Al19  1  0.660384  0.452250  0.250000  1
  Al  Al20  1  0.545324  0.337453  0.750000  1
  Al  Al21  1  0.451008  0.659361  0.250000  1
  Ir  Ir22  1  0.672163  0.326778  0.498985  1
  Ir  Ir23  1  0.328536  0.671591  0.499128  1
  Ir  Ir24  1  0.328536  0.671591  0.000872  1
  Ir  Ir25  1  0.672163  0.326778  0.001015  1
  Ir  Ir26  1  0.999692  0.001417  0.499071  1
  Ir  Ir27  1  0.999692  0.001417  0.000929  1
