# generated using pymatgen
data_YErGaSiNi2
_symmetry_space_group_name_H-M   'P 1'
_cell_length_a   4.21063600
_cell_length_b   6.86604906
_cell_length_c   7.23123008
_cell_angle_alpha   91.06304466
_cell_angle_beta   90.00000000
_cell_angle_gamma   90.00000000
_symmetry_Int_Tables_number   1
_chemical_formula_structural   YErGaSiNi2
_chemical_formula_sum   'Y2 Er2 Ga2 Si2 Ni4'
_cell_volume   209.02201371
_cell_formula_units_Z   2
loop_
 _symmetry_equiv_pos_site_id
 _symmetry_equiv_pos_as_xyz
  1  'x, y, z'
loop_
 _atom_site_type_symbol
 _atom_site_label
 _atom_site_symmetry_multiplicity
 _atom_site_fract_x
 _atom_site_fract_y
 _atom_site_fract_z
 _atom_site_occupancy
  Y  Y0  1  0.250000  0.989645  0.302669  1
  Y  Y1  1  0.750000  0.010355  0.697331  1
  Er  Er2  1  0.250000  0.486208  0.203923  1
  Er  Er3  1  0.750000  0.513792  0.796077  1
  Ga  Ga4  1  0.250000  0.812734  0.917805  1
  Ga  Ga5  1  0.750000  0.187266  0.082195  1
  Si  Si6  1  0.250000  0.313659  0.586042  1
  Si  Si7  1  0.750000  0.686341  0.413958  1
  Ni  Ni8  1  0.750000  0.789092  0.098831  1
  Ni  Ni9  1  0.250000  0.210908  0.901169  1
  Ni  Ni10  1  0.750000  0.315566  0.422381  1
  Ni  Ni11  1  0.250000  0.684434  0.577619  1
