# generated using pymatgen
data_GaSi3Pt4
_symmetry_space_group_name_H-M   'P 1'
_cell_length_a   3.59463600
_cell_length_b   5.66886920
_cell_length_c   6.12344437
_cell_angle_alpha   90.33248778
_cell_angle_beta   90.00000000
_cell_angle_gamma   90.00000000
_symmetry_Int_Tables_number   1
_chemical_formula_structural   GaSi3Pt4
_chemical_formula_sum   'Ga1 Si3 Pt4'
_cell_volume   124.77851713
_cell_formula_units_Z   1
loop_
 _symmetry_equiv_pos_site_id
 _symmetry_equiv_pos_as_xyz
  1  'x, y, z'
loop_
 _atom_site_type_symbol
 _atom_site_label
 _atom_site_symmetry_multiplicity
 _atom_site_fract_x
 _atom_site_fract_y
 _atom_site_fract_z
 _atom_site_occupancy
  Ga  Ga0  1  0.250000  0.683121  0.084070  1
  Si  Si1  1  0.750000  0.324826  0.923508  1
  Si  Si2  1  0.250000  0.182139  0.416571  1
  Si  Si3  1  0.750000  0.815508  0.577598  1
  Pt  Pt4  1  0.250000  0.492054  0.694719  1
  Pt  Pt5  1  0.750000  0.493931  0.318315  1
  Pt  Pt6  1  0.250000  0.998807  0.790062  1
  Pt  Pt7  1  0.750000  0.009614  0.195157  1
