# generated using pymatgen
data_Rb4MgZn2Cd(SiAs2)4
_symmetry_space_group_name_H-M   'P 1'
_cell_length_a   8.46976834
_cell_length_b   8.32351845
_cell_length_c   8.49933700
_cell_angle_alpha   71.44131899
_cell_angle_beta   76.16127472
_cell_angle_gamma   73.24312251
_symmetry_Int_Tables_number   1
_chemical_formula_structural   Rb4MgZn2Cd(SiAs2)4
_chemical_formula_sum   'Rb4 Mg1 Zn2 Cd1 Si4 As8'
_cell_volume   536.68794250
_cell_formula_units_Z   1
loop_
 _symmetry_equiv_pos_site_id
 _symmetry_equiv_pos_as_xyz
  1  'x, y, z'
loop_
 _atom_site_type_symbol
 _atom_site_label
 _atom_site_symmetry_multiplicity
 _atom_site_fract_x
 _atom_site_fract_y
 _atom_site_fract_z
 _atom_site_occupancy
  Rb  Rb0  1  0.450438  0.770287  0.319884  1
  Rb  Rb1  1  0.548135  0.234485  0.675939  1
  Rb  Rb2  1  0.443593  0.796120  0.817270  1
  Rb  Rb3  1  0.557995  0.204373  0.185334  1
  Mg  Mg4  1  0.992744  0.893169  0.686435  1
  Zn  Zn5  1  0.951158  0.802418  0.181576  1
  Zn  Zn6  1  0.043659  0.194351  0.822571  1
  Cd  Cd7  1  0.006426  0.098301  0.305182  1
  Si  Si8  1  0.963537  0.582215  0.597859  1
  Si  Si9  1  0.040529  0.412738  0.405002  1
  Si  Si10  1  0.144571  0.451512  0.977143  1
  Si  Si11  1  0.856055  0.554010  0.022195  1
  As  As12  1  0.810393  0.864895  0.462348  1
  As  As13  1  0.184492  0.128369  0.545494  1
  As  As14  1  0.788472  0.414425  0.315169  1
  As  As15  1  0.213377  0.590247  0.684858  1
  As  As16  1  0.774203  0.865282  0.966965  1
  As  As17  1  0.230459  0.141846  0.025986  1
  As  As18  1  0.783062  0.438343  0.828012  1
  As  As19  1  0.216701  0.562614  0.174777  1
