# generated using pymatgen
data_TmU(ZnIr)2
_symmetry_space_group_name_H-M   'P 1'
_cell_length_a   3.81704800
_cell_length_b   7.07318675
_cell_length_c   8.36968311
_cell_angle_alpha   92.02200786
_cell_angle_beta   90.00000000
_cell_angle_gamma   90.00000000
_symmetry_Int_Tables_number   1
_chemical_formula_structural   TmU(ZnIr)2
_chemical_formula_sum   'Tm2 U2 Zn4 Ir4'
_cell_volume   225.82980666
_cell_formula_units_Z   2
loop_
 _symmetry_equiv_pos_site_id
 _symmetry_equiv_pos_as_xyz
  1  'x, y, z'
loop_
 _atom_site_type_symbol
 _atom_site_label
 _atom_site_symmetry_multiplicity
 _atom_site_fract_x
 _atom_site_fract_y
 _atom_site_fract_z
 _atom_site_occupancy
  Tm  Tm0  1  0.750000  0.943077  0.684305  1
  Tm  Tm1  1  0.250000  0.056923  0.315695  1
  U  U2  1  0.250000  0.550719  0.189064  1
  U  U3  1  0.750000  0.449281  0.810936  1
  Zn  Zn4  1  0.250000  0.630490  0.559275  1
  Zn  Zn5  1  0.750000  0.369510  0.440725  1
  Zn  Zn6  1  0.750000  0.882078  0.062745  1
  Zn  Zn7  1  0.250000  0.117922  0.937255  1
  Ir  Ir8  1  0.250000  0.719200  0.878218  1
  Ir  Ir9  1  0.750000  0.280800  0.121782  1
  Ir  Ir10  1  0.750000  0.748732  0.357615  1
  Ir  Ir11  1  0.250000  0.251268  0.642385  1
