# generated using pymatgen
data_Sr3InSnPt2
_symmetry_space_group_name_H-M   'P 1'
_cell_length_a   6.18834200
_cell_length_b   8.88495500
_cell_length_c   14.42832500
_cell_angle_alpha   90.00000000
_cell_angle_beta   90.00000000
_cell_angle_gamma   90.00000000
_symmetry_Int_Tables_number   1
_chemical_formula_structural   Sr3InSnPt2
_chemical_formula_sum   'Sr12 In4 Sn4 Pt8'
_cell_volume   793.31461625
_cell_formula_units_Z   4
loop_
 _symmetry_equiv_pos_site_id
 _symmetry_equiv_pos_as_xyz
  1  'x, y, z'
loop_
 _atom_site_type_symbol
 _atom_site_label
 _atom_site_symmetry_multiplicity
 _atom_site_fract_x
 _atom_site_fract_y
 _atom_site_fract_z
 _atom_site_occupancy
  Sr  Sr0  1  0.150911  0.603916  0.096819  1
  Sr  Sr1  1  0.150911  0.896084  0.903181  1
  Sr  Sr2  1  0.849089  0.103916  0.403181  1
  Sr  Sr3  1  0.849089  0.396084  0.596819  1
  Sr  Sr4  1  0.849089  0.396084  0.903181  1
  Sr  Sr5  1  0.849089  0.103916  0.096819  1
  Sr  Sr6  1  0.150911  0.896084  0.596819  1
  Sr  Sr7  1  0.150911  0.603916  0.403181  1
  Sr  Sr8  1  0.360943  0.251129  0.250000  1
  Sr  Sr9  1  0.360943  0.248871  0.750000  1
  Sr  Sr10  1  0.639057  0.751129  0.250000  1
  Sr  Sr11  1  0.639057  0.748871  0.750000  1
  In  In12  1  0.367653  0.250000  0.000000  1
  In  In13  1  0.632347  0.750000  0.500000  1
  In  In14  1  0.632347  0.750000  0.000000  1
  In  In15  1  0.367653  0.250000  0.500000  1
  Sn  Sn16  1  0.852416  0.401580  0.250000  1
  Sn  Sn17  1  0.852416  0.098420  0.750000  1
  Sn  Sn18  1  0.147584  0.901580  0.250000  1
  Sn  Sn19  1  0.147584  0.598420  0.750000  1
  Pt  Pt20  1  0.626210  0.466924  0.092082  1
  Pt  Pt21  1  0.626210  0.033076  0.907918  1
  Pt  Pt22  1  0.373790  0.966924  0.407918  1
  Pt  Pt23  1  0.373790  0.533076  0.592082  1
  Pt  Pt24  1  0.373790  0.533076  0.907918  1
  Pt  Pt25  1  0.373790  0.966924  0.092082  1
  Pt  Pt26  1  0.626210  0.033076  0.592082  1
  Pt  Pt27  1  0.626210  0.466924  0.407918  1
