# generated using pymatgen
data_Pr2SmFe(Co4P3)2
_symmetry_space_group_name_H-M   'P 1'
_cell_length_a   3.77585200
_cell_length_b   10.67181700
_cell_length_c   12.38602900
_cell_angle_alpha   90.00000000
_cell_angle_beta   90.00000000
_cell_angle_gamma   90.00000000
_symmetry_Int_Tables_number   1
_chemical_formula_structural   Pr2SmFe(Co4P3)2
_chemical_formula_sum   'Pr4 Sm2 Fe2 Co16 P12'
_cell_volume   499.09753512
_cell_formula_units_Z   2
loop_
 _symmetry_equiv_pos_site_id
 _symmetry_equiv_pos_as_xyz
  1  'x, y, z'
loop_
 _atom_site_type_symbol
 _atom_site_label
 _atom_site_symmetry_multiplicity
 _atom_site_fract_x
 _atom_site_fract_y
 _atom_site_fract_z
 _atom_site_occupancy
  Pr  Pr0  1  0.000000  0.500000  0.521366  1
  Pr  Pr1  1  0.500000  0.000000  0.479652  1
  Pr  Pr2  1  0.500000  0.817442  0.205093  1
  Pr  Pr3  1  0.500000  0.182558  0.205093  1
  Sm  Sm4  1  0.000000  0.682306  0.795151  1
  Sm  Sm5  1  0.000000  0.317694  0.795151  1
  Fe  Fe6  1  0.500000  0.500000  0.154205  1
  Fe  Fe7  1  0.000000  0.000000  0.844953  1
  Co  Co8  1  0.500000  0.500000  0.704482  1
  Co  Co9  1  0.000000  0.000000  0.296541  1
  Co  Co10  1  0.000000  0.500000  0.985456  1
  Co  Co11  1  0.500000  0.000000  0.010619  1
  Co  Co12  1  0.500000  0.334054  0.993866  1
  Co  Co13  1  0.500000  0.665946  0.993866  1
  Co  Co14  1  0.000000  0.167429  0.003135  1
  Co  Co15  1  0.000000  0.832571  0.003135  1
  Co  Co16  1  0.500000  0.296932  0.431442  1
  Co  Co17  1  0.500000  0.703068  0.431442  1
  Co  Co18  1  0.000000  0.203872  0.571538  1
  Co  Co19  1  0.000000  0.796128  0.571538  1
  Co  Co20  1  0.500000  0.880332  0.711907  1
  Co  Co21  1  0.500000  0.119668  0.711907  1
  Co  Co22  1  0.000000  0.618597  0.289433  1
  Co  Co23  1  0.000000  0.381403  0.289433  1
  P  P24  1  0.500000  0.500000  0.884115  1
  P  P25  1  0.000000  0.000000  0.111899  1
  P  P26  1  0.500000  0.500000  0.337168  1
  P  P27  1  0.000000  0.000000  0.663193  1
  P  P28  1  0.500000  0.305639  0.616518  1
  P  P29  1  0.500000  0.694361  0.616518  1
  P  P30  1  0.000000  0.195650  0.387019  1
  P  P31  1  0.000000  0.804350  0.387019  1
  P  P32  1  0.500000  0.847109  0.894317  1
  P  P33  1  0.500000  0.152891  0.894317  1
  P  P34  1  0.000000  0.650363  0.103757  1
  P  P35  1  0.000000  0.349637  0.103757  1
