# generated using pymatgen
data_Se11Br
_symmetry_space_group_name_H-M   'P 1'
_cell_length_a   5.01402218
_cell_length_b   10.85632483
_cell_length_c   19.18942405
_cell_angle_alpha   86.75106053
_cell_angle_beta   89.06808001
_cell_angle_gamma   89.87310424
_symmetry_Int_Tables_number   1
_chemical_formula_structural   Se11Br
_chemical_formula_sum   'Se22 Br2'
_cell_volume   1042.73658669
_cell_formula_units_Z   2
loop_
 _symmetry_equiv_pos_site_id
 _symmetry_equiv_pos_as_xyz
  1  'x, y, z'
loop_
 _atom_site_type_symbol
 _atom_site_label
 _atom_site_symmetry_multiplicity
 _atom_site_fract_x
 _atom_site_fract_y
 _atom_site_fract_z
 _atom_site_occupancy
  Se  Se0  1  0.017955  0.306026  0.093389  1
  Se  Se1  1  0.730006  0.214079  0.539644  1
  Se  Se2  1  0.272462  0.786074  0.528320  1
  Se  Se3  1  0.259325  0.252831  0.992859  1
  Se  Se4  1  0.738023  0.740172  0.998262  1
  Se  Se5  1  0.158816  0.395940  0.289863  1
  Se  Se6  1  0.827765  0.545358  0.314692  1
  Se  Se7  1  0.743359  0.135838  0.128492  1
  Se  Se8  1  0.245680  0.870681  0.119304  1
  Se  Se9  1  0.775550  0.614274  0.646192  1
  Se  Se10  1  0.230123  0.377217  0.656564  1
  Se  Se11  1  0.256689  0.864900  0.863629  1
  Se  Se12  1  0.750069  0.128360  0.871111  1
  Se  Se13  1  0.990465  0.693000  0.099546  1
  Se  Se14  1  0.538346  0.804132  0.623991  1
  Se  Se15  1  0.425325  0.183163  0.630639  1
  Se  Se16  1  0.990938  0.691547  0.898535  1
  Se  Se17  1  0.002151  0.305352  0.893282  1
  Se  Se18  1  0.499280  0.515571  0.230384  1
  Se  Se19  1  0.008798  0.995588  0.195771  1
  Se  Se20  1  0.518168  0.488309  0.725448  1
  Se  Se21  1  0.994306  0.004962  0.794876  1
  Br  Br22  1  0.475625  0.263833  0.437716  1
  Br  Br23  1  0.550775  0.822794  0.427491  1
