# generated using pymatgen
data_Ta10Nb2Al5Au3N4
_symmetry_space_group_name_H-M   'P 1'
_cell_length_a   7.08395509
_cell_length_b   7.07630665
_cell_length_c   7.07817605
_cell_angle_alpha   90.22910718
_cell_angle_beta   90.11731776
_cell_angle_gamma   90.11446241
_symmetry_Int_Tables_number   1
_chemical_formula_structural   Ta10Nb2Al5Au3N4
_chemical_formula_sum   'Ta10 Nb2 Al5 Au3 N4'
_cell_volume   354.81220316
_cell_formula_units_Z   1
loop_
 _symmetry_equiv_pos_site_id
 _symmetry_equiv_pos_as_xyz
  1  'x, y, z'
loop_
 _atom_site_type_symbol
 _atom_site_label
 _atom_site_symmetry_multiplicity
 _atom_site_fract_x
 _atom_site_fract_y
 _atom_site_fract_z
 _atom_site_occupancy
  Ta  Ta0  1  0.785644  0.954762  0.384838  1
  Ta  Ta1  1  0.710136  0.038559  0.870134  1
  Ta  Ta2  1  0.210791  0.454651  0.126631  1
  Ta  Ta3  1  0.292544  0.545691  0.623456  1
  Ta  Ta4  1  0.954138  0.383904  0.784760  1
  Ta  Ta5  1  0.039441  0.868700  0.710796  1
  Ta  Ta6  1  0.454155  0.127735  0.211952  1
  Ta  Ta7  1  0.546938  0.624886  0.292083  1
  Ta  Ta8  1  0.384503  0.785186  0.953905  1
  Ta  Ta9  1  0.869323  0.710621  0.038927  1
  Nb  Nb10  1  0.127161  0.211390  0.453531  1
  Nb  Nb11  1  0.624176  0.292974  0.546881  1
  Al  Al12  1  0.677143  0.677322  0.677034  1
  Al  Al13  1  0.570808  0.425657  0.930840  1
  Al  Al14  1  0.425049  0.930735  0.571072  1
  Al  Al15  1  0.930667  0.571267  0.425393  1
  Al  Al16  1  0.070114  0.069928  0.070683  1
  Au  Au17  1  0.179233  0.819709  0.315537  1
  Au  Au18  1  0.315769  0.178764  0.822240  1
  Au  Au19  1  0.820159  0.316058  0.177345  1
  N  N20  1  0.881756  0.125447  0.627523  1
  N  N21  1  0.624373  0.881762  0.128130  1
  N  N22  1  0.128162  0.624325  0.881786  1
  N  N23  1  0.377818  0.379966  0.374522  1
