# generated using pymatgen
data_Yb2DyY5(B6Os)4
_symmetry_space_group_name_H-M   'P 1'
_cell_length_a   3.65060000
_cell_length_b   9.16771717
_cell_length_c   11.55718117
_cell_angle_alpha   90.00304492
_cell_angle_beta   90.00000000
_cell_angle_gamma   90.00000000
_symmetry_Int_Tables_number   1
_chemical_formula_structural   Yb2DyY5(B6Os)4
_chemical_formula_sum   'Yb2 Dy1 Y5 B24 Os4'
_cell_volume   386.79190521
_cell_formula_units_Z   1
loop_
 _symmetry_equiv_pos_site_id
 _symmetry_equiv_pos_as_xyz
  1  'x, y, z'
loop_
 _atom_site_type_symbol
 _atom_site_label
 _atom_site_symmetry_multiplicity
 _atom_site_fract_x
 _atom_site_fract_y
 _atom_site_fract_z
 _atom_site_occupancy
  Yb  Yb0  1  0.000000  0.676926  0.586213  1
  Yb  Yb1  1  0.000000  0.823129  0.086143  1
  Dy  Dy2  1  0.000000  0.324595  0.414247  1
  Y  Y3  1  0.000000  0.175758  0.914217  1
  Y  Y4  1  0.000000  0.940724  0.369658  1
  Y  Y5  1  0.000000  0.056592  0.629287  1
  Y  Y6  1  0.000000  0.443443  0.129479  1
  Y  Y7  1  0.000000  0.559185  0.869681  1
  B  B8  1  0.500000  0.553502  0.433432  1
  B  B9  1  0.500000  0.446666  0.567720  1
  B  B10  1  0.500000  0.053307  0.067822  1
  B  B11  1  0.500000  0.946364  0.933390  1
  B  B12  1  0.500000  0.746744  0.418295  1
  B  B13  1  0.500000  0.252291  0.581511  1
  B  B14  1  0.500000  0.247831  0.081786  1
  B  B15  1  0.500000  0.753179  0.918222  1
  B  B16  1  0.500000  0.789043  0.265241  1
  B  B17  1  0.500000  0.209409  0.734398  1
  B  B18  1  0.500000  0.290707  0.234642  1
  B  B19  1  0.500000  0.710778  0.765230  1
  B  B20  1  0.500000  0.630981  0.186112  1
  B  B21  1  0.500000  0.368956  0.813633  1
  B  B22  1  0.500000  0.131231  0.313783  1
  B  B23  1  0.500000  0.868855  0.685981  1
  B  B24  1  0.500000  0.983117  0.211462  1
  B  B25  1  0.500000  0.016401  0.788450  1
  B  B26  1  0.500000  0.483448  0.288693  1
  B  B27  1  0.500000  0.516828  0.711427  1
  B  B28  1  0.500000  0.602132  0.028067  1
  B  B29  1  0.500000  0.397544  0.971163  1
  B  B30  1  0.500000  0.102602  0.471132  1
  B  B31  1  0.500000  0.897874  0.528047  1
  Os  Os32  1  0.000000  0.636201  0.321504  1
  Os  Os33  1  0.000000  0.361169  0.679193  1
  Os  Os34  1  0.000000  0.138811  0.179391  1
  Os  Os35  1  0.000000  0.863677  0.821349  1
