# generated using pymatgen
data_Tm4Ga7Ag5
_symmetry_space_group_name_H-M   'P 1'
_cell_length_a   4.32547300
_cell_length_b   6.96910269
_cell_length_c   10.25726826
_cell_angle_alpha   89.95593042
_cell_angle_beta   90.00000000
_cell_angle_gamma   90.00000000
_symmetry_Int_Tables_number   1
_chemical_formula_structural   Tm4Ga7Ag5
_chemical_formula_sum   'Tm4 Ga7 Ag5'
_cell_volume   309.20182947
_cell_formula_units_Z   1
loop_
 _symmetry_equiv_pos_site_id
 _symmetry_equiv_pos_as_xyz
  1  'x, y, z'
loop_
 _atom_site_type_symbol
 _atom_site_label
 _atom_site_symmetry_multiplicity
 _atom_site_fract_x
 _atom_site_fract_y
 _atom_site_fract_z
 _atom_site_occupancy
  Tm  Tm0  1  0.500000  0.781472  0.173061  1
  Tm  Tm1  1  0.500000  0.277970  0.327865  1
  Tm  Tm2  1  0.000000  0.216173  0.829432  1
  Tm  Tm3  1  0.000000  0.722281  0.670294  1
  Ga  Ga4  1  0.500000  0.924283  0.845685  1
  Ga  Ga5  1  0.500000  0.426328  0.655577  1
  Ga  Ga6  1  0.000000  0.076701  0.154092  1
  Ga  Ga7  1  0.000000  0.574232  0.343991  1
  Ga  Ga8  1  0.500000  0.202416  0.035883  1
  Ga  Ga9  1  0.000000  0.299027  0.535551  1
  Ga  Ga10  1  0.000000  0.796053  0.963978  1
  Ag  Ag11  1  0.500000  0.540888  0.903350  1
  Ag  Ag12  1  0.500000  0.046400  0.600856  1
  Ag  Ag13  1  0.000000  0.457831  0.097195  1
  Ag  Ag14  1  0.000000  0.961567  0.401109  1
  Ag  Ag15  1  0.500000  0.696380  0.462081  1
