# generated using pymatgen
data_Pr2Sc3Sb4
_symmetry_space_group_name_H-M   'P 1'
_cell_length_a   7.95207700
_cell_length_b   7.85378100
_cell_length_c   14.89879500
_cell_angle_alpha   90.00000000
_cell_angle_beta   90.00000000
_cell_angle_gamma   90.00000000
_symmetry_Int_Tables_number   1
_chemical_formula_structural   Pr2Sc3Sb4
_chemical_formula_sum   'Pr8 Sc12 Sb16'
_cell_volume   930.48742476
_cell_formula_units_Z   4
loop_
 _symmetry_equiv_pos_site_id
 _symmetry_equiv_pos_as_xyz
  1  'x, y, z'
loop_
 _atom_site_type_symbol
 _atom_site_label
 _atom_site_symmetry_multiplicity
 _atom_site_fract_x
 _atom_site_fract_y
 _atom_site_fract_z
 _atom_site_occupancy
  Pr  Pr0  1  0.518623  0.324814  0.906780  1
  Pr  Pr1  1  0.018623  0.175186  0.593220  1
  Pr  Pr2  1  0.481377  0.675186  0.406780  1
  Pr  Pr3  1  0.981377  0.824814  0.093220  1
  Pr  Pr4  1  0.481377  0.675186  0.093220  1
  Pr  Pr5  1  0.981377  0.824814  0.406780  1
  Pr  Pr6  1  0.518623  0.324814  0.593220  1
  Pr  Pr7  1  0.018623  0.175186  0.906780  1
  Sc  Sc8  1  0.344798  0.851535  0.875301  1
  Sc  Sc9  1  0.844798  0.648465  0.624699  1
  Sc  Sc10  1  0.655202  0.148465  0.375301  1
  Sc  Sc11  1  0.155202  0.351535  0.124699  1
  Sc  Sc12  1  0.655202  0.148465  0.124699  1
  Sc  Sc13  1  0.155202  0.351535  0.375301  1
  Sc  Sc14  1  0.344798  0.851535  0.624699  1
  Sc  Sc15  1  0.844798  0.648465  0.875301  1
  Sc  Sc16  1  0.180099  0.501047  0.750000  1
  Sc  Sc17  1  0.680099  0.998953  0.750000  1
  Sc  Sc18  1  0.819901  0.498953  0.250000  1
  Sc  Sc19  1  0.319901  0.001047  0.250000  1
  Sb  Sb20  1  0.307700  0.049707  0.047508  1
  Sb  Sb21  1  0.807700  0.450293  0.452492  1
  Sb  Sb22  1  0.692300  0.950293  0.547508  1
  Sb  Sb23  1  0.192300  0.549707  0.952492  1
  Sb  Sb24  1  0.692300  0.950293  0.952492  1
  Sb  Sb25  1  0.192300  0.549707  0.547508  1
  Sb  Sb26  1  0.307700  0.049707  0.452492  1
  Sb  Sb27  1  0.807700  0.450293  0.047508  1
  Sb  Sb28  1  0.540670  0.641589  0.750000  1
  Sb  Sb29  1  0.040670  0.858411  0.750000  1
  Sb  Sb30  1  0.459330  0.358411  0.250000  1
  Sb  Sb31  1  0.959330  0.141589  0.250000  1
  Sb  Sb32  1  0.327113  0.150734  0.750000  1
  Sb  Sb33  1  0.827113  0.349266  0.750000  1
  Sb  Sb34  1  0.672887  0.849266  0.250000  1
  Sb  Sb35  1  0.172887  0.650734  0.250000  1
