# generated using pymatgen
data_Nd3HoAu5
_symmetry_space_group_name_H-M   'P 1'
_cell_length_a   8.22897594
_cell_length_b   8.22897604
_cell_length_c   8.22897609
_cell_angle_alpha   65.54896482
_cell_angle_beta   65.54896468
_cell_angle_gamma   65.54894136
_symmetry_Int_Tables_number   1
_chemical_formula_structural   Nd3HoAu5
_chemical_formula_sum   'Nd6 Ho2 Au10'
_cell_volume   441.53548598
_cell_formula_units_Z   2
loop_
 _symmetry_equiv_pos_site_id
 _symmetry_equiv_pos_as_xyz
  1  'x, y, z'
loop_
 _atom_site_type_symbol
 _atom_site_label
 _atom_site_symmetry_multiplicity
 _atom_site_fract_x
 _atom_site_fract_y
 _atom_site_fract_z
 _atom_site_occupancy
  Nd  Nd0  1  0.892317  0.184891  0.621397  1
  Nd  Nd1  1  0.621397  0.892317  0.184891  1
  Nd  Nd2  1  0.184891  0.621397  0.892317  1
  Nd  Nd3  1  0.107683  0.815109  0.378603  1
  Nd  Nd4  1  0.378603  0.107683  0.815109  1
  Nd  Nd5  1  0.815109  0.378603  0.107683  1
  Ho  Ho6  1  0.657444  0.657444  0.657444  1
  Ho  Ho7  1  0.342556  0.342556  0.342556  1
  Au  Au8  1  0.000000  0.000000  0.000000  1
  Au  Au9  1  0.500000  0.500000  0.500000  1
  Au  Au10  1  0.805015  0.805015  0.805015  1
  Au  Au11  1  0.194985  0.194985  0.194985  1
  Au  Au12  1  0.940084  0.547707  0.319824  1
  Au  Au13  1  0.319824  0.940084  0.547707  1
  Au  Au14  1  0.547707  0.319824  0.940084  1
  Au  Au15  1  0.059916  0.452293  0.680176  1
  Au  Au16  1  0.680176  0.059916  0.452293  1
  Au  Au17  1  0.452293  0.680176  0.059916  1
