# generated using pymatgen
data_Ho4Co9B4Ir
_symmetry_space_group_name_H-M   'P 1'
_cell_length_a   10.56809639
_cell_length_b   10.56809600
_cell_length_c   10.56809669
_cell_angle_alpha   27.66819639
_cell_angle_beta   27.66819900
_cell_angle_gamma   27.66819740
_symmetry_Int_Tables_number   1
_chemical_formula_structural   Ho4Co9B4Ir
_chemical_formula_sum   'Ho4 Co9 B4 Ir1'
_cell_volume   224.67914401
_cell_formula_units_Z   1
loop_
 _symmetry_equiv_pos_site_id
 _symmetry_equiv_pos_as_xyz
  1  'x, y, z'
loop_
 _atom_site_type_symbol
 _atom_site_label
 _atom_site_symmetry_multiplicity
 _atom_site_fract_x
 _atom_site_fract_y
 _atom_site_fract_z
 _atom_site_occupancy
  Ho  Ho0  1  0.150445  0.150445  0.150445  1
  Ho  Ho1  1  0.950844  0.950844  0.950844  1
  Ho  Ho2  1  0.849555  0.849555  0.849555  1
  Ho  Ho3  1  0.049156  0.049156  0.049156  1
  Co  Co4  1  0.408015  0.899394  0.408015  1
  Co  Co5  1  0.899394  0.408015  0.408015  1
  Co  Co6  1  0.500000  0.500000  0.000000  1
  Co  Co7  1  0.500000  0.000000  0.500000  1
  Co  Co8  1  0.000000  0.500000  0.500000  1
  Co  Co9  1  0.591985  0.100606  0.591985  1
  Co  Co10  1  0.591985  0.591985  0.100606  1
  Co  Co11  1  0.100606  0.591985  0.591985  1
  Co  Co12  1  0.408015  0.408015  0.899394  1
  B  B13  1  0.618628  0.618628  0.618628  1
  B  B14  1  0.715447  0.715447  0.715447  1
  B  B15  1  0.381372  0.381372  0.381372  1
  B  B16  1  0.284553  0.284553  0.284553  1
  Ir  Ir17  1  0.500000  0.500000  0.500000  1
