# generated using pymatgen
data_LaSb12Os2PdRu
_symmetry_space_group_name_H-M   'P 1'
_cell_length_a   8.19116264
_cell_length_b   8.19024145
_cell_length_c   8.19030537
_cell_angle_alpha   109.45960872
_cell_angle_beta   109.50734564
_cell_angle_gamma   109.46668565
_symmetry_Int_Tables_number   1
_chemical_formula_structural   LaSb12Os2PdRu
_chemical_formula_sum   'La1 Sb12 Os2 Pd1 Ru1'
_cell_volume   422.87622375
_cell_formula_units_Z   1
loop_
 _symmetry_equiv_pos_site_id
 _symmetry_equiv_pos_as_xyz
  1  'x, y, z'
loop_
 _atom_site_type_symbol
 _atom_site_label
 _atom_site_symmetry_multiplicity
 _atom_site_fract_x
 _atom_site_fract_y
 _atom_site_fract_z
 _atom_site_occupancy
  La  La0  1  0.000000  0.000000  0.000000  1
  Sb  Sb1  1  0.151347  0.814161  0.655599  1
  Sb  Sb2  1  0.848653  0.185839  0.344401  1
  Sb  Sb3  1  0.842678  0.504025  0.662307  1
  Sb  Sb4  1  0.157322  0.495975  0.337693  1
  Sb  Sb5  1  0.819670  0.661035  0.156978  1
  Sb  Sb6  1  0.180330  0.338965  0.843022  1
  Sb  Sb7  1  0.504228  0.655771  0.841483  1
  Sb  Sb8  1  0.495772  0.344229  0.158517  1
  Sb  Sb9  1  0.664033  0.159918  0.815166  1
  Sb  Sb10  1  0.335967  0.840082  0.184834  1
  Sb  Sb11  1  0.661340  0.843075  0.504050  1
  Sb  Sb12  1  0.338660  0.156925  0.495950  1
  Os  Os13  1  0.000000  0.000000  0.500000  1
  Os  Os14  1  0.500000  0.500000  0.500000  1
  Pd  Pd15  1  0.500000  0.000000  0.000000  1
  Ru  Ru16  1  0.000000  0.500000  0.000000  1
