# generated using pymatgen
data_TlCr6S7
_symmetry_space_group_name_H-M   'P 1'
_cell_length_a   9.09458171
_cell_length_b   9.09458160
_cell_length_c   9.09458300
_cell_angle_alpha   59.02880530
_cell_angle_beta   59.02880572
_cell_angle_gamma   59.02880428
_symmetry_Int_Tables_number   1
_chemical_formula_structural   TlCr6S7
_chemical_formula_sum   'Tl2 Cr12 S14'
_cell_volume   520.12248311
_cell_formula_units_Z   2
loop_
 _symmetry_equiv_pos_site_id
 _symmetry_equiv_pos_as_xyz
  1  'x, y, z'
loop_
 _atom_site_type_symbol
 _atom_site_label
 _atom_site_symmetry_multiplicity
 _atom_site_fract_x
 _atom_site_fract_y
 _atom_site_fract_z
 _atom_site_occupancy
  Tl  Tl0  1  0.131103  0.131103  0.131103  1
  Tl  Tl1  1  0.868897  0.868897  0.868897  1
  Cr  Cr2  1  0.621264  0.302995  0.440610  1
  Cr  Cr3  1  0.302995  0.440610  0.621264  1
  Cr  Cr4  1  0.440610  0.621264  0.302995  1
  Cr  Cr5  1  0.378736  0.697005  0.559390  1
  Cr  Cr6  1  0.697005  0.559390  0.378736  1
  Cr  Cr7  1  0.559390  0.378736  0.697005  1
  Cr  Cr8  1  0.378068  0.188211  0.512044  1
  Cr  Cr9  1  0.188211  0.512044  0.378068  1
  Cr  Cr10  1  0.512044  0.378068  0.188211  1
  Cr  Cr11  1  0.621932  0.811789  0.487956  1
  Cr  Cr12  1  0.811789  0.487956  0.621932  1
  Cr  Cr13  1  0.487956  0.621932  0.811789  1
  S  S14  1  0.660851  0.319297  0.912064  1
  S  S15  1  0.087936  0.339149  0.680703  1
  S  S16  1  0.282023  0.282023  0.282023  1
  S  S17  1  0.717977  0.717977  0.717977  1
  S  S18  1  0.857285  0.262036  0.518856  1
  S  S19  1  0.262036  0.518856  0.857285  1
  S  S20  1  0.518856  0.857285  0.262036  1
  S  S21  1  0.142715  0.737964  0.481144  1
  S  S22  1  0.737964  0.481144  0.142715  1
  S  S23  1  0.481144  0.142715  0.737964  1
  S  S24  1  0.339149  0.680703  0.087936  1
  S  S25  1  0.680703  0.087936  0.339149  1
  S  S26  1  0.912064  0.660851  0.319297  1
  S  S27  1  0.319297  0.912064  0.660851  1
