# generated using pymatgen
data_Tb3ScFe12(P3Rh2)4
_symmetry_space_group_name_H-M   'P 1'
_cell_length_a   3.75447200
_cell_length_b   10.30725309
_cell_length_c   12.15829162
_cell_angle_alpha   89.80441035
_cell_angle_beta   90.00000000
_cell_angle_gamma   90.00000000
_symmetry_Int_Tables_number   1
_chemical_formula_structural   Tb3ScFe12(P3Rh2)4
_chemical_formula_sum   'Tb3 Sc1 Fe12 P12 Rh8'
_cell_volume   470.50239158
_cell_formula_units_Z   1
loop_
 _symmetry_equiv_pos_site_id
 _symmetry_equiv_pos_as_xyz
  1  'x, y, z'
loop_
 _atom_site_type_symbol
 _atom_site_label
 _atom_site_symmetry_multiplicity
 _atom_site_fract_x
 _atom_site_fract_y
 _atom_site_fract_z
 _atom_site_occupancy
  Tb  Tb0  1  0.250000  0.919390  0.211645  1
  Tb  Tb1  1  0.750000  0.419494  0.287981  1
  Tb  Tb2  1  0.750000  0.081029  0.788594  1
  Sc  Sc3  1  0.250000  0.579262  0.711614  1
  Fe  Fe4  1  0.250000  0.224656  0.170424  1
  Fe  Fe5  1  0.250000  0.276896  0.670543  1
  Fe  Fe6  1  0.750000  0.773757  0.829568  1
  Fe  Fe7  1  0.750000  0.722935  0.329826  1
  Fe  Fe8  1  0.250000  0.873403  0.697827  1
  Fe  Fe9  1  0.250000  0.622419  0.196534  1
  Fe  Fe10  1  0.750000  0.122581  0.303518  1
  Fe  Fe11  1  0.750000  0.379948  0.800849  1
  Fe  Fe12  1  0.250000  0.461926  0.931982  1
  Fe  Fe13  1  0.250000  0.040189  0.436194  1
  Fe  Fe14  1  0.750000  0.541758  0.062174  1
  Fe  Fe15  1  0.750000  0.956964  0.566056  1
  P  P16  1  0.250000  0.430526  0.110332  1
  P  P17  1  0.250000  0.068900  0.613189  1
  P  P18  1  0.750000  0.571077  0.882828  1
  P  P19  1  0.750000  0.928868  0.388618  1
  P  P20  1  0.250000  0.274925  0.852151  1
  P  P21  1  0.250000  0.226129  0.353582  1
  P  P22  1  0.750000  0.725786  0.146897  1
  P  P23  1  0.750000  0.768854  0.649283  1
  P  P24  1  0.250000  0.605966  0.377855  1
  P  P25  1  0.250000  0.893531  0.878349  1
  P  P26  1  0.750000  0.396774  0.622798  1
  P  P27  1  0.750000  0.107304  0.122136  1
  Rh  Rh28  1  0.250000  0.708432  0.986348  1
  Rh  Rh29  1  0.250000  0.791642  0.485853  1
  Rh  Rh30  1  0.750000  0.294034  0.013421  1
  Rh  Rh31  1  0.750000  0.207743  0.515580  1
  Rh  Rh32  1  0.250000  0.405640  0.480060  1
  Rh  Rh33  1  0.250000  0.096226  0.978967  1
  Rh  Rh34  1  0.750000  0.595227  0.525858  1
  Rh  Rh35  1  0.750000  0.905809  0.020568  1
