# generated using pymatgen
data_Ho2ErSc3Bi2Rh
_symmetry_space_group_name_H-M   'P 1'
_cell_length_a   8.01466300
_cell_length_b   8.01628818
_cell_length_c   4.13319700
_cell_angle_alpha   90.00000000
_cell_angle_beta   90.00000000
_cell_angle_gamma   119.99329796
_symmetry_Int_Tables_number   1
_chemical_formula_structural   Ho2ErSc3Bi2Rh
_chemical_formula_sum   'Ho2 Er1 Sc3 Bi2 Rh1'
_cell_volume   229.98772114
_cell_formula_units_Z   1
loop_
 _symmetry_equiv_pos_site_id
 _symmetry_equiv_pos_as_xyz
  1  'x, y, z'
loop_
 _atom_site_type_symbol
 _atom_site_label
 _atom_site_symmetry_multiplicity
 _atom_site_fract_x
 _atom_site_fract_y
 _atom_site_fract_z
 _atom_site_occupancy
  Ho  Ho0  1  0.000019  0.611676  0.500000  1
  Ho  Ho1  1  0.388343  0.388324  0.500000  1
  Er  Er2  1  0.611766  0.000000  0.500000  1
  Sc  Sc3  1  0.228340  0.000000  0.000000  1
  Sc  Sc4  1  0.999923  0.228250  0.000000  1
  Sc  Sc5  1  0.771673  0.771750  0.000000  1
  Bi  Bi6  1  0.333474  0.666807  0.000000  1
  Bi  Bi7  1  0.666668  0.333193  0.000000  1
  Rh  Rh8  1  0.999795  0.000000  0.500000  1
