# generated using pymatgen
data_Y3Ho5(HgRh)2
_symmetry_space_group_name_H-M   'P 1'
_cell_length_a   9.57925186
_cell_length_b   9.57925194
_cell_length_c   9.57925300
_cell_angle_alpha   60.00000671
_cell_angle_beta   60.00000643
_cell_angle_gamma   60.00000457
_symmetry_Int_Tables_number   1
_chemical_formula_structural   Y3Ho5(HgRh)2
_chemical_formula_sum   'Y6 Ho10 Hg4 Rh4'
_cell_volume   621.55546863
_cell_formula_units_Z   2
loop_
 _symmetry_equiv_pos_site_id
 _symmetry_equiv_pos_as_xyz
  1  'x, y, z'
loop_
 _atom_site_type_symbol
 _atom_site_label
 _atom_site_symmetry_multiplicity
 _atom_site_fract_x
 _atom_site_fract_y
 _atom_site_fract_z
 _atom_site_occupancy
  Y  Y0  1  0.187881  0.812119  0.812119  1
  Y  Y1  1  0.812119  0.187881  0.187881  1
  Y  Y2  1  0.812119  0.187881  0.812119  1
  Y  Y3  1  0.187881  0.812119  0.187881  1
  Y  Y4  1  0.812119  0.812119  0.187881  1
  Y  Y5  1  0.187881  0.187881  0.812119  1
  Ho  Ho6  1  0.601087  0.601087  0.601087  1
  Ho  Ho7  1  0.601087  0.601087  0.196739  1
  Ho  Ho8  1  0.601087  0.196739  0.601087  1
  Ho  Ho9  1  0.196739  0.601087  0.601087  1
  Ho  Ho10  1  0.060955  0.439045  0.439045  1
  Ho  Ho11  1  0.439045  0.060955  0.060955  1
  Ho  Ho12  1  0.439045  0.060955  0.439045  1
  Ho  Ho13  1  0.060955  0.439045  0.060955  1
  Ho  Ho14  1  0.439045  0.439045  0.060955  1
  Ho  Ho15  1  0.060955  0.060955  0.439045  1
  Hg  Hg16  1  0.834607  0.834607  0.834607  1
  Hg  Hg17  1  0.834607  0.834607  0.496177  1
  Hg  Hg18  1  0.834607  0.496177  0.834607  1
  Hg  Hg19  1  0.496177  0.834607  0.834607  1
  Rh  Rh20  1  0.392779  0.392779  0.392779  1
  Rh  Rh21  1  0.392779  0.392779  0.821664  1
  Rh  Rh22  1  0.392779  0.821664  0.392779  1
  Rh  Rh23  1  0.821664  0.392779  0.392779  1
