# generated using pymatgen
data_Nd16Y4Ir11Rh
_symmetry_space_group_name_H-M   'P 1'
_cell_length_a   11.19516300
_cell_length_b   11.19516300
_cell_length_c   6.54072400
_cell_angle_alpha   90.00000000
_cell_angle_beta   90.00000000
_cell_angle_gamma   90.00000000
_symmetry_Int_Tables_number   1
_chemical_formula_structural   Nd16Y4Ir11Rh
_chemical_formula_sum   'Nd16 Y4 Ir11 Rh1'
_cell_volume   819.75989199
_cell_formula_units_Z   1
loop_
 _symmetry_equiv_pos_site_id
 _symmetry_equiv_pos_as_xyz
  1  'x, y, z'
loop_
 _atom_site_type_symbol
 _atom_site_label
 _atom_site_symmetry_multiplicity
 _atom_site_fract_x
 _atom_site_fract_y
 _atom_site_fract_z
 _atom_site_occupancy
  Nd  Nd0  1  0.289402  0.087871  0.382518  1
  Nd  Nd1  1  0.289129  0.911971  0.880433  1
  Nd  Nd2  1  0.710871  0.088029  0.880433  1
  Nd  Nd3  1  0.710598  0.912129  0.382518  1
  Nd  Nd4  1  0.588029  0.789129  0.880433  1
  Nd  Nd5  1  0.587871  0.210598  0.382518  1
  Nd  Nd6  1  0.412129  0.789402  0.382518  1
  Nd  Nd7  1  0.411971  0.210871  0.880433  1
  Nd  Nd8  1  0.210343  0.412134  0.618907  1
  Nd  Nd9  1  0.210409  0.588043  0.118827  1
  Nd  Nd10  1  0.789591  0.411957  0.118827  1
  Nd  Nd11  1  0.789657  0.587866  0.618907  1
  Nd  Nd12  1  0.911957  0.710409  0.118827  1
  Nd  Nd13  1  0.912134  0.289657  0.618907  1
  Nd  Nd14  1  0.087866  0.710343  0.618907  1
  Nd  Nd15  1  0.088043  0.289591  0.118827  1
  Y  Y16  1  0.000000  0.000000  0.500033  1
  Y  Y17  1  0.000000  0.000000  0.000066  1
  Y  Y18  1  0.500000  0.500000  0.000066  1
  Y  Y19  1  0.500000  0.500000  0.500033  1
  Ir  Ir20  1  0.849133  0.150081  0.249683  1
  Ir  Ir21  1  0.849334  0.849777  0.749578  1
  Ir  Ir22  1  0.150666  0.150223  0.749578  1
  Ir  Ir23  1  0.150867  0.849919  0.249683  1
  Ir  Ir24  1  0.650223  0.349334  0.749578  1
  Ir  Ir25  1  0.650081  0.650867  0.249683  1
  Ir  Ir26  1  0.349919  0.349133  0.249683  1
  Ir  Ir27  1  0.349777  0.650666  0.749578  1
  Ir  Ir28  1  0.500000  0.000000  0.620897  1
  Ir  Ir29  1  0.000000  0.500000  0.879462  1
  Ir  Ir30  1  0.000000  0.500000  0.379467  1
  Rh  Rh31  1  0.500000  0.000000  0.120190  1
