# generated using pymatgen
data_La4Ho(InSb)2
_symmetry_space_group_name_H-M   'P 1'
_cell_length_a   9.16121337
_cell_length_b   9.16121375
_cell_length_c   8.52140000
_cell_angle_alpha   90.00000000
_cell_angle_beta   90.00000000
_cell_angle_gamma   124.83664875
_symmetry_Int_Tables_number   1
_chemical_formula_structural   La4Ho(InSb)2
_chemical_formula_sum   'La8 Ho2 In4 Sb4'
_cell_volume   587.01046348
_cell_formula_units_Z   2
loop_
 _symmetry_equiv_pos_site_id
 _symmetry_equiv_pos_as_xyz
  1  'x, y, z'
loop_
 _atom_site_type_symbol
 _atom_site_label
 _atom_site_symmetry_multiplicity
 _atom_site_fract_x
 _atom_site_fract_y
 _atom_site_fract_z
 _atom_site_occupancy
  La  La0  1  0.031692  0.310938  0.332338  1
  La  La1  1  0.968308  0.689062  0.667662  1
  La  La2  1  0.468308  0.189062  0.832338  1
  La  La3  1  0.810938  0.531692  0.167662  1
  La  La4  1  0.531692  0.810938  0.167662  1
  La  La5  1  0.189062  0.468308  0.832338  1
  La  La6  1  0.689062  0.968308  0.667662  1
  La  La7  1  0.310938  0.031692  0.332338  1
  Ho  Ho8  1  0.000000  0.000000  0.000000  1
  Ho  Ho9  1  0.500000  0.500000  0.500000  1
  In  In10  1  0.372643  0.372643  0.128071  1
  In  In11  1  0.627357  0.627357  0.871929  1
  In  In12  1  0.127357  0.127357  0.628071  1
  In  In13  1  0.872643  0.872643  0.371929  1
  Sb  Sb14  1  0.802539  0.197461  0.000000  1
  Sb  Sb15  1  0.197461  0.802539  0.000000  1
  Sb  Sb16  1  0.697461  0.302539  0.500000  1
  Sb  Sb17  1  0.302539  0.697461  0.500000  1
