# generated using pymatgen
data_Er3PaCu3Sb8
_symmetry_space_group_name_H-M   'P 1'
_cell_length_a   10.44430062
_cell_length_b   10.41981039
_cell_length_c   10.43189928
_cell_angle_alpha   145.80573181
_cell_angle_beta   145.84707863
_cell_angle_gamma   49.10656993
_symmetry_Int_Tables_number   1
_chemical_formula_structural   Er3PaCu3Sb8
_chemical_formula_sum   'Er3 Pa1 Cu3 Sb8'
_cell_volume   356.58571303
_cell_formula_units_Z   1
loop_
 _symmetry_equiv_pos_site_id
 _symmetry_equiv_pos_as_xyz
  1  'x, y, z'
loop_
 _atom_site_type_symbol
 _atom_site_label
 _atom_site_symmetry_multiplicity
 _atom_site_fract_x
 _atom_site_fract_y
 _atom_site_fract_z
 _atom_site_occupancy
  Er  Er0  1  0.633026  0.634204  0.511588  1
  Er  Er1  1  0.121437  0.122615  0.488412  1
  Er  Er2  1  0.876260  0.364762  0.000000  1
  Pa  Pa3  1  0.368925  0.873046  0.000000  1
  Cu  Cu4  1  0.992389  0.003057  0.000000  1
  Cu  Cu5  1  0.997754  0.496407  0.492658  1
  Cu  Cu6  1  0.505096  0.003749  0.507342  1
  Sb  Sb7  1  0.337646  0.334542  0.511361  1
  Sb  Sb8  1  0.826284  0.823181  0.488639  1
  Sb  Sb9  1  0.661811  0.182211  0.000000  1
  Sb  Sb10  1  0.183288  0.666711  0.000000  1
  Sb  Sb11  1  0.251349  0.247347  0.000000  1
  Sb  Sb12  1  0.746946  0.749743  0.000000  1
  Sb  Sb13  1  0.748235  0.248552  0.498681  1
  Sb  Sb14  1  0.249554  0.749872  0.501319  1
