# generated using pymatgen
data_Tm4C2Cl3
_symmetry_space_group_name_H-M   'P 1'
_cell_length_a   3.59885600
_cell_length_b   10.31070600
_cell_length_c   19.35669900
_cell_angle_alpha   90.00000000
_cell_angle_beta   90.00000000
_cell_angle_gamma   90.00000000
_symmetry_Int_Tables_number   1
_chemical_formula_structural   Tm4C2Cl3
_chemical_formula_sum   'Tm16 C8 Cl12'
_cell_volume   718.26411614
_cell_formula_units_Z   4
loop_
 _symmetry_equiv_pos_site_id
 _symmetry_equiv_pos_as_xyz
  1  'x, y, z'
loop_
 _atom_site_type_symbol
 _atom_site_label
 _atom_site_symmetry_multiplicity
 _atom_site_fract_x
 _atom_site_fract_y
 _atom_site_fract_z
 _atom_site_occupancy
  Tm  Tm0  1  0.250000  0.862656  0.574906  1
  Tm  Tm1  1  0.750000  0.137344  0.425094  1
  Tm  Tm2  1  0.750000  0.637344  0.074906  1
  Tm  Tm3  1  0.250000  0.362656  0.925094  1
  Tm  Tm4  1  0.250000  0.863175  0.744155  1
  Tm  Tm5  1  0.750000  0.136825  0.255845  1
  Tm  Tm6  1  0.750000  0.636825  0.244155  1
  Tm  Tm7  1  0.250000  0.363175  0.755845  1
  Tm  Tm8  1  0.250000  0.873792  0.165214  1
  Tm  Tm9  1  0.750000  0.126208  0.834786  1
  Tm  Tm10  1  0.750000  0.626208  0.665214  1
  Tm  Tm11  1  0.250000  0.373792  0.334786  1
  Tm  Tm12  1  0.250000  0.899701  0.331117  1
  Tm  Tm13  1  0.750000  0.100299  0.668883  1
  Tm  Tm14  1  0.750000  0.600299  0.831117  1
  Tm  Tm15  1  0.250000  0.399701  0.168883  1
  C  C16  1  0.250000  0.612733  0.749813  1
  C  C17  1  0.750000  0.387267  0.250187  1
  C  C18  1  0.750000  0.887267  0.249813  1
  C  C19  1  0.250000  0.112733  0.750187  1
  C  C20  1  0.250000  0.635036  0.153067  1
  C  C21  1  0.750000  0.364964  0.846933  1
  C  C22  1  0.750000  0.864964  0.653067  1
  C  C23  1  0.250000  0.135036  0.346933  1
  Cl  Cl24  1  0.250000  0.613953  0.555640  1
  Cl  Cl25  1  0.750000  0.386047  0.444360  1
  Cl  Cl26  1  0.750000  0.886047  0.055640  1
  Cl  Cl27  1  0.250000  0.113953  0.944360  1
  Cl  Cl28  1  0.250000  0.621944  0.952901  1
  Cl  Cl29  1  0.750000  0.378056  0.047099  1
  Cl  Cl30  1  0.750000  0.878056  0.452901  1
  Cl  Cl31  1  0.250000  0.121944  0.547099  1
  Cl  Cl32  1  0.250000  0.638861  0.354882  1
  Cl  Cl33  1  0.750000  0.361139  0.645118  1
  Cl  Cl34  1  0.750000  0.861139  0.854882  1
  Cl  Cl35  1  0.250000  0.138861  0.145118  1
