# generated using pymatgen
data_Tb12OsPdRh2
_symmetry_space_group_name_H-M   'P 1'
_cell_length_a   6.31823433
_cell_length_b   7.22539237
_cell_length_c   9.55612700
_cell_angle_alpha   90.00000000
_cell_angle_beta   90.00000000
_cell_angle_gamma   90.05556705
_symmetry_Int_Tables_number   1
_chemical_formula_structural   Tb12OsPdRh2
_chemical_formula_sum   'Tb12 Os1 Pd1 Rh2'
_cell_volume   436.25344944
_cell_formula_units_Z   1
loop_
 _symmetry_equiv_pos_site_id
 _symmetry_equiv_pos_as_xyz
  1  'x, y, z'
loop_
 _atom_site_type_symbol
 _atom_site_label
 _atom_site_symmetry_multiplicity
 _atom_site_fract_x
 _atom_site_fract_y
 _atom_site_fract_z
 _atom_site_occupancy
  Tb  Tb0  1  0.334027  0.672812  0.061946  1
  Tb  Tb1  1  0.173685  0.182810  0.439037  1
  Tb  Tb2  1  0.668773  0.322664  0.560822  1
  Tb  Tb3  1  0.829922  0.822762  0.934368  1
  Tb  Tb4  1  0.668773  0.322664  0.939178  1
  Tb  Tb5  1  0.829922  0.822762  0.565632  1
  Tb  Tb6  1  0.334027  0.672812  0.438054  1
  Tb  Tb7  1  0.173685  0.182810  0.060963  1
  Tb  Tb8  1  0.861219  0.524371  0.250000  1
  Tb  Tb9  1  0.627181  0.036312  0.250000  1
  Tb  Tb10  1  0.134502  0.467160  0.750000  1
  Tb  Tb11  1  0.363152  0.967177  0.750000  1
  Os  Os12  1  0.440577  0.382996  0.250000  1
  Pd  Pd13  1  0.061766  0.884287  0.250000  1
  Rh  Rh14  1  0.940065  0.118043  0.750000  1
  Rh  Rh15  1  0.558725  0.617559  0.750000  1
