# generated using pymatgen
data_Tb2ZnCdRh2
_symmetry_space_group_name_H-M   'P 1'
_cell_length_a   4.12409700
_cell_length_b   7.02155266
_cell_length_c   8.40355080
_cell_angle_alpha   88.94598755
_cell_angle_beta   90.00000000
_cell_angle_gamma   90.00000000
_symmetry_Int_Tables_number   1
_chemical_formula_structural   Tb2ZnCdRh2
_chemical_formula_sum   'Tb4 Zn2 Cd2 Rh4'
_cell_volume   243.30518760
_cell_formula_units_Z   2
loop_
 _symmetry_equiv_pos_site_id
 _symmetry_equiv_pos_as_xyz
  1  'x, y, z'
loop_
 _atom_site_type_symbol
 _atom_site_label
 _atom_site_symmetry_multiplicity
 _atom_site_fract_x
 _atom_site_fract_y
 _atom_site_fract_z
 _atom_site_occupancy
  Tb  Tb0  1  0.250000  0.537669  0.190625  1
  Tb  Tb1  1  0.750000  0.462331  0.809375  1
  Tb  Tb2  1  0.250000  0.043586  0.323431  1
  Tb  Tb3  1  0.750000  0.956414  0.676569  1
  Zn  Zn4  1  0.250000  0.636413  0.560292  1
  Zn  Zn5  1  0.750000  0.363587  0.439708  1
  Cd  Cd6  1  0.250000  0.139576  0.935775  1
  Cd  Cd7  1  0.750000  0.860424  0.064225  1
  Rh  Rh8  1  0.750000  0.742261  0.387991  1
  Rh  Rh9  1  0.250000  0.257739  0.612009  1
  Rh  Rh10  1  0.750000  0.260941  0.140624  1
  Rh  Rh11  1  0.250000  0.739059  0.859376  1
