# generated using pymatgen
data_TbDyEr14(CdPt)4
_symmetry_space_group_name_H-M   'P 1'
_cell_length_a   9.62368361
_cell_length_b   9.62368538
_cell_length_c   9.61456100
_cell_angle_alpha   60.03135507
_cell_angle_beta   60.03134899
_cell_angle_gamma   59.96744638
_symmetry_Int_Tables_number   1
_chemical_formula_structural   TbDyEr14(CdPt)4
_chemical_formula_sum   'Tb1 Dy1 Er14 Cd4 Pt4'
_cell_volume   629.79005157
_cell_formula_units_Z   1
loop_
 _symmetry_equiv_pos_site_id
 _symmetry_equiv_pos_as_xyz
  1  'x, y, z'
loop_
 _atom_site_type_symbol
 _atom_site_label
 _atom_site_symmetry_multiplicity
 _atom_site_fract_x
 _atom_site_fract_y
 _atom_site_fract_z
 _atom_site_occupancy
  Tb  Tb0  1  0.935428  0.935428  0.564572  1
  Dy  Dy1  1  0.566194  0.566194  0.933806  1
  Er  Er2  1  0.352326  0.352326  0.350812  1
  Er  Er3  1  0.352326  0.352326  0.944536  1
  Er  Er4  1  0.354439  0.940863  0.352349  1
  Er  Er5  1  0.940863  0.354439  0.352349  1
  Er  Er6  1  0.810534  0.189646  0.189752  1
  Er  Er7  1  0.189646  0.810534  0.810068  1
  Er  Er8  1  0.189646  0.810534  0.189752  1
  Er  Er9  1  0.810534  0.189646  0.810068  1
  Er  Er10  1  0.190141  0.190141  0.809859  1
  Er  Er11  1  0.810823  0.810823  0.189177  1
  Er  Er12  1  0.935978  0.563843  0.564314  1
  Er  Er13  1  0.563843  0.935978  0.935865  1
  Er  Er14  1  0.563843  0.935978  0.564314  1
  Er  Er15  1  0.935978  0.563843  0.935865  1
  Cd  Cd16  1  0.581706  0.581706  0.581750  1
  Cd  Cd17  1  0.581706  0.581706  0.254836  1
  Cd  Cd18  1  0.580695  0.254157  0.582574  1
  Cd  Cd19  1  0.254157  0.580695  0.582574  1
  Pt  Pt20  1  0.143455  0.143455  0.143932  1
  Pt  Pt21  1  0.143455  0.143455  0.569159  1
  Pt  Pt22  1  0.141641  0.570640  0.143859  1
  Pt  Pt23  1  0.570640  0.141641  0.143859  1
