# generated using pymatgen
data_LuHf7(Nb3Si4)4
_symmetry_space_group_name_H-M   'P 1'
_cell_length_a   6.88189039
_cell_length_b   6.87601002
_cell_length_c   12.73780530
_cell_angle_alpha   89.98815650
_cell_angle_beta   89.97566325
_cell_angle_gamma   90.02662406
_symmetry_Int_Tables_number   1
_chemical_formula_structural   LuHf7(Nb3Si4)4
_chemical_formula_sum   'Lu1 Hf7 Nb12 Si16'
_cell_volume   602.75214231
_cell_formula_units_Z   1
loop_
 _symmetry_equiv_pos_site_id
 _symmetry_equiv_pos_as_xyz
  1  'x, y, z'
loop_
 _atom_site_type_symbol
 _atom_site_label
 _atom_site_symmetry_multiplicity
 _atom_site_fract_x
 _atom_site_fract_y
 _atom_site_fract_z
 _atom_site_occupancy
  Lu  Lu0  1  0.660907  0.002306  0.280899  1
  Hf  Hf1  1  0.004173  0.344054  0.217948  1
  Hf  Hf2  1  0.999664  0.659876  0.718914  1
  Hf  Hf3  1  0.160174  0.501540  0.470278  1
  Hf  Hf4  1  0.498934  0.839631  0.031022  1
  Hf  Hf5  1  0.840833  0.498711  0.967811  1
  Hf  Hf6  1  0.502010  0.158897  0.532224  1
  Hf  Hf7  1  0.340453  0.000954  0.781065  1
  Nb  Nb8  1  0.169339  0.169661  0.999470  1
  Nb  Nb9  1  0.831004  0.830258  0.501042  1
  Nb  Nb10  1  0.328024  0.667282  0.250105  1
  Nb  Nb11  1  0.669816  0.330273  0.750119  1
  Nb  Nb12  1  0.151602  0.995064  0.377164  1
  Nb  Nb13  1  0.847483  0.003426  0.875264  1
  Nb  Nb14  1  0.504028  0.652194  0.626778  1
  Nb  Nb15  1  0.347813  0.497262  0.873092  1
  Nb  Nb16  1  0.493999  0.346953  0.124664  1
  Nb  Nb17  1  0.651429  0.502489  0.374596  1
  Nb  Nb18  1  0.997705  0.152781  0.624983  1
  Nb  Nb19  1  0.003169  0.845229  0.122157  1
  Si  Si20  1  0.295754  0.042806  0.186420  1
  Si  Si21  1  0.701082  0.955523  0.686841  1
  Si  Si22  1  0.455063  0.798397  0.437550  1
  Si  Si23  1  0.200800  0.544681  0.062285  1
  Si  Si24  1  0.543431  0.200202  0.936269  1
  Si  Si25  1  0.799973  0.456784  0.563959  1
  Si  Si26  1  0.044358  0.299898  0.813321  1
  Si  Si27  1  0.955843  0.699062  0.313578  1
  Si  Si28  1  0.361198  0.293799  0.322856  1
  Si  Si29  1  0.635621  0.708604  0.823416  1
  Si  Si30  1  0.208170  0.864309  0.573680  1
  Si  Si31  1  0.135652  0.792505  0.926506  1
  Si  Si32  1  0.794008  0.136915  0.070936  1
  Si  Si33  1  0.867052  0.210201  0.429472  1
  Si  Si34  1  0.292453  0.364681  0.676690  1
  Si  Si35  1  0.706986  0.632791  0.176628  1
