# generated using pymatgen
data_Yb3Cd(PbO4)2
_symmetry_space_group_name_H-M   'P 1'
_cell_length_a   3.39583600
_cell_length_b   5.78970557
_cell_length_c   9.80091854
_cell_angle_alpha   90.27114447
_cell_angle_beta   90.00000000
_cell_angle_gamma   90.00000000
_symmetry_Int_Tables_number   1
_chemical_formula_structural   Yb3Cd(PbO4)2
_chemical_formula_sum   'Yb3 Cd1 Pb2 O8'
_cell_volume   192.69262947
_cell_formula_units_Z   1
loop_
 _symmetry_equiv_pos_site_id
 _symmetry_equiv_pos_as_xyz
  1  'x, y, z'
loop_
 _atom_site_type_symbol
 _atom_site_label
 _atom_site_symmetry_multiplicity
 _atom_site_fract_x
 _atom_site_fract_y
 _atom_site_fract_z
 _atom_site_occupancy
  Yb  Yb0  1  0.500000  0.573778  0.317287  1
  Yb  Yb1  1  0.500000  0.929008  0.817731  1
  Yb  Yb2  1  0.500000  0.072872  0.183210  1
  Cd  Cd3  1  0.500000  0.431563  0.678690  1
  Pb  Pb4  1  0.000000  0.496984  0.001321  1
  Pb  Pb5  1  0.000000  0.001605  0.498263  1
  O  O6  1  0.000000  0.644669  0.798712  1
  O  O7  1  0.500000  0.743804  0.046943  1
  O  O8  1  0.500000  0.757380  0.544870  1
  O  O9  1  0.000000  0.858689  0.295500  1
  O  O10  1  0.000000  0.141011  0.703258  1
  O  O11  1  0.500000  0.241469  0.447759  1
  O  O12  1  0.500000  0.246889  0.960836  1
  O  O13  1  0.000000  0.360278  0.205620  1
