# generated using pymatgen
data_Ho15Tm5(Bi2Rh)4
_symmetry_space_group_name_H-M   'P 1'
_cell_length_a   7.96454100
_cell_length_b   8.98496776
_cell_length_c   12.43901908
_cell_angle_alpha   89.95929471
_cell_angle_beta   90.05213057
_cell_angle_gamma   90.02397155
_symmetry_Int_Tables_number   1
_chemical_formula_structural   Ho15Tm5(Bi2Rh)4
_chemical_formula_sum   'Ho15 Tm5 Bi8 Rh4'
_cell_volume   890.14976570
_cell_formula_units_Z   1
loop_
 _symmetry_equiv_pos_site_id
 _symmetry_equiv_pos_as_xyz
  1  'x, y, z'
loop_
 _atom_site_type_symbol
 _atom_site_label
 _atom_site_symmetry_multiplicity
 _atom_site_fract_x
 _atom_site_fract_y
 _atom_site_fract_z
 _atom_site_occupancy
  Ho  Ho0  1  0.839982  0.750272  0.793655  1
  Ho  Ho1  1  0.160119  0.249769  0.206482  1
  Ho  Ho2  1  0.339996  0.249746  0.706201  1
  Ho  Ho3  1  0.659759  0.750167  0.293716  1
  Ho  Ho4  1  0.374675  0.750145  0.690351  1
  Ho  Ho5  1  0.624827  0.249708  0.309620  1
  Ho  Ho6  1  0.874808  0.249627  0.809401  1
  Ho  Ho7  1  0.125200  0.750394  0.190617  1
  Ho  Ho8  1  0.952544  0.750308  0.501625  1
  Ho  Ho9  1  0.048150  0.249714  0.498292  1
  Ho  Ho10  1  0.452345  0.249431  0.998381  1
  Ho  Ho11  1  0.547589  0.750527  0.001610  1
  Ho  Ho12  1  0.676762  0.457798  0.566195  1
  Ho  Ho13  1  0.822695  0.457772  0.066405  1
  Ho  Ho14  1  0.177342  0.542146  0.933600  1
  Tm  Tm15  1  0.675318  0.042354  0.565996  1
  Tm  Tm16  1  0.324820  0.957410  0.433998  1
  Tm  Tm17  1  0.175241  0.957442  0.934027  1
  Tm  Tm18  1  0.324548  0.542398  0.433943  1
  Tm  Tm19  1  0.824744  0.042508  0.066028  1
  Bi  Bi20  1  0.567043  0.491924  0.826131  1
  Bi  Bi21  1  0.432834  0.508155  0.174041  1
  Bi  Bi22  1  0.066798  0.508151  0.673896  1
  Bi  Bi23  1  0.433461  0.991894  0.173895  1
  Bi  Bi24  1  0.933477  0.491973  0.326323  1
  Bi  Bi25  1  0.566478  0.008093  0.826063  1
  Bi  Bi26  1  0.933501  0.008093  0.326123  1
  Bi  Bi27  1  0.066458  0.991896  0.673846  1
  Rh  Rh28  1  0.571228  0.750778  0.508810  1
  Rh  Rh29  1  0.427251  0.249362  0.490760  1
  Rh  Rh30  1  0.072236  0.248553  0.990821  1
  Rh  Rh31  1  0.927769  0.751490  0.009147  1
