# generated using pymatgen
data_LuPa2Ni3Bi4
_symmetry_space_group_name_H-M   'P 1'
_cell_length_a   8.35582361
_cell_length_b   8.35582382
_cell_length_c   8.35582300
_cell_angle_alpha   109.43801142
_cell_angle_beta   109.48783623
_cell_angle_gamma   109.48782794
_symmetry_Int_Tables_number   1
_chemical_formula_structural   LuPa2Ni3Bi4
_chemical_formula_sum   'Lu2 Pa4 Ni6 Bi8'
_cell_volume   449.10275945
_cell_formula_units_Z   2
loop_
 _symmetry_equiv_pos_site_id
 _symmetry_equiv_pos_as_xyz
  1  'x, y, z'
loop_
 _atom_site_type_symbol
 _atom_site_label
 _atom_site_symmetry_multiplicity
 _atom_site_fract_x
 _atom_site_fract_y
 _atom_site_fract_z
 _atom_site_occupancy
  Lu  Lu0  1  0.250000  0.125000  0.875000  1
  Lu  Lu1  1  0.750000  0.375000  0.625000  1
  Pa  Pa2  1  0.127639  0.877639  0.250000  1
  Pa  Pa3  1  0.372361  0.622361  0.750000  1
  Pa  Pa4  1  0.872361  0.250000  0.122361  1
  Pa  Pa5  1  0.627639  0.750000  0.377639  1
  Ni  Ni6  1  0.628819  0.378819  0.250000  1
  Ni  Ni7  1  0.871181  0.121181  0.750000  1
  Ni  Ni8  1  0.371181  0.250000  0.621181  1
  Ni  Ni9  1  0.128819  0.750000  0.878819  1
  Ni  Ni10  1  0.250000  0.625000  0.375000  1
  Ni  Ni11  1  0.750000  0.875000  0.125000  1
  Bi  Bi12  1  0.335755  0.333103  0.332232  1
  Bi  Bi13  1  0.164245  0.496477  0.997348  1
  Bi  Bi14  1  0.999129  0.166897  0.502652  1
  Bi  Bi15  1  0.835755  0.832232  0.833103  1
  Bi  Bi16  1  0.500871  0.003523  0.167768  1
  Bi  Bi17  1  0.664245  0.497348  0.996477  1
  Bi  Bi18  1  0.499129  0.002652  0.666897  1
  Bi  Bi19  1  0.000871  0.667768  0.503523  1
