# generated using pymatgen
data_Sm(AgO2)2
_symmetry_space_group_name_H-M   'P 1'
_cell_length_a   6.69336365
_cell_length_b   6.69336322
_cell_length_c   6.69336425
_cell_angle_alpha   126.09216559
_cell_angle_beta   126.09217586
_cell_angle_gamma   79.73670747
_symmetry_Int_Tables_number   1
_chemical_formula_structural   Sm(AgO2)2
_chemical_formula_sum   'Sm2 Ag4 O8'
_cell_volume   189.14879905
_cell_formula_units_Z   2
loop_
 _symmetry_equiv_pos_site_id
 _symmetry_equiv_pos_as_xyz
  1  'x, y, z'
loop_
 _atom_site_type_symbol
 _atom_site_label
 _atom_site_symmetry_multiplicity
 _atom_site_fract_x
 _atom_site_fract_y
 _atom_site_fract_z
 _atom_site_occupancy
  Sm  Sm0  1  0.750000  0.250000  0.500000  1
  Sm  Sm1  1  0.000000  0.000000  0.000000  1
  Ag  Ag2  1  0.375000  0.125000  0.750000  1
  Ag  Ag3  1  0.375000  0.625000  0.250000  1
  Ag  Ag4  1  0.875000  0.625000  0.250000  1
  Ag  Ag5  1  0.375000  0.625000  0.750000  1
  O  O6  1  0.039085  0.006249  0.656076  1
  O  O7  1  0.616991  0.960915  0.967165  1
  O  O8  1  0.993751  0.649826  0.032835  1
  O  O9  1  0.399826  0.866991  0.156076  1
  O  O10  1  0.756249  0.600174  0.467165  1
  O  O11  1  0.133009  0.289085  0.532835  1
  O  O12  1  0.350174  0.383009  0.343924  1
  O  O13  1  0.710915  0.243751  0.843924  1
