# generated using pymatgen
data_BaGd(ReN3)2
_symmetry_space_group_name_H-M   'P 1'
_cell_length_a   7.53629135
_cell_length_b   7.53628950
_cell_length_c   6.22618350
_cell_angle_alpha   78.60704335
_cell_angle_beta   78.60705336
_cell_angle_gamma   88.47374614
_symmetry_Int_Tables_number   1
_chemical_formula_structural   BaGd(ReN3)2
_chemical_formula_sum   'Ba2 Gd2 Re4 N12'
_cell_volume   339.79352339
_cell_formula_units_Z   2
loop_
 _symmetry_equiv_pos_site_id
 _symmetry_equiv_pos_as_xyz
  1  'x, y, z'
loop_
 _atom_site_type_symbol
 _atom_site_label
 _atom_site_symmetry_multiplicity
 _atom_site_fract_x
 _atom_site_fract_y
 _atom_site_fract_z
 _atom_site_occupancy
  Ba  Ba0  1  0.316117  0.683883  0.250000  1
  Ba  Ba1  1  0.684050  0.315950  0.750000  1
  Gd  Gd2  1  0.903314  0.096686  0.250000  1
  Gd  Gd3  1  0.095752  0.904248  0.750000  1
  Re  Re4  1  0.801241  0.629343  0.220369  1
  Re  Re5  1  0.370657  0.198759  0.279631  1
  Re  Re6  1  0.628974  0.800582  0.720444  1
  Re  Re7  1  0.199418  0.371026  0.779556  1
  N  N8  1  0.797315  0.981270  0.637570  1
  N  N9  1  0.119364  0.597150  0.708529  1
  N  N10  1  0.331447  0.353487  0.013499  1
  N  N11  1  0.596396  0.117623  0.208698  1
  N  N12  1  0.882377  0.403604  0.291302  1
  N  N13  1  0.201396  0.019016  0.362459  1
  N  N14  1  0.980984  0.798604  0.137541  1
  N  N15  1  0.353644  0.330540  0.513802  1
  N  N16  1  0.646513  0.668553  0.486501  1
  N  N17  1  0.018730  0.202685  0.862430  1
  N  N18  1  0.402850  0.880636  0.791471  1
  N  N19  1  0.669460  0.646356  0.986198  1
