# generated using pymatgen
data_Li6Sc5MnPt12
_symmetry_space_group_name_H-M   'P 1'
_cell_length_a   4.23848000
_cell_length_b   6.92257400
_cell_length_c   12.68130600
_cell_angle_alpha   90.00000000
_cell_angle_beta   89.99778910
_cell_angle_gamma   90.00000000
_symmetry_Int_Tables_number   1
_chemical_formula_structural   Li6Sc5MnPt12
_chemical_formula_sum   'Li6 Sc5 Mn1 Pt12'
_cell_volume   372.08462701
_cell_formula_units_Z   1
loop_
 _symmetry_equiv_pos_site_id
 _symmetry_equiv_pos_as_xyz
  1  'x, y, z'
loop_
 _atom_site_type_symbol
 _atom_site_label
 _atom_site_symmetry_multiplicity
 _atom_site_fract_x
 _atom_site_fract_y
 _atom_site_fract_z
 _atom_site_occupancy
  Li  Li0  1  0.999985  0.500000  0.996902  1
  Li  Li1  1  0.499894  0.000000  0.163253  1
  Li  Li2  1  0.999896  0.500000  0.333335  1
  Li  Li3  1  0.499996  0.000000  0.503337  1
  Li  Li4  1  0.000137  0.500000  0.669794  1
  Li  Li5  1  0.500104  0.000000  0.833373  1
  Sc  Sc6  1  0.000000  0.000000  0.994473  1
  Sc  Sc7  1  0.499895  0.500000  0.165809  1
  Sc  Sc8  1  0.999831  0.000000  0.333312  1
  Sc  Sc9  1  0.499968  0.500000  0.500861  1
  Sc  Sc10  1  0.000128  0.000000  0.672217  1
  Mn  Mn11  1  0.500131  0.500000  0.833312  1
  Pt  Pt12  1  0.500002  0.257173  0.995529  1
  Pt  Pt13  1  0.500002  0.742829  0.995529  1
  Pt  Pt14  1  0.999879  0.248453  0.164717  1
  Pt  Pt15  1  0.999879  0.751547  0.164717  1
  Pt  Pt16  1  0.499874  0.250197  0.333324  1
  Pt  Pt17  1  0.499874  0.749803  0.333324  1
  Pt  Pt18  1  0.999998  0.248452  0.501958  1
  Pt  Pt19  1  0.999998  0.751548  0.501958  1
  Pt  Pt20  1  0.500134  0.257125  0.671139  1
  Pt  Pt21  1  0.500134  0.742875  0.671139  1
  Pt  Pt22  1  0.000132  0.266966  0.833346  1
  Pt  Pt23  1  0.000132  0.733034  0.833346  1
