# generated using pymatgen
data_Tb2ReSi14Ir5
_symmetry_space_group_name_H-M   'P 1'
_cell_length_a   8.09728641
_cell_length_b   8.02113042
_cell_length_c   8.02113055
_cell_angle_alpha   57.00593960
_cell_angle_beta   56.82075121
_cell_angle_gamma   56.82075466
_symmetry_Int_Tables_number   1
_chemical_formula_structural   Tb2ReSi14Ir5
_chemical_formula_sum   'Tb2 Re1 Si14 Ir5'
_cell_volume   341.88156139
_cell_formula_units_Z   1
loop_
 _symmetry_equiv_pos_site_id
 _symmetry_equiv_pos_as_xyz
  1  'x, y, z'
loop_
 _atom_site_type_symbol
 _atom_site_label
 _atom_site_symmetry_multiplicity
 _atom_site_fract_x
 _atom_site_fract_y
 _atom_site_fract_z
 _atom_site_occupancy
  Tb  Tb0  1  0.503134  0.496708  0.499266  1
  Tb  Tb1  1  0.996866  0.000734  0.003292  1
  Re  Re2  1  0.750000  0.077111  0.422889  1
  Si  Si3  1  0.851382  0.062587  0.671257  1
  Si  Si4  1  0.673417  0.849033  0.064074  1
  Si  Si5  1  0.062848  0.672163  0.852523  1
  Si  Si6  1  0.648618  0.828743  0.437413  1
  Si  Si7  1  0.250000  0.249424  0.250576  1
  Si  Si8  1  0.750000  0.752925  0.747075  1
  Si  Si9  1  0.171586  0.565138  0.350463  1
  Si  Si10  1  0.562148  0.352229  0.173818  1
  Si  Si11  1  0.354545  0.171705  0.562640  1
  Si  Si12  1  0.937852  0.326182  0.147771  1
  Si  Si13  1  0.328414  0.149537  0.934862  1
  Si  Si14  1  0.145455  0.937360  0.328295  1
  Si  Si15  1  0.826583  0.435926  0.650967  1
  Si  Si16  1  0.437152  0.647477  0.827837  1
  Ir  Ir17  1  0.429028  0.749305  0.071678  1
  Ir  Ir18  1  0.070972  0.428322  0.750695  1
  Ir  Ir19  1  0.250000  0.925336  0.574664  1
  Ir  Ir20  1  0.570537  0.250293  0.928239  1
  Ir  Ir21  1  0.929463  0.571761  0.249707  1
