# generated using pymatgen
data_Ac4Cd3Hg
_symmetry_space_group_name_H-M   'P 1'
_cell_length_a   4.00194000
_cell_length_b   4.00194000
_cell_length_c   16.84168600
_cell_angle_alpha   90.00000000
_cell_angle_beta   90.00000000
_cell_angle_gamma   90.00000000
_symmetry_Int_Tables_number   1
_chemical_formula_structural   Ac4Cd3Hg
_chemical_formula_sum   'Ac4 Cd3 Hg1'
_cell_volume   269.72842235
_cell_formula_units_Z   1
loop_
 _symmetry_equiv_pos_site_id
 _symmetry_equiv_pos_as_xyz
  1  'x, y, z'
loop_
 _atom_site_type_symbol
 _atom_site_label
 _atom_site_symmetry_multiplicity
 _atom_site_fract_x
 _atom_site_fract_y
 _atom_site_fract_z
 _atom_site_occupancy
  Ac  Ac0  1  0.500000  0.500000  0.122177  1
  Ac  Ac1  1  0.500000  0.500000  0.373955  1
  Ac  Ac2  1  0.500000  0.500000  0.626045  1
  Ac  Ac3  1  0.500000  0.500000  0.877823  1
  Cd  Cd4  1  0.000000  0.000000  0.248117  1
  Cd  Cd5  1  0.000000  0.000000  0.500000  1
  Cd  Cd6  1  0.000000  0.000000  0.751883  1
  Hg  Hg7  1  0.000000  0.000000  0.000000  1
