# generated using pymatgen
data_MnCr(TcAs2)2
_symmetry_space_group_name_H-M   'P 1'
_cell_length_a   3.36694400
_cell_length_b   5.79611106
_cell_length_c   6.37095971
_cell_angle_alpha   89.96682185
_cell_angle_beta   90.00000000
_cell_angle_gamma   90.00000000
_symmetry_Int_Tables_number   1
_chemical_formula_structural   MnCr(TcAs2)2
_chemical_formula_sum   'Mn1 Cr1 Tc2 As4'
_cell_volume   124.33041349
_cell_formula_units_Z   1
loop_
 _symmetry_equiv_pos_site_id
 _symmetry_equiv_pos_as_xyz
  1  'x, y, z'
loop_
 _atom_site_type_symbol
 _atom_site_label
 _atom_site_symmetry_multiplicity
 _atom_site_fract_x
 _atom_site_fract_y
 _atom_site_fract_z
 _atom_site_occupancy
  Mn  Mn0  1  0.000000  0.994828  0.805074  1
  Cr  Cr1  1  0.500000  0.504624  0.303644  1
  Tc  Tc2  1  0.500000  0.006776  0.195870  1
  Tc  Tc3  1  0.000000  0.492823  0.694336  1
  As  As4  1  0.500000  0.696887  0.930866  1
  As  As5  1  0.500000  0.191667  0.570239  1
  As  As6  1  0.000000  0.310398  0.069945  1
  As  As7  1  0.000000  0.801998  0.430026  1
