# generated using pymatgen
data_Ca3Pr7Ir4
_symmetry_space_group_name_H-M   'P 1'
_cell_length_a   8.93601115
_cell_length_b   8.89606546
_cell_length_c   7.49131393
_cell_angle_alpha   83.28906111
_cell_angle_beta   83.62365230
_cell_angle_gamma   44.46835415
_symmetry_Int_Tables_number   1
_chemical_formula_structural   Ca3Pr7Ir4
_chemical_formula_sum   'Ca3 Pr7 Ir4'
_cell_volume   413.98803544
_cell_formula_units_Z   1
loop_
 _symmetry_equiv_pos_site_id
 _symmetry_equiv_pos_as_xyz
  1  'x, y, z'
loop_
 _atom_site_type_symbol
 _atom_site_label
 _atom_site_symmetry_multiplicity
 _atom_site_fract_x
 _atom_site_fract_y
 _atom_site_fract_z
 _atom_site_occupancy
  Ca  Ca0  1  0.016560  0.800419  0.917820  1
  Ca  Ca1  1  0.200099  0.984333  0.582344  1
  Ca  Ca2  1  0.986512  0.198674  0.082096  1
  Pr  Pr3  1  0.799420  0.017189  0.416624  1
  Pr  Pr4  1  0.350810  0.214118  0.816151  1
  Pr  Pr5  1  0.786227  0.651375  0.682524  1
  Pr  Pr6  1  0.653230  0.783812  0.181668  1
  Pr  Pr7  1  0.209802  0.349532  0.316765  1
  Pr  Pr8  1  0.563606  0.436862  0.751449  1
  Pr  Pr9  1  0.433506  0.567828  0.248782  1
  Ir  Ir10  1  0.179812  0.593141  0.569449  1
  Ir  Ir11  1  0.413611  0.816503  0.926141  1
  Ir  Ir12  1  0.813200  0.407453  0.430266  1
  Ir  Ir13  1  0.593604  0.178761  0.077921  1
