# generated using pymatgen
data_Cs4Nd4Ti3GeSe16
_symmetry_space_group_name_H-M   'P 1'
_cell_length_a   7.22257776
_cell_length_b   6.94792728
_cell_length_c   19.96945506
_cell_angle_alpha   70.89376449
_cell_angle_beta   90.04519539
_cell_angle_gamma   89.86147959
_symmetry_Int_Tables_number   1
_chemical_formula_structural   Cs4Nd4Ti3GeSe16
_chemical_formula_sum   'Cs4 Nd4 Ti3 Ge1 Se16'
_cell_volume   946.89928227
_cell_formula_units_Z   1
loop_
 _symmetry_equiv_pos_site_id
 _symmetry_equiv_pos_as_xyz
  1  'x, y, z'
loop_
 _atom_site_type_symbol
 _atom_site_label
 _atom_site_symmetry_multiplicity
 _atom_site_fract_x
 _atom_site_fract_y
 _atom_site_fract_z
 _atom_site_occupancy
  Cs  Cs0  1  0.753512  0.727963  0.033155  1
  Cs  Cs1  1  0.245677  0.271505  0.967338  1
  Cs  Cs2  1  0.745433  0.726639  0.532728  1
  Cs  Cs3  1  0.252835  0.273593  0.467031  1
  Nd  Nd4  1  0.233017  0.226555  0.227141  1
  Nd  Nd5  1  0.730937  0.775370  0.272928  1
  Nd  Nd6  1  0.769701  0.776452  0.772338  1
  Nd  Nd7  1  0.269350  0.223426  0.727613  1
  Ti  Ti8  1  0.731517  0.216851  0.834048  1
  Ti  Ti9  1  0.768427  0.216044  0.333923  1
  Ti  Ti10  1  0.231922  0.783087  0.666013  1
  Ge  Ge11  1  0.266481  0.785394  0.166309  1
  Se  Se12  1  0.504207  0.038446  0.144003  1
  Se  Se13  1  0.758891  0.418468  0.409615  1
  Se  Se14  1  0.005207  0.005583  0.845789  1
  Se  Se15  1  0.835786  0.429134  0.216699  1
  Se  Se16  1  0.994098  0.036920  0.644086  1
  Se  Se17  1  0.263165  0.585977  0.090667  1
  Se  Se18  1  0.738584  0.419339  0.909600  1
  Se  Se19  1  0.338652  0.566455  0.282612  1
  Se  Se20  1  0.238566  0.580587  0.590483  1
  Se  Se21  1  0.494320  0.963510  0.855882  1
  Se  Se22  1  0.664619  0.432069  0.717171  1
  Se  Se23  1  0.164822  0.567682  0.782992  1
  Se  Se24  1  0.006468  0.962057  0.355744  1
  Se  Se25  1  0.993422  0.991589  0.153783  1
  Se  Se26  1  0.495602  0.005233  0.346140  1
  Se  Se27  1  0.504781  0.994071  0.654169  1
