# generated using pymatgen
data_Tb2Lu4Co17ReP12
_symmetry_space_group_name_H-M   'P 1'
_cell_length_a   3.68001700
_cell_length_b   10.47251900
_cell_length_c   12.15569600
_cell_angle_alpha   90.00000000
_cell_angle_beta   90.00000000
_cell_angle_gamma   90.00000000
_symmetry_Int_Tables_number   1
_chemical_formula_structural   Tb2Lu4Co17ReP12
_chemical_formula_sum   'Tb2 Lu4 Co17 Re1 P12'
_cell_volume   468.46895104
_cell_formula_units_Z   1
loop_
 _symmetry_equiv_pos_site_id
 _symmetry_equiv_pos_as_xyz
  1  'x, y, z'
loop_
 _atom_site_type_symbol
 _atom_site_label
 _atom_site_symmetry_multiplicity
 _atom_site_fract_x
 _atom_site_fract_y
 _atom_site_fract_z
 _atom_site_occupancy
  Tb  Tb0  1  0.000000  0.500000  0.524972  1
  Tb  Tb1  1  0.500000  0.000000  0.477187  1
  Lu  Lu2  1  0.500000  0.818176  0.206723  1
  Lu  Lu3  1  0.500000  0.181824  0.206723  1
  Lu  Lu4  1  0.000000  0.682413  0.795458  1
  Lu  Lu5  1  0.000000  0.317587  0.795458  1
  Co  Co6  1  0.000000  0.000000  0.840260  1
  Co  Co7  1  0.500000  0.500000  0.703820  1
  Co  Co8  1  0.000000  0.000000  0.295102  1
  Co  Co9  1  0.000000  0.500000  0.987584  1
  Co  Co10  1  0.500000  0.000000  0.015165  1
  Co  Co11  1  0.500000  0.332103  0.990462  1
  Co  Co12  1  0.500000  0.667897  0.990462  1
  Co  Co13  1  0.000000  0.166619  0.006228  1
  Co  Co14  1  0.000000  0.833381  0.006228  1
  Co  Co15  1  0.500000  0.296173  0.430146  1
  Co  Co16  1  0.500000  0.703827  0.430146  1
  Co  Co17  1  0.000000  0.203519  0.569500  1
  Co  Co18  1  0.000000  0.796481  0.569500  1
  Co  Co19  1  0.500000  0.878116  0.709891  1
  Co  Co20  1  0.500000  0.121884  0.709891  1
  Co  Co21  1  0.000000  0.621756  0.290291  1
  Co  Co22  1  0.000000  0.378244  0.290291  1
  Re  Re23  1  0.500000  0.500000  0.156399  1
  P  P24  1  0.500000  0.500000  0.879819  1
  P  P25  1  0.000000  0.000000  0.118267  1
  P  P26  1  0.500000  0.500000  0.349453  1
  P  P27  1  0.000000  0.000000  0.656100  1
  P  P28  1  0.500000  0.311055  0.618159  1
  P  P29  1  0.500000  0.688945  0.618159  1
  P  P30  1  0.000000  0.188398  0.382698  1
  P  P31  1  0.000000  0.811602  0.382698  1
  P  P32  1  0.500000  0.848724  0.891278  1
  P  P33  1  0.500000  0.151276  0.891278  1
  P  P34  1  0.000000  0.657247  0.107103  1
  P  P35  1  0.000000  0.342753  0.107103  1
