# generated using pymatgen
data_ErTm2AuO7
_symmetry_space_group_name_H-M   'P 1'
_cell_length_a   6.42231811
_cell_length_b   6.42231864
_cell_length_c   7.35347900
_cell_angle_alpha   90.00000000
_cell_angle_beta   90.00000000
_cell_angle_gamma   108.70058266
_symmetry_Int_Tables_number   1
_chemical_formula_structural   ErTm2AuO7
_chemical_formula_sum   'Er2 Tm4 Au2 O14'
_cell_volume   287.29060600
_cell_formula_units_Z   2
loop_
 _symmetry_equiv_pos_site_id
 _symmetry_equiv_pos_as_xyz
  1  'x, y, z'
loop_
 _atom_site_type_symbol
 _atom_site_label
 _atom_site_symmetry_multiplicity
 _atom_site_fract_x
 _atom_site_fract_y
 _atom_site_fract_z
 _atom_site_occupancy
  Er  Er0  1  0.500363  0.500363  0.500000  1
  Er  Er1  1  0.499637  0.499637  0.000000  1
  Tm  Tm2  1  0.001869  0.471317  0.749900  1
  Tm  Tm3  1  0.998131  0.528683  0.249900  1
  Tm  Tm4  1  0.528683  0.998131  0.750100  1
  Tm  Tm5  1  0.471317  0.001869  0.250100  1
  Au  Au6  1  0.000016  0.000016  0.500000  1
  Au  Au7  1  0.999984  0.999984  0.000000  1
  O  O8  1  0.639952  0.360048  0.750000  1
  O  O9  1  0.360048  0.639952  0.250000  1
  O  O10  1  0.917284  0.082716  0.750000  1
  O  O11  1  0.082716  0.917284  0.250000  1
  O  O12  1  0.916760  0.666503  0.524663  1
  O  O13  1  0.083240  0.333497  0.024663  1
  O  O14  1  0.333497  0.083240  0.975337  1
  O  O15  1  0.666503  0.916760  0.475337  1
  O  O16  1  0.366150  0.633850  0.750000  1
  O  O17  1  0.633850  0.366150  0.250000  1
  O  O18  1  0.917050  0.666692  0.975187  1
  O  O19  1  0.082950  0.333308  0.475187  1
  O  O20  1  0.333308  0.082950  0.524813  1
  O  O21  1  0.666692  0.917050  0.024813  1
