# generated using pymatgen
data_LaY(Tc2P)4
_symmetry_space_group_name_H-M   'P 1'
_cell_length_a   7.48029081
_cell_length_b   7.48029081
_cell_length_c   3.96711200
_cell_angle_alpha   90.00000000
_cell_angle_beta   90.00000000
_cell_angle_gamma   89.26513622
_symmetry_Int_Tables_number   1
_chemical_formula_structural   LaY(Tc2P)4
_chemical_formula_sum   'La1 Y1 Tc8 P4'
_cell_volume   221.96050519
_cell_formula_units_Z   1
loop_
 _symmetry_equiv_pos_site_id
 _symmetry_equiv_pos_as_xyz
  1  'x, y, z'
loop_
 _atom_site_type_symbol
 _atom_site_label
 _atom_site_symmetry_multiplicity
 _atom_site_fract_x
 _atom_site_fract_y
 _atom_site_fract_z
 _atom_site_occupancy
  La  La0  1  0.500000  0.500000  0.500000  1
  Y  Y1  1  0.000000  0.000000  0.000000  1
  Tc  Tc2  1  0.662033  0.920757  0.500000  1
  Tc  Tc3  1  0.337967  0.079243  0.500000  1
  Tc  Tc4  1  0.157309  0.584777  0.000000  1
  Tc  Tc5  1  0.842691  0.415223  0.000000  1
  Tc  Tc6  1  0.920757  0.662033  0.500000  1
  Tc  Tc7  1  0.079243  0.337967  0.500000  1
  Tc  Tc8  1  0.584777  0.157309  0.000000  1
  Tc  Tc9  1  0.415223  0.842691  0.000000  1
  P  P10  1  0.791766  0.208234  0.500000  1
  P  P11  1  0.208234  0.791766  0.500000  1
  P  P12  1  0.282363  0.282363  0.000000  1
  P  P13  1  0.717637  0.717637  0.000000  1
