# generated using pymatgen
data_NaAc(PaN2)4
_symmetry_space_group_name_H-M   'P 1'
_cell_length_a   7.11943334
_cell_length_b   7.11929404
_cell_length_c   7.11943211
_cell_angle_alpha   119.99497901
_cell_angle_beta   90.00747639
_cell_angle_gamma   119.99497574
_symmetry_Int_Tables_number   1
_chemical_formula_structural   NaAc(PaN2)4
_chemical_formula_sum   'Na1 Ac1 Pa4 N8'
_cell_volume   255.18216299
_cell_formula_units_Z   1
loop_
 _symmetry_equiv_pos_site_id
 _symmetry_equiv_pos_as_xyz
  1  'x, y, z'
loop_
 _atom_site_type_symbol
 _atom_site_label
 _atom_site_symmetry_multiplicity
 _atom_site_fract_x
 _atom_site_fract_y
 _atom_site_fract_z
 _atom_site_occupancy
  Na  Na0  1  0.000001  0.000000  0.999999  1
  Ac  Ac1  1  0.750003  0.500000  0.249998  1
  Pa  Pa2  1  0.373681  0.747371  0.121053  1
  Pa  Pa3  1  0.373692  0.747377  0.626320  1
  Pa  Pa4  1  0.373679  0.252622  0.626307  1
  Pa  Pa5  1  0.878946  0.252628  0.626319  1
  N  N6  1  0.603286  0.206639  0.396659  1
  N  N7  1  0.190026  0.793371  0.396661  1
  N  N8  1  0.603342  0.793362  0.396714  1
  N  N9  1  0.149806  0.299678  0.449475  1
  N  N10  1  0.603339  0.206630  0.809975  1
  N  N11  1  0.149799  0.700330  0.850123  1
  N  N12  1  0.149876  0.299669  0.850200  1
  N  N13  1  0.550524  0.700321  0.850193  1
