# generated using pymatgen
data_Li3Ac4AgAs8
_symmetry_space_group_name_H-M   'P 1'
_cell_length_a   4.13056700
_cell_length_b   4.21246701
_cell_length_c   22.31353013
_cell_angle_alpha   89.99055408
_cell_angle_beta   90.00000000
_cell_angle_gamma   90.00000000
_symmetry_Int_Tables_number   1
_chemical_formula_structural   Li3Ac4AgAs8
_chemical_formula_sum   'Li3 Ac4 Ag1 As8'
_cell_volume   388.25267900
_cell_formula_units_Z   1
loop_
 _symmetry_equiv_pos_site_id
 _symmetry_equiv_pos_as_xyz
  1  'x, y, z'
loop_
 _atom_site_type_symbol
 _atom_site_label
 _atom_site_symmetry_multiplicity
 _atom_site_fract_x
 _atom_site_fract_y
 _atom_site_fract_z
 _atom_site_occupancy
  Li  Li0  1  0.250000  0.224724  0.249880  1
  Li  Li1  1  0.750000  0.724766  0.250074  1
  Li  Li2  1  0.750000  0.775401  0.750170  1
  Ac  Ac3  1  0.250000  0.773908  0.618142  1
  Ac  Ac4  1  0.750000  0.226177  0.380754  1
  Ac  Ac5  1  0.750000  0.275147  0.881830  1
  Ac  Ac6  1  0.250000  0.726307  0.119136  1
  Ag  Ag7  1  0.250000  0.275779  0.750395  1
  As  As8  1  0.250000  0.775783  0.827455  1
  As  As9  1  0.750000  0.224541  0.176074  1
  As  As10  1  0.750000  0.274582  0.672176  1
  As  As11  1  0.250000  0.724631  0.323987  1
  As  As12  1  0.250000  0.306057  0.502174  1
  As  As13  1  0.250000  0.193130  0.002199  1
  As  As14  1  0.750000  0.805987  0.997853  1
  As  As15  1  0.750000  0.693079  0.497704  1
