# generated using pymatgen
data_Ti3CrCo2N
_symmetry_space_group_name_H-M   'P 1'
_cell_length_a   7.83498384
_cell_length_b   7.83498317
_cell_length_c   7.83498400
_cell_angle_alpha   59.99999647
_cell_angle_beta   59.99999933
_cell_angle_gamma   60.00000401
_symmetry_Int_Tables_number   1
_chemical_formula_structural   Ti3CrCo2N
_chemical_formula_sum   'Ti12 Cr4 Co8 N4'
_cell_volume   340.09424919
_cell_formula_units_Z   4
loop_
 _symmetry_equiv_pos_site_id
 _symmetry_equiv_pos_as_xyz
  1  'x, y, z'
loop_
 _atom_site_type_symbol
 _atom_site_label
 _atom_site_symmetry_multiplicity
 _atom_site_fract_x
 _atom_site_fract_y
 _atom_site_fract_z
 _atom_site_occupancy
  Ti  Ti0  1  0.808496  0.808496  0.191504  1
  Ti  Ti1  1  0.191504  0.191504  0.808496  1
  Ti  Ti2  1  0.808496  0.191504  0.808496  1
  Ti  Ti3  1  0.191504  0.808496  0.191504  1
  Ti  Ti4  1  0.191504  0.808496  0.808496  1
  Ti  Ti5  1  0.808496  0.191504  0.191504  1
  Ti  Ti6  1  0.441504  0.441504  0.058496  1
  Ti  Ti7  1  0.058496  0.058496  0.441504  1
  Ti  Ti8  1  0.441504  0.058496  0.441504  1
  Ti  Ti9  1  0.058496  0.441504  0.058496  1
  Ti  Ti10  1  0.058496  0.441504  0.441504  1
  Ti  Ti11  1  0.441504  0.058496  0.058496  1
  Cr  Cr12  1  0.125000  0.625000  0.625000  1
  Cr  Cr13  1  0.625000  0.125000  0.625000  1
  Cr  Cr14  1  0.625000  0.625000  0.125000  1
  Cr  Cr15  1  0.625000  0.625000  0.625000  1
  Co  Co16  1  0.737806  0.420731  0.420731  1
  Co  Co17  1  0.420731  0.737806  0.420731  1
  Co  Co18  1  0.420731  0.420731  0.737806  1
  Co  Co19  1  0.420731  0.420731  0.420731  1
  Co  Co20  1  0.512194  0.829269  0.829269  1
  Co  Co21  1  0.829269  0.512194  0.829269  1
  Co  Co22  1  0.829269  0.829269  0.512194  1
  Co  Co23  1  0.829269  0.829269  0.829269  1
  N  N24  1  0.625000  0.125000  0.125000  1
  N  N25  1  0.125000  0.625000  0.125000  1
  N  N26  1  0.125000  0.125000  0.625000  1
  N  N27  1  0.125000  0.125000  0.125000  1
