# generated using pymatgen
data_Pr12Ni(IrCl4)3
_symmetry_space_group_name_H-M   'P 1'
_cell_length_a   10.29984642
_cell_length_b   10.29984565
_cell_length_c   10.29984600
_cell_angle_alpha   109.46145675
_cell_angle_beta   109.46146114
_cell_angle_gamma   109.46145253
_symmetry_Int_Tables_number   1
_chemical_formula_structural   Pr12Ni(IrCl4)3
_chemical_formula_sum   'Pr12 Ni1 Ir3 Cl12'
_cell_volume   841.44784532
_cell_formula_units_Z   1
loop_
 _symmetry_equiv_pos_site_id
 _symmetry_equiv_pos_as_xyz
  1  'x, y, z'
loop_
 _atom_site_type_symbol
 _atom_site_label
 _atom_site_symmetry_multiplicity
 _atom_site_fract_x
 _atom_site_fract_y
 _atom_site_fract_z
 _atom_site_occupancy
  Pr  Pr0  1  0.474946  0.486764  0.239017  1
  Pr  Pr1  1  0.750000  0.239571  0.260429  1
  Pr  Pr2  1  0.750000  0.010646  0.489354  1
  Pr  Pr3  1  0.239017  0.474946  0.486764  1
  Pr  Pr4  1  0.260429  0.750000  0.239571  1
  Pr  Pr5  1  0.025054  0.260983  0.013236  1
  Pr  Pr6  1  0.013236  0.025054  0.260983  1
  Pr  Pr7  1  0.489354  0.750000  0.010646  1
  Pr  Pr8  1  0.486764  0.239017  0.474946  1
  Pr  Pr9  1  0.010646  0.489354  0.750000  1
  Pr  Pr10  1  0.260983  0.013236  0.025054  1
  Pr  Pr11  1  0.239571  0.260429  0.750000  1
  Ni  Ni12  1  0.250000  0.250000  0.250000  1
  Ir  Ir13  1  0.499422  0.000578  0.250000  1
  Ir  Ir14  1  0.000578  0.250000  0.499422  1
  Ir  Ir15  1  0.250000  0.499422  0.000578  1
  Cl  Cl16  1  0.250000  0.750543  0.749457  1
  Cl  Cl17  1  0.500389  0.499173  0.748353  1
  Cl  Cl18  1  0.999611  0.751647  0.000827  1
  Cl  Cl19  1  0.749457  0.250000  0.750543  1
  Cl  Cl20  1  0.000827  0.999611  0.751647  1
  Cl  Cl21  1  0.250000  0.999881  0.500119  1
  Cl  Cl22  1  0.748353  0.500389  0.499173  1
  Cl  Cl23  1  0.500119  0.250000  0.999881  1
  Cl  Cl24  1  0.750543  0.749457  0.250000  1
  Cl  Cl25  1  0.751647  0.000827  0.999611  1
  Cl  Cl26  1  0.999881  0.500119  0.250000  1
  Cl  Cl27  1  0.499173  0.748353  0.500389  1
