# generated using pymatgen
data_HoEr2Zn3Si2Pd
_symmetry_space_group_name_H-M   'P 1'
_cell_length_a   6.83803716
_cell_length_b   6.83550477
_cell_length_c   4.26207500
_cell_angle_alpha   90.00000000
_cell_angle_beta   90.00000000
_cell_angle_gamma   119.98773783
_symmetry_Int_Tables_number   1
_chemical_formula_structural   HoEr2Zn3Si2Pd
_chemical_formula_sum   'Ho1 Er2 Zn3 Si2 Pd1'
_cell_volume   172.54700102
_cell_formula_units_Z   1
loop_
 _symmetry_equiv_pos_site_id
 _symmetry_equiv_pos_as_xyz
  1  'x, y, z'
loop_
 _atom_site_type_symbol
 _atom_site_label
 _atom_site_symmetry_multiplicity
 _atom_site_fract_x
 _atom_site_fract_y
 _atom_site_fract_z
 _atom_site_occupancy
  Ho  Ho0  1  0.000000  0.585122  0.000000  1
  Er  Er1  1  0.414843  0.414840  0.000000  1
  Er  Er2  1  0.585157  0.999998  0.000000  1
  Zn  Zn3  1  0.756328  0.756457  0.500000  1
  Zn  Zn4  1  0.243672  0.000129  0.500000  1
  Zn  Zn5  1  0.000000  0.243424  0.500000  1
  Si  Si6  1  0.666439  0.333165  0.500000  1
  Si  Si7  1  0.333561  0.666727  0.500000  1
  Pd  Pd8  1  0.000000  0.000138  0.000000  1
