# generated using pymatgen
data_Ba2GePdBr
_symmetry_space_group_name_H-M   'P 1'
_cell_length_a   4.47538100
_cell_length_b   4.47538156
_cell_length_c   18.72811400
_cell_angle_alpha   90.00000000
_cell_angle_beta   90.00000000
_cell_angle_gamma   120.00000322
_symmetry_Int_Tables_number   1
_chemical_formula_structural   Ba2GePdBr
_chemical_formula_sum   'Ba4 Ge2 Pd2 Br2'
_cell_volume   324.85140101
_cell_formula_units_Z   2
loop_
 _symmetry_equiv_pos_site_id
 _symmetry_equiv_pos_as_xyz
  1  'x, y, z'
loop_
 _atom_site_type_symbol
 _atom_site_label
 _atom_site_symmetry_multiplicity
 _atom_site_fract_x
 _atom_site_fract_y
 _atom_site_fract_z
 _atom_site_occupancy
  Ba  Ba0  1  0.000000  0.000000  0.383690  1
  Ba  Ba1  1  0.000000  0.000000  0.883690  1
  Ba  Ba2  1  0.000000  0.000000  0.617322  1
  Ba  Ba3  1  0.000000  0.000000  0.117322  1
  Ge  Ge4  1  0.333333  0.666667  0.501722  1
  Ge  Ge5  1  0.666667  0.333333  0.001722  1
  Pd  Pd6  1  0.666667  0.333333  0.498200  1
  Pd  Pd7  1  0.333333  0.666667  0.998200  1
  Br  Br8  1  0.333333  0.666667  0.249067  1
  Br  Br9  1  0.666667  0.333333  0.749067  1
