# generated using pymatgen
data_Be3V2P
_symmetry_space_group_name_H-M   'P 1'
_cell_length_a   4.30135900
_cell_length_b   4.30135861
_cell_length_c   7.38474600
_cell_angle_alpha   90.00000000
_cell_angle_beta   90.00000000
_cell_angle_gamma   119.99999533
_symmetry_Int_Tables_number   1
_chemical_formula_structural   Be3V2P
_chemical_formula_sum   'Be6 V4 P2'
_cell_volume   118.32528441
_cell_formula_units_Z   2
loop_
 _symmetry_equiv_pos_site_id
 _symmetry_equiv_pos_as_xyz
  1  'x, y, z'
loop_
 _atom_site_type_symbol
 _atom_site_label
 _atom_site_symmetry_multiplicity
 _atom_site_fract_x
 _atom_site_fract_y
 _atom_site_fract_z
 _atom_site_occupancy
  Be  Be0  1  0.827679  0.655359  0.250000  1
  Be  Be1  1  0.172321  0.827679  0.750000  1
  Be  Be2  1  0.655359  0.827679  0.750000  1
  Be  Be3  1  0.344641  0.172321  0.250000  1
  Be  Be4  1  0.827679  0.172321  0.250000  1
  Be  Be5  1  0.172321  0.344641  0.750000  1
  V  V6  1  0.333333  0.666667  0.061826  1
  V  V7  1  0.666667  0.333333  0.561826  1
  V  V8  1  0.666667  0.333333  0.938174  1
  V  V9  1  0.333333  0.666667  0.438174  1
  P  P10  1  0.000000  0.000000  0.000000  1
  P  P11  1  0.000000  0.000000  0.500000  1
