# generated using pymatgen
data_Dy8Er12Si15Tc
_symmetry_space_group_name_H-M   'P 1'
_cell_length_a   7.31692347
_cell_length_b   7.71756867
_cell_length_c   14.48977100
_cell_angle_alpha   90.00000000
_cell_angle_beta   90.00000000
_cell_angle_gamma   90.16085423
_symmetry_Int_Tables_number   1
_chemical_formula_structural   Dy8Er12Si15Tc
_chemical_formula_sum   'Dy8 Er12 Si15 Tc1'
_cell_volume   818.21761543
_cell_formula_units_Z   1
loop_
 _symmetry_equiv_pos_site_id
 _symmetry_equiv_pos_as_xyz
  1  'x, y, z'
loop_
 _atom_site_type_symbol
 _atom_site_label
 _atom_site_symmetry_multiplicity
 _atom_site_fract_x
 _atom_site_fract_y
 _atom_site_fract_z
 _atom_site_occupancy
  Dy  Dy0  1  0.016798  0.182683  0.096638  1
  Dy  Dy1  1  0.986996  0.826564  0.904190  1
  Dy  Dy2  1  0.484624  0.680568  0.904135  1
  Dy  Dy3  1  0.986996  0.826564  0.595810  1
  Dy  Dy4  1  0.515531  0.318914  0.096622  1
  Dy  Dy5  1  0.016798  0.182683  0.403362  1
  Dy  Dy6  1  0.515531  0.318914  0.403378  1
  Dy  Dy7  1  0.484624  0.680568  0.595865  1
  Er  Er8  1  0.157202  0.510735  0.750000  1
  Er  Er9  1  0.838228  0.487382  0.250000  1
  Er  Er10  1  0.338827  0.013539  0.250000  1
  Er  Er11  1  0.667787  0.990018  0.750000  1
  Er  Er12  1  0.314313  0.173313  0.626934  1
  Er  Er13  1  0.674995  0.823943  0.375505  1
  Er  Er14  1  0.174324  0.679207  0.375418  1
  Er  Er15  1  0.674995  0.823943  0.124495  1
  Er  Er16  1  0.836037  0.316580  0.625551  1
  Er  Er17  1  0.314313  0.173313  0.873066  1
  Er  Er18  1  0.836037  0.316580  0.874449  1
  Er  Er19  1  0.174324  0.679207  0.124582  1
  Si  Si20  1  0.968797  0.893887  0.250000  1
  Si  Si21  1  0.470794  0.606778  0.250000  1
  Si  Si22  1  0.530269  0.396459  0.750000  1
  Si  Si23  1  0.279692  0.865319  0.750000  1
  Si  Si24  1  0.718712  0.130930  0.250000  1
  Si  Si25  1  0.220500  0.369505  0.250000  1
  Si  Si26  1  0.771130  0.626325  0.750000  1
  Si  Si27  1  0.158745  0.472378  0.537256  1
  Si  Si28  1  0.846033  0.532481  0.462015  1
  Si  Si29  1  0.345717  0.968991  0.460938  1
  Si  Si30  1  0.846033  0.532481  0.037985  1
  Si  Si31  1  0.650673  0.031159  0.537753  1
  Si  Si32  1  0.158745  0.472378  0.962744  1
  Si  Si33  1  0.650673  0.031159  0.962247  1
  Si  Si34  1  0.345717  0.968991  0.039062  1
  Tc  Tc35  1  0.028491  0.095561  0.750000  1
