# generated using pymatgen
data_TbDyV2(WO6)2
_symmetry_space_group_name_H-M   'P 1'
_cell_length_a   7.44734705
_cell_length_b   5.24991504
_cell_length_c   11.17550300
_cell_angle_alpha   90.00000000
_cell_angle_beta   90.00000000
_cell_angle_gamma   89.98652359
_symmetry_Int_Tables_number   1
_chemical_formula_structural   TbDyV2(WO6)2
_chemical_formula_sum   'Tb2 Dy2 V4 W4 O24'
_cell_volume   436.93912548
_cell_formula_units_Z   2
loop_
 _symmetry_equiv_pos_site_id
 _symmetry_equiv_pos_as_xyz
  1  'x, y, z'
loop_
 _atom_site_type_symbol
 _atom_site_label
 _atom_site_symmetry_multiplicity
 _atom_site_fract_x
 _atom_site_fract_y
 _atom_site_fract_z
 _atom_site_occupancy
  Tb  Tb0  1  0.253458  0.794470  0.545271  1
  Tb  Tb1  1  0.753457  0.294470  0.954728  1
  Dy  Dy2  1  0.253384  0.204696  0.045355  1
  Dy  Dy3  1  0.753383  0.704696  0.454645  1
  V  V4  1  0.505891  0.699520  0.134250  1
  V  V5  1  0.005891  0.199520  0.365750  1
  V  V6  1  0.506504  0.300193  0.633970  1
  V  V7  1  0.006504  0.800193  0.866030  1
  W  W8  1  0.998668  0.693628  0.143840  1
  W  W9  1  0.498669  0.193627  0.356160  1
  W  W10  1  0.998335  0.306215  0.643672  1
  W  W11  1  0.498336  0.806216  0.856328  1
  O  O12  1  0.543256  0.993356  0.019709  1
  O  O13  1  0.959405  0.985104  0.029729  1
  O  O14  1  0.755257  0.573313  0.116531  1
  O  O15  1  0.246356  0.815821  0.143076  1
  O  O16  1  0.071192  0.375694  0.206649  1
  O  O17  1  0.436651  0.357963  0.213275  1
  O  O18  1  0.936650  0.857963  0.286725  1
  O  O19  1  0.571192  0.875694  0.293351  1
  O  O20  1  0.746355  0.315823  0.356924  1
  O  O21  1  0.255257  0.073313  0.383469  1
  O  O22  1  0.459406  0.485105  0.470271  1
  O  O23  1  0.043256  0.493355  0.480291  1
  O  O24  1  0.544597  0.006296  0.519448  1
  O  O25  1  0.958346  0.014535  0.529500  1
  O  O26  1  0.755089  0.428140  0.616082  1
  O  O27  1  0.246332  0.185785  0.643061  1
  O  O28  1  0.070591  0.623768  0.706976  1
  O  O29  1  0.436888  0.641494  0.713677  1
  O  O30  1  0.936887  0.141494  0.786323  1
  O  O31  1  0.570591  0.123768  0.793024  1
  O  O32  1  0.746331  0.685783  0.856939  1
  O  O33  1  0.255089  0.928140  0.883918  1
  O  O34  1  0.458347  0.514534  0.970500  1
  O  O35  1  0.044597  0.506297  0.980552  1
