# generated using pymatgen
data_TbEr3(ScPt)4
_symmetry_space_group_name_H-M   'P 1'
_cell_length_a   4.62760200
_cell_length_b   6.95288084
_cell_length_c   8.36445779
_cell_angle_alpha   90.10326487
_cell_angle_beta   90.00000000
_cell_angle_gamma   90.00000000
_symmetry_Int_Tables_number   1
_chemical_formula_structural   TbEr3(ScPt)4
_chemical_formula_sum   'Tb1 Er3 Sc4 Pt4'
_cell_volume   269.12737475
_cell_formula_units_Z   1
loop_
 _symmetry_equiv_pos_site_id
 _symmetry_equiv_pos_as_xyz
  1  'x, y, z'
loop_
 _atom_site_type_symbol
 _atom_site_label
 _atom_site_symmetry_multiplicity
 _atom_site_fract_x
 _atom_site_fract_y
 _atom_site_fract_z
 _atom_site_occupancy
  Tb  Tb0  1  0.750000  0.515638  0.823687  1
  Er  Er1  1  0.250000  0.983307  0.323778  1
  Er  Er2  1  0.750000  0.017584  0.675105  1
  Er  Er3  1  0.250000  0.482447  0.176644  1
  Sc  Sc4  1  0.750000  0.642753  0.425577  1
  Sc  Sc5  1  0.250000  0.359001  0.571884  1
  Sc  Sc6  1  0.750000  0.140655  0.074518  1
  Sc  Sc7  1  0.250000  0.857912  0.926707  1
  Pt  Pt8  1  0.250000  0.243336  0.903468  1
  Pt  Pt9  1  0.750000  0.754102  0.099665  1
  Pt  Pt10  1  0.250000  0.747918  0.596618  1
  Pt  Pt11  1  0.750000  0.255344  0.402349  1
