# generated using pymatgen
data_Ho4LuCu2Sb
_symmetry_space_group_name_H-M   'P 1'
_cell_length_a   8.43561090
_cell_length_b   8.43560990
_cell_length_c   8.43561100
_cell_angle_alpha   124.66938875
_cell_angle_beta   124.66937577
_cell_angle_gamma   82.08636215
_symmetry_Int_Tables_number   1
_chemical_formula_structural   Ho4LuCu2Sb
_chemical_formula_sum   'Ho8 Lu2 Cu4 Sb2'
_cell_volume   390.40291151
_cell_formula_units_Z   2
loop_
 _symmetry_equiv_pos_site_id
 _symmetry_equiv_pos_as_xyz
  1  'x, y, z'
loop_
 _atom_site_type_symbol
 _atom_site_label
 _atom_site_symmetry_multiplicity
 _atom_site_fract_x
 _atom_site_fract_y
 _atom_site_fract_z
 _atom_site_occupancy
  Ho  Ho0  1  0.796426  0.296426  0.811778  1
  Ho  Ho1  1  0.203574  0.703574  0.188222  1
  Ho  Ho2  1  0.484647  0.984647  0.188223  1
  Ho  Ho3  1  0.296423  0.484652  0.500001  1
  Ho  Ho4  1  0.015348  0.203577  0.499999  1
  Ho  Ho5  1  0.515353  0.015353  0.811777  1
  Ho  Ho6  1  0.703577  0.515348  0.499999  1
  Ho  Ho7  1  0.984652  0.796423  0.500001  1
  Lu  Lu8  1  0.000000  0.000000  0.000000  1
  Lu  Lu9  1  0.500000  0.500000  0.000000  1
  Cu  Cu10  1  0.132423  0.632423  0.764891  1
  Cu  Cu11  1  0.867577  0.367577  0.235109  1
  Cu  Cu12  1  0.632463  0.867537  0.500000  1
  Cu  Cu13  1  0.367537  0.132463  0.500000  1
  Sb  Sb14  1  0.250000  0.250000  0.000000  1
  Sb  Sb15  1  0.750000  0.750000  0.000000  1
