# generated using pymatgen
data_K3Ba(GaPt)8
_symmetry_space_group_name_H-M   'P 1'
_cell_length_a   6.59255119
_cell_length_b   8.28997894
_cell_length_c   8.58638313
_cell_angle_alpha   84.88315374
_cell_angle_beta   90.15044167
_cell_angle_gamma   89.95956389
_symmetry_Int_Tables_number   1
_chemical_formula_structural   K3Ba(GaPt)8
_chemical_formula_sum   'K3 Ba1 Ga8 Pt8'
_cell_volume   467.39207008
_cell_formula_units_Z   1
loop_
 _symmetry_equiv_pos_site_id
 _symmetry_equiv_pos_as_xyz
  1  'x, y, z'
loop_
 _atom_site_type_symbol
 _atom_site_label
 _atom_site_symmetry_multiplicity
 _atom_site_fract_x
 _atom_site_fract_y
 _atom_site_fract_z
 _atom_site_occupancy
  K  K0  1  0.884039  0.503952  0.764029  1
  K  K1  1  0.386359  0.995352  0.233213  1
  K  K2  1  0.614105  0.003998  0.767177  1
  Ba  Ba3  1  0.111145  0.495894  0.228771  1
  Ga  Ga4  1  0.849262  0.809836  0.441883  1
  Ga  Ga5  1  0.080138  0.873624  0.927321  1
  Ga  Ga6  1  0.647548  0.307863  0.440306  1
  Ga  Ga7  1  0.148758  0.189944  0.562915  1
  Ga  Ga8  1  0.580774  0.628684  0.071277  1
  Ga  Ga9  1  0.922012  0.126502  0.072590  1
  Ga  Ga10  1  0.352366  0.692696  0.561886  1
  Ga  Ga11  1  0.424332  0.372434  0.925066  1
  Pt  Pt12  1  0.899792  0.107147  0.371831  1
  Pt  Pt13  1  0.101878  0.894312  0.628213  1
  Pt  Pt14  1  0.169863  0.172178  0.855889  1
  Pt  Pt15  1  0.395960  0.395545  0.626057  1
  Pt  Pt16  1  0.326875  0.669089  0.855832  1
  Pt  Pt17  1  0.833902  0.827388  0.147636  1
  Pt  Pt18  1  0.670209  0.327765  0.146160  1
  Pt  Pt19  1  0.600680  0.605797  0.371947  1
