# generated using pymatgen
data_PrPa2(Co3P2)3
_symmetry_space_group_name_H-M   'P 1'
_cell_length_a   3.76799700
_cell_length_b   10.45832600
_cell_length_c   12.37079100
_cell_angle_alpha   90.00000000
_cell_angle_beta   90.00000000
_cell_angle_gamma   90.00000000
_symmetry_Int_Tables_number   1
_chemical_formula_structural   PrPa2(Co3P2)3
_chemical_formula_sum   'Pr2 Pa4 Co18 P12'
_cell_volume   487.49503097
_cell_formula_units_Z   2
loop_
 _symmetry_equiv_pos_site_id
 _symmetry_equiv_pos_as_xyz
  1  'x, y, z'
loop_
 _atom_site_type_symbol
 _atom_site_label
 _atom_site_symmetry_multiplicity
 _atom_site_fract_x
 _atom_site_fract_y
 _atom_site_fract_z
 _atom_site_occupancy
  Pr  Pr0  1  0.000000  0.500000  0.518635  1
  Pr  Pr1  1  0.500000  0.000000  0.481365  1
  Pa  Pa2  1  0.500000  0.818127  0.207809  1
  Pa  Pa3  1  0.500000  0.181873  0.207809  1
  Pa  Pa4  1  0.000000  0.681873  0.792191  1
  Pa  Pa5  1  0.000000  0.318127  0.792191  1
  Co  Co6  1  0.500000  0.500000  0.158215  1
  Co  Co7  1  0.000000  0.000000  0.841785  1
  Co  Co8  1  0.500000  0.500000  0.711544  1
  Co  Co9  1  0.000000  0.000000  0.288456  1
  Co  Co10  1  0.000000  0.500000  0.983297  1
  Co  Co11  1  0.500000  0.000000  0.016703  1
  Co  Co12  1  0.500000  0.332784  0.996699  1
  Co  Co13  1  0.500000  0.667216  0.996699  1
  Co  Co14  1  0.000000  0.167216  0.003301  1
  Co  Co15  1  0.000000  0.832784  0.003301  1
  Co  Co16  1  0.500000  0.299180  0.424488  1
  Co  Co17  1  0.500000  0.700820  0.424488  1
  Co  Co18  1  0.000000  0.200820  0.575512  1
  Co  Co19  1  0.000000  0.799180  0.575512  1
  Co  Co20  1  0.500000  0.876923  0.716750  1
  Co  Co21  1  0.500000  0.123077  0.716750  1
  Co  Co22  1  0.000000  0.623077  0.283250  1
  Co  Co23  1  0.000000  0.376923  0.283250  1
  P  P24  1  0.500000  0.500000  0.887380  1
  P  P25  1  0.000000  0.000000  0.112620  1
  P  P26  1  0.500000  0.500000  0.337388  1
  P  P27  1  0.000000  0.000000  0.662612  1
  P  P28  1  0.500000  0.308542  0.613505  1
  P  P29  1  0.500000  0.691458  0.613505  1
  P  P30  1  0.000000  0.191458  0.386495  1
  P  P31  1  0.000000  0.808542  0.386495  1
  P  P32  1  0.500000  0.848121  0.896384  1
  P  P33  1  0.500000  0.151879  0.896384  1
  P  P34  1  0.000000  0.651879  0.103616  1
  P  P35  1  0.000000  0.348121  0.103616  1
