# generated using pymatgen
data_Sm2CrCo2P6Rh7
_symmetry_space_group_name_H-M   'P 1'
_cell_length_a   3.85797200
_cell_length_b   10.77282300
_cell_length_c   12.50081400
_cell_angle_alpha   90.00000000
_cell_angle_beta   90.00000000
_cell_angle_gamma   90.00000000
_symmetry_Int_Tables_number   1
_chemical_formula_structural   Sm2CrCo2P6Rh7
_chemical_formula_sum   'Sm4 Cr2 Co4 P12 Rh14'
_cell_volume   519.54944954
_cell_formula_units_Z   2
loop_
 _symmetry_equiv_pos_site_id
 _symmetry_equiv_pos_as_xyz
  1  'x, y, z'
loop_
 _atom_site_type_symbol
 _atom_site_label
 _atom_site_symmetry_multiplicity
 _atom_site_fract_x
 _atom_site_fract_y
 _atom_site_fract_z
 _atom_site_occupancy
  Sm  Sm0  1  0.250000  0.584909  0.707946  1
  Sm  Sm1  1  0.250000  0.915091  0.207946  1
  Sm  Sm2  1  0.750000  0.418343  0.292903  1
  Sm  Sm3  1  0.750000  0.081657  0.792903  1
  Cr  Cr4  1  0.250000  0.707711  0.986287  1
  Cr  Cr5  1  0.250000  0.792289  0.486287  1
  Co  Co6  1  0.250000  0.465276  0.934744  1
  Co  Co7  1  0.250000  0.034724  0.434744  1
  Co  Co8  1  0.750000  0.536132  0.063240  1
  Co  Co9  1  0.750000  0.963868  0.563240  1
  P  P10  1  0.250000  0.424688  0.105561  1
  P  P11  1  0.250000  0.075312  0.605561  1
  P  P12  1  0.750000  0.576376  0.893571  1
  P  P13  1  0.750000  0.923624  0.393571  1
  P  P14  1  0.250000  0.271749  0.872513  1
  P  P15  1  0.250000  0.228251  0.372513  1
  P  P16  1  0.750000  0.726014  0.127997  1
  P  P17  1  0.750000  0.773986  0.627997  1
  P  P18  1  0.250000  0.602290  0.389848  1
  P  P19  1  0.250000  0.897710  0.889848  1
  P  P20  1  0.750000  0.399872  0.610356  1
  P  P21  1  0.750000  0.100128  0.110356  1
  Rh  Rh22  1  0.750000  0.287630  0.014414  1
  Rh  Rh23  1  0.750000  0.212370  0.514414  1
  Rh  Rh24  1  0.250000  0.407745  0.484482  1
  Rh  Rh25  1  0.250000  0.092255  0.984482  1
  Rh  Rh26  1  0.750000  0.597108  0.516873  1
  Rh  Rh27  1  0.750000  0.902892  0.016873  1
  Rh  Rh28  1  0.250000  0.228669  0.178724  1
  Rh  Rh29  1  0.250000  0.271331  0.678724  1
  Rh  Rh30  1  0.750000  0.773834  0.823466  1
  Rh  Rh31  1  0.750000  0.726166  0.323466  1
  Rh  Rh32  1  0.250000  0.883953  0.695711  1
  Rh  Rh33  1  0.250000  0.616047  0.195711  1
  Rh  Rh34  1  0.750000  0.114077  0.301364  1
  Rh  Rh35  1  0.750000  0.385923  0.801364  1
