# generated using pymatgen
data_Th4Ga18(IrOs)3
_symmetry_space_group_name_H-M   'P 1'
_cell_length_a   7.70224848
_cell_length_b   7.70224831
_cell_length_c   9.56896899
_cell_angle_alpha   90.03729348
_cell_angle_beta   90.03729626
_cell_angle_gamma   119.62198295
_symmetry_Int_Tables_number   1
_chemical_formula_structural   Th4Ga18(IrOs)3
_chemical_formula_sum   'Th4 Ga18 Ir3 Os3'
_cell_volume   493.48297939
_cell_formula_units_Z   1
loop_
 _symmetry_equiv_pos_site_id
 _symmetry_equiv_pos_as_xyz
  1  'x, y, z'
loop_
 _atom_site_type_symbol
 _atom_site_label
 _atom_site_symmetry_multiplicity
 _atom_site_fract_x
 _atom_site_fract_y
 _atom_site_fract_z
 _atom_site_occupancy
  Th  Th0  1  0.996249  0.671414  0.248975  1
  Th  Th1  1  0.001323  0.327520  0.750855  1
  Th  Th2  1  0.672480  0.998677  0.249145  1
  Th  Th3  1  0.328586  0.003751  0.751025  1
  Ga  Ga4  1  0.131584  0.132176  0.250085  1
  Ga  Ga5  1  0.867824  0.868416  0.749915  1
  Ga  Ga6  1  0.004061  0.334400  0.078633  1
  Ga  Ga7  1  0.994037  0.664492  0.920965  1
  Ga  Ga8  1  0.995713  0.665798  0.579334  1
  Ga  Ga9  1  0.334202  0.004287  0.420666  1
  Ga  Ga10  1  0.004805  0.334757  0.420995  1
  Ga  Ga11  1  0.665243  0.995195  0.579005  1
  Ga  Ga12  1  0.665600  0.995939  0.921367  1
  Ga  Ga13  1  0.335508  0.005963  0.079035  1
  Ga  Ga14  1  0.334371  0.334621  0.559522  1
  Ga  Ga15  1  0.665379  0.665629  0.440478  1
  Ga  Ga16  1  0.665231  0.663283  0.058310  1
  Ga  Ga17  1  0.336717  0.334769  0.941690  1
  Ga  Ga18  1  0.340114  0.543479  0.249967  1
  Ga  Ga19  1  0.659696  0.455915  0.750866  1
  Ga  Ga20  1  0.544085  0.340304  0.249134  1
  Ga  Ga21  1  0.456521  0.659886  0.750033  1
  Ir  Ir22  1  0.327619  0.672381  0.000000  1
  Ir  Ir23  1  0.327919  0.672081  0.500000  1
  Ir  Ir24  1  0.671937  0.328063  0.500000  1
  Os  Os25  1  0.673104  0.326896  0.000000  1
  Os  Os26  1  0.999852  0.000148  0.000000  1
  Os  Os27  1  0.000241  0.999759  0.500000  1
