# generated using pymatgen
data_Dy8Lu4Co4SnRh
_symmetry_space_group_name_H-M   'P 1'
_cell_length_a   8.24910351
_cell_length_b   8.24876760
_cell_length_c   8.24910294
_cell_angle_alpha   110.96519741
_cell_angle_beta   110.57077720
_cell_angle_gamma   106.90954506
_symmetry_Int_Tables_number   1
_chemical_formula_structural   Dy8Lu4Co4SnRh
_chemical_formula_sum   'Dy8 Lu4 Co4 Sn1 Rh1'
_cell_volume   431.43799494
_cell_formula_units_Z   1
loop_
 _symmetry_equiv_pos_site_id
 _symmetry_equiv_pos_as_xyz
  1  'x, y, z'
loop_
 _atom_site_type_symbol
 _atom_site_label
 _atom_site_symmetry_multiplicity
 _atom_site_fract_x
 _atom_site_fract_y
 _atom_site_fract_z
 _atom_site_occupancy
  Dy  Dy0  1  0.411569  0.216601  0.194946  1
  Dy  Dy1  1  0.588431  0.783399  0.805054  1
  Dy  Dy2  1  0.021655  0.216601  0.805033  1
  Dy  Dy3  1  0.978345  0.783399  0.194967  1
  Dy  Dy4  1  0.185291  0.288711  0.474021  1
  Dy  Dy5  1  0.814709  0.711289  0.525979  1
  Dy  Dy6  1  0.185309  0.711289  0.896579  1
  Dy  Dy7  1  0.814691  0.288711  0.103421  1
  Lu  Lu8  1  0.316708  0.626886  0.310178  1
  Lu  Lu9  1  0.683292  0.373114  0.689822  1
  Lu  Lu10  1  0.316694  0.006551  0.689858  1
  Lu  Lu11  1  0.683306  0.993449  0.310142  1
  Co  Co12  1  0.376153  0.000000  0.376153  1
  Co  Co13  1  0.623847  0.000000  0.623847  1
  Co  Co14  1  0.112862  0.612856  0.499994  1
  Co  Co15  1  0.887138  0.387144  0.500006  1
  Sn  Sn16  1  0.500000  0.500000  0.000000  1
  Rh  Rh17  1  0.000000  0.000000  0.000000  1
