# generated using pymatgen
data_MnNb6FeB14
_symmetry_space_group_name_H-M   'P 1'
_cell_length_a   3.20077100
_cell_length_b   7.36665167
_cell_length_c   8.81386400
_cell_angle_alpha   90.00000000
_cell_angle_beta   90.00000000
_cell_angle_gamma   77.45259654
_symmetry_Int_Tables_number   1
_chemical_formula_structural   MnNb6FeB14
_chemical_formula_sum   'Mn1 Nb6 Fe1 B14'
_cell_volume   202.85830061
_cell_formula_units_Z   1
loop_
 _symmetry_equiv_pos_site_id
 _symmetry_equiv_pos_as_xyz
  1  'x, y, z'
loop_
 _atom_site_type_symbol
 _atom_site_label
 _atom_site_symmetry_multiplicity
 _atom_site_fract_x
 _atom_site_fract_y
 _atom_site_fract_z
 _atom_site_occupancy
  Mn  Mn0  1  0.048889  0.902223  0.750000  1
  Nb  Nb1  1  0.106818  0.786364  0.053278  1
  Nb  Nb2  1  0.751735  0.496534  0.250000  1
  Nb  Nb3  1  0.106818  0.786364  0.446721  1
  Nb  Nb4  1  0.893437  0.213128  0.555143  1
  Nb  Nb5  1  0.246998  0.506004  0.750000  1
  Nb  Nb6  1  0.893437  0.213128  0.944858  1
  Fe  Fe7  1  0.950739  0.098524  0.250000  1
  B  B8  1  0.272849  0.454303  0.033057  1
  B  B9  1  0.485171  0.029661  0.095045  1
  B  B10  1  0.368307  0.263388  0.151332  1
  B  B11  1  0.566013  0.867978  0.250000  1
  B  B12  1  0.368307  0.263388  0.348669  1
  B  B13  1  0.485171  0.029661  0.404955  1
  B  B14  1  0.272849  0.454303  0.466943  1
  B  B15  1  0.727139  0.545726  0.533120  1
  B  B16  1  0.514981  0.970040  0.594493  1
  B  B17  1  0.631422  0.737157  0.651470  1
  B  B18  1  0.435400  0.129200  0.750000  1
  B  B19  1  0.631422  0.737157  0.848529  1
  B  B20  1  0.514981  0.970040  0.905507  1
  B  B21  1  0.727139  0.545726  0.966880  1
