# generated using pymatgen
data_TbTmLu3CoSb2
_symmetry_space_group_name_H-M   'P 1'
_cell_length_a   7.73762200
_cell_length_b   8.74797300
_cell_length_c   12.00994100
_cell_angle_alpha   90.00000000
_cell_angle_beta   90.00000000
_cell_angle_gamma   90.00000000
_symmetry_Int_Tables_number   1
_chemical_formula_structural   TbTmLu3CoSb2
_chemical_formula_sum   'Tb4 Tm4 Lu12 Co4 Sb8'
_cell_volume   812.93499154
_cell_formula_units_Z   4
loop_
 _symmetry_equiv_pos_site_id
 _symmetry_equiv_pos_as_xyz
  1  'x, y, z'
loop_
 _atom_site_type_symbol
 _atom_site_label
 _atom_site_symmetry_multiplicity
 _atom_site_fract_x
 _atom_site_fract_y
 _atom_site_fract_z
 _atom_site_occupancy
  Tb  Tb0  1  0.622614  0.750000  0.307174  1
  Tb  Tb1  1  0.122614  0.250000  0.192826  1
  Tb  Tb2  1  0.377386  0.250000  0.692826  1
  Tb  Tb3  1  0.877386  0.750000  0.807174  1
  Tm  Tm4  1  0.155008  0.750000  0.204079  1
  Tm  Tm5  1  0.655008  0.250000  0.295921  1
  Tm  Tm6  1  0.844992  0.250000  0.795921  1
  Tm  Tm7  1  0.344992  0.750000  0.704079  1
  Lu  Lu8  1  0.446722  0.750000  0.997458  1
  Lu  Lu9  1  0.946722  0.250000  0.502542  1
  Lu  Lu10  1  0.553278  0.250000  0.002542  1
  Lu  Lu11  1  0.053278  0.750000  0.497458  1
  Lu  Lu12  1  0.823590  0.962097  0.065257  1
  Lu  Lu13  1  0.323590  0.037903  0.434743  1
  Lu  Lu14  1  0.176410  0.462097  0.934743  1
  Lu  Lu15  1  0.676410  0.537903  0.565257  1
  Lu  Lu16  1  0.176410  0.037903  0.934743  1
  Lu  Lu17  1  0.676410  0.962097  0.565257  1
  Lu  Lu18  1  0.823590  0.537903  0.065257  1
  Lu  Lu19  1  0.323590  0.462097  0.434743  1
  Co  Co20  1  0.431446  0.750000  0.491293  1
  Co  Co21  1  0.931446  0.250000  0.008707  1
  Co  Co22  1  0.568554  0.250000  0.508707  1
  Co  Co23  1  0.068554  0.750000  0.991293  1
  Sb  Sb24  1  0.931162  0.991700  0.329515  1
  Sb  Sb25  1  0.431162  0.008300  0.170485  1
  Sb  Sb26  1  0.068838  0.491700  0.670485  1
  Sb  Sb27  1  0.568838  0.508300  0.829515  1
  Sb  Sb28  1  0.068838  0.008300  0.670485  1
  Sb  Sb29  1  0.568838  0.991700  0.829515  1
  Sb  Sb30  1  0.931162  0.508300  0.329515  1
  Sb  Sb31  1  0.431162  0.491700  0.170485  1
