# generated using pymatgen
data_FeReP
_symmetry_space_group_name_H-M   'P 1'
_cell_length_a   3.78318800
_cell_length_b   5.75837400
_cell_length_c   6.59718700
_cell_angle_alpha   90.00000000
_cell_angle_beta   90.00000000
_cell_angle_gamma   90.00000000
_symmetry_Int_Tables_number   1
_chemical_formula_structural   FeReP
_chemical_formula_sum   'Fe4 Re4 P4'
_cell_volume   143.71979411
_cell_formula_units_Z   4
loop_
 _symmetry_equiv_pos_site_id
 _symmetry_equiv_pos_as_xyz
  1  'x, y, z'
loop_
 _atom_site_type_symbol
 _atom_site_label
 _atom_site_symmetry_multiplicity
 _atom_site_fract_x
 _atom_site_fract_y
 _atom_site_fract_z
 _atom_site_occupancy
  Fe  Fe0  1  0.000000  0.361314  0.318965  1
  Fe  Fe1  1  0.000000  0.861314  0.681035  1
  Fe  Fe2  1  0.500000  0.639029  0.180595  1
  Fe  Fe3  1  0.500000  0.139029  0.819405  1
  Re  Re4  1  0.500000  0.532210  0.585170  1
  Re  Re5  1  0.500000  0.032210  0.414830  1
  Re  Re6  1  0.000000  0.467269  0.914871  1
  Re  Re7  1  0.000000  0.967269  0.085129  1
  P  P8  1  0.500000  0.266085  0.129093  1
  P  P9  1  0.500000  0.766085  0.870907  1
  P  P10  1  0.000000  0.734093  0.370856  1
  P  P11  1  0.000000  0.234093  0.629144  1
