# generated using pymatgen
data_NaPa2Te5
_symmetry_space_group_name_H-M   'P 1'
_cell_length_a   9.50159132
_cell_length_b   9.50159132
_cell_length_c   9.50159118
_cell_angle_alpha   128.33623777
_cell_angle_beta   128.33623759
_cell_angle_gamma   76.08096781
_symmetry_Int_Tables_number   1
_chemical_formula_structural   NaPa2Te5
_chemical_formula_sum   'Na2 Pa4 Te10'
_cell_volume   513.07417173
_cell_formula_units_Z   2
loop_
 _symmetry_equiv_pos_site_id
 _symmetry_equiv_pos_as_xyz
  1  'x, y, z'
loop_
 _atom_site_type_symbol
 _atom_site_label
 _atom_site_symmetry_multiplicity
 _atom_site_fract_x
 _atom_site_fract_y
 _atom_site_fract_z
 _atom_site_occupancy
  Na  Na0  1  0.750000  0.750000  0.000000  1
  Na  Na1  1  0.250000  0.250000  0.000000  1
  Pa  Pa2  1  0.650651  0.150651  0.801303  1
  Pa  Pa3  1  0.349349  0.849349  0.198697  1
  Pa  Pa4  1  0.150651  0.349349  0.500000  1
  Pa  Pa5  1  0.849349  0.650651  0.500000  1
  Te  Te6  1  0.015031  0.515031  0.799090  1
  Te  Te7  1  0.715940  0.215940  0.200910  1
  Te  Te8  1  0.515031  0.715940  0.500000  1
  Te  Te9  1  0.215940  0.015031  0.500000  1
  Te  Te10  1  0.984969  0.484969  0.200910  1
  Te  Te11  1  0.284060  0.784060  0.799090  1
  Te  Te12  1  0.484969  0.284060  0.500000  1
  Te  Te13  1  0.784060  0.984969  0.500000  1
  Te  Te14  1  0.000000  0.000000  0.000000  1
  Te  Te15  1  0.500000  0.500000  0.000000  1
