# generated using pymatgen
data_Tb12Ce4MgHg3Ru4
_symmetry_space_group_name_H-M   'P 1'
_cell_length_a   9.63773562
_cell_length_b   9.66730419
_cell_length_c   9.66730400
_cell_angle_alpha   60.00000066
_cell_angle_beta   59.89846004
_cell_angle_gamma   59.89846526
_symmetry_Int_Tables_number   1
_chemical_formula_structural   Tb12Ce4MgHg3Ru4
_chemical_formula_sum   'Tb12 Ce4 Mg1 Hg3 Ru4'
_cell_volume   635.92007893
_cell_formula_units_Z   1
loop_
 _symmetry_equiv_pos_site_id
 _symmetry_equiv_pos_as_xyz
  1  'x, y, z'
loop_
 _atom_site_type_symbol
 _atom_site_label
 _atom_site_symmetry_multiplicity
 _atom_site_fract_x
 _atom_site_fract_y
 _atom_site_fract_z
 _atom_site_occupancy
  Tb  Tb0  1  0.059282  0.440639  0.440639  1
  Tb  Tb1  1  0.437293  0.061960  0.061960  1
  Tb  Tb2  1  0.437293  0.061960  0.438788  1
  Tb  Tb3  1  0.059282  0.440639  0.059440  1
  Tb  Tb4  1  0.437293  0.438788  0.061960  1
  Tb  Tb5  1  0.059282  0.059440  0.440639  1
  Tb  Tb6  1  0.186291  0.812208  0.812208  1
  Tb  Tb7  1  0.811256  0.188186  0.188186  1
  Tb  Tb8  1  0.811256  0.188186  0.812373  1
  Tb  Tb9  1  0.186291  0.812208  0.189293  1
  Tb  Tb10  1  0.811256  0.812373  0.188186  1
  Tb  Tb11  1  0.186291  0.189293  0.812208  1
  Ce  Ce12  1  0.596273  0.594881  0.594881  1
  Ce  Ce13  1  0.596273  0.594881  0.213966  1
  Ce  Ce14  1  0.596273  0.213966  0.594881  1
  Ce  Ce15  1  0.207521  0.597493  0.597493  1
  Mg  Mg16  1  0.532797  0.822401  0.822401  1
  Hg  Hg17  1  0.830998  0.835673  0.835673  1
  Hg  Hg18  1  0.830998  0.835673  0.497657  1
  Hg  Hg19  1  0.830998  0.497657  0.835673  1
  Ru  Ru20  1  0.393762  0.395243  0.395243  1
  Ru  Ru21  1  0.393762  0.395243  0.815751  1
  Ru  Ru22  1  0.393762  0.815751  0.395243  1
  Ru  Ru23  1  0.814220  0.395259  0.395259  1
