# generated using pymatgen
data_Zr10GaSiPb6
_symmetry_space_group_name_H-M   'P 1'
_cell_length_a   8.84003700
_cell_length_b   8.84003672
_cell_length_c   5.98129600
_cell_angle_alpha   90.00000000
_cell_angle_beta   90.00000000
_cell_angle_gamma   120.00000479
_symmetry_Int_Tables_number   1
_chemical_formula_structural   Zr10GaSiPb6
_chemical_formula_sum   'Zr10 Ga1 Si1 Pb6'
_cell_volume   404.79399161
_cell_formula_units_Z   1
loop_
 _symmetry_equiv_pos_site_id
 _symmetry_equiv_pos_as_xyz
  1  'x, y, z'
loop_
 _atom_site_type_symbol
 _atom_site_label
 _atom_site_symmetry_multiplicity
 _atom_site_fract_x
 _atom_site_fract_y
 _atom_site_fract_z
 _atom_site_occupancy
  Zr  Zr0  1  0.666667  0.333333  0.500000  1
  Zr  Zr1  1  0.333333  0.666667  0.500000  1
  Zr  Zr2  1  0.333333  0.666667  0.000000  1
  Zr  Zr3  1  0.666667  0.333333  0.000000  1
  Zr  Zr4  1  0.741334  0.741334  0.244509  1
  Zr  Zr5  1  0.258666  0.000000  0.244509  1
  Zr  Zr6  1  0.000000  0.258666  0.244509  1
  Zr  Zr7  1  0.258666  0.258666  0.755491  1
  Zr  Zr8  1  0.741334  0.000000  0.755491  1
  Zr  Zr9  1  0.000000  0.741334  0.755491  1
  Ga  Ga10  1  0.000000  0.000000  0.500000  1
  Si  Si11  1  0.000000  0.000000  0.000000  1
  Pb  Pb12  1  0.391533  0.391533  0.253352  1
  Pb  Pb13  1  0.608467  0.000000  0.253352  1
  Pb  Pb14  1  0.000000  0.608467  0.253352  1
  Pb  Pb15  1  0.608467  0.608467  0.746648  1
  Pb  Pb16  1  0.391533  0.000000  0.746648  1
  Pb  Pb17  1  0.000000  0.391533  0.746648  1
