# generated using pymatgen
data_Li4TbY7(ThAu5)4
_symmetry_space_group_name_H-M   'P 1'
_cell_length_a   8.47280078
_cell_length_b   8.47280015
_cell_length_c   13.44540725
_cell_angle_alpha   90.00416951
_cell_angle_beta   89.99582913
_cell_angle_gamma   126.54242655
_symmetry_Int_Tables_number   1
_chemical_formula_structural   Li4TbY7(ThAu5)4
_chemical_formula_sum   'Li4 Tb1 Y7 Th4 Au20'
_cell_volume   775.47623539
_cell_formula_units_Z   1
loop_
 _symmetry_equiv_pos_site_id
 _symmetry_equiv_pos_as_xyz
  1  'x, y, z'
loop_
 _atom_site_type_symbol
 _atom_site_label
 _atom_site_symmetry_multiplicity
 _atom_site_fract_x
 _atom_site_fract_y
 _atom_site_fract_z
 _atom_site_occupancy
  Li  Li0  1  0.719984  0.280016  0.250022  1
  Li  Li1  1  0.279978  0.720022  0.750041  1
  Li  Li2  1  0.534977  0.465023  0.250007  1
  Li  Li3  1  0.465082  0.534918  0.750055  1
  Tb  Tb4  1  0.119150  0.880850  0.449830  1
  Y  Y5  1  0.631344  0.368656  0.466299  1
  Y  Y6  1  0.368697  0.631303  0.533817  1
  Y  Y7  1  0.631548  0.368452  0.033787  1
  Y  Y8  1  0.368635  0.631365  0.965930  1
  Y  Y9  1  0.880779  0.119221  0.949768  1
  Y  Y10  1  0.119194  0.880806  0.050155  1
  Y  Y11  1  0.880561  0.119439  0.550317  1
  Th  Th12  1  0.932341  0.067659  0.249717  1
  Th  Th13  1  0.067501  0.932499  0.750081  1
  Th  Th14  1  0.318812  0.681188  0.249830  1
  Th  Th15  1  0.681212  0.318788  0.750172  1
  Au  Au16  1  0.321334  0.065492  0.249781  1
  Au  Au17  1  0.065634  0.321335  0.750290  1
  Au  Au18  1  0.678665  0.934366  0.750290  1
  Au  Au19  1  0.934508  0.678666  0.249781  1
  Au  Au20  1  0.575626  0.009954  0.394895  1
  Au  Au21  1  0.009912  0.575750  0.605104  1
  Au  Au22  1  0.575746  0.009890  0.105007  1
  Au  Au23  1  0.009975  0.575668  0.894998  1
  Au  Au24  1  0.424250  0.990088  0.605104  1
  Au  Au25  1  0.990046  0.424374  0.394895  1
  Au  Au26  1  0.424332  0.990025  0.894998  1
  Au  Au27  1  0.990110  0.424254  0.105007  1
  Au  Au28  1  0.683297  0.734373  0.392171  1
  Au  Au29  1  0.734336  0.683410  0.607795  1
  Au  Au30  1  0.682772  0.733885  0.107780  1
  Au  Au31  1  0.734137  0.682807  0.892265  1
  Au  Au32  1  0.316590  0.265664  0.607795  1
  Au  Au33  1  0.265627  0.316703  0.392171  1
  Au  Au34  1  0.317193  0.265863  0.892265  1
  Au  Au35  1  0.266115  0.317228  0.107780  1
