# generated using pymatgen
data_Ac3Eu(SeO4)6
_symmetry_space_group_name_H-M   'P 1'
_cell_length_a   10.34611282
_cell_length_b   10.34611272
_cell_length_c   10.34611300
_cell_angle_alpha   58.05149191
_cell_angle_beta   58.05149226
_cell_angle_gamma   58.05149170
_symmetry_Int_Tables_number   1
_chemical_formula_structural   Ac3Eu(SeO4)6
_chemical_formula_sum   'Ac3 Eu1 Se6 O24'
_cell_volume   748.10685069
_cell_formula_units_Z   1
loop_
 _symmetry_equiv_pos_site_id
 _symmetry_equiv_pos_as_xyz
  1  'x, y, z'
loop_
 _atom_site_type_symbol
 _atom_site_label
 _atom_site_symmetry_multiplicity
 _atom_site_fract_x
 _atom_site_fract_y
 _atom_site_fract_z
 _atom_site_occupancy
  Ac  Ac0  1  0.143281  0.143281  0.143281  1
  Ac  Ac1  1  0.861202  0.861202  0.861202  1
  Ac  Ac2  1  0.360248  0.360248  0.360248  1
  Eu  Eu3  1  0.643934  0.643934  0.643934  1
  Se  Se4  1  0.267649  0.535808  0.951001  1
  Se  Se5  1  0.461791  0.024126  0.757924  1
  Se  Se6  1  0.024126  0.757924  0.461791  1
  Se  Se7  1  0.951001  0.267649  0.535808  1
  Se  Se8  1  0.535808  0.951001  0.267649  1
  Se  Se9  1  0.757924  0.461791  0.024126  1
  O  O10  1  0.993800  0.798046  0.613373  1
  O  O11  1  0.798046  0.613373  0.993800  1
  O  O12  1  0.431327  0.550958  0.785270  1
  O  O13  1  0.299442  0.501725  0.109527  1
  O  O14  1  0.613373  0.993800  0.798046  1
  O  O15  1  0.496071  0.868180  0.722028  1
  O  O16  1  0.193712  0.598685  0.441477  1
  O  O17  1  0.111689  0.707496  0.923698  1
  O  O18  1  0.291349  0.045047  0.916012  1
  O  O19  1  0.441477  0.193712  0.598685  1
  O  O20  1  0.045047  0.916012  0.291349  1
  O  O21  1  0.868180  0.722028  0.496071  1
  O  O22  1  0.109527  0.299442  0.501725  1
  O  O23  1  0.923698  0.111689  0.707496  1
  O  O24  1  0.550958  0.785270  0.431327  1
  O  O25  1  0.707496  0.923698  0.111689  1
  O  O26  1  0.916012  0.291349  0.045047  1
  O  O27  1  0.785270  0.431327  0.550958  1
  O  O28  1  0.501725  0.109527  0.299442  1
  O  O29  1  0.382298  0.983345  0.228482  1
  O  O30  1  0.722028  0.496071  0.868180  1
  O  O31  1  0.598685  0.441477  0.193712  1
  O  O32  1  0.228482  0.382298  0.983345  1
  O  O33  1  0.983345  0.228482  0.382298  1
