# generated using pymatgen
data_CaTb8Mg(SiB4)4
_symmetry_space_group_name_H-M   'P 1'
_cell_length_a   7.22052800
_cell_length_b   7.22052800
_cell_length_c   8.05875900
_cell_angle_alpha   90.00000000
_cell_angle_beta   90.00000000
_cell_angle_gamma   90.00000000
_symmetry_Int_Tables_number   1
_chemical_formula_structural   CaTb8Mg(SiB4)4
_chemical_formula_sum   'Ca1 Tb8 Mg1 Si4 B16'
_cell_volume   420.15165746
_cell_formula_units_Z   1
loop_
 _symmetry_equiv_pos_site_id
 _symmetry_equiv_pos_as_xyz
  1  'x, y, z'
loop_
 _atom_site_type_symbol
 _atom_site_label
 _atom_site_symmetry_multiplicity
 _atom_site_fract_x
 _atom_site_fract_y
 _atom_site_fract_z
 _atom_site_occupancy
  Ca  Ca0  1  0.000000  0.000000  0.500000  1
  Tb  Tb1  1  0.681263  0.183267  0.229995  1
  Tb  Tb2  1  0.318737  0.816733  0.770005  1
  Tb  Tb3  1  0.318737  0.816733  0.229995  1
  Tb  Tb4  1  0.816733  0.681263  0.229995  1
  Tb  Tb5  1  0.816733  0.681263  0.770005  1
  Tb  Tb6  1  0.681263  0.183267  0.770005  1
  Tb  Tb7  1  0.183267  0.318737  0.770005  1
  Tb  Tb8  1  0.183267  0.318737  0.229995  1
  Mg  Mg9  1  0.500000  0.500000  0.500000  1
  Si  Si10  1  0.118921  0.609821  0.500000  1
  Si  Si11  1  0.881079  0.390179  0.500000  1
  Si  Si12  1  0.390179  0.118921  0.500000  1
  Si  Si13  1  0.609821  0.881079  0.500000  1
  B  B14  1  0.172741  0.039497  0.000000  1
  B  B15  1  0.827259  0.960503  0.000000  1
  B  B16  1  0.960503  0.172741  0.000000  1
  B  B17  1  0.326073  0.538936  0.000000  1
  B  B18  1  0.039497  0.827259  0.000000  1
  B  B19  1  0.673927  0.461064  0.000000  1
  B  B20  1  0.538936  0.673927  0.000000  1
  B  B21  1  0.461064  0.326073  0.000000  1
  B  B22  1  0.088932  0.589471  0.000000  1
  B  B23  1  0.911068  0.410529  0.000000  1
  B  B24  1  0.410529  0.088932  0.000000  1
  B  B25  1  0.589471  0.911068  0.000000  1
  B  B26  1  0.000000  0.000000  0.158749  1
  B  B27  1  0.000000  0.000000  0.841251  1
  B  B28  1  0.500000  0.500000  0.842829  1
  B  B29  1  0.500000  0.500000  0.157171  1
