# generated using pymatgen
data_Ho8Ti3Si16(Mo2W)3
_symmetry_space_group_name_H-M   'P 1'
_cell_length_a   6.89450083
_cell_length_b   6.89760452
_cell_length_c   12.78414026
_cell_angle_alpha   89.96353236
_cell_angle_beta   90.01309178
_cell_angle_gamma   89.88955194
_symmetry_Int_Tables_number   1
_chemical_formula_structural   Ho8Ti3Si16(Mo2W)3
_chemical_formula_sum   'Ho8 Ti3 Si16 Mo6 W3'
_cell_volume   607.95542579
_cell_formula_units_Z   1
loop_
 _symmetry_equiv_pos_site_id
 _symmetry_equiv_pos_as_xyz
  1  'x, y, z'
loop_
 _atom_site_type_symbol
 _atom_site_label
 _atom_site_symmetry_multiplicity
 _atom_site_fract_x
 _atom_site_fract_y
 _atom_site_fract_z
 _atom_site_occupancy
  Ho  Ho0  1  0.339616  0.001863  0.468510  1
  Ho  Ho1  1  0.496674  0.838840  0.719130  1
  Ho  Ho2  1  0.499907  0.161434  0.217541  1
  Ho  Ho3  1  0.838832  0.497342  0.280865  1
  Ho  Ho4  1  0.161690  0.499178  0.782501  1
  Ho  Ho5  1  0.659546  0.999790  0.968841  1
  Ho  Ho6  1  0.001785  0.339538  0.531413  1
  Ho  Ho7  1  0.999803  0.659830  0.031366  1
  Ti  Ti8  1  0.170192  0.831943  0.248519  1
  Ti  Ti9  1  0.831454  0.169826  0.751117  1
  Ti  Ti10  1  0.669376  0.669295  0.500184  1
  Si  Si11  1  0.200666  0.129581  0.683192  1
  Si  Si12  1  0.373269  0.697393  0.933872  1
  Si  Si13  1  0.628879  0.299393  0.433598  1
  Si  Si14  1  0.697953  0.373302  0.066283  1
  Si  Si15  1  0.298905  0.628954  0.566511  1
  Si  Si16  1  0.797508  0.871545  0.183939  1
  Si  Si17  1  0.129059  0.200693  0.316466  1
  Si  Si18  1  0.871818  0.797100  0.815819  1
  Si  Si19  1  0.289075  0.962349  0.062047  1
  Si  Si20  1  0.539480  0.791121  0.313845  1
  Si  Si21  1  0.458422  0.210059  0.814731  1
  Si  Si22  1  0.790847  0.539930  0.686359  1
  Si  Si23  1  0.210431  0.458625  0.185739  1
  Si  Si24  1  0.709348  0.041183  0.563820  1
  Si  Si25  1  0.962616  0.288334  0.937546  1
  Si  Si26  1  0.041331  0.710019  0.436058  1
  Mo  Mo27  1  0.156649  0.002095  0.873466  1
  Mo  Mo28  1  0.495383  0.665327  0.124396  1
  Mo  Mo29  1  0.505489  0.340347  0.624525  1
  Mo  Mo30  1  0.665258  0.495552  0.875563  1
  Mo  Mo31  1  0.340383  0.505461  0.375459  1
  Mo  Mo32  1  0.840591  0.993616  0.374437  1
  W  W33  1  0.330557  0.330952  0.000668  1
  W  W34  1  0.003376  0.157301  0.126080  1
  W  W35  1  0.993828  0.840890  0.625595  1
