# generated using pymatgen
data_NdY5Cd23Ge
_symmetry_space_group_name_H-M   'P 1'
_cell_length_a   9.99391811
_cell_length_b   9.98227044
_cell_length_c   9.98227080
_cell_angle_alpha   60.07721172
_cell_angle_beta   59.96139834
_cell_angle_gamma   59.96139471
_symmetry_Int_Tables_number   1
_chemical_formula_structural   NdY5Cd23Ge
_chemical_formula_sum   'Nd1 Y5 Cd23 Ge1'
_cell_volume   704.17126574
_cell_formula_units_Z   1
loop_
 _symmetry_equiv_pos_site_id
 _symmetry_equiv_pos_as_xyz
  1  'x, y, z'
loop_
 _atom_site_type_symbol
 _atom_site_label
 _atom_site_symmetry_multiplicity
 _atom_site_fract_x
 _atom_site_fract_y
 _atom_site_fract_z
 _atom_site_occupancy
  Nd  Nd0  1  0.207003  0.792997  0.792997  1
  Y  Y1  1  0.795316  0.795764  0.204684  1
  Y  Y2  1  0.204236  0.795764  0.204684  1
  Y  Y3  1  0.794061  0.205939  0.205939  1
  Y  Y4  1  0.204236  0.204684  0.795764  1
  Y  Y5  1  0.795316  0.204684  0.795764  1
  Cd  Cd6  1  0.838317  0.838951  0.484413  1
  Cd  Cd7  1  0.838317  0.484413  0.838951  1
  Cd  Cd8  1  0.488904  0.837825  0.837825  1
  Cd  Cd9  1  0.835445  0.837825  0.837825  1
  Cd  Cd10  1  0.162175  0.164555  0.511096  1
  Cd  Cd11  1  0.162175  0.511096  0.164555  1
  Cd  Cd12  1  0.515587  0.161683  0.161683  1
  Cd  Cd13  1  0.161049  0.161683  0.161683  1
  Cd  Cd14  1  0.622173  0.620965  0.134690  1
  Cd  Cd15  1  0.622173  0.134690  0.620965  1
  Cd  Cd16  1  0.131879  0.621278  0.621278  1
  Cd  Cd17  1  0.625567  0.621278  0.621278  1
  Cd  Cd18  1  0.378722  0.374433  0.868121  1
  Cd  Cd19  1  0.378722  0.868121  0.374433  1
  Cd  Cd20  1  0.865310  0.377827  0.377827  1
  Cd  Cd21  1  0.379035  0.377827  0.377827  1
  Cd  Cd22  1  0.999600  0.000400  0.499881  1
  Cd  Cd23  1  0.500119  0.000400  0.499881  1
  Cd  Cd24  1  0.999449  0.500551  0.500551  1
  Cd  Cd25  1  0.500119  0.499881  0.000400  1
  Cd  Cd26  1  0.999600  0.499881  0.000400  1
  Cd  Cd27  1  0.499449  0.000551  0.000551  1
  Cd  Cd28  1  0.498364  0.501636  0.501636  1
  Ge  Ge29  1  0.997580  0.002420  0.002420  1
