# generated using pymatgen
data_Er2Ga9Ru2Rh
_symmetry_space_group_name_H-M   'P 1'
_cell_length_a   7.50950984
_cell_length_b   7.50951043
_cell_length_c   9.62980200
_cell_angle_alpha   90.00000000
_cell_angle_beta   90.00000000
_cell_angle_gamma   120.00578044
_symmetry_Int_Tables_number   1
_chemical_formula_structural   Er2Ga9Ru2Rh
_chemical_formula_sum   'Er4 Ga18 Ru4 Rh2'
_cell_volume   470.26851754
_cell_formula_units_Z   2
loop_
 _symmetry_equiv_pos_site_id
 _symmetry_equiv_pos_as_xyz
  1  'x, y, z'
loop_
 _atom_site_type_symbol
 _atom_site_label
 _atom_site_symmetry_multiplicity
 _atom_site_fract_x
 _atom_site_fract_y
 _atom_site_fract_z
 _atom_site_occupancy
  Er  Er0  1  0.997037  0.666984  0.250000  1
  Er  Er1  1  0.002963  0.333016  0.750000  1
  Er  Er2  1  0.666984  0.997037  0.250000  1
  Er  Er3  1  0.333016  0.002963  0.750000  1
  Ga  Ga4  1  0.125966  0.125966  0.250000  1
  Ga  Ga5  1  0.874034  0.874034  0.750000  1
  Ga  Ga6  1  0.001161  0.334821  0.078822  1
  Ga  Ga7  1  0.998839  0.665179  0.921178  1
  Ga  Ga8  1  0.998839  0.665179  0.578822  1
  Ga  Ga9  1  0.334821  0.001161  0.421178  1
  Ga  Ga10  1  0.001161  0.334821  0.421178  1
  Ga  Ga11  1  0.665179  0.998839  0.578822  1
  Ga  Ga12  1  0.665179  0.998839  0.921178  1
  Ga  Ga13  1  0.334821  0.001161  0.078822  1
  Ga  Ga14  1  0.335620  0.335620  0.563227  1
  Ga  Ga15  1  0.664380  0.664380  0.436773  1
  Ga  Ga16  1  0.664380  0.664380  0.063227  1
  Ga  Ga17  1  0.335620  0.335620  0.936773  1
  Ga  Ga18  1  0.337291  0.547285  0.250000  1
  Ga  Ga19  1  0.662709  0.452715  0.750000  1
  Ga  Ga20  1  0.547285  0.337291  0.250000  1
  Ga  Ga21  1  0.452715  0.662709  0.750000  1
  Ru  Ru22  1  0.673096  0.326904  0.000000  1
  Ru  Ru23  1  0.326904  0.673096  0.000000  1
  Ru  Ru24  1  0.326904  0.673096  0.500000  1
  Ru  Ru25  1  0.673096  0.326904  0.500000  1
  Rh  Rh26  1  0.000000  0.000000  0.000000  1
  Rh  Rh27  1  0.000000  0.000000  0.500000  1
