# generated using pymatgen
data_Ca2LuUN4
_symmetry_space_group_name_H-M   'P 1'
_cell_length_a   6.87849737
_cell_length_b   9.12623087
_cell_length_c   5.99786285
_cell_angle_alpha   29.15514845
_cell_angle_beta   55.01148116
_cell_angle_gamma   41.08754905
_symmetry_Int_Tables_number   1
_chemical_formula_structural   Ca2LuUN4
_chemical_formula_sum   'Ca2 Lu1 U1 N4'
_cell_volume   116.24627408
_cell_formula_units_Z   1
loop_
 _symmetry_equiv_pos_site_id
 _symmetry_equiv_pos_as_xyz
  1  'x, y, z'
loop_
 _atom_site_type_symbol
 _atom_site_label
 _atom_site_symmetry_multiplicity
 _atom_site_fract_x
 _atom_site_fract_y
 _atom_site_fract_z
 _atom_site_occupancy
  Ca  Ca0  1  0.750000  0.500000  0.000000  1
  Ca  Ca1  1  0.500000  0.000000  0.000000  1
  Lu  Lu2  1  0.250000  0.500000  0.000000  1
  U  U3  1  0.000000  0.000000  0.000000  1
  N  N4  1  0.487235  0.500000  0.525529  1
  N  N5  1  0.216348  0.000000  0.567303  1
  N  N6  1  0.012765  0.500000  0.474471  1
  N  N7  1  0.783652  0.000000  0.432697  1
