# generated using pymatgen
data_Sm4AlZn5Pt8
_symmetry_space_group_name_H-M   'P 1'
_cell_length_a   8.08874188
_cell_length_b   8.08874154
_cell_length_c   7.66877900
_cell_angle_alpha   89.90178863
_cell_angle_beta   90.09820428
_cell_angle_gamma   139.51007242
_symmetry_Int_Tables_number   1
_chemical_formula_structural   Sm4AlZn5Pt8
_chemical_formula_sum   'Sm4 Al1 Zn5 Pt8'
_cell_volume   325.79352000
_cell_formula_units_Z   1
loop_
 _symmetry_equiv_pos_site_id
 _symmetry_equiv_pos_as_xyz
  1  'x, y, z'
loop_
 _atom_site_type_symbol
 _atom_site_label
 _atom_site_symmetry_multiplicity
 _atom_site_fract_x
 _atom_site_fract_y
 _atom_site_fract_z
 _atom_site_occupancy
  Sm  Sm0  1  0.112342  0.887658  0.408741  1
  Sm  Sm1  1  0.887658  0.112342  0.591259  1
  Sm  Sm2  1  0.388296  0.611704  0.912618  1
  Sm  Sm3  1  0.611704  0.388296  0.087382  1
  Al  Al4  1  0.500000  0.500000  0.500000  1
  Zn  Zn5  1  0.000000  0.000000  0.000000  1
  Zn  Zn6  1  0.022141  0.476592  0.250737  1
  Zn  Zn7  1  0.476592  0.022141  0.749263  1
  Zn  Zn8  1  0.977859  0.523408  0.749263  1
  Zn  Zn9  1  0.523408  0.977859  0.250737  1
  Pt  Pt10  1  0.192045  0.305991  0.254480  1
  Pt  Pt11  1  0.305991  0.192045  0.745520  1
  Pt  Pt12  1  0.807955  0.694009  0.745520  1
  Pt  Pt13  1  0.694009  0.807955  0.254480  1
  Pt  Pt14  1  0.179072  0.820928  0.024032  1
  Pt  Pt15  1  0.820928  0.179072  0.975968  1
  Pt  Pt16  1  0.324294  0.675706  0.525243  1
  Pt  Pt17  1  0.675706  0.324294  0.474757  1
