# generated using pymatgen
data_YTaCrB6
_symmetry_space_group_name_H-M   'P 1'
_cell_length_a   3.40982800
_cell_length_b   8.92103800
_cell_length_c   11.28710000
_cell_angle_alpha   90.00000000
_cell_angle_beta   90.00000000
_cell_angle_gamma   90.00000000
_symmetry_Int_Tables_number   1
_chemical_formula_structural   YTaCrB6
_chemical_formula_sum   'Y4 Ta4 Cr4 B24'
_cell_volume   343.34461058
_cell_formula_units_Z   4
loop_
 _symmetry_equiv_pos_site_id
 _symmetry_equiv_pos_as_xyz
  1  'x, y, z'
loop_
 _atom_site_type_symbol
 _atom_site_label
 _atom_site_symmetry_multiplicity
 _atom_site_fract_x
 _atom_site_fract_y
 _atom_site_fract_z
 _atom_site_occupancy
  Y  Y0  1  0.000000  0.822445  0.085944  1
  Y  Y1  1  0.000000  0.177555  0.914056  1
  Y  Y2  1  0.000000  0.322445  0.414056  1
  Y  Y3  1  0.000000  0.677555  0.585944  1
  Ta  Ta4  1  0.000000  0.444950  0.127772  1
  Ta  Ta5  1  0.000000  0.555050  0.872228  1
  Ta  Ta6  1  0.000000  0.944950  0.372228  1
  Ta  Ta7  1  0.000000  0.055050  0.627772  1
  Cr  Cr8  1  0.000000  0.143533  0.183596  1
  Cr  Cr9  1  0.000000  0.856467  0.816404  1
  Cr  Cr10  1  0.000000  0.643533  0.316404  1
  Cr  Cr11  1  0.000000  0.356467  0.683596  1
  B  B12  1  0.500000  0.054708  0.067914  1
  B  B13  1  0.500000  0.945292  0.932086  1
  B  B14  1  0.500000  0.554708  0.432086  1
  B  B15  1  0.500000  0.445292  0.567914  1
  B  B16  1  0.500000  0.253750  0.082990  1
  B  B17  1  0.500000  0.746250  0.917010  1
  B  B18  1  0.500000  0.753750  0.417010  1
  B  B19  1  0.500000  0.246250  0.582990  1
  B  B20  1  0.500000  0.296584  0.235958  1
  B  B21  1  0.500000  0.703416  0.764042  1
  B  B22  1  0.500000  0.796584  0.264042  1
  B  B23  1  0.500000  0.203416  0.735958  1
  B  B24  1  0.500000  0.129710  0.317344  1
  B  B25  1  0.500000  0.870290  0.682656  1
  B  B26  1  0.500000  0.629710  0.182656  1
  B  B27  1  0.500000  0.370290  0.817344  1
  B  B28  1  0.500000  0.482325  0.286276  1
  B  B29  1  0.500000  0.517675  0.713724  1
  B  B30  1  0.500000  0.982325  0.213724  1
  B  B31  1  0.500000  0.017675  0.786276  1
  B  B32  1  0.500000  0.098878  0.473881  1
  B  B33  1  0.500000  0.901122  0.526119  1
  B  B34  1  0.500000  0.598878  0.026119  1
  B  B35  1  0.500000  0.401122  0.973881  1
