# generated using pymatgen
data_DyHf2Sn3Rh10
_symmetry_space_group_name_H-M   'P 1'
_cell_length_a   4.21102300
_cell_length_b   5.66172223
_cell_length_c   11.15248793
_cell_angle_alpha   91.11686375
_cell_angle_beta   90.00000000
_cell_angle_gamma   90.00000000
_symmetry_Int_Tables_number   1
_chemical_formula_structural   DyHf2Sn3Rh10
_chemical_formula_sum   'Dy1 Hf2 Sn3 Rh10'
_cell_volume   265.84311539
_cell_formula_units_Z   1
loop_
 _symmetry_equiv_pos_site_id
 _symmetry_equiv_pos_as_xyz
  1  'x, y, z'
loop_
 _atom_site_type_symbol
 _atom_site_label
 _atom_site_symmetry_multiplicity
 _atom_site_fract_x
 _atom_site_fract_y
 _atom_site_fract_z
 _atom_site_occupancy
  Dy  Dy0  1  0.500000  0.828126  0.359161  1
  Hf  Hf1  1  0.500000  0.669037  0.860107  1
  Hf  Hf2  1  0.500000  0.321256  0.141875  1
  Sn  Sn3  1  0.500000  0.167252  0.646343  1
  Sn  Sn4  1  0.000000  0.519005  0.497206  1
  Sn  Sn5  1  0.000000  0.999750  0.000047  1
  Rh  Rh6  1  0.500000  0.196347  0.888888  1
  Rh  Rh7  1  0.500000  0.796257  0.106869  1
  Rh  Rh8  1  0.500000  0.690679  0.619684  1
  Rh  Rh9  1  0.500000  0.315351  0.383764  1
  Rh  Rh10  1  0.000000  0.423484  0.741924  1
  Rh  Rh11  1  0.000000  0.559665  0.244345  1
  Rh  Rh12  1  0.000000  0.031048  0.509394  1
  Rh  Rh13  1  0.000000  0.497985  0.995862  1
  Rh  Rh14  1  0.000000  0.069982  0.243846  1
  Rh  Rh15  1  0.000000  0.914777  0.760685  1
