# generated using pymatgen
data_Tm6Mn2Al24FeRu2Au3
_symmetry_space_group_name_H-M   'P 1'
_cell_length_a   8.83386000
_cell_length_b   8.76106541
_cell_length_c   9.40523500
_cell_angle_alpha   89.95653636
_cell_angle_beta   90.04724350
_cell_angle_gamma   119.46963308
_symmetry_Int_Tables_number   1
_chemical_formula_structural   Tm6Mn2Al24FeRu2Au3
_chemical_formula_sum   'Tm6 Mn2 Al24 Fe1 Ru2 Au3'
_cell_volume   633.72935806
_cell_formula_units_Z   1
loop_
 _symmetry_equiv_pos_site_id
 _symmetry_equiv_pos_as_xyz
  1  'x, y, z'
loop_
 _atom_site_type_symbol
 _atom_site_label
 _atom_site_symmetry_multiplicity
 _atom_site_fract_x
 _atom_site_fract_y
 _atom_site_fract_z
 _atom_site_occupancy
  Tm  Tm0  1  0.808355  0.194263  0.749205  1
  Tm  Tm1  1  0.191645  0.805737  0.250795  1
  Tm  Tm2  1  0.383056  0.189917  0.749974  1
  Tm  Tm3  1  0.616944  0.810083  0.250026  1
  Tm  Tm4  1  0.810193  0.614393  0.744064  1
  Tm  Tm5  1  0.189807  0.385607  0.255936  1
  Mn  Mn6  1  0.000000  0.000000  0.000000  1
  Mn  Mn7  1  0.000000  0.000000  0.500000  1
  Al  Al8  1  0.678720  0.339933  0.970636  1
  Al  Al9  1  0.321280  0.660067  0.029364  1
  Al  Al10  1  0.331940  0.679402  0.473763  1
  Al  Al11  1  0.668060  0.320598  0.526237  1
  Al  Al12  1  0.837628  0.158990  0.423324  1
  Al  Al13  1  0.162372  0.841010  0.576676  1
  Al  Al14  1  0.316236  0.144864  0.425687  1
  Al  Al15  1  0.149711  0.833313  0.918405  1
  Al  Al16  1  0.683764  0.855136  0.574313  1
  Al  Al17  1  0.850289  0.166687  0.081595  1
  Al  Al18  1  0.851372  0.684451  0.421509  1
  Al  Al19  1  0.691022  0.845381  0.917384  1
  Al  Al20  1  0.148628  0.315549  0.578491  1
  Al  Al21  1  0.308978  0.154619  0.082616  1
  Al  Al22  1  0.148300  0.315058  0.920685  1
  Al  Al23  1  0.851700  0.684942  0.079315  1
  Al  Al24  1  0.432180  0.567219  0.749724  1
  Al  Al25  1  0.567820  0.432781  0.250276  1
  Al  Al26  1  0.121237  0.561054  0.749805  1
  Al  Al27  1  0.878763  0.438946  0.250195  1
  Al  Al28  1  0.437708  0.877003  0.737192  1
  Al  Al29  1  0.562292  0.122997  0.262808  1
  Al  Al30  1  0.003183  0.000341  0.749016  1
  Al  Al31  1  0.996817  0.999659  0.250984  1
  Fe  Fe32  1  0.500000  0.000000  0.500000  1
  Ru  Ru33  1  0.000000  0.500000  0.000000  1
  Ru  Ru34  1  0.000000  0.500000  0.500000  1
  Au  Au35  1  0.500000  0.500000  0.000000  1
  Au  Au36  1  0.500000  0.500000  0.500000  1
  Au  Au37  1  0.500000  0.000000  0.000000  1
