# generated using pymatgen
data_La4Co6O19
_symmetry_space_group_name_H-M   'P 1'
_cell_length_a   7.55425225
_cell_length_b   7.55425261
_cell_length_c   7.55425300
_cell_angle_alpha   109.47122705
_cell_angle_beta   109.47122801
_cell_angle_gamma   109.47121610
_symmetry_Int_Tables_number   1
_chemical_formula_structural   La4Co6O19
_chemical_formula_sum   'La4 Co6 O19'
_cell_volume   331.85821359
_cell_formula_units_Z   1
loop_
 _symmetry_equiv_pos_site_id
 _symmetry_equiv_pos_as_xyz
  1  'x, y, z'
loop_
 _atom_site_type_symbol
 _atom_site_label
 _atom_site_symmetry_multiplicity
 _atom_site_fract_x
 _atom_site_fract_y
 _atom_site_fract_z
 _atom_site_occupancy
  La  La0  1  0.000000  0.000000  0.330944  1
  La  La1  1  0.000000  0.330944  0.000000  1
  La  La2  1  0.669056  0.669056  0.669056  1
  La  La3  1  0.330944  0.000000  0.000000  1
  Co  Co4  1  0.343002  0.500000  0.843002  1
  Co  Co5  1  0.843002  0.343002  0.500000  1
  Co  Co6  1  0.500000  0.156998  0.656998  1
  Co  Co7  1  0.156998  0.656998  0.500000  1
  Co  Co8  1  0.500000  0.843002  0.343002  1
  Co  Co9  1  0.656998  0.500000  0.156998  1
  O  O10  1  0.356649  0.000000  0.356649  1
  O  O11  1  0.356649  0.356649  0.000000  1
  O  O12  1  0.000000  0.643351  0.643351  1
  O  O13  1  0.643351  0.643351  0.000000  1
  O  O14  1  0.000000  0.356649  0.356649  1
  O  O15  1  0.643351  0.000000  0.643351  1
  O  O16  1  0.000000  0.000000  0.000000  1
  O  O17  1  0.362295  0.319418  0.619881  1
  O  O18  1  0.042877  0.300462  0.680582  1
  O  O19  1  0.742414  0.380119  0.699538  1
  O  O20  1  0.380119  0.699538  0.742414  1
  O  O21  1  0.257586  0.957123  0.637705  1
  O  O22  1  0.619881  0.362295  0.319418  1
  O  O23  1  0.319418  0.619881  0.362295  1
  O  O24  1  0.680582  0.042877  0.300462  1
  O  O25  1  0.957123  0.637705  0.257586  1
  O  O26  1  0.699538  0.742414  0.380119  1
  O  O27  1  0.637705  0.257586  0.957123  1
  O  O28  1  0.300462  0.680582  0.042877  1
