# generated using pymatgen
data_LiTbSi2Pt
_symmetry_space_group_name_H-M   'P 1'
_cell_length_a   5.95276686
_cell_length_b   5.95276752
_cell_length_c   5.95276675
_cell_angle_alpha   140.74514861
_cell_angle_beta   140.74515158
_cell_angle_gamma   56.72361481
_symmetry_Int_Tables_number   1
_chemical_formula_structural   LiTbSi2Pt
_chemical_formula_sum   'Li1 Tb1 Si2 Pt1'
_cell_volume   83.77387595
_cell_formula_units_Z   1
loop_
 _symmetry_equiv_pos_site_id
 _symmetry_equiv_pos_as_xyz
  1  'x, y, z'
loop_
 _atom_site_type_symbol
 _atom_site_label
 _atom_site_symmetry_multiplicity
 _atom_site_fract_x
 _atom_site_fract_y
 _atom_site_fract_z
 _atom_site_occupancy
  Li  Li0  1  0.250000  0.750000  0.500000  1
  Tb  Tb1  1  0.000000  0.000000  0.000000  1
  Si  Si2  1  0.388531  0.388531  0.000000  1
  Si  Si3  1  0.611469  0.611469  0.000000  1
  Pt  Pt4  1  0.750000  0.250000  0.500000  1
