# generated using pymatgen
data_Y3Er3ScCo17P12
_symmetry_space_group_name_H-M   'P 1'
_cell_length_a   3.71037500
_cell_length_b   10.58815302
_cell_length_c   12.27901602
_cell_angle_alpha   90.00727133
_cell_angle_beta   90.00000000
_cell_angle_gamma   90.00000000
_symmetry_Int_Tables_number   1
_chemical_formula_structural   Y3Er3ScCo17P12
_chemical_formula_sum   'Y3 Er3 Sc1 Co17 P12'
_cell_volume   482.39364396
_cell_formula_units_Z   1
loop_
 _symmetry_equiv_pos_site_id
 _symmetry_equiv_pos_as_xyz
  1  'x, y, z'
loop_
 _atom_site_type_symbol
 _atom_site_label
 _atom_site_symmetry_multiplicity
 _atom_site_fract_x
 _atom_site_fract_y
 _atom_site_fract_z
 _atom_site_occupancy
  Y  Y0  1  0.000000  0.500072  0.527730  1
  Y  Y1  1  0.500000  0.999953  0.477804  1
  Y  Y2  1  0.500000  0.178539  0.207222  1
  Er  Er3  1  0.500000  0.821394  0.207454  1
  Er  Er4  1  0.000000  0.682231  0.795779  1
  Er  Er5  1  0.000000  0.317721  0.795845  1
  Sc  Sc6  1  0.500000  0.500358  0.152397  1
  Co  Co7  1  0.000000  0.999933  0.837138  1
  Co  Co8  1  0.500000  0.500091  0.704382  1
  Co  Co9  1  0.000000  0.998952  0.295431  1
  Co  Co10  1  0.000000  0.500366  0.984094  1
  Co  Co11  1  0.500000  0.999643  0.012896  1
  Co  Co12  1  0.500000  0.326993  0.989089  1
  Co  Co13  1  0.500000  0.673355  0.989452  1
  Co  Co14  1  0.000000  0.162238  0.001194  1
  Co  Co15  1  0.000000  0.837365  0.001307  1
  Co  Co16  1  0.500000  0.294776  0.434642  1
  Co  Co17  1  0.500000  0.705320  0.434135  1
  Co  Co18  1  0.000000  0.202100  0.571185  1
  Co  Co19  1  0.000000  0.797848  0.570861  1
  Co  Co20  1  0.500000  0.880000  0.708176  1
  Co  Co21  1  0.500000  0.120035  0.708294  1
  Co  Co22  1  0.000000  0.623096  0.295843  1
  Co  Co23  1  0.000000  0.377839  0.296548  1
  P  P24  1  0.500000  0.500181  0.882838  1
  P  P25  1  0.000000  0.999223  0.115874  1
  P  P26  1  0.500000  0.499964  0.357671  1
  P  P27  1  0.000000  0.000017  0.655305  1
  P  P28  1  0.500000  0.309114  0.618778  1
  P  P29  1  0.500000  0.690923  0.618525  1
  P  P30  1  0.000000  0.189013  0.386467  1
  P  P31  1  0.000000  0.810742  0.385685  1
  P  P32  1  0.500000  0.851272  0.888561  1
  P  P33  1  0.500000  0.148594  0.888739  1
  P  P34  1  0.000000  0.663756  0.101734  1
  P  P35  1  0.000000  0.336984  0.100922  1
