# generated using pymatgen
data_Na2AlPt3
_symmetry_space_group_name_H-M   'P 1'
_cell_length_a   5.57480500
_cell_length_b   5.57480547
_cell_length_c   7.83867800
_cell_angle_alpha   90.00000000
_cell_angle_beta   90.00000000
_cell_angle_gamma   120.00000317
_symmetry_Int_Tables_number   1
_chemical_formula_structural   Na2AlPt3
_chemical_formula_sum   'Na4 Al2 Pt6'
_cell_volume   210.97589628
_cell_formula_units_Z   2
loop_
 _symmetry_equiv_pos_site_id
 _symmetry_equiv_pos_as_xyz
  1  'x, y, z'
loop_
 _atom_site_type_symbol
 _atom_site_label
 _atom_site_symmetry_multiplicity
 _atom_site_fract_x
 _atom_site_fract_y
 _atom_site_fract_z
 _atom_site_occupancy
  Na  Na0  1  0.333333  0.666666  0.074771  1
  Na  Na1  1  0.333333  0.666666  0.425229  1
  Na  Na2  1  0.666667  0.333333  0.574772  1
  Na  Na3  1  0.666667  0.333333  0.925228  1
  Al  Al4  1  0.000000  0.000000  0.000000  1
  Al  Al5  1  0.000000  0.000000  0.500000  1
  Pt  Pt6  1  0.341103  0.170551  0.250000  1
  Pt  Pt7  1  0.829447  0.170551  0.250000  1
  Pt  Pt8  1  0.829450  0.658898  0.250000  1
  Pt  Pt9  1  0.170552  0.341103  0.750000  1
  Pt  Pt10  1  0.170551  0.829449  0.750000  1
  Pt  Pt11  1  0.658897  0.829449  0.750000  1
