# generated using pymatgen
data_Zr2Pa(GaRh)3
_symmetry_space_group_name_H-M   'P 1'
_cell_length_a   7.19025431
_cell_length_b   7.22055420
_cell_length_c   3.61313500
_cell_angle_alpha   90.00000000
_cell_angle_beta   90.00000000
_cell_angle_gamma   120.13948721
_symmetry_Int_Tables_number   1
_chemical_formula_structural   Zr2Pa(GaRh)3
_chemical_formula_sum   'Zr2 Pa1 Ga3 Rh3'
_cell_volume   162.22487820
_cell_formula_units_Z   1
loop_
 _symmetry_equiv_pos_site_id
 _symmetry_equiv_pos_as_xyz
  1  'x, y, z'
loop_
 _atom_site_type_symbol
 _atom_site_label
 _atom_site_symmetry_multiplicity
 _atom_site_fract_x
 _atom_site_fract_y
 _atom_site_fract_z
 _atom_site_occupancy
  Zr  Zr0  1  0.603515  0.598145  0.500000  1
  Zr  Zr1  1  0.396485  0.994631  0.500000  1
  Pa  Pa2  1  0.000000  0.408424  0.500000  1
  Ga  Ga3  1  0.000000  0.758494  0.000000  1
  Ga  Ga4  1  0.279600  0.260695  0.000000  1
  Ga  Ga5  1  0.720400  0.981095  0.000000  1
  Rh  Rh6  1  0.315441  0.651408  0.000000  1
  Rh  Rh7  1  0.684559  0.335966  0.000000  1
  Rh  Rh8  1  0.000000  0.011141  0.500000  1
