# generated using pymatgen
data_TbEr2In3Ag2Rh
_symmetry_space_group_name_H-M   'P 1'
_cell_length_a   7.78455212
_cell_length_b   7.76975039
_cell_length_c   3.92361300
_cell_angle_alpha   90.00000000
_cell_angle_beta   90.00000000
_cell_angle_gamma   119.94498573
_symmetry_Int_Tables_number   1
_chemical_formula_structural   TbEr2In3Ag2Rh
_chemical_formula_sum   'Tb1 Er2 In3 Ag2 Rh1'
_cell_volume   205.63544871
_cell_formula_units_Z   1
loop_
 _symmetry_equiv_pos_site_id
 _symmetry_equiv_pos_as_xyz
  1  'x, y, z'
loop_
 _atom_site_type_symbol
 _atom_site_label
 _atom_site_symmetry_multiplicity
 _atom_site_fract_x
 _atom_site_fract_y
 _atom_site_fract_z
 _atom_site_occupancy
  Tb  Tb0  1  0.026269  0.603729  0.500000  1
  Er  Er1  1  0.395595  0.423856  0.500000  1
  Er  Er2  1  0.576860  0.971358  0.500000  1
  In  In3  1  0.265225  0.001730  0.000000  1
  In  In4  1  0.735666  0.735675  0.000000  1
  In  In5  1  0.999667  0.263290  0.000000  1
  Ag  Ag6  1  0.665166  0.332304  0.000000  1
  Ag  Ag7  1  0.999958  0.000762  0.500000  1
  Rh  Rh8  1  0.335594  0.667297  0.000000  1
