# generated using pymatgen
data_Nd3Zn3PdRuPt
_symmetry_space_group_name_H-M   'P 1'
_cell_length_a   7.35510400
_cell_length_b   7.35510494
_cell_length_c   4.02803200
_cell_angle_alpha   90.00000000
_cell_angle_beta   90.00000000
_cell_angle_gamma   119.99999576
_symmetry_Int_Tables_number   1
_chemical_formula_structural   Nd3Zn3PdRuPt
_chemical_formula_sum   'Nd3 Zn3 Pd1 Ru1 Pt1'
_cell_volume   188.71275457
_cell_formula_units_Z   1
loop_
 _symmetry_equiv_pos_site_id
 _symmetry_equiv_pos_as_xyz
  1  'x, y, z'
loop_
 _atom_site_type_symbol
 _atom_site_label
 _atom_site_symmetry_multiplicity
 _atom_site_fract_x
 _atom_site_fract_y
 _atom_site_fract_z
 _atom_site_occupancy
  Nd  Nd0  1  0.416836  0.407846  0.000000  1
  Nd  Nd1  1  0.592154  0.008990  0.000000  1
  Nd  Nd2  1  0.991010  0.583164  0.000000  1
  Zn  Zn3  1  0.756074  0.753056  0.500000  1
  Zn  Zn4  1  0.246944  0.003018  0.500000  1
  Zn  Zn5  1  0.996982  0.243926  0.500000  1
  Pd  Pd6  1  0.000000  0.000000  0.000000  1
  Ru  Ru7  1  0.666667  0.333333  0.500000  1
  Pt  Pt8  1  0.333333  0.666667  0.500000  1
