# generated using pymatgen
data_Cs4K2HoInAs4
_symmetry_space_group_name_H-M   'P 1'
_cell_length_a   9.93749529
_cell_length_b   9.93749521
_cell_length_c   9.93749541
_cell_angle_alpha   133.61327468
_cell_angle_beta   137.95777146
_cell_angle_gamma   64.37757251
_symmetry_Int_Tables_number   1
_chemical_formula_structural   Cs4K2HoInAs4
_chemical_formula_sum   'Cs4 K2 Ho1 In1 As4'
_cell_volume   469.32584754
_cell_formula_units_Z   1
loop_
 _symmetry_equiv_pos_site_id
 _symmetry_equiv_pos_as_xyz
  1  'x, y, z'
loop_
 _atom_site_type_symbol
 _atom_site_label
 _atom_site_symmetry_multiplicity
 _atom_site_fract_x
 _atom_site_fract_y
 _atom_site_fract_z
 _atom_site_occupancy
  Cs  Cs0  1  0.688695  0.439128  0.766789  1
  Cs  Cs1  1  0.811305  0.078092  0.250433  1
  Cs  Cs2  1  0.172340  0.921908  0.733211  1
  Cs  Cs3  1  0.327660  0.560872  0.249567  1
  K  K4  1  0.750000  0.000000  0.750000  1
  K  K5  1  0.250000  0.000000  0.250000  1
  Ho  Ho6  1  0.250000  0.500000  0.750000  1
  In  In7  1  0.750000  0.500000  0.250000  1
  As  As8  1  0.410579  0.211445  0.808940  1
  As  As9  1  0.597495  0.788555  0.199134  1
  As  As10  1  0.089421  0.398362  0.300866  1
  As  As11  1  0.902505  0.601638  0.691060  1
