# generated using pymatgen
data_Ba4MgNp6ScTe16
_symmetry_space_group_name_H-M   'P 1'
_cell_length_a   4.53679800
_cell_length_b   13.82560438
_cell_length_c   16.22136158
_cell_angle_alpha   90.12998348
_cell_angle_beta   90.00000000
_cell_angle_gamma   90.00000000
_symmetry_Int_Tables_number   1
_chemical_formula_structural   Ba4MgNp6ScTe16
_chemical_formula_sum   'Ba4 Mg1 Np6 Sc1 Te16'
_cell_volume   1017.46564835
_cell_formula_units_Z   1
loop_
 _symmetry_equiv_pos_site_id
 _symmetry_equiv_pos_as_xyz
  1  'x, y, z'
loop_
 _atom_site_type_symbol
 _atom_site_label
 _atom_site_symmetry_multiplicity
 _atom_site_fract_x
 _atom_site_fract_y
 _atom_site_fract_z
 _atom_site_occupancy
  Ba  Ba0  1  0.250000  0.233249  0.343339  1
  Ba  Ba1  1  0.750000  0.768135  0.655298  1
  Ba  Ba2  1  0.250000  0.744882  0.173710  1
  Ba  Ba3  1  0.750000  0.256010  0.827433  1
  Mg  Mg4  1  0.750000  0.925956  0.404616  1
  Np  Np5  1  0.250000  0.567747  0.390539  1
  Np  Np6  1  0.750000  0.432175  0.607891  1
  Np  Np7  1  0.250000  0.059478  0.117295  1
  Np  Np8  1  0.750000  0.939847  0.885101  1
  Np  Np9  1  0.750000  0.415975  0.097410  1
  Np  Np10  1  0.250000  0.583627  0.902786  1
  Sc  Sc11  1  0.250000  0.073436  0.592517  1
  Te  Te12  1  0.750000  0.029487  0.708259  1
  Te  Te13  1  0.250000  0.972238  0.289889  1
  Te  Te14  1  0.750000  0.523483  0.784903  1
  Te  Te15  1  0.250000  0.474911  0.214722  1
  Te  Te16  1  0.750000  0.413619  0.416908  1
  Te  Te17  1  0.250000  0.585910  0.581334  1
  Te  Te18  1  0.750000  0.911452  0.077538  1
  Te  Te19  1  0.250000  0.088716  0.922682  1
  Te  Te20  1  0.750000  0.205650  0.171023  1
  Te  Te21  1  0.250000  0.794233  0.828712  1
  Te  Te22  1  0.750000  0.713256  0.340634  1
  Te  Te23  1  0.250000  0.283698  0.660431  1
  Te  Te24  1  0.750000  0.122433  0.479394  1
  Te  Te25  1  0.250000  0.880944  0.524862  1
  Te  Te26  1  0.750000  0.627950  0.029418  1
  Te  Te27  1  0.250000  0.371502  0.971355  1
