# generated using pymatgen
data_TbYEr6(B6Os)4
_symmetry_space_group_name_H-M   'P 1'
_cell_length_a   3.63977200
_cell_length_b   9.12190001
_cell_length_c   11.50226102
_cell_angle_alpha   89.99882390
_cell_angle_beta   90.00000000
_cell_angle_gamma   90.00000000
_symmetry_Int_Tables_number   1
_chemical_formula_structural   TbYEr6(B6Os)4
_chemical_formula_sum   'Tb1 Y1 Er6 B24 Os4'
_cell_volume   381.89388599
_cell_formula_units_Z   1
loop_
 _symmetry_equiv_pos_site_id
 _symmetry_equiv_pos_as_xyz
  1  'x, y, z'
loop_
 _atom_site_type_symbol
 _atom_site_label
 _atom_site_symmetry_multiplicity
 _atom_site_fract_x
 _atom_site_fract_y
 _atom_site_fract_z
 _atom_site_occupancy
  Tb  Tb0  1  0.000000  0.678286  0.586189  1
  Y  Y1  1  0.000000  0.321449  0.413891  1
  Er  Er2  1  0.000000  0.821599  0.085786  1
  Er  Er3  1  0.000000  0.178433  0.914232  1
  Er  Er4  1  0.000000  0.943863  0.372529  1
  Er  Er5  1  0.000000  0.056162  0.627452  1
  Er  Er6  1  0.000000  0.443798  0.126618  1
  Er  Er7  1  0.000000  0.556195  0.873380  1
  B  B8  1  0.500000  0.554195  0.432550  1
  B  B9  1  0.500000  0.445811  0.567444  1
  B  B10  1  0.500000  0.053604  0.066434  1
  B  B11  1  0.500000  0.946411  0.933562  1
  B  B12  1  0.500000  0.748768  0.419133  1
  B  B13  1  0.500000  0.251221  0.580807  1
  B  B14  1  0.500000  0.248083  0.079598  1
  B  B15  1  0.500000  0.751929  0.920396  1
  B  B16  1  0.500000  0.791423  0.265591  1
  B  B17  1  0.500000  0.208573  0.734378  1
  B  B18  1  0.500000  0.290773  0.232973  1
  B  B19  1  0.500000  0.709311  0.767069  1
  B  B20  1  0.500000  0.631535  0.184441  1
  B  B21  1  0.500000  0.368461  0.815552  1
  B  B22  1  0.500000  0.130744  0.314465  1
  B  B23  1  0.500000  0.869293  0.685563  1
  B  B24  1  0.500000  0.982301  0.212570  1
  B  B25  1  0.500000  0.017720  0.787441  1
  B  B26  1  0.500000  0.483038  0.286166  1
  B  B27  1  0.500000  0.516868  0.713823  1
  B  B28  1  0.500000  0.607707  0.029724  1
  B  B29  1  0.500000  0.392295  0.970281  1
  B  B30  1  0.500000  0.105810  0.470707  1
  B  B31  1  0.500000  0.894375  0.529247  1
  Os  Os32  1  0.000000  0.637933  0.320363  1
  Os  Os33  1  0.000000  0.362007  0.679644  1
  Os  Os34  1  0.000000  0.136899  0.178174  1
  Os  Os35  1  0.000000  0.863131  0.821830  1
