# generated using pymatgen
data_Ti20Si12Se
_symmetry_space_group_name_H-M   'P 1'
_cell_length_a   5.19301248
_cell_length_b   7.55038127
_cell_length_c   13.04743700
_cell_angle_alpha   89.99999241
_cell_angle_beta   90.00000000
_cell_angle_gamma   90.04001975
_symmetry_Int_Tables_number   1
_chemical_formula_structural   Ti20Si12Se
_chemical_formula_sum   'Ti20 Si12 Se1'
_cell_volume   511.57975743
_cell_formula_units_Z   1
loop_
 _symmetry_equiv_pos_site_id
 _symmetry_equiv_pos_as_xyz
  1  'x, y, z'
loop_
 _atom_site_type_symbol
 _atom_site_label
 _atom_site_symmetry_multiplicity
 _atom_site_fract_x
 _atom_site_fract_y
 _atom_site_fract_z
 _atom_site_occupancy
  Ti  Ti0  1  0.500006  0.999940  0.335568  1
  Ti  Ti1  1  0.500002  0.500023  0.831699  1
  Ti  Ti2  1  0.500002  0.500023  0.168301  1
  Ti  Ti3  1  0.500006  0.999940  0.664432  1
  Ti  Ti4  1  0.999979  0.500013  0.166119  1
  Ti  Ti5  1  0.999985  0.999944  0.667023  1
  Ti  Ti6  1  0.999985  0.999944  0.332977  1
  Ti  Ti7  1  0.999979  0.500013  0.833881  1
  Ti  Ti8  1  0.731867  0.265603  0.000000  1
  Ti  Ti9  1  0.748654  0.754788  0.500000  1
  Ti  Ti10  1  0.749254  0.376232  0.377607  1
  Ti  Ti11  1  0.732522  0.865919  0.864790  1
  Ti  Ti12  1  0.732522  0.865919  0.135210  1
  Ti  Ti13  1  0.749254  0.376232  0.622393  1
  Ti  Ti14  1  0.268181  0.734393  0.000000  1
  Ti  Ti15  1  0.251335  0.245275  0.500000  1
  Ti  Ti16  1  0.267540  0.134098  0.135197  1
  Ti  Ti17  1  0.250747  0.623845  0.622380  1
  Ti  Ti18  1  0.250747  0.623845  0.377620  1
  Ti  Ti19  1  0.267540  0.134098  0.864803  1
  Si  Si20  1  0.748950  0.607188  0.000000  1
  Si  Si21  1  0.754189  0.109799  0.500000  1
  Si  Si22  1  0.750968  0.199586  0.200510  1
  Si  Si23  1  0.750983  0.693546  0.692660  1
  Si  Si24  1  0.750983  0.693546  0.307340  1
  Si  Si25  1  0.750968  0.199586  0.799490  1
  Si  Si26  1  0.251075  0.392782  0.000000  1
  Si  Si27  1  0.245804  0.890042  0.500000  1
  Si  Si28  1  0.249009  0.306536  0.307346  1
  Si  Si29  1  0.249035  0.800375  0.799426  1
  Si  Si30  1  0.249035  0.800375  0.200574  1
  Si  Si31  1  0.249009  0.306536  0.692654  1
  Se  Se32  1  0.999887  0.000020  0.000000  1
