# generated using pymatgen
data_Zr(Pd3Pt)2
_symmetry_space_group_name_H-M   'P 1'
_cell_length_a   6.39407154
_cell_length_b   6.39407142
_cell_length_c   6.22964744
_cell_angle_alpha   95.84727330
_cell_angle_beta   95.84727777
_cell_angle_gamma   143.27217043
_symmetry_Int_Tables_number   1
_chemical_formula_structural   Zr(Pd3Pt)2
_chemical_formula_sum   'Zr1 Pd6 Pt2'
_cell_volume   144.12752735
_cell_formula_units_Z   1
loop_
 _symmetry_equiv_pos_site_id
 _symmetry_equiv_pos_as_xyz
  1  'x, y, z'
loop_
 _atom_site_type_symbol
 _atom_site_label
 _atom_site_symmetry_multiplicity
 _atom_site_fract_x
 _atom_site_fract_y
 _atom_site_fract_z
 _atom_site_occupancy
  Zr  Zr0  1  0.000000  0.000000  0.000000  1
  Pd  Pd1  1  0.331748  0.999478  0.331226  1
  Pd  Pd2  1  0.668252  0.000522  0.668774  1
  Pd  Pd3  1  0.999478  0.331748  0.331226  1
  Pd  Pd4  1  0.000522  0.668252  0.668774  1
  Pd  Pd5  1  0.332624  0.332624  0.665247  1
  Pd  Pd6  1  0.667376  0.667376  0.334753  1
  Pt  Pt7  1  0.665986  0.334014  0.000000  1
  Pt  Pt8  1  0.334014  0.665986  0.000000  1
