# generated using pymatgen
data_K3LiMgMn3(Si2O5)6
_symmetry_space_group_name_H-M   'P 1'
_cell_length_a   10.43620900
_cell_length_b   10.43620959
_cell_length_c   14.03219600
_cell_angle_alpha   90.00000000
_cell_angle_beta   90.00000000
_cell_angle_gamma   120.07735967
_symmetry_Int_Tables_number   1
_chemical_formula_structural   K3LiMgMn3(Si2O5)6
_chemical_formula_sum   'K6 Li2 Mg2 Mn6 Si24 O60'
_cell_volume   1322.52156277
_cell_formula_units_Z   2
loop_
 _symmetry_equiv_pos_site_id
 _symmetry_equiv_pos_as_xyz
  1  'x, y, z'
loop_
 _atom_site_type_symbol
 _atom_site_label
 _atom_site_symmetry_multiplicity
 _atom_site_fract_x
 _atom_site_fract_y
 _atom_site_fract_z
 _atom_site_occupancy
  K  K0  1  0.669178  0.331667  0.499551  1
  K  K1  1  0.000000  0.000000  0.750005  1
  K  K2  1  0.667472  0.331922  0.000651  1
  K  K3  1  0.332528  0.668078  0.000651  1
  K  K4  1  0.330822  0.668333  0.499551  1
  K  K5  1  0.000000  0.000000  0.249905  1
  Li  Li6  1  0.000000  0.500000  0.750000  1
  Li  Li7  1  0.500000  0.000000  0.249989  1
  Mg  Mg8  1  0.000000  0.500000  0.249910  1
  Mg  Mg9  1  0.500000  0.500000  0.250046  1
  Mn  Mn10  1  0.682026  0.340731  0.750058  1
  Mn  Mn11  1  0.661268  0.321949  0.250053  1
  Mn  Mn12  1  0.317974  0.659269  0.750058  1
  Mn  Mn13  1  0.500000  0.000000  0.749969  1
  Mn  Mn14  1  0.338732  0.678051  0.250053  1
  Mn  Mn15  1  0.500000  0.500000  0.750039  1
  Si  Si16  1  0.339538  0.233119  0.383590  1
  Si  Si17  1  0.342469  0.234066  0.613961  1
  Si  Si18  1  0.343158  0.106476  0.117363  1
  Si  Si19  1  0.341639  0.108298  0.886176  1
  Si  Si20  1  0.769475  0.661685  0.886673  1
  Si  Si21  1  0.765193  0.659877  0.116899  1
  Si  Si22  1  0.891327  0.656703  0.615318  1
  Si  Si23  1  0.894207  0.659272  0.384153  1
  Si  Si24  1  0.770597  0.107202  0.613401  1
  Si  Si25  1  0.764057  0.105982  0.382411  1
  Si  Si26  1  0.108323  0.765871  0.884453  1
  Si  Si27  1  0.106425  0.767446  0.115567  1
  Si  Si28  1  0.891677  0.234129  0.884453  1
  Si  Si29  1  0.893575  0.232554  0.115567  1
  Si  Si30  1  0.229403  0.892798  0.613401  1
  Si  Si31  1  0.235943  0.894018  0.382411  1
  Si  Si32  1  0.108673  0.343297  0.615318  1
  Si  Si33  1  0.105793  0.340728  0.384153  1
  Si  Si34  1  0.230525  0.338315  0.886673  1
  Si  Si35  1  0.234807  0.340123  0.116899  1
  Si  Si36  1  0.656842  0.893524  0.117363  1
  Si  Si37  1  0.658361  0.891702  0.886176  1
  Si  Si38  1  0.660462  0.766881  0.383590  1
  Si  Si39  1  0.657531  0.765934  0.613961  1
  O  O40  1  0.274321  0.214069  0.854273  1
  O  O41  1  0.275463  0.213540  0.148045  1
  O  O42  1  0.273395  0.060997  0.646211  1
  O  O43  1  0.270296  0.060364  0.352244  1
  O  O44  1  0.363638  0.244219  0.498692  1
  O  O45  1  0.360451  0.117364  0.001238  1
  O  O46  1  0.500080  0.340558  0.662809  1
  O  O47  1  0.494097  0.345345  0.333521  1
  O  O48  1  0.661267  0.504794  0.837695  1
  O  O49  1  0.655146  0.504932  0.167327  1
  O  O50  1  0.498155  0.151214  0.164541  1
  O  O51  1  0.499225  0.159084  0.837271  1
  O  O52  1  0.780684  0.720621  0.645474  1
  O  O53  1  0.786790  0.725033  0.353104  1
  O  O54  1  0.754688  0.637336  0.001685  1
  O  O55  1  0.881996  0.637046  0.499222  1
  O  O56  1  0.942747  0.734979  0.855886  1
  O  O57  1  0.938619  0.726444  0.147245  1
  O  O58  1  0.653762  0.150919  0.335554  1
  O  O59  1  0.662144  0.155773  0.662199  1
  O  O60  1  0.850550  0.504014  0.664337  1
  O  O61  1  0.849986  0.504799  0.333110  1
  O  O62  1  0.056136  0.792262  0.644793  1
  O  O63  1  0.061045  0.786638  0.352032  1
  O  O64  1  0.850601  0.345957  0.835769  1
  O  O65  1  0.851785  0.344998  0.165930  1
  O  O66  1  0.757659  0.115670  0.498539  1
  O  O67  1  0.217721  0.940382  0.853256  1
  O  O68  1  0.210755  0.940148  0.147256  1
  O  O69  1  0.118488  0.756971  0.000538  1
  O  O70  1  0.881512  0.243029  0.000538  1
  O  O71  1  0.782279  0.059618  0.853256  1
  O  O72  1  0.789245  0.059852  0.147256  1
  O  O73  1  0.242341  0.884330  0.498539  1
  O  O74  1  0.149399  0.654043  0.835769  1
  O  O75  1  0.148215  0.655002  0.165930  1
  O  O76  1  0.938955  0.213362  0.352032  1
  O  O77  1  0.943864  0.207738  0.644793  1
  O  O78  1  0.149450  0.495986  0.664337  1
  O  O79  1  0.150014  0.495201  0.333110  1
  O  O80  1  0.346238  0.849081  0.335554  1
  O  O81  1  0.337856  0.844227  0.662199  1
  O  O82  1  0.057253  0.265021  0.855886  1
  O  O83  1  0.061381  0.273556  0.147245  1
  O  O84  1  0.118004  0.362954  0.499222  1
  O  O85  1  0.245312  0.362664  0.001685  1
  O  O86  1  0.219316  0.279379  0.645474  1
  O  O87  1  0.213210  0.274967  0.353104  1
  O  O88  1  0.501845  0.848786  0.164541  1
  O  O89  1  0.500775  0.840916  0.837271  1
  O  O90  1  0.338733  0.495206  0.837695  1
  O  O91  1  0.344854  0.495068  0.167327  1
  O  O92  1  0.499920  0.659442  0.662809  1
  O  O93  1  0.505903  0.654655  0.333521  1
  O  O94  1  0.639549  0.882636  0.001238  1
  O  O95  1  0.636362  0.755781  0.498692  1
  O  O96  1  0.726605  0.939003  0.646211  1
  O  O97  1  0.729704  0.939636  0.352244  1
  O  O98  1  0.725679  0.785931  0.854273  1
  O  O99  1  0.724537  0.786460  0.148045  1
