# generated using pymatgen
data_AcLa7(Si3Pt)4
_symmetry_space_group_name_H-M   'P 1'
_cell_length_a   8.29837000
_cell_length_b   8.29837067
_cell_length_c   8.78772500
_cell_angle_alpha   90.00000000
_cell_angle_beta   90.00000000
_cell_angle_gamma   119.99999734
_symmetry_Int_Tables_number   1
_chemical_formula_structural   AcLa7(Si3Pt)4
_chemical_formula_sum   'Ac1 La7 Si12 Pt4'
_cell_volume   524.07413443
_cell_formula_units_Z   1
loop_
 _symmetry_equiv_pos_site_id
 _symmetry_equiv_pos_as_xyz
  1  'x, y, z'
loop_
 _atom_site_type_symbol
 _atom_site_label
 _atom_site_symmetry_multiplicity
 _atom_site_fract_x
 _atom_site_fract_y
 _atom_site_fract_z
 _atom_site_occupancy
  Ac  Ac0  1  0.000000  0.000000  0.250000  1
  La  La1  1  0.000000  0.000000  0.750000  1
  La  La2  1  0.500352  0.499648  0.250000  1
  La  La3  1  0.500352  0.000707  0.250000  1
  La  La4  1  0.999293  0.499648  0.250000  1
  La  La5  1  0.499387  0.500613  0.750000  1
  La  La6  1  0.499387  0.998772  0.750000  1
  La  La7  1  0.001228  0.500613  0.750000  1
  Si  Si8  1  0.165976  0.834024  0.503082  1
  Si  Si9  1  0.165976  0.331953  0.503082  1
  Si  Si10  1  0.668047  0.834024  0.503082  1
  Si  Si11  1  0.834021  0.165979  0.502991  1
  Si  Si12  1  0.834021  0.668042  0.502991  1
  Si  Si13  1  0.331958  0.165979  0.502991  1
  Si  Si14  1  0.834021  0.165979  0.997009  1
  Si  Si15  1  0.834021  0.668042  0.997009  1
  Si  Si16  1  0.331958  0.165979  0.997009  1
  Si  Si17  1  0.165976  0.834024  0.996918  1
  Si  Si18  1  0.165976  0.331953  0.996918  1
  Si  Si19  1  0.668047  0.834024  0.996918  1
  Pt  Pt20  1  0.333333  0.666667  0.499410  1
  Pt  Pt21  1  0.666667  0.333333  0.501203  1
  Pt  Pt22  1  0.666667  0.333333  0.998797  1
  Pt  Pt23  1  0.333333  0.666667  0.000590  1
