# generated using pymatgen
data_Hf18Ta3TcNi2RuW3
_symmetry_space_group_name_H-M   'P 1'
_cell_length_a   8.73303500
_cell_length_b   8.68197632
_cell_length_c   8.51455100
_cell_angle_alpha   90.00000000
_cell_angle_beta   90.00000000
_cell_angle_gamma   119.80681311
_symmetry_Int_Tables_number   1
_chemical_formula_structural   Hf18Ta3TcNi2RuW3
_chemical_formula_sum   'Hf18 Ta3 Tc1 Ni2 Ru1 W3'
_cell_volume   560.16803826
_cell_formula_units_Z   1
loop_
 _symmetry_equiv_pos_site_id
 _symmetry_equiv_pos_as_xyz
  1  'x, y, z'
loop_
 _atom_site_type_symbol
 _atom_site_label
 _atom_site_symmetry_multiplicity
 _atom_site_fract_x
 _atom_site_fract_y
 _atom_site_fract_z
 _atom_site_occupancy
  Hf  Hf0  1  0.201830  0.799192  0.443294  1
  Hf  Hf1  1  0.202344  0.402769  0.443692  1
  Hf  Hf2  1  0.597861  0.798621  0.442270  1
  Hf  Hf3  1  0.800444  0.200324  0.559409  1
  Hf  Hf4  1  0.800565  0.600009  0.558170  1
  Hf  Hf5  1  0.402114  0.200918  0.559284  1
  Hf  Hf6  1  0.800444  0.200324  0.940591  1
  Hf  Hf7  1  0.800565  0.600009  0.941830  1
  Hf  Hf8  1  0.402114  0.200918  0.940716  1
  Hf  Hf9  1  0.201830  0.799192  0.056706  1
  Hf  Hf10  1  0.202344  0.402769  0.056308  1
  Hf  Hf11  1  0.597861  0.798621  0.057730  1
  Hf  Hf12  1  0.543946  0.457741  0.250000  1
  Hf  Hf13  1  0.543743  0.086858  0.250000  1
  Hf  Hf14  1  0.914287  0.457658  0.250000  1
  Hf  Hf15  1  0.457192  0.542326  0.750000  1
  Hf  Hf16  1  0.457128  0.914863  0.750000  1
  Hf  Hf17  1  0.083464  0.541809  0.750000  1
  Ta  Ta18  1  0.230162  0.115030  0.250000  1
  Ta  Ta19  1  0.995506  0.997999  0.496666  1
  Ta  Ta20  1  0.995506  0.997999  0.003334  1
  Tc  Tc21  1  0.885843  0.770192  0.250000  1
  Ni  Ni22  1  0.335004  0.667287  0.250000  1
  Ni  Ni23  1  0.667602  0.333677  0.750000  1
  Ru  Ru24  1  0.886037  0.115147  0.250000  1
  W  W25  1  0.111778  0.885150  0.750000  1
  W  W26  1  0.111028  0.226238  0.750000  1
  W  W27  1  0.771464  0.886360  0.750000  1
