# generated using pymatgen
data_Sr2Cd8AgPt3
_symmetry_space_group_name_H-M   'P 1'
_cell_length_a   8.48004415
_cell_length_b   8.48004415
_cell_length_c   4.51758400
_cell_angle_alpha   90.00000000
_cell_angle_beta   90.00000000
_cell_angle_gamma   90.85699434
_symmetry_Int_Tables_number   1
_chemical_formula_structural   Sr2Cd8AgPt3
_chemical_formula_sum   'Sr2 Cd8 Ag1 Pt3'
_cell_volume   324.82831574
_cell_formula_units_Z   1
loop_
 _symmetry_equiv_pos_site_id
 _symmetry_equiv_pos_as_xyz
  1  'x, y, z'
loop_
 _atom_site_type_symbol
 _atom_site_label
 _atom_site_symmetry_multiplicity
 _atom_site_fract_x
 _atom_site_fract_y
 _atom_site_fract_z
 _atom_site_occupancy
  Sr  Sr0  1  0.492776  0.507224  0.500000  1
  Sr  Sr1  1  0.011854  0.988146  0.000000  1
  Cd  Cd2  1  0.340243  0.091413  0.500000  1
  Cd  Cd3  1  0.651883  0.904631  0.500000  1
  Cd  Cd4  1  0.842360  0.414926  0.000000  1
  Cd  Cd5  1  0.157147  0.589052  0.000000  1
  Cd  Cd6  1  0.095369  0.348117  0.500000  1
  Cd  Cd7  1  0.908587  0.659757  0.500000  1
  Cd  Cd8  1  0.410948  0.842853  0.000000  1
  Cd  Cd9  1  0.585074  0.157640  0.000000  1
  Ag  Ag10  1  0.786046  0.213954  0.500000  1
  Pt  Pt11  1  0.219033  0.780967  0.500000  1
  Pt  Pt12  1  0.281973  0.283293  0.000000  1
  Pt  Pt13  1  0.716707  0.718027  0.000000  1
