# generated using pymatgen
data_Dy5YSi5SnRh12
_symmetry_space_group_name_H-M   'P 1'
_cell_length_a   5.60998600
_cell_length_b   5.60998516
_cell_length_c   15.29286600
_cell_angle_alpha   90.00000000
_cell_angle_beta   90.00000000
_cell_angle_gamma   119.99999315
_symmetry_Int_Tables_number   1
_chemical_formula_structural   Dy5YSi5SnRh12
_chemical_formula_sum   'Dy5 Y1 Si5 Sn1 Rh12'
_cell_volume   416.81470747
_cell_formula_units_Z   1
loop_
 _symmetry_equiv_pos_site_id
 _symmetry_equiv_pos_as_xyz
  1  'x, y, z'
loop_
 _atom_site_type_symbol
 _atom_site_label
 _atom_site_symmetry_multiplicity
 _atom_site_fract_x
 _atom_site_fract_y
 _atom_site_fract_z
 _atom_site_occupancy
  Dy  Dy0  1  0.666667  0.333333  0.963981  1
  Dy  Dy1  1  0.666667  0.333333  0.538884  1
  Dy  Dy2  1  0.333333  0.666667  0.035974  1
  Dy  Dy3  1  0.666667  0.333333  0.752142  1
  Dy  Dy4  1  0.333333  0.666667  0.461228  1
  Y  Y5  1  0.333333  0.666667  0.247771  1
  Si  Si6  1  0.666667  0.333333  0.244042  1
  Si  Si7  1  0.000000  0.000000  0.245699  1
  Si  Si8  1  0.000000  0.000000  0.754294  1
  Si  Si9  1  0.333333  0.666667  0.755963  1
  Si  Si10  1  0.000000  0.000000  0.000014  1
  Sn  Sn11  1  0.000000  0.000000  0.500050  1
  Rh  Rh12  1  0.165979  0.331958  0.871640  1
  Rh  Rh13  1  0.168700  0.337399  0.640464  1
  Rh  Rh14  1  0.668042  0.834021  0.871640  1
  Rh  Rh15  1  0.337455  0.168728  0.359726  1
  Rh  Rh16  1  0.831272  0.662545  0.359726  1
  Rh  Rh17  1  0.831272  0.168728  0.359726  1
  Rh  Rh18  1  0.833985  0.166015  0.128156  1
  Rh  Rh19  1  0.332029  0.166015  0.128156  1
  Rh  Rh20  1  0.662601  0.831300  0.640464  1
  Rh  Rh21  1  0.168700  0.831300  0.640464  1
  Rh  Rh22  1  0.833985  0.667971  0.128156  1
  Rh  Rh23  1  0.165979  0.834021  0.871640  1
