# generated using pymatgen
data_Dy5YAl24(RuRh3)2
_symmetry_space_group_name_H-M   'P 1'
_cell_length_a   8.83918702
_cell_length_b   8.83918629
_cell_length_c   9.50137300
_cell_angle_alpha   90.00000000
_cell_angle_beta   90.00000000
_cell_angle_gamma   120.00743959
_symmetry_Int_Tables_number   1
_chemical_formula_structural   Dy5YAl24(RuRh3)2
_chemical_formula_sum   'Dy5 Y1 Al24 Ru2 Rh6'
_cell_volume   642.84911011
_cell_formula_units_Z   1
loop_
 _symmetry_equiv_pos_site_id
 _symmetry_equiv_pos_as_xyz
  1  'x, y, z'
loop_
 _atom_site_type_symbol
 _atom_site_label
 _atom_site_symmetry_multiplicity
 _atom_site_fract_x
 _atom_site_fract_y
 _atom_site_fract_z
 _atom_site_occupancy
  Dy  Dy0  1  0.191897  0.383720  0.250000  1
  Dy  Dy1  1  0.616280  0.808103  0.250000  1
  Dy  Dy2  1  0.808170  0.191830  0.750000  1
  Dy  Dy3  1  0.808206  0.616404  0.750000  1
  Dy  Dy4  1  0.383596  0.191794  0.750000  1
  Y  Y5  1  0.191898  0.808102  0.250000  1
  Al  Al6  1  0.561769  0.438231  0.250000  1
  Al  Al7  1  0.561874  0.123613  0.250000  1
  Al  Al8  1  0.876387  0.438126  0.250000  1
  Al  Al9  1  0.438240  0.561760  0.750000  1
  Al  Al10  1  0.438203  0.876420  0.750000  1
  Al  Al11  1  0.123580  0.561797  0.750000  1
  Al  Al12  1  0.325866  0.162983  0.424055  1
  Al  Al13  1  0.837081  0.162919  0.423955  1
  Al  Al14  1  0.837017  0.674134  0.424055  1
  Al  Al15  1  0.674146  0.837068  0.576045  1
  Al  Al16  1  0.162914  0.837086  0.576121  1
  Al  Al17  1  0.162932  0.325854  0.576045  1
  Al  Al18  1  0.674146  0.837068  0.923955  1
  Al  Al19  1  0.162914  0.837086  0.923879  1
  Al  Al20  1  0.162932  0.325854  0.923955  1
  Al  Al21  1  0.325866  0.162983  0.075945  1
  Al  Al22  1  0.837081  0.162919  0.076045  1
  Al  Al23  1  0.837017  0.674134  0.075945  1
  Al  Al24  1  0.666658  0.333342  0.528623  1
  Al  Al25  1  0.333356  0.666644  0.471444  1
  Al  Al26  1  0.333356  0.666644  0.028556  1
  Al  Al27  1  0.666658  0.333342  0.971377  1
  Al  Al28  1  0.999890  0.000110  0.250000  1
  Al  Al29  1  0.000015  0.999985  0.750000  1
  Ru  Ru30  1  0.000026  0.999974  0.499845  1
  Ru  Ru31  1  0.000026  0.999974  0.000155  1
  Rh  Rh32  1  0.499984  0.500016  0.499923  1
  Rh  Rh33  1  0.500065  0.000048  0.500043  1
  Rh  Rh34  1  0.999952  0.499935  0.500043  1
  Rh  Rh35  1  0.499984  0.500016  0.000077  1
  Rh  Rh36  1  0.500065  0.000048  0.999957  1
  Rh  Rh37  1  0.999952  0.499935  0.999957  1
