# generated using pymatgen
data_Dy2Y4Tm6Co5Hg
_symmetry_space_group_name_H-M   'P 1'
_cell_length_a   8.19381764
_cell_length_b   8.19381740
_cell_length_c   8.18434923
_cell_angle_alpha   107.68520789
_cell_angle_beta   110.65454529
_cell_angle_gamma   110.13534412
_symmetry_Int_Tables_number   1
_chemical_formula_structural   Dy2Y4Tm6Co5Hg
_chemical_formula_sum   'Dy2 Y4 Tm6 Co5 Hg1'
_cell_volume   422.43240474
_cell_formula_units_Z   1
loop_
 _symmetry_equiv_pos_site_id
 _symmetry_equiv_pos_as_xyz
  1  'x, y, z'
loop_
 _atom_site_type_symbol
 _atom_site_label
 _atom_site_symmetry_multiplicity
 _atom_site_fract_x
 _atom_site_fract_y
 _atom_site_fract_z
 _atom_site_occupancy
  Dy  Dy0  1  0.190945  0.788951  0.979895  1
  Dy  Dy1  1  0.809055  0.211049  0.020105  1
  Y  Y2  1  0.478288  0.291238  0.188568  1
  Y  Y3  1  0.102669  0.289721  0.811432  1
  Y  Y4  1  0.897331  0.710279  0.188568  1
  Y  Y5  1  0.521712  0.708762  0.811432  1
  Tm  Tm6  1  0.307309  0.621459  0.316673  1
  Tm  Tm7  1  0.304785  0.990637  0.683327  1
  Tm  Tm8  1  0.692691  0.378541  0.683327  1
  Tm  Tm9  1  0.695215  0.009363  0.316673  1
  Tm  Tm10  1  0.191930  0.211608  0.403540  1
  Tm  Tm11  1  0.808070  0.788392  0.596460  1
  Co  Co12  1  0.501576  0.614348  0.115922  1
  Co  Co13  1  0.498424  0.385652  0.884078  1
  Co  Co14  1  0.378014  0.000323  0.378335  1
  Co  Co15  1  0.621986  0.999677  0.621665  1
  Co  Co16  1  0.000000  0.000000  0.000000  1
  Hg  Hg17  1  0.000000  0.500000  0.500000  1
