# generated using pymatgen
data_Lu5Hf3(Co4P3)4
_symmetry_space_group_name_H-M   'P 1'
_cell_length_a   12.21937600
_cell_length_b   12.21937424
_cell_length_c   3.67639700
_cell_angle_alpha   90.00000000
_cell_angle_beta   90.00000000
_cell_angle_gamma   120.00000477
_symmetry_Int_Tables_number   1
_chemical_formula_structural   Lu5Hf3(Co4P3)4
_chemical_formula_sum   'Lu5 Hf3 Co16 P12'
_cell_volume   475.39105796
_cell_formula_units_Z   1
loop_
 _symmetry_equiv_pos_site_id
 _symmetry_equiv_pos_as_xyz
  1  'x, y, z'
loop_
 _atom_site_type_symbol
 _atom_site_label
 _atom_site_symmetry_multiplicity
 _atom_site_fract_x
 _atom_site_fract_y
 _atom_site_fract_z
 _atom_site_occupancy
  Lu  Lu0  1  0.666667  0.333333  0.000000  1
  Lu  Lu1  1  0.333333  0.666667  0.000000  1
  Lu  Lu2  1  0.817921  0.817921  0.500000  1
  Lu  Lu3  1  0.182079  0.000000  0.500000  1
  Lu  Lu4  1  0.000000  0.182079  0.500000  1
  Hf  Hf5  1  0.441709  0.441709  0.000000  1
  Hf  Hf6  1  0.558291  0.000000  0.000000  1
  Hf  Hf7  1  0.000000  0.558291  0.000000  1
  Co  Co8  1  0.874679  0.355973  0.500000  1
  Co  Co9  1  0.644027  0.518706  0.500000  1
  Co  Co10  1  0.481294  0.125321  0.500000  1
  Co  Co11  1  0.355973  0.874679  0.500000  1
  Co  Co12  1  0.518706  0.644027  0.500000  1
  Co  Co13  1  0.125321  0.481294  0.500000  1
  Co  Co14  1  0.805312  0.178226  0.000000  1
  Co  Co15  1  0.821774  0.627085  0.000000  1
  Co  Co16  1  0.372915  0.194688  0.000000  1
  Co  Co17  1  0.178226  0.805312  0.000000  1
  Co  Co18  1  0.627085  0.821774  0.000000  1
  Co  Co19  1  0.194688  0.372915  0.000000  1
  Co  Co20  1  0.277613  0.277613  0.500000  1
  Co  Co21  1  0.722387  0.000000  0.500000  1
  Co  Co22  1  0.000000  0.722387  0.500000  1
  Co  Co23  1  0.000000  0.000000  0.000000  1
  P  P24  1  0.691802  0.172395  0.500000  1
  P  P25  1  0.827605  0.519407  0.500000  1
  P  P26  1  0.480593  0.308198  0.500000  1
  P  P27  1  0.172395  0.691802  0.500000  1
  P  P28  1  0.519407  0.827605  0.500000  1
  P  P29  1  0.308198  0.480593  0.500000  1
  P  P30  1  0.176754  0.176754  0.000000  1
  P  P31  1  0.823246  0.000000  0.000000  1
  P  P32  1  0.000000  0.823246  0.000000  1
  P  P33  1  0.649927  0.649927  0.000000  1
  P  P34  1  0.350073  0.000000  0.000000  1
  P  P35  1  0.000000  0.350073  0.000000  1
