# generated using pymatgen
data_TbEuCr2F14
_symmetry_space_group_name_H-M   'P 1'
_cell_length_a   5.52896137
_cell_length_b   8.88300767
_cell_length_c   11.82602100
_cell_angle_alpha   62.71891051
_cell_angle_beta   90.02109876
_cell_angle_gamma   89.98471553
_symmetry_Int_Tables_number   1
_chemical_formula_structural   TbEuCr2F14
_chemical_formula_sum   'Tb2 Eu2 Cr4 F28'
_cell_volume   516.21526293
_cell_formula_units_Z   2
loop_
 _symmetry_equiv_pos_site_id
 _symmetry_equiv_pos_as_xyz
  1  'x, y, z'
loop_
 _atom_site_type_symbol
 _atom_site_label
 _atom_site_symmetry_multiplicity
 _atom_site_fract_x
 _atom_site_fract_y
 _atom_site_fract_z
 _atom_site_occupancy
  Tb  Tb0  1  0.765234  0.192376  0.233260  1
  Tb  Tb1  1  0.234766  0.807624  0.766740  1
  Eu  Eu2  1  0.264036  0.808539  0.266560  1
  Eu  Eu3  1  0.735964  0.191461  0.733440  1
  Cr  Cr4  1  0.756352  0.724092  0.042554  1
  Cr  Cr5  1  0.243648  0.275908  0.957446  1
  Cr  Cr6  1  0.257972  0.272091  0.454698  1
  Cr  Cr7  1  0.742028  0.727909  0.545302  1
  F  F8  1  0.934851  0.706755  0.425940  1
  F  F9  1  0.065149  0.293245  0.574060  1
  F  F10  1  0.435337  0.291671  0.078601  1
  F  F11  1  0.564663  0.708329  0.921399  1
  F  F12  1  0.478612  0.729587  0.133318  1
  F  F13  1  0.521388  0.270413  0.866682  1
  F  F14  1  0.982242  0.269352  0.362290  1
  F  F15  1  0.017758  0.730648  0.637710  1
  F  F16  1  0.945433  0.739495  0.166429  1
  F  F17  1  0.054567  0.260505  0.833571  1
  F  F18  1  0.451859  0.252394  0.331822  1
  F  F19  1  0.548141  0.747606  0.668178  1
  F  F20  1  0.763510  0.490874  0.135983  1
  F  F21  1  0.236490  0.509126  0.864017  1
  F  F22  1  0.268660  0.504414  0.360602  1
  F  F23  1  0.731340  0.495586  0.639398  1
  F  F24  1  0.957941  0.284049  0.044821  1
  F  F25  1  0.042059  0.715951  0.955179  1
  F  F26  1  0.459021  0.716720  0.460691  1
  F  F27  1  0.540979  0.283280  0.539309  1
  F  F28  1  0.743274  0.959157  0.453833  1
  F  F29  1  0.256726  0.040843  0.546167  1
  F  F30  1  0.240778  0.044744  0.045587  1
  F  F31  1  0.759222  0.955256  0.954413  1
  F  F32  1  0.594473  0.973598  0.228446  1
  F  F33  1  0.405527  0.026402  0.771554  1
  F  F34  1  0.090831  0.030891  0.272713  1
  F  F35  1  0.909169  0.969109  0.727287  1
