# generated using pymatgen
data_Dy12Si12RuPt3
_symmetry_space_group_name_H-M   'P 1'
_cell_length_a   4.24839600
_cell_length_b   10.68796619
_cell_length_c   12.36623969
_cell_angle_alpha   90.08854918
_cell_angle_beta   90.00000000
_cell_angle_gamma   90.00000000
_symmetry_Int_Tables_number   1
_chemical_formula_structural   Dy12Si12RuPt3
_chemical_formula_sum   'Dy12 Si12 Ru1 Pt3'
_cell_volume   561.50962371
_cell_formula_units_Z   1
loop_
 _symmetry_equiv_pos_site_id
 _symmetry_equiv_pos_as_xyz
  1  'x, y, z'
loop_
 _atom_site_type_symbol
 _atom_site_label
 _atom_site_symmetry_multiplicity
 _atom_site_fract_x
 _atom_site_fract_y
 _atom_site_fract_z
 _atom_site_occupancy
  Dy  Dy0  1  0.250000  0.878361  0.020073  1
  Dy  Dy1  1  0.250000  0.619512  0.522052  1
  Dy  Dy2  1  0.750000  0.120071  0.978932  1
  Dy  Dy3  1  0.750000  0.379830  0.479916  1
  Dy  Dy4  1  0.250000  0.919128  0.602578  1
  Dy  Dy5  1  0.250000  0.580894  0.103119  1
  Dy  Dy6  1  0.750000  0.080248  0.397869  1
  Dy  Dy7  1  0.750000  0.420002  0.896822  1
  Dy  Dy8  1  0.250000  0.659943  0.799897  1
  Dy  Dy9  1  0.250000  0.839084  0.301987  1
  Dy  Dy10  1  0.750000  0.338712  0.197843  1
  Dy  Dy11  1  0.750000  0.159492  0.697714  1
  Si  Si12  1  0.250000  0.016451  0.823777  1
  Si  Si13  1  0.250000  0.484803  0.321756  1
  Si  Si14  1  0.750000  0.984409  0.177537  1
  Si  Si15  1  0.750000  0.509881  0.679487  1
  Si  Si16  1  0.250000  0.248482  0.839097  1
  Si  Si17  1  0.250000  0.255415  0.343666  1
  Si  Si18  1  0.750000  0.754862  0.157098  1
  Si  Si19  1  0.750000  0.744983  0.656102  1
  Si  Si20  1  0.250000  0.202448  0.543329  1
  Si  Si21  1  0.250000  0.303067  0.039792  1
  Si  Si22  1  0.750000  0.804868  0.459856  1
  Si  Si23  1  0.750000  0.695133  0.959055  1
  Ru  Ru24  1  0.250000  0.390746  0.681344  1
  Pt  Pt25  1  0.250000  0.109892  0.182549  1
  Pt  Pt26  1  0.750000  0.609404  0.318177  1
  Pt  Pt27  1  0.750000  0.889879  0.818574  1
