# generated using pymatgen
data_Y4Al4PdRuRh2
_symmetry_space_group_name_H-M   'P 1'
_cell_length_a   4.26371800
_cell_length_b   6.94453804
_cell_length_c   7.95813538
_cell_angle_alpha   89.96163160
_cell_angle_beta   90.00000000
_cell_angle_gamma   90.00000000
_symmetry_Int_Tables_number   1
_chemical_formula_structural   Y4Al4PdRuRh2
_chemical_formula_sum   'Y4 Al4 Pd1 Ru1 Rh2'
_cell_volume   235.63676911
_cell_formula_units_Z   1
loop_
 _symmetry_equiv_pos_site_id
 _symmetry_equiv_pos_as_xyz
  1  'x, y, z'
loop_
 _atom_site_type_symbol
 _atom_site_label
 _atom_site_symmetry_multiplicity
 _atom_site_fract_x
 _atom_site_fract_y
 _atom_site_fract_z
 _atom_site_occupancy
  Y  Y0  1  0.250000  0.025387  0.322841  1
  Y  Y1  1  0.250000  0.539874  0.184497  1
  Y  Y2  1  0.750000  0.967316  0.679582  1
  Y  Y3  1  0.750000  0.470177  0.815049  1
  Al  Al4  1  0.250000  0.138542  0.934710  1
  Al  Al5  1  0.250000  0.641020  0.560137  1
  Al  Al6  1  0.750000  0.855437  0.062326  1
  Al  Al7  1  0.750000  0.362391  0.440034  1
  Pd  Pd8  1  0.750000  0.227431  0.117982  1
  Ru  Ru9  1  0.750000  0.733689  0.380849  1
  Rh  Rh10  1  0.250000  0.269244  0.618656  1
  Rh  Rh11  1  0.250000  0.769494  0.883336  1
