# generated using pymatgen
data_CaTb2YbIn2
_symmetry_space_group_name_H-M   'P 1'
_cell_length_a   5.43661100
_cell_length_b   5.43661105
_cell_length_c   6.85086400
_cell_angle_alpha   90.00000000
_cell_angle_beta   90.00000000
_cell_angle_gamma   120.00000581
_symmetry_Int_Tables_number   1
_chemical_formula_structural   CaTb2YbIn2
_chemical_formula_sum   'Ca1 Tb2 Yb1 In2'
_cell_volume   175.36078265
_cell_formula_units_Z   1
loop_
 _symmetry_equiv_pos_site_id
 _symmetry_equiv_pos_as_xyz
  1  'x, y, z'
loop_
 _atom_site_type_symbol
 _atom_site_label
 _atom_site_symmetry_multiplicity
 _atom_site_fract_x
 _atom_site_fract_y
 _atom_site_fract_z
 _atom_site_occupancy
  Ca  Ca0  1  0.000000  0.000000  0.000000  1
  Tb  Tb1  1  0.333333  0.666667  0.748405  1
  Tb  Tb2  1  0.666667  0.333333  0.251595  1
  Yb  Yb3  1  0.000000  0.000000  0.500000  1
  In  In4  1  0.666667  0.333333  0.753107  1
  In  In5  1  0.333333  0.666667  0.246893  1
