# generated using pymatgen
data_GdLu3Pd4F28
_symmetry_space_group_name_H-M   'P 1'
_cell_length_a   5.44615066
_cell_length_b   8.68465683
_cell_length_c   11.76644200
_cell_angle_alpha   62.79718597
_cell_angle_beta   89.97180528
_cell_angle_gamma   89.98695268
_symmetry_Int_Tables_number   1
_chemical_formula_structural   GdLu3Pd4F28
_chemical_formula_sum   'Gd1 Lu3 Pd4 F28'
_cell_volume   494.97307638
_cell_formula_units_Z   1
loop_
 _symmetry_equiv_pos_site_id
 _symmetry_equiv_pos_as_xyz
  1  'x, y, z'
loop_
 _atom_site_type_symbol
 _atom_site_label
 _atom_site_symmetry_multiplicity
 _atom_site_fract_x
 _atom_site_fract_y
 _atom_site_fract_z
 _atom_site_occupancy
  Gd  Gd0  1  0.262531  0.815642  0.264932  1
  Lu  Lu1  1  0.736704  0.184635  0.736034  1
  Lu  Lu2  1  0.763473  0.191157  0.234952  1
  Lu  Lu3  1  0.237193  0.815657  0.764159  1
  Pd  Pd4  1  0.758466  0.727238  0.039813  1
  Pd  Pd5  1  0.239216  0.274479  0.954841  1
  Pd  Pd6  1  0.259921  0.268441  0.458534  1
  Pd  Pd7  1  0.740822  0.726577  0.546903  1
  F  F8  1  0.930538  0.698369  0.418386  1
  F  F9  1  0.063466  0.298448  0.584650  1
  F  F10  1  0.434634  0.300799  0.082926  1
  F  F11  1  0.563254  0.699744  0.912439  1
  F  F12  1  0.461753  0.720071  0.132387  1
  F  F13  1  0.535760  0.276738  0.861815  1
  F  F14  1  0.962807  0.276152  0.364239  1
  F  F15  1  0.039128  0.723693  0.638534  1
  F  F16  1  0.939522  0.744211  0.175854  1
  F  F17  1  0.049199  0.253647  0.821613  1
  F  F18  1  0.449694  0.250939  0.323739  1
  F  F19  1  0.551783  0.747175  0.679871  1
  F  F20  1  0.779047  0.476547  0.141432  1
  F  F21  1  0.220106  0.525362  0.856241  1
  F  F22  1  0.280490  0.517641  0.358517  1
  F  F23  1  0.722552  0.474777  0.644907  1
  F  F24  1  0.934817  0.278396  0.041400  1
  F  F25  1  0.066764  0.723839  0.955913  1
  F  F26  1  0.436425  0.719040  0.464243  1
  F  F27  1  0.564648  0.275094  0.543804  1
  F  F28  1  0.746209  0.977059  0.452190  1
  F  F29  1  0.252344  0.017955  0.551536  1
  F  F30  1  0.247199  0.024533  0.045553  1
  F  F31  1  0.751824  0.977872  0.948804  1
  F  F32  1  0.599189  0.976152  0.230214  1
  F  F33  1  0.416696  0.029097  0.767303  1
  F  F34  1  0.085246  0.041223  0.268506  1
  F  F35  1  0.916574  0.971603  0.732815  1
