# generated using pymatgen
data_Pr3GaI3
_symmetry_space_group_name_H-M   'P 1'
_cell_length_a   10.98961780
_cell_length_b   10.98961857
_cell_length_c   10.98961900
_cell_angle_alpha   109.47121957
_cell_angle_beta   109.47122101
_cell_angle_gamma   109.47122144
_symmetry_Int_Tables_number   1
_chemical_formula_structural   Pr3GaI3
_chemical_formula_sum   'Pr12 Ga4 I12'
_cell_volume   1021.70602077
_cell_formula_units_Z   4
loop_
 _symmetry_equiv_pos_site_id
 _symmetry_equiv_pos_as_xyz
  1  'x, y, z'
loop_
 _atom_site_type_symbol
 _atom_site_label
 _atom_site_symmetry_multiplicity
 _atom_site_fract_x
 _atom_site_fract_y
 _atom_site_fract_z
 _atom_site_occupancy
  Pr  Pr0  1  0.028884  0.264443  0.014443  1
  Pr  Pr1  1  0.750000  0.014443  0.485557  1
  Pr  Pr2  1  0.264443  0.750000  0.235557  1
  Pr  Pr3  1  0.485557  0.750000  0.014443  1
  Pr  Pr4  1  0.750000  0.235557  0.264443  1
  Pr  Pr5  1  0.014443  0.485557  0.750000  1
  Pr  Pr6  1  0.235557  0.264443  0.750000  1
  Pr  Pr7  1  0.485557  0.235557  0.471116  1
  Pr  Pr8  1  0.471116  0.485557  0.235557  1
  Pr  Pr9  1  0.264443  0.014443  0.028884  1
  Pr  Pr10  1  0.014443  0.028884  0.264443  1
  Pr  Pr11  1  0.235557  0.471116  0.485557  1
  Ga  Ga12  1  0.500000  0.000000  0.250000  1
  Ga  Ga13  1  0.250000  0.500000  0.000000  1
  Ga  Ga14  1  0.250000  0.250000  0.250000  1
  Ga  Ga15  1  0.000000  0.250000  0.500000  1
  I  I16  1  0.756497  0.743503  0.250000  1
  I  I17  1  0.993503  0.506497  0.250000  1
  I  I18  1  0.250000  0.756497  0.743503  1
  I  I19  1  0.756497  0.512995  0.506497  1
  I  I20  1  0.506497  0.250000  0.993503  1
  I  I21  1  0.743503  0.993503  0.987005  1
  I  I22  1  0.993503  0.987005  0.743503  1
  I  I23  1  0.512995  0.506497  0.756497  1
  I  I24  1  0.250000  0.993503  0.506497  1
  I  I25  1  0.743503  0.250000  0.756497  1
  I  I26  1  0.506497  0.756497  0.512995  1
  I  I27  1  0.987005  0.743503  0.993503  1
