# generated using pymatgen
data_Ho17Sc3(Ir2Os)4
_symmetry_space_group_name_H-M   'P 1'
_cell_length_a   10.74083300
_cell_length_b   10.74083300
_cell_length_c   6.30836100
_cell_angle_alpha   90.00000000
_cell_angle_beta   90.00000000
_cell_angle_gamma   90.00000000
_symmetry_Int_Tables_number   1
_chemical_formula_structural   Ho17Sc3(Ir2Os)4
_chemical_formula_sum   'Ho17 Sc3 Ir8 Os4'
_cell_volume   727.76718015
_cell_formula_units_Z   1
loop_
 _symmetry_equiv_pos_site_id
 _symmetry_equiv_pos_as_xyz
  1  'x, y, z'
loop_
 _atom_site_type_symbol
 _atom_site_label
 _atom_site_symmetry_multiplicity
 _atom_site_fract_x
 _atom_site_fract_y
 _atom_site_fract_z
 _atom_site_occupancy
  Ho  Ho0  1  0.290237  0.085272  0.376369  1
  Ho  Ho1  1  0.290169  0.914730  0.876651  1
  Ho  Ho2  1  0.709831  0.085270  0.876651  1
  Ho  Ho3  1  0.709763  0.914728  0.376369  1
  Ho  Ho4  1  0.585586  0.791529  0.876202  1
  Ho  Ho5  1  0.585958  0.206671  0.375777  1
  Ho  Ho6  1  0.414042  0.793329  0.375777  1
  Ho  Ho7  1  0.414414  0.208471  0.876202  1
  Ho  Ho8  1  0.206671  0.414042  0.624223  1
  Ho  Ho9  1  0.208471  0.585586  0.123798  1
  Ho  Ho10  1  0.791529  0.414414  0.123798  1
  Ho  Ho11  1  0.793329  0.585958  0.624223  1
  Ho  Ho12  1  0.914730  0.709831  0.123349  1
  Ho  Ho13  1  0.914728  0.290237  0.623631  1
  Ho  Ho14  1  0.085272  0.709763  0.623631  1
  Ho  Ho15  1  0.085270  0.290169  0.123349  1
  Ho  Ho16  1  0.500000  0.500000  0.500000  1
  Sc  Sc17  1  0.000000  0.000000  0.500000  1
  Sc  Sc18  1  0.000000  0.000000  0.000000  1
  Sc  Sc19  1  0.500000  0.500000  0.000000  1
  Ir  Ir20  1  0.853685  0.146198  0.250320  1
  Ir  Ir21  1  0.853802  0.853685  0.749680  1
  Ir  Ir22  1  0.146198  0.146315  0.749680  1
  Ir  Ir23  1  0.146315  0.853802  0.250320  1
  Ir  Ir24  1  0.649657  0.349668  0.755668  1
  Ir  Ir25  1  0.650332  0.649657  0.244332  1
  Ir  Ir26  1  0.349668  0.350343  0.244332  1
  Ir  Ir27  1  0.350343  0.650332  0.755668  1
  Os  Os28  1  0.500000  0.000000  0.122457  1
  Os  Os29  1  0.500000  0.000000  0.623192  1
  Os  Os30  1  0.000000  0.500000  0.877543  1
  Os  Os31  1  0.000000  0.500000  0.376808  1
