# generated using pymatgen
data_Lu3Zn2In3Ir
_symmetry_space_group_name_H-M   'P 1'
_cell_length_a   7.65183400
_cell_length_b   7.65183482
_cell_length_c   3.81524500
_cell_angle_alpha   90.00000000
_cell_angle_beta   90.00000000
_cell_angle_gamma   120.00000510
_symmetry_Int_Tables_number   1
_chemical_formula_structural   Lu3Zn2In3Ir
_chemical_formula_sum   'Lu3 Zn2 In3 Ir1'
_cell_volume   193.45687470
_cell_formula_units_Z   1
loop_
 _symmetry_equiv_pos_site_id
 _symmetry_equiv_pos_as_xyz
  1  'x, y, z'
loop_
 _atom_site_type_symbol
 _atom_site_label
 _atom_site_symmetry_multiplicity
 _atom_site_fract_x
 _atom_site_fract_y
 _atom_site_fract_z
 _atom_site_occupancy
  Lu  Lu0  1  0.417482  0.387579  0.000000  1
  Lu  Lu1  1  0.612421  0.029904  0.000000  1
  Lu  Lu2  1  0.970096  0.582518  0.000000  1
  Zn  Zn3  1  0.000000  0.000000  0.000000  1
  Zn  Zn4  1  0.333333  0.666667  0.500000  1
  In  In5  1  0.009221  0.269565  0.500000  1
  In  In6  1  0.730435  0.739656  0.500000  1
  In  In7  1  0.260344  0.990779  0.500000  1
  Ir  Ir8  1  0.666667  0.333333  0.500000  1
