# generated using pymatgen
data_Tb8Ta11Si16Tc
_symmetry_space_group_name_H-M   'P 1'
_cell_length_a   7.04049145
_cell_length_b   7.04049175
_cell_length_c   13.00655538
_cell_angle_alpha   89.93535039
_cell_angle_beta   90.06464734
_cell_angle_gamma   89.82216320
_symmetry_Int_Tables_number   1
_chemical_formula_structural   Tb8Ta11Si16Tc
_chemical_formula_sum   'Tb8 Ta11 Si16 Tc1'
_cell_volume   644.71179793
_cell_formula_units_Z   1
loop_
 _symmetry_equiv_pos_site_id
 _symmetry_equiv_pos_as_xyz
  1  'x, y, z'
loop_
 _atom_site_type_symbol
 _atom_site_label
 _atom_site_symmetry_multiplicity
 _atom_site_fract_x
 _atom_site_fract_y
 _atom_site_fract_z
 _atom_site_occupancy
  Tb  Tb0  1  0.341700  0.002130  0.468773  1
  Tb  Tb1  1  0.498718  0.839867  0.716996  1
  Tb  Tb2  1  0.503552  0.158692  0.218678  1
  Tb  Tb3  1  0.839867  0.498718  0.283004  1
  Tb  Tb4  1  0.158692  0.503552  0.781322  1
  Tb  Tb5  1  0.659375  0.996884  0.968284  1
  Tb  Tb6  1  0.002130  0.341700  0.531227  1
  Tb  Tb7  1  0.996884  0.659375  0.031716  1
  Ta  Ta8  1  0.329116  0.329116  0.000000  1
  Ta  Ta9  1  0.170305  0.827242  0.251653  1
  Ta  Ta10  1  0.827242  0.170305  0.748347  1
  Ta  Ta11  1  0.153142  0.007707  0.874679  1
  Ta  Ta12  1  0.494228  0.653486  0.124696  1
  Ta  Ta13  1  0.505953  0.343855  0.624074  1
  Ta  Ta14  1  0.653486  0.494228  0.875304  1
  Ta  Ta15  1  0.343855  0.505953  0.375926  1
  Ta  Ta16  1  0.849514  0.994810  0.374672  1
  Ta  Ta17  1  0.007707  0.153142  0.125321  1
  Ta  Ta18  1  0.994810  0.849514  0.625328  1
  Si  Si19  1  0.204375  0.132836  0.682438  1
  Si  Si20  1  0.366220  0.703696  0.932650  1
  Si  Si21  1  0.632182  0.298719  0.432977  1
  Si  Si22  1  0.703696  0.366220  0.067350  1
  Si  Si23  1  0.298719  0.632182  0.567023  1
  Si  Si24  1  0.796881  0.866144  0.183118  1
  Si  Si25  1  0.132836  0.204375  0.317562  1
  Si  Si26  1  0.866144  0.796881  0.816882  1
  Si  Si27  1  0.294107  0.954725  0.064335  1
  Si  Si28  1  0.548043  0.791622  0.316691  1
  Si  Si29  1  0.455284  0.205898  0.813576  1
  Si  Si30  1  0.791622  0.548043  0.683309  1
  Si  Si31  1  0.205898  0.455284  0.186424  1
  Si  Si32  1  0.707327  0.042724  0.562299  1
  Si  Si33  1  0.954725  0.294107  0.935665  1
  Si  Si34  1  0.042724  0.707327  0.437701  1
  Tc  Tc35  1  0.668939  0.668939  0.500000  1
