# generated using pymatgen
data_La3Nd4Ru4C9
_symmetry_space_group_name_H-M   'P 1'
_cell_length_a   6.51872319
_cell_length_b   6.51872371
_cell_length_c   11.96570606
_cell_angle_alpha   71.27787446
_cell_angle_beta   71.27787456
_cell_angle_gamma   48.51537829
_symmetry_Int_Tables_number   1
_chemical_formula_structural   La3Nd4Ru4C9
_chemical_formula_sum   'La3 Nd4 Ru4 C9'
_cell_volume   356.52291722
_cell_formula_units_Z   1
loop_
 _symmetry_equiv_pos_site_id
 _symmetry_equiv_pos_as_xyz
  1  'x, y, z'
loop_
 _atom_site_type_symbol
 _atom_site_label
 _atom_site_symmetry_multiplicity
 _atom_site_fract_x
 _atom_site_fract_y
 _atom_site_fract_z
 _atom_site_occupancy
  La  La0  1  0.862426  0.862426  0.616022  1
  La  La1  1  0.000466  0.000466  0.999348  1
  La  La2  1  0.626889  0.626889  0.158807  1
  Nd  Nd3  1  0.378400  0.378400  0.837395  1
  Nd  Nd4  1  0.145070  0.145070  0.681968  1
  Nd  Nd5  1  0.853696  0.853696  0.319270  1
  Nd  Nd6  1  0.139866  0.139866  0.381351  1
  Ru  Ru7  1  0.356563  0.356563  0.140893  1
  Ru  Ru8  1  0.567388  0.567388  0.569649  1
  Ru  Ru9  1  0.432337  0.432337  0.430008  1
  Ru  Ru10  1  0.642306  0.642306  0.858823  1
  C  C11  1  0.381295  0.381295  0.291555  1
  C  C12  1  0.924325  0.924325  0.818698  1
  C  C13  1  0.391891  0.391891  0.614414  1
  C  C14  1  0.192655  0.192655  0.145852  1
  C  C15  1  0.805483  0.805483  0.857813  1
  C  C16  1  0.498789  0.498789  0.999720  1
  C  C17  1  0.074087  0.074087  0.183529  1
  C  C18  1  0.616662  0.616662  0.708937  1
  C  C19  1  0.609405  0.609405  0.385948  1
