# generated using pymatgen
data_Ho3Er5(IrO6)4
_symmetry_space_group_name_H-M   'P 1'
_cell_length_a   5.25674402
_cell_length_b   9.12174700
_cell_length_c   9.82510404
_cell_angle_alpha   90.00238319
_cell_angle_beta   90.01040084
_cell_angle_gamma   89.99747302
_symmetry_Int_Tables_number   1
_chemical_formula_structural   Ho3Er5(IrO6)4
_chemical_formula_sum   'Ho3 Er5 Ir4 O24'
_cell_volume   471.12050013
_cell_formula_units_Z   1
loop_
 _symmetry_equiv_pos_site_id
 _symmetry_equiv_pos_as_xyz
  1  'x, y, z'
loop_
 _atom_site_type_symbol
 _atom_site_label
 _atom_site_symmetry_multiplicity
 _atom_site_fract_x
 _atom_site_fract_y
 _atom_site_fract_z
 _atom_site_occupancy
  Ho  Ho0  1  0.017734  0.398568  0.033221  1
  Ho  Ho1  1  0.042737  0.281166  0.628933  1
  Ho  Ho2  1  0.457244  0.719003  0.129006  1
  Er  Er3  1  0.482414  0.601128  0.533242  1
  Er  Er4  1  0.517695  0.100743  0.966806  1
  Er  Er5  1  0.542615  0.218605  0.371014  1
  Er  Er6  1  0.957255  0.781436  0.870897  1
  Er  Er7  1  0.982205  0.898940  0.466914  1
  Ir  Ir8  1  0.041954  0.004092  0.148779  1
  Ir  Ir9  1  0.457940  0.995724  0.648684  1
  Ir  Ir10  1  0.542229  0.496332  0.851188  1
  Ir  Ir11  1  0.957816  0.503928  0.351652  1
  O  O12  1  0.084605  0.656917  0.473212  1
  O  O13  1  0.164886  0.554721  0.199565  1
  O  O14  1  0.187859  0.856364  0.265912  1
  O  O15  1  0.168263  0.865640  0.682574  1
  O  O16  1  0.237957  0.384879  0.429722  1
  O  O17  1  0.252524  0.089089  0.501269  1
  O  O18  1  0.247291  0.910758  0.001300  1
  O  O19  1  0.262116  0.615275  0.929505  1
  O  O20  1  0.331549  0.134474  0.182501  1
  O  O21  1  0.312237  0.143648  0.765780  1
  O  O22  1  0.335216  0.445831  0.698967  1
  O  O23  1  0.417475  0.343050  0.972916  1
  O  O24  1  0.584400  0.842909  0.527021  1
  O  O25  1  0.665485  0.945336  0.801000  1
  O  O26  1  0.688864  0.644252  0.734456  1
  O  O27  1  0.668758  0.634358  0.318016  1
  O  O28  1  0.736908  0.114630  0.569635  1
  O  O29  1  0.751293  0.410420  0.498438  1
  O  O30  1  0.748122  0.590251  0.997963  1
  O  O31  1  0.763104  0.885178  0.069729  1
  O  O32  1  0.830838  0.365721  0.817171  1
  O  O33  1  0.810657  0.355772  0.235172  1
  O  O34  1  0.834505  0.054558  0.301060  1
  O  O35  1  0.915250  0.156304  0.026782  1
