# generated using pymatgen
data_Lu2AlRuPt
_symmetry_space_group_name_H-M   'P 1'
_cell_length_a   5.45389692
_cell_length_b   5.45389688
_cell_length_c   5.45389678
_cell_angle_alpha   135.63909493
_cell_angle_beta   116.03248757
_cell_angle_gamma   81.15101461
_symmetry_Int_Tables_number   1
_chemical_formula_structural   Lu2AlRuPt
_chemical_formula_sum   'Lu2 Al1 Ru1 Pt1'
_cell_volume   98.55870434
_cell_formula_units_Z   1
loop_
 _symmetry_equiv_pos_site_id
 _symmetry_equiv_pos_as_xyz
  1  'x, y, z'
loop_
 _atom_site_type_symbol
 _atom_site_label
 _atom_site_symmetry_multiplicity
 _atom_site_fract_x
 _atom_site_fract_y
 _atom_site_fract_z
 _atom_site_occupancy
  Lu  Lu0  1  0.695191  0.200007  0.495184  1
  Lu  Lu1  1  0.295177  0.799993  0.495183  1
  Al  Al2  1  0.011560  0.000000  0.011560  1
  Ru  Ru3  1  0.259798  0.499999  0.759797  1
  Pt  Pt4  1  0.738275  0.500000  0.238275  1
