# generated using pymatgen
data_Th10Sn3Bi5
_symmetry_space_group_name_H-M   'P 1'
_cell_length_a   9.75379619
_cell_length_b   9.77282276
_cell_length_c   6.66155200
_cell_angle_alpha   89.99979418
_cell_angle_beta   90.00010457
_cell_angle_gamma   120.06454905
_symmetry_Int_Tables_number   1
_chemical_formula_structural   Th10Sn3Bi5
_chemical_formula_sum   'Th10 Sn3 Bi5'
_cell_volume   549.56226340
_cell_formula_units_Z   1
loop_
 _symmetry_equiv_pos_site_id
 _symmetry_equiv_pos_as_xyz
  1  'x, y, z'
loop_
 _atom_site_type_symbol
 _atom_site_label
 _atom_site_symmetry_multiplicity
 _atom_site_fract_x
 _atom_site_fract_y
 _atom_site_fract_z
 _atom_site_occupancy
  Th  Th0  1  0.000000  0.719626  0.750008  1
  Th  Th1  1  0.278328  0.278280  0.749992  1
  Th  Th2  1  0.331584  0.666667  0.498459  1
  Th  Th3  1  0.668416  0.335081  0.498459  1
  Th  Th4  1  0.723512  0.720272  0.250001  1
  Th  Th5  1  0.721672  0.999952  0.749992  1
  Th  Th6  1  0.000000  0.280967  0.250001  1
  Th  Th7  1  0.276488  0.996760  0.250001  1
  Th  Th8  1  0.331580  0.666664  0.001543  1
  Th  Th9  1  0.668420  0.335083  0.001543  1
  Sn  Sn10  1  0.000000  0.000387  0.999917  1
  Sn  Sn11  1  0.000000  0.618764  0.250003  1
  Sn  Sn12  1  0.000000  0.000383  0.500081  1
  Bi  Bi13  1  0.618992  0.618802  0.750001  1
  Bi  Bi14  1  0.000000  0.381721  0.749999  1
  Bi  Bi15  1  0.381008  0.999809  0.750001  1
  Bi  Bi16  1  0.618836  0.999809  0.249999  1
  Bi  Bi17  1  0.381164  0.380973  0.249999  1
