# generated using pymatgen
data_Na3LiTh2Br12
_symmetry_space_group_name_H-M   'P 1'
_cell_length_a   7.40940900
_cell_length_b   7.40941012
_cell_length_c   13.78874500
_cell_angle_alpha   90.00000000
_cell_angle_beta   90.00000000
_cell_angle_gamma   119.99999055
_symmetry_Int_Tables_number   1
_chemical_formula_structural   Na3LiTh2Br12
_chemical_formula_sum   'Na3 Li1 Th2 Br12'
_cell_volume   655.57535039
_cell_formula_units_Z   1
loop_
 _symmetry_equiv_pos_site_id
 _symmetry_equiv_pos_as_xyz
  1  'x, y, z'
loop_
 _atom_site_type_symbol
 _atom_site_label
 _atom_site_symmetry_multiplicity
 _atom_site_fract_x
 _atom_site_fract_y
 _atom_site_fract_z
 _atom_site_occupancy
  Na  Na0  1  0.000000  0.000000  0.750000  1
  Na  Na1  1  0.666667  0.333333  0.750000  1
  Na  Na2  1  0.333333  0.666667  0.250000  1
  Li  Li3  1  0.000000  0.000000  0.250000  1
  Th  Th4  1  0.333333  0.666667  0.750000  1
  Th  Th5  1  0.666667  0.333333  0.250000  1
  Br  Br6  1  0.015560  0.348963  0.632682  1
  Br  Br7  1  0.333405  0.984440  0.632682  1
  Br  Br8  1  0.651037  0.666595  0.632682  1
  Br  Br9  1  0.651037  0.984440  0.867318  1
  Br  Br10  1  0.333405  0.348963  0.867318  1
  Br  Br11  1  0.015560  0.666595  0.867318  1
  Br  Br12  1  0.983004  0.318583  0.137196  1
  Br  Br13  1  0.335578  0.016996  0.137196  1
  Br  Br14  1  0.681417  0.664422  0.137196  1
  Br  Br15  1  0.681417  0.016996  0.362804  1
  Br  Br16  1  0.335578  0.318583  0.362804  1
  Br  Br17  1  0.983004  0.664422  0.362804  1
