# generated using pymatgen
data_ThSc3CdFe
_symmetry_space_group_name_H-M   'P 1'
_cell_length_a   9.19682914
_cell_length_b   9.19682844
_cell_length_c   9.19682900
_cell_angle_alpha   60.00000158
_cell_angle_beta   60.00000410
_cell_angle_gamma   60.00000021
_symmetry_Int_Tables_number   1
_chemical_formula_structural   ThSc3CdFe
_chemical_formula_sum   'Th4 Sc12 Cd4 Fe4'
_cell_volume   550.04641240
_cell_formula_units_Z   4
loop_
 _symmetry_equiv_pos_site_id
 _symmetry_equiv_pos_as_xyz
  1  'x, y, z'
loop_
 _atom_site_type_symbol
 _atom_site_label
 _atom_site_symmetry_multiplicity
 _atom_site_fract_x
 _atom_site_fract_y
 _atom_site_fract_z
 _atom_site_occupancy
  Th  Th0  1  0.346908  0.346908  0.346908  1
  Th  Th1  1  0.346908  0.346908  0.959275  1
  Th  Th2  1  0.346908  0.959275  0.346908  1
  Th  Th3  1  0.959275  0.346908  0.346908  1
  Sc  Sc4  1  0.815456  0.184544  0.184544  1
  Sc  Sc5  1  0.184544  0.815456  0.815456  1
  Sc  Sc6  1  0.184544  0.815456  0.184544  1
  Sc  Sc7  1  0.815456  0.184544  0.815456  1
  Sc  Sc8  1  0.184544  0.184544  0.815456  1
  Sc  Sc9  1  0.815456  0.815456  0.184544  1
  Sc  Sc10  1  0.935193  0.564807  0.564807  1
  Sc  Sc11  1  0.564807  0.935193  0.935193  1
  Sc  Sc12  1  0.564807  0.935193  0.564807  1
  Sc  Sc13  1  0.935193  0.564807  0.935193  1
  Sc  Sc14  1  0.564807  0.564807  0.935193  1
  Sc  Sc15  1  0.935193  0.935193  0.564807  1
  Cd  Cd16  1  0.584662  0.584662  0.584662  1
  Cd  Cd17  1  0.584662  0.584662  0.246014  1
  Cd  Cd18  1  0.584662  0.246014  0.584662  1
  Cd  Cd19  1  0.246014  0.584662  0.584662  1
  Fe  Fe20  1  0.140521  0.140521  0.140521  1
  Fe  Fe21  1  0.140521  0.140521  0.578437  1
  Fe  Fe22  1  0.140521  0.578437  0.140521  1
  Fe  Fe23  1  0.578437  0.140521  0.140521  1
