# generated using pymatgen
data_Ni3Te(AuO2)4
_symmetry_space_group_name_H-M   'P 1'
_cell_length_a   5.33658444
_cell_length_b   6.24585897
_cell_length_c   7.26307328
_cell_angle_alpha   64.15099603
_cell_angle_beta   104.76745772
_cell_angle_gamma   90.03678074
_symmetry_Int_Tables_number   1
_chemical_formula_structural   Ni3Te(AuO2)4
_chemical_formula_sum   'Ni3 Te1 Au4 O8'
_cell_volume   208.96591108
_cell_formula_units_Z   1
loop_
 _symmetry_equiv_pos_site_id
 _symmetry_equiv_pos_as_xyz
  1  'x, y, z'
loop_
 _atom_site_type_symbol
 _atom_site_label
 _atom_site_symmetry_multiplicity
 _atom_site_fract_x
 _atom_site_fract_y
 _atom_site_fract_z
 _atom_site_occupancy
  Ni  Ni0  1  0.000450  0.010159  0.499984  1
  Ni  Ni1  1  0.499829  0.250212  0.499964  1
  Ni  Ni2  1  0.999604  0.489937  0.500036  1
  Te  Te3  1  0.500026  0.750022  0.500002  1
  Au  Au4  1  0.003352  0.004469  0.990111  1
  Au  Au5  1  0.499946  0.249910  0.000016  1
  Au  Au6  1  0.996674  0.495321  0.009909  1
  Au  Au7  1  0.500059  0.749897  0.999977  1
  O  O8  1  0.874504  0.664986  0.666899  1
  O  O9  1  0.398343  0.901481  0.664516  1
  O  O10  1  0.885220  0.167336  0.662433  1
  O  O11  1  0.397346  0.431915  0.664879  1
  O  O12  1  0.125530  0.834997  0.333112  1
  O  O13  1  0.602681  0.068063  0.335144  1
  O  O14  1  0.114760  0.332729  0.337582  1
  O  O15  1  0.601678  0.598567  0.335436  1
