# generated using pymatgen
data_TbPrCd4SnPb
_symmetry_space_group_name_H-M   'P 1'
_cell_length_a   4.94958200
_cell_length_b   4.55218800
_cell_length_c   9.17238700
_cell_angle_alpha   90.00000000
_cell_angle_beta   90.00000000
_cell_angle_gamma   90.00000000
_symmetry_Int_Tables_number   1
_chemical_formula_structural   TbPrCd4SnPb
_chemical_formula_sum   'Tb1 Pr1 Cd4 Sn1 Pb1'
_cell_volume   206.66697531
_cell_formula_units_Z   1
loop_
 _symmetry_equiv_pos_site_id
 _symmetry_equiv_pos_as_xyz
  1  'x, y, z'
loop_
 _atom_site_type_symbol
 _atom_site_label
 _atom_site_symmetry_multiplicity
 _atom_site_fract_x
 _atom_site_fract_y
 _atom_site_fract_z
 _atom_site_occupancy
  Tb  Tb0  1  0.000000  0.000000  0.504012  1
  Pr  Pr1  1  0.000000  0.000000  0.996270  1
  Cd  Cd2  1  0.500000  0.500000  0.997993  1
  Cd  Cd3  1  0.500000  0.500000  0.502131  1
  Cd  Cd4  1  0.500000  0.000000  0.256068  1
  Cd  Cd5  1  0.500000  0.000000  0.744124  1
  Sn  Sn6  1  0.000000  0.500000  0.743277  1
  Pb  Pb7  1  0.000000  0.500000  0.256125  1
