# generated using pymatgen
data_Sc7C3Br6O
_symmetry_space_group_name_H-M   'P 1'
_cell_length_a   3.51920100
_cell_length_b   10.26392400
_cell_length_c   20.76390200
_cell_angle_alpha   90.00000000
_cell_angle_beta   90.00000000
_cell_angle_gamma   90.00000000
_symmetry_Int_Tables_number   1
_chemical_formula_structural   Sc7C3Br6O
_chemical_formula_sum   'Sc14 C6 Br12 O2'
_cell_volume   750.00899232
_cell_formula_units_Z   2
loop_
 _symmetry_equiv_pos_site_id
 _symmetry_equiv_pos_as_xyz
  1  'x, y, z'
loop_
 _atom_site_type_symbol
 _atom_site_label
 _atom_site_symmetry_multiplicity
 _atom_site_fract_x
 _atom_site_fract_y
 _atom_site_fract_z
 _atom_site_occupancy
  Sc  Sc0  1  0.500000  0.641328  0.969774  1
  Sc  Sc1  1  0.000000  0.706208  0.664507  1
  Sc  Sc2  1  0.500000  0.512334  0.750000  1
  Sc  Sc3  1  0.000000  0.434031  0.604678  1
  Sc  Sc4  1  0.000000  0.293792  0.164507  1
  Sc  Sc5  1  0.500000  0.487666  0.250000  1
  Sc  Sc6  1  0.500000  0.358672  0.469774  1
  Sc  Sc7  1  0.000000  0.434031  0.895322  1
  Sc  Sc8  1  0.000000  0.565969  0.104678  1
  Sc  Sc9  1  0.000000  0.706208  0.835493  1
  Sc  Sc10  1  0.500000  0.641328  0.530226  1
  Sc  Sc11  1  0.500000  0.358672  0.030226  1
  Sc  Sc12  1  0.000000  0.293792  0.335493  1
  Sc  Sc13  1  0.000000  0.565969  0.395322  1
  C  C14  1  0.500000  0.424848  0.136091  1
  C  C15  1  0.500000  0.575152  0.636091  1
  C  C16  1  0.000000  0.500000  0.000000  1
  C  C17  1  0.500000  0.575152  0.863909  1
  C  C18  1  0.000000  0.500000  0.500000  1
  C  C19  1  0.500000  0.424848  0.363909  1
  Br  Br20  1  0.500000  0.128046  0.250000  1
  Br  Br21  1  0.000000  0.690434  0.250000  1
  Br  Br22  1  0.000000  0.147984  0.059069  1
  Br  Br23  1  0.500000  0.232805  0.909379  1
  Br  Br24  1  0.500000  0.767195  0.409379  1
  Br  Br25  1  0.000000  0.852016  0.940931  1
  Br  Br26  1  0.000000  0.147984  0.440931  1
  Br  Br27  1  0.500000  0.767195  0.090621  1
  Br  Br28  1  0.000000  0.852016  0.559069  1
  Br  Br29  1  0.000000  0.309566  0.750000  1
  Br  Br30  1  0.500000  0.232805  0.590621  1
  Br  Br31  1  0.500000  0.871954  0.750000  1
  O  O32  1  0.000000  0.615240  0.750000  1
  O  O33  1  0.000000  0.384760  0.250000  1
