# generated using pymatgen
data_Er8Hf11Si16Ru
_symmetry_space_group_name_H-M   'P 1'
_cell_length_a   7.23055585
_cell_length_b   7.23055577
_cell_length_c   13.19725643
_cell_angle_alpha   90.11361530
_cell_angle_beta   89.88638341
_cell_angle_gamma   90.00846285
_symmetry_Int_Tables_number   1
_chemical_formula_structural   Er8Hf11Si16Ru
_chemical_formula_sum   'Er8 Hf11 Si16 Ru1'
_cell_volume   689.96221618
_cell_formula_units_Z   1
loop_
 _symmetry_equiv_pos_site_id
 _symmetry_equiv_pos_as_xyz
  1  'x, y, z'
loop_
 _atom_site_type_symbol
 _atom_site_label
 _atom_site_symmetry_multiplicity
 _atom_site_fract_x
 _atom_site_fract_y
 _atom_site_fract_z
 _atom_site_occupancy
  Er  Er0  1  0.344652  0.005444  0.465113  1
  Er  Er1  1  0.494351  0.846106  0.717332  1
  Er  Er2  1  0.501682  0.155594  0.211724  1
  Er  Er3  1  0.846106  0.494351  0.282668  1
  Er  Er4  1  0.155594  0.501682  0.788276  1
  Er  Er5  1  0.652867  0.998493  0.967167  1
  Er  Er6  1  0.005444  0.344652  0.534887  1
  Er  Er7  1  0.998493  0.652867  0.032833  1
  Hf  Hf8  1  0.176179  0.824107  0.247843  1
  Hf  Hf9  1  0.824107  0.176179  0.752157  1
  Hf  Hf10  1  0.675677  0.675677  0.500000  1
  Hf  Hf11  1  0.146127  0.002328  0.876290  1
  Hf  Hf12  1  0.496092  0.645920  0.121434  1
  Hf  Hf13  1  0.501711  0.354218  0.627890  1
  Hf  Hf14  1  0.645920  0.496092  0.878566  1
  Hf  Hf15  1  0.354218  0.501711  0.372110  1
  Hf  Hf16  1  0.853854  0.997875  0.374288  1
  Hf  Hf17  1  0.002328  0.146127  0.123710  1
  Hf  Hf18  1  0.997875  0.853854  0.625712  1
  Si  Si19  1  0.204712  0.142078  0.684192  1
  Si  Si20  1  0.362484  0.708393  0.930182  1
  Si  Si21  1  0.640326  0.294302  0.432636  1
  Si  Si22  1  0.708393  0.362484  0.069818  1
  Si  Si23  1  0.294302  0.640326  0.567364  1
  Si  Si24  1  0.794585  0.858509  0.181000  1
  Si  Si25  1  0.142078  0.204712  0.315808  1
  Si  Si26  1  0.858509  0.794585  0.819000  1
  Si  Si27  1  0.294174  0.951531  0.063842  1
  Si  Si28  1  0.549413  0.797229  0.313903  1
  Si  Si29  1  0.444590  0.206300  0.819560  1
  Si  Si30  1  0.797229  0.549413  0.686097  1
  Si  Si31  1  0.206300  0.444590  0.180440  1
  Si  Si32  1  0.702508  0.050611  0.565199  1
  Si  Si33  1  0.951531  0.294174  0.936158  1
  Si  Si34  1  0.050611  0.702508  0.434801  1
  Ru  Ru35  1  0.324975  0.324975  0.000000  1
