# generated using pymatgen
data_HoEr5P13Rh20
_symmetry_space_group_name_H-M   'P 1'
_cell_length_a   13.31235401
_cell_length_b   13.31120481
_cell_length_c   3.90890500
_cell_angle_alpha   89.99924380
_cell_angle_beta   90.00008700
_cell_angle_gamma   119.99936756
_symmetry_Int_Tables_number   1
_chemical_formula_structural   HoEr5P13Rh20
_chemical_formula_sum   'Ho1 Er5 P13 Rh20'
_cell_volume   599.87496644
_cell_formula_units_Z   1
loop_
 _symmetry_equiv_pos_site_id
 _symmetry_equiv_pos_as_xyz
  1  'x, y, z'
loop_
 _atom_site_type_symbol
 _atom_site_label
 _atom_site_symmetry_multiplicity
 _atom_site_fract_x
 _atom_site_fract_y
 _atom_site_fract_z
 _atom_site_occupancy
  Ho  Ho0  1  0.529233  0.717428  0.248469  1
  Er  Er1  1  0.282553  0.811965  0.248481  1
  Er  Er2  1  0.188061  0.470641  0.248443  1
  Er  Er3  1  0.470669  0.282536  0.751511  1
  Er  Er4  1  0.717462  0.188139  0.751618  1
  Er  Er5  1  0.811850  0.529304  0.751525  1
  P  P6  1  0.526768  0.139810  0.250362  1
  P  P7  1  0.860239  0.386982  0.250292  1
  P  P8  1  0.613012  0.473220  0.250330  1
  P  P9  1  0.944621  0.714030  0.254450  1
  P  P10  1  0.285952  0.230524  0.254518  1
  P  P11  1  0.769424  0.055398  0.254404  1
  P  P12  1  0.386816  0.526568  0.749664  1
  P  P13  1  0.473204  0.860330  0.749701  1
  P  P14  1  0.139665  0.612984  0.749697  1
  P  P15  1  0.714294  0.769545  0.745517  1
  P  P16  1  0.230532  0.944588  0.745530  1
  P  P17  1  0.055377  0.285944  0.745526  1
  P  P18  1  0.000026  0.000016  0.000016  1
  Rh  Rh19  1  0.333123  0.666579  0.751944  1
  Rh  Rh20  1  0.920571  0.250391  0.253803  1
  Rh  Rh21  1  0.749702  0.670177  0.253780  1
  Rh  Rh22  1  0.329816  0.079467  0.253780  1
  Rh  Rh23  1  0.438249  0.022237  0.751434  1
  Rh  Rh24  1  0.977736  0.416074  0.751355  1
  Rh  Rh25  1  0.584006  0.561419  0.751403  1
  Rh  Rh26  1  0.666643  0.333330  0.248055  1
  Rh  Rh27  1  0.094385  0.187173  0.247455  1
  Rh  Rh28  1  0.812875  0.907207  0.247490  1
  Rh  Rh29  1  0.092852  0.905666  0.247463  1
  Rh  Rh30  1  0.022260  0.583924  0.248599  1
  Rh  Rh31  1  0.415996  0.438190  0.248604  1
  Rh  Rh32  1  0.561698  0.977901  0.248559  1
  Rh  Rh33  1  0.670393  0.920964  0.746232  1
  Rh  Rh34  1  0.079436  0.749592  0.746197  1
  Rh  Rh35  1  0.250269  0.329658  0.746152  1
  Rh  Rh36  1  0.905820  0.812891  0.752504  1
  Rh  Rh37  1  0.187164  0.092812  0.752558  1
  Rh  Rh38  1  0.907246  0.094394  0.752579  1
