# generated using pymatgen
data_Hf2(TiSi)3
_symmetry_space_group_name_H-M   'P 1'
_cell_length_a   7.62269365
_cell_length_b   7.75005244
_cell_length_c   5.23219900
_cell_angle_alpha   90.00000000
_cell_angle_beta   90.00000000
_cell_angle_gamma   120.55424047
_symmetry_Int_Tables_number   1
_chemical_formula_structural   Hf2(TiSi)3
_chemical_formula_sum   'Hf4 Ti6 Si6'
_cell_volume   266.17993199
_cell_formula_units_Z   2
loop_
 _symmetry_equiv_pos_site_id
 _symmetry_equiv_pos_as_xyz
  1  'x, y, z'
loop_
 _atom_site_type_symbol
 _atom_site_label
 _atom_site_symmetry_multiplicity
 _atom_site_fract_x
 _atom_site_fract_y
 _atom_site_fract_z
 _atom_site_occupancy
  Hf  Hf0  1  0.755547  0.753575  0.250000  1
  Hf  Hf1  1  0.755547  0.001972  0.750000  1
  Hf  Hf2  1  0.244453  0.246425  0.750000  1
  Hf  Hf3  1  0.244453  0.998028  0.250000  1
  Ti  Ti4  1  0.000000  0.739259  0.750000  1
  Ti  Ti5  1  0.000000  0.260741  0.250000  1
  Ti  Ti6  1  0.334754  0.667377  0.500000  1
  Ti  Ti7  1  0.665246  0.332623  0.000000  1
  Ti  Ti8  1  0.665246  0.332623  0.500000  1
  Ti  Ti9  1  0.334754  0.667377  0.000000  1
  Si  Si10  1  0.390870  0.995346  0.750000  1
  Si  Si11  1  0.390870  0.395525  0.250000  1
  Si  Si12  1  0.000000  0.598102  0.250000  1
  Si  Si13  1  0.000000  0.401898  0.750000  1
  Si  Si14  1  0.609130  0.604475  0.750000  1
  Si  Si15  1  0.609130  0.004654  0.250000  1
