# generated using pymatgen
data_Tm7Hf12ZrSi16
_symmetry_space_group_name_H-M   'P 1'
_cell_length_a   7.22443556
_cell_length_b   7.22483220
_cell_length_c   13.25185158
_cell_angle_alpha   89.96587652
_cell_angle_beta   89.98874852
_cell_angle_gamma   89.93699697
_symmetry_Int_Tables_number   1
_chemical_formula_structural   Tm7Hf12ZrSi16
_chemical_formula_sum   'Tm7 Hf12 Zr1 Si16'
_cell_volume   691.68427364
_cell_formula_units_Z   1
loop_
 _symmetry_equiv_pos_site_id
 _symmetry_equiv_pos_as_xyz
  1  'x, y, z'
loop_
 _atom_site_type_symbol
 _atom_site_label
 _atom_site_symmetry_multiplicity
 _atom_site_fract_x
 _atom_site_fract_y
 _atom_site_fract_z
 _atom_site_occupancy
  Tm  Tm0  1  0.994691  0.343301  0.216832  1
  Tm  Tm1  1  0.003490  0.655388  0.714530  1
  Tm  Tm2  1  0.154926  0.496257  0.464174  1
  Tm  Tm3  1  0.503927  0.844457  0.034605  1
  Tm  Tm4  1  0.845233  0.504572  0.966099  1
  Tm  Tm5  1  0.495933  0.155197  0.534356  1
  Tm  Tm6  1  0.343929  0.995385  0.784821  1
  Hf  Hf7  1  0.175309  0.175027  0.000637  1
  Hf  Hf8  1  0.823388  0.826935  0.498573  1
  Hf  Hf9  1  0.326795  0.676062  0.250077  1
  Hf  Hf10  1  0.675665  0.324890  0.750075  1
  Hf  Hf11  1  0.148541  0.997369  0.374261  1
  Hf  Hf12  1  0.852751  0.002913  0.875015  1
  Hf  Hf13  1  0.503042  0.647999  0.624102  1
  Hf  Hf14  1  0.351612  0.496980  0.875280  1
  Hf  Hf15  1  0.499182  0.352492  0.125978  1
  Hf  Hf16  1  0.648005  0.502499  0.374387  1
  Hf  Hf17  1  0.996218  0.147900  0.624117  1
  Hf  Hf18  1  0.003953  0.854632  0.126729  1
  Zr  Zr19  1  0.650774  0.000333  0.286346  1
  Si  Si20  1  0.362741  0.292131  0.318103  1
  Si  Si21  1  0.640084  0.704160  0.817936  1
  Si  Si22  1  0.205680  0.860911  0.567175  1
  Si  Si23  1  0.139705  0.794828  0.932869  1
  Si  Si24  1  0.793982  0.139353  0.070637  1
  Si  Si25  1  0.856728  0.201951  0.429059  1
  Si  Si26  1  0.295074  0.360535  0.682013  1
  Si  Si27  1  0.704065  0.643826  0.182648  1
  Si  Si28  1  0.300855  0.048012  0.186053  1
  Si  Si29  1  0.703343  0.950494  0.685486  1
  Si  Si30  1  0.453169  0.798987  0.434021  1
  Si  Si31  1  0.203539  0.548801  0.064832  1
  Si  Si32  1  0.548827  0.202987  0.935942  1
  Si  Si33  1  0.796711  0.450776  0.563562  1
  Si  Si34  1  0.048922  0.296805  0.814594  1
  Si  Si35  1  0.949214  0.704858  0.314076  1
