# generated using pymatgen
data_CeEr4V2O12
_symmetry_space_group_name_H-M   'P 1'
_cell_length_a   6.76366197
_cell_length_b   6.76366225
_cell_length_c   7.16896300
_cell_angle_alpha   74.59970026
_cell_angle_beta   74.59969960
_cell_angle_gamma   50.50014958
_symmetry_Int_Tables_number   1
_chemical_formula_structural   CeEr4V2O12
_chemical_formula_sum   'Ce1 Er4 V2 O12'
_cell_volume   241.90811248
_cell_formula_units_Z   1
loop_
 _symmetry_equiv_pos_site_id
 _symmetry_equiv_pos_as_xyz
  1  'x, y, z'
loop_
 _atom_site_type_symbol
 _atom_site_label
 _atom_site_symmetry_multiplicity
 _atom_site_fract_x
 _atom_site_fract_y
 _atom_site_fract_z
 _atom_site_occupancy
  Ce  Ce0  1  0.000000  0.000000  0.500000  1
  Er  Er1  1  0.307157  0.307157  0.354495  1
  Er  Er2  1  0.692843  0.692843  0.645505  1
  Er  Er3  1  0.307597  0.307597  0.837621  1
  Er  Er4  1  0.692403  0.692403  0.162379  1
  V  V5  1  0.754491  0.245509  0.000000  1
  V  V6  1  0.245509  0.754491  0.000000  1
  O  O7  1  0.900117  0.423863  0.917347  1
  O  O8  1  0.423863  0.900117  0.917347  1
  O  O9  1  0.099883  0.576137  0.082653  1
  O  O10  1  0.576137  0.099883  0.082653  1
  O  O11  1  0.094053  0.597674  0.575076  1
  O  O12  1  0.597674  0.094053  0.575076  1
  O  O13  1  0.905947  0.402326  0.424924  1
  O  O14  1  0.402326  0.905947  0.424924  1
  O  O15  1  0.999112  0.999112  0.813674  1
  O  O16  1  0.000888  0.000888  0.186326  1
  O  O17  1  0.499027  0.499027  0.808555  1
  O  O18  1  0.500973  0.500973  0.191445  1
