# generated using pymatgen
data_LaAl2GaPt
_symmetry_space_group_name_H-M   'P 1'
_cell_length_a   6.25566248
_cell_length_b   6.25566239
_cell_length_c   6.25566245
_cell_angle_alpha   139.72672113
_cell_angle_beta   139.72671631
_cell_angle_gamma   58.26847062
_symmetry_Int_Tables_number   1
_chemical_formula_structural   LaAl2GaPt
_chemical_formula_sum   'La1 Al2 Ga1 Pt1'
_cell_volume   101.36947033
_cell_formula_units_Z   1
loop_
 _symmetry_equiv_pos_site_id
 _symmetry_equiv_pos_as_xyz
  1  'x, y, z'
loop_
 _atom_site_type_symbol
 _atom_site_label
 _atom_site_symmetry_multiplicity
 _atom_site_fract_x
 _atom_site_fract_y
 _atom_site_fract_z
 _atom_site_occupancy
  La  La0  1  0.986883  0.986883  0.000000  1
  Al  Al1  1  0.248171  0.748171  0.500000  1
  Al  Al2  1  0.748171  0.248171  0.500000  1
  Ga  Ga3  1  0.400427  0.400427  0.000000  1
  Pt  Pt4  1  0.632346  0.632346  0.000000  1
