# generated using pymatgen
data_Rb8Dy2O7
_symmetry_space_group_name_H-M   'P 1'
_cell_length_a   19.00669900
_cell_length_b   7.25923705
_cell_length_c   7.31143574
_cell_angle_alpha   60.84696553
_cell_angle_beta   90.00000000
_cell_angle_gamma   90.00000000
_symmetry_Int_Tables_number   1
_chemical_formula_structural   Rb8Dy2O7
_chemical_formula_sum   'Rb16 Dy4 O14'
_cell_volume   880.99731796
_cell_formula_units_Z   2
loop_
 _symmetry_equiv_pos_site_id
 _symmetry_equiv_pos_as_xyz
  1  'x, y, z'
loop_
 _atom_site_type_symbol
 _atom_site_label
 _atom_site_symmetry_multiplicity
 _atom_site_fract_x
 _atom_site_fract_y
 _atom_site_fract_z
 _atom_site_occupancy
  Rb  Rb0  1  0.503536  0.025090  0.240241  1
  Rb  Rb1  1  0.003536  0.474910  0.759759  1
  Rb  Rb2  1  0.496464  0.974910  0.759759  1
  Rb  Rb3  1  0.996464  0.525090  0.240241  1
  Rb  Rb4  1  0.703656  0.045755  0.221335  1
  Rb  Rb5  1  0.203656  0.454245  0.778665  1
  Rb  Rb6  1  0.296344  0.954245  0.778665  1
  Rb  Rb7  1  0.796344  0.545755  0.221335  1
  Rb  Rb8  1  0.090413  0.996070  0.353961  1
  Rb  Rb9  1  0.590413  0.503930  0.646039  1
  Rb  Rb10  1  0.909587  0.003930  0.646039  1
  Rb  Rb11  1  0.409587  0.496070  0.353961  1
  Rb  Rb12  1  0.808091  0.451762  0.783769  1
  Rb  Rb13  1  0.308091  0.048238  0.216231  1
  Rb  Rb14  1  0.191909  0.548238  0.216231  1
  Rb  Rb15  1  0.691909  0.951762  0.783769  1
  Dy  Dy16  1  0.598598  0.498430  0.154859  1
  Dy  Dy17  1  0.098598  0.001570  0.845141  1
  Dy  Dy18  1  0.401402  0.501570  0.845141  1
  Dy  Dy19  1  0.901402  0.998430  0.154859  1
  O  O20  1  0.500000  0.500000  0.000000  1
  O  O21  1  0.000000  0.000000  0.000000  1
  O  O22  1  0.182245  0.004099  0.043317  1
  O  O23  1  0.682245  0.495901  0.956683  1
  O  O24  1  0.817755  0.995901  0.956683  1
  O  O25  1  0.317755  0.504099  0.043317  1
  O  O26  1  0.893695  0.282050  0.178440  1
  O  O27  1  0.393695  0.217950  0.821560  1
  O  O28  1  0.106305  0.717950  0.821560  1
  O  O29  1  0.606305  0.782050  0.178440  1
  O  O30  1  0.601057  0.219155  0.456521  1
  O  O31  1  0.101057  0.280845  0.543479  1
  O  O32  1  0.398943  0.780845  0.543479  1
  O  O33  1  0.898943  0.719155  0.456521  1
