# generated using pymatgen
data_Na2W2Se2O11
_symmetry_space_group_name_H-M   'P 1'
_cell_length_a   9.05901678
_cell_length_b   9.05901787
_cell_length_c   9.51654835
_cell_angle_alpha   67.01376225
_cell_angle_beta   67.01376002
_cell_angle_gamma   43.27903804
_symmetry_Int_Tables_number   1
_chemical_formula_structural   Na2W2Se2O11
_chemical_formula_sum   'Na4 W4 Se4 O22'
_cell_volume   485.86305040
_cell_formula_units_Z   2
loop_
 _symmetry_equiv_pos_site_id
 _symmetry_equiv_pos_as_xyz
  1  'x, y, z'
loop_
 _atom_site_type_symbol
 _atom_site_label
 _atom_site_symmetry_multiplicity
 _atom_site_fract_x
 _atom_site_fract_y
 _atom_site_fract_z
 _atom_site_occupancy
  Na  Na0  1  0.500000  0.000000  0.000000  1
  Na  Na1  1  0.000000  0.500000  0.500000  1
  Na  Na2  1  0.775257  0.224743  0.750000  1
  Na  Na3  1  0.224743  0.775257  0.250000  1
  W  W4  1  0.822275  0.387325  0.270407  1
  W  W5  1  0.612675  0.177725  0.229593  1
  W  W6  1  0.177725  0.612675  0.729593  1
  W  W7  1  0.387325  0.822275  0.770407  1
  Se  Se8  1  0.412160  0.916576  0.389340  1
  Se  Se9  1  0.083424  0.587840  0.110660  1
  Se  Se10  1  0.587840  0.083424  0.610660  1
  Se  Se11  1  0.916576  0.412160  0.889340  1
  O  O12  1  0.819870  0.296794  0.472353  1
  O  O13  1  0.703206  0.180130  0.027647  1
  O  O14  1  0.180130  0.703206  0.527647  1
  O  O15  1  0.296794  0.819870  0.972353  1
  O  O16  1  0.073510  0.148016  0.190143  1
  O  O17  1  0.851984  0.926490  0.309857  1
  O  O18  1  0.926490  0.851984  0.809857  1
  O  O19  1  0.148016  0.073510  0.690143  1
  O  O20  1  0.629281  0.370719  0.250000  1
  O  O21  1  0.370719  0.629281  0.750000  1
  O  O22  1  0.509425  0.033962  0.238225  1
  O  O23  1  0.966038  0.490575  0.261775  1
  O  O24  1  0.490575  0.966038  0.761775  1
  O  O25  1  0.033962  0.509425  0.738225  1
  O  O26  1  0.523419  0.722938  0.289027  1
  O  O27  1  0.277062  0.476581  0.210973  1
  O  O28  1  0.476581  0.277062  0.710973  1
  O  O29  1  0.722938  0.523419  0.789027  1
  O  O30  1  0.575965  0.775727  0.525837  1
  O  O31  1  0.224273  0.424035  0.974163  1
  O  O32  1  0.424035  0.224273  0.474163  1
  O  O33  1  0.775727  0.575965  0.025837  1
