# generated using pymatgen
data_Ce8Fe3Si12Pd
_symmetry_space_group_name_H-M   'P 1'
_cell_length_a   8.12748500
_cell_length_b   8.12748520
_cell_length_c   8.15163400
_cell_angle_alpha   90.00000000
_cell_angle_beta   90.00000000
_cell_angle_gamma   119.99999511
_symmetry_Int_Tables_number   1
_chemical_formula_structural   Ce8Fe3Si12Pd
_chemical_formula_sum   'Ce8 Fe3 Si12 Pd1'
_cell_volume   466.32391582
_cell_formula_units_Z   1
loop_
 _symmetry_equiv_pos_site_id
 _symmetry_equiv_pos_as_xyz
  1  'x, y, z'
loop_
 _atom_site_type_symbol
 _atom_site_label
 _atom_site_symmetry_multiplicity
 _atom_site_fract_x
 _atom_site_fract_y
 _atom_site_fract_z
 _atom_site_occupancy
  Ce  Ce0  1  0.000000  0.000000  0.250396  1
  Ce  Ce1  1  0.000000  0.000000  0.749257  1
  Ce  Ce2  1  0.502783  0.497217  0.255576  1
  Ce  Ce3  1  0.502783  0.005566  0.255576  1
  Ce  Ce4  1  0.994434  0.497217  0.255576  1
  Ce  Ce5  1  0.503882  0.496118  0.746028  1
  Ce  Ce6  1  0.503882  0.007764  0.746028  1
  Ce  Ce7  1  0.992236  0.496118  0.746028  1
  Fe  Fe8  1  0.333333  0.666667  0.490089  1
  Fe  Fe9  1  0.666667  0.333333  0.520926  1
  Fe  Fe10  1  0.666667  0.333333  0.976749  1
  Si  Si11  1  0.169833  0.830167  0.501528  1
  Si  Si12  1  0.169833  0.339666  0.501528  1
  Si  Si13  1  0.660334  0.830167  0.501528  1
  Si  Si14  1  0.830957  0.169043  0.497233  1
  Si  Si15  1  0.830957  0.661912  0.497233  1
  Si  Si16  1  0.338088  0.169043  0.497233  1
  Si  Si17  1  0.828843  0.171157  0.004499  1
  Si  Si18  1  0.828843  0.657684  0.004499  1
  Si  Si19  1  0.342316  0.171157  0.004499  1
  Si  Si20  1  0.163083  0.836917  0.998695  1
  Si  Si21  1  0.163083  0.326168  0.998695  1
  Si  Si22  1  0.673832  0.836917  0.998695  1
  Pd  Pd23  1  0.333333  0.666667  0.001908  1
