# generated using pymatgen
data_CeCu2(PPd)2
_symmetry_space_group_name_H-M   'P 1'
_cell_length_a   7.54661700
_cell_length_b   7.33323300
_cell_length_c   3.83192400
_cell_angle_alpha   90.00000000
_cell_angle_beta   90.00000000
_cell_angle_gamma   90.00000000
_symmetry_Int_Tables_number   1
_chemical_formula_structural   CeCu2(PPd)2
_chemical_formula_sum   'Ce2 Cu4 P4 Pd4'
_cell_volume   212.06289243
_cell_formula_units_Z   2
loop_
 _symmetry_equiv_pos_site_id
 _symmetry_equiv_pos_as_xyz
  1  'x, y, z'
loop_
 _atom_site_type_symbol
 _atom_site_label
 _atom_site_symmetry_multiplicity
 _atom_site_fract_x
 _atom_site_fract_y
 _atom_site_fract_z
 _atom_site_occupancy
  Ce  Ce0  1  0.500000  0.500000  0.000000  1
  Ce  Ce1  1  0.000000  0.000000  0.500000  1
  Cu  Cu2  1  0.157986  0.582333  0.500000  1
  Cu  Cu3  1  0.842014  0.417667  0.500000  1
  Cu  Cu4  1  0.342014  0.082333  0.000000  1
  Cu  Cu5  1  0.657986  0.917667  0.000000  1
  P  P6  1  0.713081  0.721056  0.500000  1
  P  P7  1  0.286919  0.278944  0.500000  1
  P  P8  1  0.213081  0.778944  0.000000  1
  P  P9  1  0.786919  0.221056  0.000000  1
  Pd  Pd10  1  0.591183  0.168994  0.500000  1
  Pd  Pd11  1  0.408817  0.831006  0.500000  1
  Pd  Pd12  1  0.091183  0.331006  0.000000  1
  Pd  Pd13  1  0.908817  0.668994  0.000000  1
