# generated using pymatgen
data_Nd3Tm3Th2(CdIr)2
_symmetry_space_group_name_H-M   'P 1'
_cell_length_a   9.80448655
_cell_length_b   9.80448698
_cell_length_c   9.80448600
_cell_angle_alpha   59.99999657
_cell_angle_beta   59.99999509
_cell_angle_gamma   60.00000015
_symmetry_Int_Tables_number   1
_chemical_formula_structural   Nd3Tm3Th2(CdIr)2
_chemical_formula_sum   'Nd6 Tm6 Th4 Cd4 Ir4'
_cell_volume   666.43766671
_cell_formula_units_Z   2
loop_
 _symmetry_equiv_pos_site_id
 _symmetry_equiv_pos_as_xyz
  1  'x, y, z'
loop_
 _atom_site_type_symbol
 _atom_site_label
 _atom_site_symmetry_multiplicity
 _atom_site_fract_x
 _atom_site_fract_y
 _atom_site_fract_z
 _atom_site_occupancy
  Nd  Nd0  1  0.938873  0.561127  0.561127  1
  Nd  Nd1  1  0.561127  0.938873  0.938873  1
  Nd  Nd2  1  0.561127  0.938873  0.561127  1
  Nd  Nd3  1  0.938873  0.561127  0.938873  1
  Nd  Nd4  1  0.561127  0.561127  0.938873  1
  Nd  Nd5  1  0.938873  0.938873  0.561127  1
  Tm  Tm6  1  0.815564  0.184436  0.184436  1
  Tm  Tm7  1  0.184436  0.815564  0.815564  1
  Tm  Tm8  1  0.184436  0.815564  0.184436  1
  Tm  Tm9  1  0.815564  0.184436  0.815564  1
  Tm  Tm10  1  0.184436  0.184436  0.815564  1
  Tm  Tm11  1  0.815564  0.815564  0.184436  1
  Th  Th12  1  0.349060  0.349060  0.349060  1
  Th  Th13  1  0.349060  0.349060  0.952822  1
  Th  Th14  1  0.349060  0.952822  0.349060  1
  Th  Th15  1  0.952822  0.349060  0.349060  1
  Cd  Cd16  1  0.580292  0.580292  0.580292  1
  Cd  Cd17  1  0.580292  0.580292  0.259121  1
  Cd  Cd18  1  0.580292  0.259121  0.580292  1
  Cd  Cd19  1  0.259121  0.580292  0.580292  1
  Ir  Ir20  1  0.142758  0.142758  0.142758  1
  Ir  Ir21  1  0.142758  0.142758  0.571724  1
  Ir  Ir22  1  0.142758  0.571724  0.142758  1
  Ir  Ir23  1  0.571724  0.142758  0.142758  1
