# generated using pymatgen
data_Th7ReRu2
_symmetry_space_group_name_H-M   'P 1'
_cell_length_a   9.97952143
_cell_length_b   10.03084734
_cell_length_c   6.33598986
_cell_angle_alpha   90.00000261
_cell_angle_beta   89.65614934
_cell_angle_gamma   120.17027129
_symmetry_Int_Tables_number   1
_chemical_formula_structural   Th7ReRu2
_chemical_formula_sum   'Th14 Re2 Ru4'
_cell_volume   548.32023072
_cell_formula_units_Z   2
loop_
 _symmetry_equiv_pos_site_id
 _symmetry_equiv_pos_as_xyz
  1  'x, y, z'
loop_
 _atom_site_type_symbol
 _atom_site_label
 _atom_site_symmetry_multiplicity
 _atom_site_fract_x
 _atom_site_fract_y
 _atom_site_fract_z
 _atom_site_occupancy
  Th  Th0  1  0.461904  0.541638  0.298785  1
  Th  Th1  1  0.078235  0.539118  0.297346  1
  Th  Th2  1  0.920263  0.460131  0.799443  1
  Th  Th3  1  0.252504  0.126253  0.502584  1
  Th  Th4  1  0.539066  0.080964  0.799316  1
  Th  Th5  1  0.749663  0.874831  0.004328  1
  Th  Th6  1  0.665698  0.332849  0.285062  1
  Th  Th7  1  0.126493  0.874189  0.003363  1
  Th  Th8  1  0.461904  0.920266  0.298785  1
  Th  Th9  1  0.539066  0.458103  0.799316  1
  Th  Th10  1  0.873848  0.126552  0.505158  1
  Th  Th11  1  0.126493  0.252302  0.003363  1
  Th  Th12  1  0.873848  0.747298  0.505158  1
  Th  Th13  1  0.333907  0.666954  0.787724  1
  Re  Re14  1  0.812667  0.628198  0.051030  1
  Re  Re15  1  0.812667  0.184471  0.051030  1
  Ru  Ru16  1  0.624291  0.812145  0.549503  1
  Ru  Ru17  1  0.369648  0.184824  0.047359  1
  Ru  Ru18  1  0.188916  0.374242  0.547671  1
  Ru  Ru19  1  0.188916  0.814673  0.547671  1
