# generated using pymatgen
data_Hf3Sc4MoRu8
_symmetry_space_group_name_H-M   'P 1'
_cell_length_a   6.38192200
_cell_length_b   4.53874300
_cell_length_c   9.11109300
_cell_angle_alpha   90.00000000
_cell_angle_beta   90.00038977
_cell_angle_gamma   90.00000000
_symmetry_Int_Tables_number   1
_chemical_formula_structural   Hf3Sc4MoRu8
_chemical_formula_sum   'Hf3 Sc4 Mo1 Ru8'
_cell_volume   263.91104338
_cell_formula_units_Z   1
loop_
 _symmetry_equiv_pos_site_id
 _symmetry_equiv_pos_as_xyz
  1  'x, y, z'
loop_
 _atom_site_type_symbol
 _atom_site_label
 _atom_site_symmetry_multiplicity
 _atom_site_fract_x
 _atom_site_fract_y
 _atom_site_fract_z
 _atom_site_occupancy
  Hf  Hf0  1  0.250023  0.750000  0.374793  1
  Hf  Hf1  1  0.749982  0.250000  0.625014  1
  Hf  Hf2  1  0.249976  0.750000  0.875210  1
  Sc  Sc3  1  0.250023  0.250000  0.125002  1
  Sc  Sc4  1  0.750045  0.750000  0.374119  1
  Sc  Sc5  1  0.249978  0.250000  0.624989  1
  Sc  Sc6  1  0.749957  0.750000  0.875879  1
  Mo  Mo7  1  0.750011  0.250000  0.125009  1
  Ru  Ru8  1  0.509761  0.750000  0.124972  1
  Ru  Ru9  1  0.990271  0.750000  0.124964  1
  Ru  Ru10  1  0.504983  0.250000  0.367865  1
  Ru  Ru11  1  0.995054  0.250000  0.367874  1
  Ru  Ru12  1  0.000302  0.750000  0.625048  1
  Ru  Ru13  1  0.499680  0.750000  0.625045  1
  Ru  Ru14  1  0.995030  0.250000  0.882109  1
  Ru  Ru15  1  0.504928  0.250000  0.882111  1
