# generated using pymatgen
data_Ti9Ge6MoC
_symmetry_space_group_name_H-M   'P 1'
_cell_length_a   7.56503200
_cell_length_b   7.56503296
_cell_length_c   5.22340500
_cell_angle_alpha   90.00000000
_cell_angle_beta   90.00000000
_cell_angle_gamma   119.99999581
_symmetry_Int_Tables_number   1
_chemical_formula_structural   Ti9Ge6MoC
_chemical_formula_sum   'Ti9 Ge6 Mo1 C1'
_cell_volume   258.88443764
_cell_formula_units_Z   1
loop_
 _symmetry_equiv_pos_site_id
 _symmetry_equiv_pos_as_xyz
  1  'x, y, z'
loop_
 _atom_site_type_symbol
 _atom_site_label
 _atom_site_symmetry_multiplicity
 _atom_site_fract_x
 _atom_site_fract_y
 _atom_site_fract_z
 _atom_site_occupancy
  Ti  Ti0  1  0.000756  0.763068  0.262217  1
  Ti  Ti1  1  0.236932  0.237687  0.262217  1
  Ti  Ti2  1  0.762313  0.999244  0.262217  1
  Ti  Ti3  1  0.000756  0.237687  0.737783  1
  Ti  Ti4  1  0.762313  0.763068  0.737783  1
  Ti  Ti5  1  0.236932  0.999244  0.737783  1
  Ti  Ti6  1  0.333333  0.666667  0.000000  1
  Ti  Ti7  1  0.666667  0.333333  0.000000  1
  Ti  Ti8  1  0.666667  0.333333  0.500000  1
  Ge  Ge9  1  0.999203  0.397275  0.245345  1
  Ge  Ge10  1  0.602725  0.601928  0.245345  1
  Ge  Ge11  1  0.398072  0.000797  0.245345  1
  Ge  Ge12  1  0.999203  0.601928  0.754655  1
  Ge  Ge13  1  0.398072  0.397275  0.754655  1
  Ge  Ge14  1  0.602725  0.000797  0.754655  1
  Mo  Mo15  1  0.333333  0.666667  0.500000  1
  C  C16  1  0.000000  0.000000  0.500000  1
