# generated using pymatgen
data_HoH3Ir
_symmetry_space_group_name_H-M   'P 1'
_cell_length_a   5.94100908
_cell_length_b   5.94100769
_cell_length_c   4.67784300
_cell_angle_alpha   90.00000000
_cell_angle_beta   90.00000000
_cell_angle_gamma   142.52016896
_symmetry_Int_Tables_number   1
_chemical_formula_structural   HoH3Ir
_chemical_formula_sum   'Ho2 H6 Ir2'
_cell_volume   100.46476969
_cell_formula_units_Z   2
loop_
 _symmetry_equiv_pos_site_id
 _symmetry_equiv_pos_as_xyz
  1  'x, y, z'
loop_
 _atom_site_type_symbol
 _atom_site_label
 _atom_site_symmetry_multiplicity
 _atom_site_fract_x
 _atom_site_fract_y
 _atom_site_fract_z
 _atom_site_occupancy
  Ho  Ho0  1  0.872388  0.127614  0.249999  1
  Ho  Ho1  1  0.127614  0.872388  0.750000  1
  H  H2  1  0.311928  0.688074  0.005891  1
  H  H3  1  0.084483  0.915519  0.249999  1
  H  H4  1  0.311928  0.688074  0.494108  1
  H  H5  1  0.688074  0.311928  0.505892  1
  H  H6  1  0.915519  0.084483  0.750000  1
  H  H7  1  0.688074  0.311928  0.994109  1
  Ir  Ir8  1  0.582516  0.417485  0.249999  1
  Ir  Ir9  1  0.417485  0.582516  0.750000  1
