# generated using pymatgen
data_Ti8Al14PRh7
_symmetry_space_group_name_H-M   'P 1'
_cell_length_a   8.61775140
_cell_length_b   8.61775117
_cell_length_c   8.61775151
_cell_angle_alpha   120.01044155
_cell_angle_beta   119.86672255
_cell_angle_gamma   90.10646269
_symmetry_Int_Tables_number   1
_chemical_formula_structural   Ti8Al14PRh7
_chemical_formula_sum   'Ti8 Al14 P1 Rh7'
_cell_volume   452.96868392
_cell_formula_units_Z   1
loop_
 _symmetry_equiv_pos_site_id
 _symmetry_equiv_pos_as_xyz
  1  'x, y, z'
loop_
 _atom_site_type_symbol
 _atom_site_label
 _atom_site_symmetry_multiplicity
 _atom_site_fract_x
 _atom_site_fract_y
 _atom_site_fract_z
 _atom_site_occupancy
  Ti  Ti0  1  0.801966  0.300758  0.096440  1
  Ti  Ti1  1  0.204319  0.300758  0.498793  1
  Ti  Ti2  1  0.198939  0.698939  0.500000  1
  Ti  Ti3  1  0.204319  0.705526  0.903560  1
  Ti  Ti4  1  0.801966  0.705526  0.501207  1
  Ti  Ti5  1  0.796381  0.296381  0.500000  1
  Ti  Ti6  1  0.380126  0.122893  0.742767  1
  Ti  Ti7  1  0.380126  0.637359  0.257233  1
  Al  Al8  1  0.159824  0.338521  0.178696  1
  Al  Al9  1  0.159824  0.981128  0.821304  1
  Al  Al10  1  0.155694  0.340007  0.815686  1
  Al  Al11  1  0.524321  0.340007  0.184314  1
  Al  Al12  1  0.839414  0.659532  0.820119  1
  Al  Al13  1  0.839414  0.019295  0.179881  1
  Al  Al14  1  0.837845  0.660624  0.177220  1
  Al  Al15  1  0.483403  0.660624  0.822780  1
  Al  Al16  1  0.380117  0.119181  0.260936  1
  Al  Al17  1  0.858246  0.119181  0.739064  1
  Al  Al18  1  0.620041  0.879885  0.259844  1
  Al  Al19  1  0.620041  0.360198  0.740156  1
  Al  Al20  1  0.620867  0.879599  0.741267  1
  Al  Al21  1  0.138331  0.879599  0.258733  1
  P  P22  1  0.998144  0.498144  0.500000  1
  Rh  Rh23  1  0.001515  0.000177  0.501435  1
  Rh  Rh24  1  0.498742  0.000177  0.998662  1
  Rh  Rh25  1  0.497640  0.497640  0.000000  1
  Rh  Rh26  1  0.498742  0.500080  0.498565  1
  Rh  Rh27  1  0.001515  0.500080  0.001338  1
  Rh  Rh28  1  0.000433  0.000433  0.000000  1
  Rh  Rh29  1  0.497744  0.997744  0.500000  1
