# generated using pymatgen
data_Lu3ScBe4(GaIr5)2
_symmetry_space_group_name_H-M   'P 1'
_cell_length_a   9.60620636
_cell_length_b   9.60620636
_cell_length_c   3.13968300
_cell_angle_alpha   90.00000000
_cell_angle_beta   90.00000000
_cell_angle_gamma   89.75276125
_symmetry_Int_Tables_number   1
_chemical_formula_structural   Lu3ScBe4(GaIr5)2
_chemical_formula_sum   'Lu3 Sc1 Be4 Ga2 Ir10'
_cell_volume   289.72474000
_cell_formula_units_Z   1
loop_
 _symmetry_equiv_pos_site_id
 _symmetry_equiv_pos_as_xyz
  1  'x, y, z'
loop_
 _atom_site_type_symbol
 _atom_site_label
 _atom_site_symmetry_multiplicity
 _atom_site_fract_x
 _atom_site_fract_y
 _atom_site_fract_z
 _atom_site_occupancy
  Lu  Lu0  1  0.676007  0.175565  0.000000  1
  Lu  Lu1  1  0.324435  0.823993  0.000000  1
  Lu  Lu2  1  0.174861  0.325139  0.000000  1
  Sc  Sc3  1  0.824439  0.675561  0.000000  1
  Be  Be4  1  0.122002  0.623208  0.000000  1
  Be  Be5  1  0.876792  0.377998  0.000000  1
  Be  Be6  1  0.624589  0.875411  0.000000  1
  Be  Be7  1  0.377246  0.122754  0.000000  1
  Ga  Ga8  1  0.999906  0.000228  0.000000  1
  Ga  Ga9  1  0.499772  0.500094  0.000000  1
  Ir  Ir10  1  0.210585  0.065987  0.500000  1
  Ir  Ir11  1  0.791153  0.929157  0.500000  1
  Ir  Ir12  1  0.062482  0.788814  0.500000  1
  Ir  Ir13  1  0.711186  0.437518  0.500000  1
  Ir  Ir14  1  0.933782  0.211086  0.500000  1
  Ir  Ir15  1  0.288914  0.566218  0.500000  1
  Ir  Ir16  1  0.570843  0.708847  0.500000  1
  Ir  Ir17  1  0.434013  0.289415  0.500000  1
  Ir  Ir18  1  0.500836  0.999164  0.500000  1
  Ir  Ir19  1  0.996156  0.503844  0.500000  1
