# generated using pymatgen
data_ZnCd3Rh2
_symmetry_space_group_name_H-M   'P 1'
_cell_length_a   8.51142278
_cell_length_b   8.51142256
_cell_length_c   8.51142300
_cell_angle_alpha   59.99999441
_cell_angle_beta   59.99999527
_cell_angle_gamma   59.99999599
_symmetry_Int_Tables_number   1
_chemical_formula_structural   ZnCd3Rh2
_chemical_formula_sum   'Zn4 Cd12 Rh8'
_cell_volume   436.00497566
_cell_formula_units_Z   4
loop_
 _symmetry_equiv_pos_site_id
 _symmetry_equiv_pos_as_xyz
  1  'x, y, z'
loop_
 _atom_site_type_symbol
 _atom_site_label
 _atom_site_symmetry_multiplicity
 _atom_site_fract_x
 _atom_site_fract_y
 _atom_site_fract_z
 _atom_site_occupancy
  Zn  Zn0  1  0.125000  0.625000  0.625000  1
  Zn  Zn1  1  0.625000  0.125000  0.625000  1
  Zn  Zn2  1  0.625000  0.625000  0.125000  1
  Zn  Zn3  1  0.625000  0.625000  0.625000  1
  Cd  Cd4  1  0.805449  0.805449  0.194551  1
  Cd  Cd5  1  0.194551  0.194551  0.805449  1
  Cd  Cd6  1  0.805449  0.194551  0.805449  1
  Cd  Cd7  1  0.194551  0.805449  0.194551  1
  Cd  Cd8  1  0.194551  0.805449  0.805449  1
  Cd  Cd9  1  0.805449  0.194551  0.194551  1
  Cd  Cd10  1  0.444551  0.444551  0.055449  1
  Cd  Cd11  1  0.055449  0.055449  0.444551  1
  Cd  Cd12  1  0.444551  0.055449  0.444551  1
  Cd  Cd13  1  0.055449  0.444551  0.055449  1
  Cd  Cd14  1  0.055449  0.444551  0.444551  1
  Cd  Cd15  1  0.444551  0.055449  0.055449  1
  Rh  Rh16  1  0.753012  0.415662  0.415662  1
  Rh  Rh17  1  0.415662  0.753012  0.415662  1
  Rh  Rh18  1  0.415662  0.415662  0.753012  1
  Rh  Rh19  1  0.415662  0.415662  0.415662  1
  Rh  Rh20  1  0.496988  0.834338  0.834338  1
  Rh  Rh21  1  0.834338  0.496988  0.834338  1
  Rh  Rh22  1  0.834338  0.834338  0.496988  1
  Rh  Rh23  1  0.834338  0.834338  0.834338  1
