# generated using pymatgen
data_Y6RhAu7
_symmetry_space_group_name_H-M   'P 1'
_cell_length_a   8.06536184
_cell_length_b   8.06536208
_cell_length_c   8.06536176
_cell_angle_alpha   114.21401739
_cell_angle_beta   114.21401654
_cell_angle_gamma   114.21402319
_symmetry_Int_Tables_number   1
_chemical_formula_structural   Y6RhAu7
_chemical_formula_sum   'Y6 Rh1 Au7'
_cell_volume   313.63097296
_cell_formula_units_Z   1
loop_
 _symmetry_equiv_pos_site_id
 _symmetry_equiv_pos_as_xyz
  1  'x, y, z'
loop_
 _atom_site_type_symbol
 _atom_site_label
 _atom_site_symmetry_multiplicity
 _atom_site_fract_x
 _atom_site_fract_y
 _atom_site_fract_z
 _atom_site_occupancy
  Y  Y0  1  0.382835  0.007983  0.260308  1
  Y  Y1  1  0.007983  0.260308  0.382835  1
  Y  Y2  1  0.260308  0.382835  0.007983  1
  Y  Y3  1  0.617165  0.992017  0.739692  1
  Y  Y4  1  0.992017  0.739692  0.617165  1
  Y  Y5  1  0.739692  0.617165  0.992017  1
  Rh  Rh6  1  0.000000  0.000000  0.000000  1
  Au  Au7  1  0.500000  0.500000  0.500000  1
  Au  Au8  1  0.238392  0.076168  0.566744  1
  Au  Au9  1  0.076168  0.566744  0.238392  1
  Au  Au10  1  0.566744  0.238392  0.076168  1
  Au  Au11  1  0.761608  0.923832  0.433256  1
  Au  Au12  1  0.923832  0.433256  0.761608  1
  Au  Au13  1  0.433256  0.761608  0.923832  1
