# generated using pymatgen
data_Dy2YHo5(ReB6)4
_symmetry_space_group_name_H-M   'P 1'
_cell_length_a   3.67722000
_cell_length_b   9.16644901
_cell_length_c   11.55079900
_cell_angle_alpha   89.99675118
_cell_angle_beta   90.00000000
_cell_angle_gamma   90.00000000
_symmetry_Int_Tables_number   1
_chemical_formula_structural   Dy2YHo5(ReB6)4
_chemical_formula_sum   'Dy2 Y1 Ho5 Re4 B24'
_cell_volume   389.34335444
_cell_formula_units_Z   1
loop_
 _symmetry_equiv_pos_site_id
 _symmetry_equiv_pos_as_xyz
  1  'x, y, z'
loop_
 _atom_site_type_symbol
 _atom_site_label
 _atom_site_symmetry_multiplicity
 _atom_site_fract_x
 _atom_site_fract_y
 _atom_site_fract_z
 _atom_site_occupancy
  Dy  Dy0  1  0.000000  0.676451  0.586159  1
  Dy  Dy1  1  0.000000  0.823584  0.086097  1
  Y  Y2  1  0.000000  0.323471  0.413907  1
  Ho  Ho3  1  0.000000  0.176326  0.913894  1
  Ho  Ho4  1  0.000000  0.943216  0.370020  1
  Ho  Ho5  1  0.000000  0.056781  0.630014  1
  Ho  Ho6  1  0.000000  0.443180  0.129825  1
  Ho  Ho7  1  0.000000  0.556778  0.870116  1
  Re  Re8  1  0.000000  0.638965  0.320647  1
  Re  Re9  1  0.000000  0.361081  0.679536  1
  Re  Re10  1  0.000000  0.138745  0.179008  1
  Re  Re11  1  0.000000  0.861349  0.820819  1
  B  B12  1  0.500000  0.553578  0.432851  1
  B  B13  1  0.500000  0.446625  0.567328  1
  B  B14  1  0.500000  0.053483  0.066952  1
  B  B15  1  0.500000  0.946777  0.932867  1
  B  B16  1  0.500000  0.749380  0.418574  1
  B  B17  1  0.500000  0.250574  0.581649  1
  B  B18  1  0.500000  0.249325  0.081126  1
  B  B19  1  0.500000  0.750733  0.918564  1
  B  B20  1  0.500000  0.792276  0.265564  1
  B  B21  1  0.500000  0.207610  0.734626  1
  B  B22  1  0.500000  0.292224  0.234176  1
  B  B23  1  0.500000  0.707782  0.765637  1
  B  B24  1  0.500000  0.630935  0.185558  1
  B  B25  1  0.500000  0.368886  0.814586  1
  B  B26  1  0.500000  0.130809  0.314252  1
  B  B27  1  0.500000  0.869132  0.685677  1
  B  B28  1  0.500000  0.982482  0.211961  1
  B  B29  1  0.500000  0.017775  0.788090  1
  B  B30  1  0.500000  0.482558  0.287815  1
  B  B31  1  0.500000  0.517501  0.712137  1
  B  B32  1  0.500000  0.599833  0.027907  1
  B  B33  1  0.500000  0.399888  0.971997  1
  B  B34  1  0.500000  0.099686  0.472131  1
  B  B35  1  0.500000  0.900219  0.527930  1
