# generated using pymatgen
data_Er3ZnNi8
_symmetry_space_group_name_H-M   'P 1'
_cell_length_a   8.57621110
_cell_length_b   8.57621082
_cell_length_c   8.57621037
_cell_angle_alpha   33.65657413
_cell_angle_beta   33.65657763
_cell_angle_gamma   33.65657372
_symmetry_Int_Tables_number   1
_chemical_formula_structural   Er3ZnNi8
_chemical_formula_sum   'Er3 Zn1 Ni8'
_cell_volume   172.60557186
_cell_formula_units_Z   1
loop_
 _symmetry_equiv_pos_site_id
 _symmetry_equiv_pos_as_xyz
  1  'x, y, z'
loop_
 _atom_site_type_symbol
 _atom_site_label
 _atom_site_symmetry_multiplicity
 _atom_site_fract_x
 _atom_site_fract_y
 _atom_site_fract_z
 _atom_site_occupancy
  Er  Er0  1  0.000276  0.000276  0.000276  1
  Er  Er1  1  0.861264  0.861264  0.861264  1
  Er  Er2  1  0.139717  0.139717  0.139717  1
  Zn  Zn3  1  0.666156  0.666156  0.666156  1
  Ni  Ni4  1  0.499595  0.499595  0.499595  1
  Ni  Ni5  1  0.333638  0.333638  0.333638  1
  Ni  Ni6  1  0.414679  0.921033  0.414679  1
  Ni  Ni7  1  0.414679  0.414679  0.921033  1
  Ni  Ni8  1  0.921033  0.414679  0.414679  1
  Ni  Ni9  1  0.583120  0.082724  0.583120  1
  Ni  Ni10  1  0.583120  0.583120  0.082724  1
  Ni  Ni11  1  0.082724  0.583120  0.583120  1
