# generated using pymatgen
data_Sc6B4Ir7Ru2Rh
_symmetry_space_group_name_H-M   'P 1'
_cell_length_a   9.59378836
_cell_length_b   9.62194835
_cell_length_c   3.06702200
_cell_angle_alpha   90.00000000
_cell_angle_beta   90.00000000
_cell_angle_gamma   90.10907125
_symmetry_Int_Tables_number   1
_chemical_formula_structural   Sc6B4Ir7Ru2Rh
_chemical_formula_sum   'Sc6 B4 Ir7 Ru2 Rh1'
_cell_volume   283.11915864
_cell_formula_units_Z   1
loop_
 _symmetry_equiv_pos_site_id
 _symmetry_equiv_pos_as_xyz
  1  'x, y, z'
loop_
 _atom_site_type_symbol
 _atom_site_label
 _atom_site_symmetry_multiplicity
 _atom_site_fract_x
 _atom_site_fract_y
 _atom_site_fract_z
 _atom_site_occupancy
  Sc  Sc0  1  0.825399  0.326351  0.000000  1
  Sc  Sc1  1  0.325709  0.172819  0.000000  1
  Sc  Sc2  1  0.673891  0.825479  0.000000  1
  Sc  Sc3  1  0.173112  0.675849  0.000000  1
  Sc  Sc4  1  0.999857  0.000286  0.000000  1
  Sc  Sc5  1  0.497219  0.498979  0.000000  1
  B  B6  1  0.620477  0.120713  0.000000  1
  B  B7  1  0.118993  0.378902  0.000000  1
  B  B8  1  0.879390  0.620048  0.000000  1
  B  B9  1  0.380006  0.879586  0.000000  1
  Ir  Ir10  1  0.074055  0.222140  0.500000  1
  Ir  Ir11  1  0.221651  0.927956  0.500000  1
  Ir  Ir12  1  0.778927  0.071891  0.500000  1
  Ir  Ir13  1  0.928646  0.777901  0.500000  1
  Ir  Ir14  1  0.428583  0.722125  0.500000  1
  Ir  Ir15  1  0.573113  0.278666  0.500000  1
  Ir  Ir16  1  0.721289  0.571479  0.500000  1
  Ru  Ru17  1  0.500149  0.000738  0.500000  1
  Ru  Ru18  1  0.001197  0.499858  0.500000  1
  Rh  Rh19  1  0.278337  0.428236  0.500000  1
