# generated using pymatgen
data_Ce2Si3Ir
_symmetry_space_group_name_H-M   'P 1'
_cell_length_a   8.20447300
_cell_length_b   8.20447321
_cell_length_c   4.12218500
_cell_angle_alpha   90.00000000
_cell_angle_beta   90.00000000
_cell_angle_gamma   120.00000317
_symmetry_Int_Tables_number   1
_chemical_formula_structural   Ce2Si3Ir
_chemical_formula_sum   'Ce4 Si6 Ir2'
_cell_volume   240.30316341
_cell_formula_units_Z   2
loop_
 _symmetry_equiv_pos_site_id
 _symmetry_equiv_pos_as_xyz
  1  'x, y, z'
loop_
 _atom_site_type_symbol
 _atom_site_label
 _atom_site_symmetry_multiplicity
 _atom_site_fract_x
 _atom_site_fract_y
 _atom_site_fract_z
 _atom_site_occupancy
  Ce  Ce0  1  0.000000  0.000000  0.500000  1
  Ce  Ce1  1  0.000000  0.500000  0.500000  1
  Ce  Ce2  1  0.500000  0.500000  0.500000  1
  Ce  Ce3  1  0.500000  0.000000  0.500000  1
  Si  Si4  1  0.330727  0.165364  0.000000  1
  Si  Si5  1  0.834636  0.165364  0.000000  1
  Si  Si6  1  0.834636  0.669273  0.000000  1
  Si  Si7  1  0.165364  0.330727  0.000000  1
  Si  Si8  1  0.165364  0.834636  0.000000  1
  Si  Si9  1  0.669273  0.834636  0.000000  1
  Ir  Ir10  1  0.666667  0.333333  0.000000  1
  Ir  Ir11  1  0.333333  0.666667  0.000000  1
