# generated using pymatgen
data_La8Al4Ga4IrRh7
_symmetry_space_group_name_H-M   'P 1'
_cell_length_a   4.28679900
_cell_length_b   7.30743923
_cell_length_c   16.17842708
_cell_angle_alpha   90.02008121
_cell_angle_beta   90.00000000
_cell_angle_gamma   90.00000000
_symmetry_Int_Tables_number   1
_chemical_formula_structural   La8Al4Ga4IrRh7
_chemical_formula_sum   'La8 Al4 Ga4 Ir1 Rh7'
_cell_volume   506.79766165
_cell_formula_units_Z   1
loop_
 _symmetry_equiv_pos_site_id
 _symmetry_equiv_pos_as_xyz
  1  'x, y, z'
loop_
 _atom_site_type_symbol
 _atom_site_label
 _atom_site_symmetry_multiplicity
 _atom_site_fract_x
 _atom_site_fract_y
 _atom_site_fract_z
 _atom_site_occupancy
  La  La0  1  0.250000  0.514920  0.780091  1
  La  La1  1  0.750000  0.485025  0.219826  1
  La  La2  1  0.750000  0.984699  0.279935  1
  La  La3  1  0.250000  0.015669  0.719914  1
  La  La4  1  0.250000  0.654682  0.560043  1
  La  La5  1  0.750000  0.346079  0.439711  1
  La  La6  1  0.750000  0.846296  0.059747  1
  La  La7  1  0.250000  0.155479  0.940089  1
  Al  Al8  1  0.250000  0.507146  0.061315  1
  Al  Al9  1  0.750000  0.494054  0.939960  1
  Al  Al10  1  0.750000  0.994375  0.560240  1
  Al  Al11  1  0.250000  0.005687  0.439868  1
  Ga  Ga12  1  0.250000  0.656280  0.349586  1
  Ga  Ga13  1  0.750000  0.345312  0.648994  1
  Ga  Ga14  1  0.750000  0.845509  0.850395  1
  Ga  Ga15  1  0.250000  0.151504  0.149014  1
  Ir  Ir16  1  0.250000  0.769666  0.178049  1
  Rh  Rh17  1  0.750000  0.229688  0.822488  1
  Rh  Rh18  1  0.750000  0.731266  0.677706  1
  Rh  Rh19  1  0.250000  0.269146  0.323166  1
  Rh  Rh20  1  0.250000  0.712125  0.927934  1
  Rh  Rh21  1  0.750000  0.286125  0.071723  1
  Rh  Rh22  1  0.750000  0.785419  0.428634  1
  Rh  Rh23  1  0.250000  0.213852  0.571573  1
