# generated using pymatgen
data_Ca3Te(IO2)2
_symmetry_space_group_name_H-M   'P 1'
_cell_length_a   7.29364786
_cell_length_b   7.29364854
_cell_length_c   5.65505200
_cell_angle_alpha   90.00000000
_cell_angle_beta   90.00000000
_cell_angle_gamma   134.27336810
_symmetry_Int_Tables_number   1
_chemical_formula_structural   Ca3Te(IO2)2
_chemical_formula_sum   'Ca3 Te1 I2 O4'
_cell_volume   215.40200205
_cell_formula_units_Z   1
loop_
 _symmetry_equiv_pos_site_id
 _symmetry_equiv_pos_as_xyz
  1  'x, y, z'
loop_
 _atom_site_type_symbol
 _atom_site_label
 _atom_site_symmetry_multiplicity
 _atom_site_fract_x
 _atom_site_fract_y
 _atom_site_fract_z
 _atom_site_occupancy
  Ca  Ca0  1  0.577501  0.422499  0.000000  1
  Ca  Ca1  1  0.414019  0.585981  0.500000  1
  Ca  Ca2  1  0.916212  0.083788  0.000000  1
  Te  Te3  1  0.059629  0.940371  0.500000  1
  I  I4  1  0.268753  0.731247  0.000000  1
  I  I5  1  0.754529  0.245471  0.500000  1
  O  O6  1  0.768837  0.764160  0.266435  1
  O  O7  1  0.768837  0.764160  0.733565  1
  O  O8  1  0.235840  0.231163  0.266435  1
  O  O9  1  0.235840  0.231163  0.733565  1
