# generated using pymatgen
data_Zr2Mn2CoIr
_symmetry_space_group_name_H-M   'P 1'
_cell_length_a   4.95672275
_cell_length_b   4.95672177
_cell_length_c   8.43817900
_cell_angle_alpha   90.00000000
_cell_angle_beta   90.00000000
_cell_angle_gamma   119.27302711
_symmetry_Int_Tables_number   1
_chemical_formula_structural   Zr2Mn2CoIr
_chemical_formula_sum   'Zr4 Mn4 Co2 Ir2'
_cell_volume   180.84377189
_cell_formula_units_Z   2
loop_
 _symmetry_equiv_pos_site_id
 _symmetry_equiv_pos_as_xyz
  1  'x, y, z'
loop_
 _atom_site_type_symbol
 _atom_site_label
 _atom_site_symmetry_multiplicity
 _atom_site_fract_x
 _atom_site_fract_y
 _atom_site_fract_z
 _atom_site_occupancy
  Zr  Zr0  1  0.334002  0.665998  0.433154  1
  Zr  Zr1  1  0.667618  0.332382  0.567690  1
  Zr  Zr2  1  0.667618  0.332382  0.932310  1
  Zr  Zr3  1  0.334002  0.665998  0.066846  1
  Mn  Mn4  1  0.824501  0.175499  0.250000  1
  Mn  Mn5  1  0.825996  0.649671  0.250000  1
  Mn  Mn6  1  0.350329  0.174004  0.250000  1
  Mn  Mn7  1  0.169478  0.830522  0.750000  1
  Co  Co8  1  0.167447  0.344385  0.750000  1
  Co  Co9  1  0.655615  0.832553  0.750000  1
  Ir  Ir10  1  0.001698  0.998302  0.500202  1
  Ir  Ir11  1  0.001698  0.998302  0.999798  1
