# generated using pymatgen
data_Nd3Mg2ScSn2Pt
_symmetry_space_group_name_H-M   'P 1'
_cell_length_a   7.81547635
_cell_length_b   7.71407136
_cell_length_c   4.49666500
_cell_angle_alpha   90.00000000
_cell_angle_beta   90.00000000
_cell_angle_gamma   119.57171908
_symmetry_Int_Tables_number   1
_chemical_formula_structural   Nd3Mg2ScSn2Pt
_chemical_formula_sum   'Nd3 Mg2 Sc1 Sn2 Pt1'
_cell_volume   235.78620891
_cell_formula_units_Z   1
loop_
 _symmetry_equiv_pos_site_id
 _symmetry_equiv_pos_as_xyz
  1  'x, y, z'
loop_
 _atom_site_type_symbol
 _atom_site_label
 _atom_site_symmetry_multiplicity
 _atom_site_fract_x
 _atom_site_fract_y
 _atom_site_fract_z
 _atom_site_occupancy
  Nd  Nd0  1  0.401405  0.396922  0.000000  1
  Nd  Nd1  1  0.598595  0.995517  0.000000  1
  Nd  Nd2  1  0.000000  0.606421  0.000000  1
  Mg  Mg3  1  0.765666  0.764270  0.500000  1
  Mg  Mg4  1  0.234334  0.998604  0.500000  1
  Sc  Sc5  1  0.000000  0.223539  0.500000  1
  Sn  Sn6  1  0.670884  0.333736  0.500000  1
  Sn  Sn7  1  0.329116  0.662853  0.500000  1
  Pt  Pt8  1  0.000000  0.018138  0.000000  1
