# generated using pymatgen
data_Tm3P6Rh8W
_symmetry_space_group_name_H-M   'P 1'
_cell_length_a   3.91640600
_cell_length_b   11.09074200
_cell_length_c   12.79767500
_cell_angle_alpha   90.00000000
_cell_angle_beta   90.00000000
_cell_angle_gamma   90.00000000
_symmetry_Int_Tables_number   1
_chemical_formula_structural   Tm3P6Rh8W
_chemical_formula_sum   'Tm6 P12 Rh16 W2'
_cell_volume   555.87787262
_cell_formula_units_Z   2
loop_
 _symmetry_equiv_pos_site_id
 _symmetry_equiv_pos_as_xyz
  1  'x, y, z'
loop_
 _atom_site_type_symbol
 _atom_site_label
 _atom_site_symmetry_multiplicity
 _atom_site_fract_x
 _atom_site_fract_y
 _atom_site_fract_z
 _atom_site_occupancy
  Tm  Tm0  1  0.000000  0.500000  0.523057  1
  Tm  Tm1  1  0.500000  0.000000  0.476943  1
  Tm  Tm2  1  0.500000  0.817476  0.202680  1
  Tm  Tm3  1  0.500000  0.182524  0.202680  1
  Tm  Tm4  1  0.000000  0.682524  0.797320  1
  Tm  Tm5  1  0.000000  0.317476  0.797320  1
  P  P6  1  0.500000  0.500000  0.873207  1
  P  P7  1  0.000000  0.000000  0.126793  1
  P  P8  1  0.500000  0.500000  0.347250  1
  P  P9  1  0.000000  0.000000  0.652750  1
  P  P10  1  0.500000  0.315268  0.617871  1
  P  P11  1  0.500000  0.684732  0.617871  1
  P  P12  1  0.000000  0.184732  0.382129  1
  P  P13  1  0.000000  0.815268  0.382129  1
  P  P14  1  0.500000  0.847139  0.886222  1
  P  P15  1  0.500000  0.152861  0.886222  1
  P  P16  1  0.000000  0.652861  0.113778  1
  P  P17  1  0.000000  0.347139  0.113778  1
  Rh  Rh18  1  0.500000  0.500000  0.697114  1
  Rh  Rh19  1  0.000000  0.000000  0.302886  1
  Rh  Rh20  1  0.000000  0.500000  0.989413  1
  Rh  Rh21  1  0.500000  0.000000  0.010587  1
  Rh  Rh22  1  0.500000  0.331538  0.982205  1
  Rh  Rh23  1  0.500000  0.668462  0.982205  1
  Rh  Rh24  1  0.000000  0.168462  0.017795  1
  Rh  Rh25  1  0.000000  0.831538  0.017795  1
  Rh  Rh26  1  0.500000  0.296071  0.432355  1
  Rh  Rh27  1  0.500000  0.703929  0.432355  1
  Rh  Rh28  1  0.000000  0.203929  0.567645  1
  Rh  Rh29  1  0.000000  0.796071  0.567645  1
  Rh  Rh30  1  0.500000  0.874625  0.707991  1
  Rh  Rh31  1  0.500000  0.125375  0.707991  1
  Rh  Rh32  1  0.000000  0.625375  0.292009  1
  Rh  Rh33  1  0.000000  0.374625  0.292009  1
  W  W34  1  0.500000  0.500000  0.157313  1
  W  W35  1  0.000000  0.000000  0.842687  1
