# generated using pymatgen
data_Yb3Th5(SiPd)8
_symmetry_space_group_name_H-M   'P 1'
_cell_length_a   5.84629983
_cell_length_b   7.84276722
_cell_length_c   10.69249860
_cell_angle_alpha   87.80623419
_cell_angle_beta   89.76101787
_cell_angle_gamma   89.78329568
_symmetry_Int_Tables_number   1
_chemical_formula_structural   Yb3Th5(SiPd)8
_chemical_formula_sum   'Yb3 Th5 Si8 Pd8'
_cell_volume   489.89675521
_cell_formula_units_Z   1
loop_
 _symmetry_equiv_pos_site_id
 _symmetry_equiv_pos_as_xyz
  1  'x, y, z'
loop_
 _atom_site_type_symbol
 _atom_site_label
 _atom_site_symmetry_multiplicity
 _atom_site_fract_x
 _atom_site_fract_y
 _atom_site_fract_z
 _atom_site_occupancy
  Yb  Yb0  1  0.637788  0.033576  0.862598  1
  Yb  Yb1  1  0.855338  0.534525  0.857965  1
  Yb  Yb2  1  0.364369  0.968177  0.136762  1
  Th  Th3  1  0.631886  0.325656  0.369562  1
  Th  Th4  1  0.127714  0.175221  0.634294  1
  Th  Th5  1  0.370118  0.675336  0.633590  1
  Th  Th6  1  0.870781  0.825166  0.367484  1
  Th  Th7  1  0.139764  0.468739  0.136707  1
  Si  Si8  1  0.633147  0.034561  0.576572  1
  Si  Si9  1  0.134608  0.466020  0.424501  1
  Si  Si10  1  0.365665  0.965017  0.423725  1
  Si  Si11  1  0.861472  0.535141  0.575621  1
  Si  Si12  1  0.854585  0.118177  0.147769  1
  Si  Si13  1  0.352810  0.374993  0.855303  1
  Si  Si14  1  0.145418  0.879640  0.852209  1
  Si  Si15  1  0.651993  0.621441  0.148164  1
  Pd  Pd16  1  0.908490  0.833406  0.049601  1
  Pd  Pd17  1  0.403252  0.666343  0.947010  1
  Pd  Pd18  1  0.090755  0.163837  0.948337  1
  Pd  Pd19  1  0.601384  0.334873  0.050605  1
  Pd  Pd20  1  0.892479  0.819191  0.670106  1
  Pd  Pd21  1  0.393433  0.680976  0.330561  1
  Pd  Pd22  1  0.109281  0.181103  0.330688  1
  Pd  Pd23  1  0.603472  0.318884  0.670265  1
