# generated using pymatgen
data_Li3Y4Co12Ni5P12
_symmetry_space_group_name_H-M   'P 1'
_cell_length_a   3.69871900
_cell_length_b   10.28838185
_cell_length_c   11.98021659
_cell_angle_alpha   89.67368229
_cell_angle_beta   90.00000000
_cell_angle_gamma   90.00000000
_symmetry_Int_Tables_number   1
_chemical_formula_structural   Li3Y4Co12Ni5P12
_chemical_formula_sum   'Li3 Y4 Co12 Ni5 P12'
_cell_volume   455.88577278
_cell_formula_units_Z   1
loop_
 _symmetry_equiv_pos_site_id
 _symmetry_equiv_pos_as_xyz
  1  'x, y, z'
loop_
 _atom_site_type_symbol
 _atom_site_label
 _atom_site_symmetry_multiplicity
 _atom_site_fract_x
 _atom_site_fract_y
 _atom_site_fract_z
 _atom_site_occupancy
  Li  Li0  1  0.250000  0.797434  0.492319  1
  Li  Li1  1  0.750000  0.201923  0.508444  1
  Li  Li2  1  0.750000  0.297758  0.008222  1
  Y  Y3  1  0.250000  0.918959  0.205080  1
  Y  Y4  1  0.750000  0.080048  0.795533  1
  Y  Y5  1  0.750000  0.419340  0.295817  1
  Y  Y6  1  0.250000  0.580116  0.704248  1
  Co  Co7  1  0.250000  0.280781  0.673479  1
  Co  Co8  1  0.750000  0.719890  0.323373  1
  Co  Co9  1  0.750000  0.776386  0.828132  1
  Co  Co10  1  0.250000  0.219406  0.172833  1
  Co  Co11  1  0.250000  0.618800  0.195837  1
  Co  Co12  1  0.750000  0.381255  0.801959  1
  Co  Co13  1  0.750000  0.120020  0.301541  1
  Co  Co14  1  0.250000  0.878607  0.701558  1
  Co  Co15  1  0.250000  0.032756  0.433698  1
  Co  Co16  1  0.750000  0.965750  0.567932  1
  Co  Co17  1  0.750000  0.534530  0.066748  1
  Co  Co18  1  0.250000  0.467368  0.933814  1
  Ni  Ni19  1  0.250000  0.711016  0.990467  1
  Ni  Ni20  1  0.250000  0.092007  0.986400  1
  Ni  Ni21  1  0.750000  0.906250  0.014899  1
  Ni  Ni22  1  0.750000  0.593465  0.513384  1
  Ni  Ni23  1  0.250000  0.407996  0.485138  1
  P  P24  1  0.250000  0.077036  0.614694  1
  P  P25  1  0.750000  0.921984  0.386182  1
  P  P26  1  0.750000  0.576630  0.887699  1
  P  P27  1  0.250000  0.421917  0.114206  1
  P  P28  1  0.250000  0.226050  0.358306  1
  P  P29  1  0.750000  0.772480  0.642114  1
  P  P30  1  0.750000  0.728305  0.136729  1
  P  P31  1  0.250000  0.274017  0.858490  1
  P  P32  1  0.250000  0.894417  0.890458  1
  P  P33  1  0.750000  0.103588  0.112666  1
  P  P34  1  0.750000  0.395460  0.611847  1
  P  P35  1  0.250000  0.606252  0.385754  1
