# generated using pymatgen
data_Li4YbSb4Pb3
_symmetry_space_group_name_H-M   'P 1'
_cell_length_a   4.77146700
_cell_length_b   7.69000492
_cell_length_c   8.48749821
_cell_angle_alpha   90.35427056
_cell_angle_beta   90.00000000
_cell_angle_gamma   90.00000000
_symmetry_Int_Tables_number   1
_chemical_formula_structural   Li4YbSb4Pb3
_chemical_formula_sum   'Li4 Yb1 Sb4 Pb3'
_cell_volume   311.42246347
_cell_formula_units_Z   1
loop_
 _symmetry_equiv_pos_site_id
 _symmetry_equiv_pos_as_xyz
  1  'x, y, z'
loop_
 _atom_site_type_symbol
 _atom_site_label
 _atom_site_symmetry_multiplicity
 _atom_site_fract_x
 _atom_site_fract_y
 _atom_site_fract_z
 _atom_site_occupancy
  Li  Li0  1  0.250000  0.140392  0.924948  1
  Li  Li1  1  0.250000  0.652942  0.568508  1
  Li  Li2  1  0.750000  0.854504  0.078062  1
  Li  Li3  1  0.750000  0.346973  0.418775  1
  Yb  Yb4  1  0.750000  0.489056  0.795979  1
  Sb  Sb5  1  0.250000  0.275804  0.602804  1
  Sb  Sb6  1  0.250000  0.756053  0.899716  1
  Sb  Sb7  1  0.750000  0.736101  0.413750  1
  Sb  Sb8  1  0.750000  0.238520  0.094009  1
  Pb  Pb9  1  0.250000  0.011260  0.309847  1
  Pb  Pb10  1  0.250000  0.505548  0.189529  1
  Pb  Pb11  1  0.750000  0.992848  0.704072  1
