# generated using pymatgen
data_Ac3Ge3Br2
_symmetry_space_group_name_H-M   'P 1'
_cell_length_a   9.96593173
_cell_length_b   9.96593219
_cell_length_c   11.27347387
_cell_angle_alpha   82.44783496
_cell_angle_beta   82.44783395
_cell_angle_gamma   26.15028796
_symmetry_Int_Tables_number   1
_chemical_formula_structural   Ac3Ge3Br2
_chemical_formula_sum   'Ac6 Ge6 Br4'
_cell_volume   488.96051706
_cell_formula_units_Z   2
loop_
 _symmetry_equiv_pos_site_id
 _symmetry_equiv_pos_as_xyz
  1  'x, y, z'
loop_
 _atom_site_type_symbol
 _atom_site_label
 _atom_site_symmetry_multiplicity
 _atom_site_fract_x
 _atom_site_fract_y
 _atom_site_fract_z
 _atom_site_occupancy
  Ac  Ac0  1  0.530104  0.530104  0.168309  1
  Ac  Ac1  1  0.322861  0.322861  0.147133  1
  Ac  Ac2  1  0.677139  0.677139  0.852867  1
  Ac  Ac3  1  0.469896  0.469896  0.831691  1
  Ac  Ac4  1  0.389060  0.389060  0.487725  1
  Ac  Ac5  1  0.610940  0.610940  0.512275  1
  Ge  Ge6  1  0.067069  0.067069  0.954473  1
  Ge  Ge7  1  0.021499  0.021499  0.385900  1
  Ge  Ge8  1  0.907616  0.907616  0.281103  1
  Ge  Ge9  1  0.978501  0.978501  0.614100  1
  Ge  Ge10  1  0.092384  0.092384  0.718897  1
  Ge  Ge11  1  0.932931  0.932931  0.045527  1
  Br  Br12  1  0.775533  0.775533  0.608221  1
  Br  Br13  1  0.700953  0.700953  0.129833  1
  Br  Br14  1  0.224467  0.224467  0.391779  1
  Br  Br15  1  0.299047  0.299047  0.870167  1
