# generated using pymatgen
data_Tb2DyTh11Os6
_symmetry_space_group_name_H-M   'P 1'
_cell_length_a   9.88899147
_cell_length_b   9.99169008
_cell_length_c   6.37790188
_cell_angle_alpha   89.97936654
_cell_angle_beta   90.00595352
_cell_angle_gamma   120.12010943
_symmetry_Int_Tables_number   1
_chemical_formula_structural   Tb2DyTh11Os6
_chemical_formula_sum   'Tb2 Dy1 Th11 Os6'
_cell_volume   545.09536759
_cell_formula_units_Z   1
loop_
 _symmetry_equiv_pos_site_id
 _symmetry_equiv_pos_as_xyz
  1  'x, y, z'
loop_
 _atom_site_type_symbol
 _atom_site_label
 _atom_site_symmetry_multiplicity
 _atom_site_fract_x
 _atom_site_fract_y
 _atom_site_fract_z
 _atom_site_occupancy
  Tb  Tb0  1  0.460814  0.536054  0.298889  1
  Tb  Tb1  1  0.072689  0.535501  0.300199  1
  Dy  Dy2  1  0.927573  0.462902  0.799632  1
  Th  Th3  1  0.252400  0.128286  0.510565  1
  Th  Th4  1  0.540946  0.080390  0.795988  1
  Th  Th5  1  0.746120  0.872477  0.013017  1
  Th  Th6  1  0.667153  0.333380  0.273651  1
  Th  Th7  1  0.126740  0.870242  0.008939  1
  Th  Th8  1  0.461082  0.919381  0.295995  1
  Th  Th9  1  0.537635  0.465583  0.800441  1
  Th  Th10  1  0.874319  0.129670  0.512224  1
  Th  Th11  1  0.124726  0.254360  0.013618  1
  Th  Th12  1  0.873944  0.745970  0.509654  1
  Th  Th13  1  0.332759  0.665742  0.770667  1
  Os  Os14  1  0.812661  0.628692  0.046572  1
  Os  Os15  1  0.812825  0.182917  0.047023  1
  Os  Os16  1  0.630601  0.814748  0.546698  1
  Os  Os17  1  0.371469  0.187024  0.041949  1
  Os  Os18  1  0.185471  0.368903  0.554292  1
  Os  Os19  1  0.188074  0.817777  0.543985  1
