# generated using pymatgen
data_Nd4Zn10GaGe
_symmetry_space_group_name_H-M   'P 1'
_cell_length_a   8.40202608
_cell_length_b   8.40202522
_cell_length_c   8.88816400
_cell_angle_alpha   90.00000000
_cell_angle_beta   90.00000000
_cell_angle_gamma   149.21647018
_symmetry_Int_Tables_number   1
_chemical_formula_structural   Nd4Zn10GaGe
_chemical_formula_sum   'Nd4 Zn10 Ga1 Ge1'
_cell_volume   321.12705162
_cell_formula_units_Z   1
loop_
 _symmetry_equiv_pos_site_id
 _symmetry_equiv_pos_as_xyz
  1  'x, y, z'
loop_
 _atom_site_type_symbol
 _atom_site_label
 _atom_site_symmetry_multiplicity
 _atom_site_fract_x
 _atom_site_fract_y
 _atom_site_fract_z
 _atom_site_occupancy
  Nd  Nd0  1  0.202275  0.797725  0.250000  1
  Nd  Nd1  1  0.798248  0.201752  0.750000  1
  Nd  Nd2  1  0.999381  0.000619  0.502128  1
  Nd  Nd3  1  0.999381  0.000619  0.997872  1
  Zn  Zn4  1  0.813027  0.186973  0.393261  1
  Zn  Zn5  1  0.186587  0.813413  0.606921  1
  Zn  Zn6  1  0.813027  0.186973  0.106739  1
  Zn  Zn7  1  0.186587  0.813413  0.893079  1
  Zn  Zn8  1  0.649147  0.350853  0.479556  1
  Zn  Zn9  1  0.349187  0.650813  0.519370  1
  Zn  Zn10  1  0.649147  0.350853  0.020444  1
  Zn  Zn11  1  0.349187  0.650813  0.980630  1
  Zn  Zn12  1  0.404809  0.595191  0.250000  1
  Zn  Zn13  1  0.598706  0.401294  0.750000  1
  Ga  Ga14  1  0.557385  0.442615  0.250000  1
  Ge  Ge15  1  0.443922  0.556078  0.750000  1
