# generated using pymatgen
data_Ce2Ho(SnIr)3
_symmetry_space_group_name_H-M   'P 1'
_cell_length_a   7.50303110
_cell_length_b   7.50303069
_cell_length_c   4.04446200
_cell_angle_alpha   90.00000000
_cell_angle_beta   90.00000000
_cell_angle_gamma   120.31361540
_symmetry_Int_Tables_number   1
_chemical_formula_structural   Ce2Ho(SnIr)3
_chemical_formula_sum   'Ce2 Ho1 Sn3 Ir3'
_cell_volume   196.55482609
_cell_formula_units_Z   1
loop_
 _symmetry_equiv_pos_site_id
 _symmetry_equiv_pos_as_xyz
  1  'x, y, z'
loop_
 _atom_site_type_symbol
 _atom_site_label
 _atom_site_symmetry_multiplicity
 _atom_site_fract_x
 _atom_site_fract_y
 _atom_site_fract_z
 _atom_site_occupancy
  Ce  Ce0  1  0.586234  0.998905  0.000000  1
  Ce  Ce1  1  0.998905  0.586234  0.000000  1
  Ho  Ho2  1  0.406662  0.406662  0.000000  1
  Sn  Sn3  1  0.005581  0.255554  0.500000  1
  Sn  Sn4  1  0.740844  0.740844  0.500000  1
  Sn  Sn5  1  0.255554  0.005581  0.500000  1
  Ir  Ir6  1  0.999499  0.999499  0.000000  1
  Ir  Ir7  1  0.674253  0.332468  0.500000  1
  Ir  Ir8  1  0.332468  0.674253  0.500000  1
