# generated using pymatgen
data_YbCe2TaSb5
_symmetry_space_group_name_H-M   'P 1'
_cell_length_a   9.44017300
_cell_length_b   9.38052915
_cell_length_c   6.17264800
_cell_angle_alpha   90.00000000
_cell_angle_beta   90.00000000
_cell_angle_gamma   120.21054988
_symmetry_Int_Tables_number   1
_chemical_formula_structural   YbCe2TaSb5
_chemical_formula_sum   'Yb2 Ce4 Ta2 Sb10'
_cell_volume   472.37195123
_cell_formula_units_Z   2
loop_
 _symmetry_equiv_pos_site_id
 _symmetry_equiv_pos_as_xyz
  1  'x, y, z'
loop_
 _atom_site_type_symbol
 _atom_site_label
 _atom_site_symmetry_multiplicity
 _atom_site_fract_x
 _atom_site_fract_y
 _atom_site_fract_z
 _atom_site_occupancy
  Yb  Yb0  1  0.613168  0.000000  0.250000  1
  Yb  Yb1  1  0.386832  0.000000  0.750000  1
  Ce  Ce2  1  0.003273  0.621504  0.250000  1
  Ce  Ce3  1  0.996727  0.378496  0.750000  1
  Ce  Ce4  1  0.381769  0.378496  0.250000  1
  Ce  Ce5  1  0.618231  0.621504  0.750000  1
  Ta  Ta6  1  0.000000  0.000000  0.000000  1
  Ta  Ta7  1  0.000000  0.000000  0.500000  1
  Sb  Sb8  1  0.257577  0.000000  0.250000  1
  Sb  Sb9  1  0.742423  0.000000  0.750000  1
  Sb  Sb10  1  0.000456  0.260872  0.250000  1
  Sb  Sb11  1  0.999544  0.739128  0.750000  1
  Sb  Sb12  1  0.739584  0.739128  0.250000  1
  Sb  Sb13  1  0.260416  0.260872  0.750000  1
  Sb  Sb14  1  0.331515  0.663031  0.000000  1
  Sb  Sb15  1  0.668485  0.336969  0.000000  1
  Sb  Sb16  1  0.668485  0.336969  0.500000  1
  Sb  Sb17  1  0.331515  0.663031  0.500000  1
