# generated using pymatgen
data_Dy5HoScCo17P12
_symmetry_space_group_name_H-M   'P 1'
_cell_length_a   3.71343500
_cell_length_b   10.59153301
_cell_length_c   12.28309001
_cell_angle_alpha   90.00396237
_cell_angle_beta   90.00000000
_cell_angle_gamma   90.00000000
_symmetry_Int_Tables_number   1
_chemical_formula_structural   Dy5HoScCo17P12
_chemical_formula_sum   'Dy5 Ho1 Sc1 Co17 P12'
_cell_volume   483.10583568
_cell_formula_units_Z   1
loop_
 _symmetry_equiv_pos_site_id
 _symmetry_equiv_pos_as_xyz
  1  'x, y, z'
loop_
 _atom_site_type_symbol
 _atom_site_label
 _atom_site_symmetry_multiplicity
 _atom_site_fract_x
 _atom_site_fract_y
 _atom_site_fract_z
 _atom_site_occupancy
  Dy  Dy0  1  0.000000  0.499931  0.527669  1
  Dy  Dy1  1  0.500000  0.000075  0.477931  1
  Dy  Dy2  1  0.500000  0.821449  0.207348  1
  Dy  Dy3  1  0.500000  0.178543  0.207389  1
  Dy  Dy4  1  0.000000  0.682362  0.795627  1
  Ho  Ho5  1  0.000000  0.317523  0.795649  1
  Sc  Sc6  1  0.500000  0.499997  0.152681  1
  Co  Co7  1  0.000000  0.499821  0.984427  1
  Co  Co8  1  0.500000  0.000159  0.012960  1
  Co  Co9  1  0.500000  0.294612  0.434205  1
  Co  Co10  1  0.500000  0.705367  0.434044  1
  Co  Co11  1  0.000000  0.202075  0.570731  1
  Co  Co12  1  0.000000  0.798007  0.570510  1
  Co  Co13  1  0.500000  0.880449  0.707813  1
  Co  Co14  1  0.500000  0.119898  0.707992  1
  Co  Co15  1  0.000000  0.622541  0.296442  1
  Co  Co16  1  0.000000  0.377442  0.296480  1
  Co  Co17  1  0.500000  0.326810  0.989630  1
  Co  Co18  1  0.500000  0.673060  0.989837  1
  Co  Co19  1  0.000000  0.162308  0.001393  1
  Co  Co20  1  0.000000  0.837835  0.001568  1
  Co  Co21  1  0.000000  0.000017  0.837381  1
  Co  Co22  1  0.500000  0.499657  0.703452  1
  Co  Co23  1  0.000000  0.000037  0.296059  1
  P  P24  1  0.500000  0.308996  0.618108  1
  P  P25  1  0.500000  0.690981  0.617741  1
  P  P26  1  0.000000  0.189049  0.386368  1
  P  P27  1  0.000000  0.810990  0.386260  1
  P  P28  1  0.500000  0.499668  0.882945  1
  P  P29  1  0.000000  0.000087  0.115909  1
  P  P30  1  0.500000  0.851537  0.888982  1
  P  P31  1  0.500000  0.148758  0.888793  1
  P  P32  1  0.000000  0.663298  0.101210  1
  P  P33  1  0.000000  0.336629  0.101288  1
  P  P34  1  0.500000  0.500016  0.358014  1
  P  P35  1  0.000000  0.000014  0.655159  1
