# generated using pymatgen
data_Dy5Zn2Ru3
_symmetry_space_group_name_H-M   'P 1'
_cell_length_a   8.29918976
_cell_length_b   8.29919005
_cell_length_c   8.29919100
_cell_angle_alpha   109.47122296
_cell_angle_beta   109.47122366
_cell_angle_gamma   109.47122037
_symmetry_Int_Tables_number   1
_chemical_formula_structural   Dy5Zn2Ru3
_chemical_formula_sum   'Dy10 Zn4 Ru6'
_cell_volume   440.03299912
_cell_formula_units_Z   2
loop_
 _symmetry_equiv_pos_site_id
 _symmetry_equiv_pos_as_xyz
  1  'x, y, z'
loop_
 _atom_site_type_symbol
 _atom_site_label
 _atom_site_symmetry_multiplicity
 _atom_site_fract_x
 _atom_site_fract_y
 _atom_site_fract_z
 _atom_site_occupancy
  Dy  Dy0  1  0.250000  0.682716  0.432717  1
  Dy  Dy1  1  0.750000  0.817284  0.067284  1
  Dy  Dy2  1  0.432717  0.250000  0.682716  1
  Dy  Dy3  1  0.682716  0.432717  0.250000  1
  Dy  Dy4  1  0.067284  0.750000  0.817284  1
  Dy  Dy5  1  0.817284  0.067284  0.750000  1
  Dy  Dy6  1  0.221516  0.221516  0.221516  1
  Dy  Dy7  1  0.500001  0.000000  0.278484  1
  Dy  Dy8  1  0.278484  0.500001  0.000000  1
  Dy  Dy9  1  0.000000  0.278484  0.500001  1
  Zn  Zn10  1  0.500001  0.000000  0.910490  1
  Zn  Zn11  1  0.589510  0.589510  0.589510  1
  Zn  Zn12  1  0.910490  0.500001  0.000000  1
  Zn  Zn13  1  0.000000  0.910490  0.500001  1
  Ru  Ru14  1  0.250001  0.130152  0.880152  1
  Ru  Ru15  1  0.750000  0.369847  0.619847  1
  Ru  Ru16  1  0.880152  0.250001  0.130152  1
  Ru  Ru17  1  0.130152  0.880152  0.250001  1
  Ru  Ru18  1  0.619847  0.750000  0.369847  1
  Ru  Ru19  1  0.369847  0.619847  0.750000  1
