# generated using pymatgen
data_AlCoH8
_symmetry_space_group_name_H-M   'P 1'
_cell_length_a   4.16582847
_cell_length_b   4.16411104
_cell_length_c   7.49547370
_cell_angle_alpha   95.75466704
_cell_angle_beta   94.64341040
_cell_angle_gamma   120.04172601
_symmetry_Int_Tables_number   1
_chemical_formula_structural   AlCoH8
_chemical_formula_sum   'Al1 Co1 H8'
_cell_volume   110.68331797
_cell_formula_units_Z   1
loop_
 _symmetry_equiv_pos_site_id
 _symmetry_equiv_pos_as_xyz
  1  'x, y, z'
loop_
 _atom_site_type_symbol
 _atom_site_label
 _atom_site_symmetry_multiplicity
 _atom_site_fract_x
 _atom_site_fract_y
 _atom_site_fract_z
 _atom_site_occupancy
  Al  Al0  1  0.368577  0.269672  0.247241  1
  Co  Co1  1  0.702440  0.937659  0.249632  1
  H  H2  1  0.686200  0.623333  0.117098  1
  H  H3  1  0.367137  0.869368  0.116758  1
  H  H4  1  0.478601  0.045623  0.684666  1
  H  H5  1  0.462788  0.706080  0.383841  1
  H  H6  1  0.445720  0.125892  0.770651  1
  H  H7  1  0.020044  0.977221  0.384490  1
  H  H8  1  0.932298  0.192236  0.119192  1
  H  H9  1  0.748691  0.262245  0.385537  1
