# generated using pymatgen
data_CaGeP2O7
_symmetry_space_group_name_H-M   'P 1'
_cell_length_a   6.50393433
_cell_length_b   7.06391970
_cell_length_c   6.98927296
_cell_angle_alpha   86.45254392
_cell_angle_beta   89.22135726
_cell_angle_gamma   68.37281699
_symmetry_Int_Tables_number   1
_chemical_formula_structural   CaGeP2O7
_chemical_formula_sum   'Ca2 Ge2 P4 O14'
_cell_volume   297.91779837
_cell_formula_units_Z   2
loop_
 _symmetry_equiv_pos_site_id
 _symmetry_equiv_pos_as_xyz
  1  'x, y, z'
loop_
 _atom_site_type_symbol
 _atom_site_label
 _atom_site_symmetry_multiplicity
 _atom_site_fract_x
 _atom_site_fract_y
 _atom_site_fract_z
 _atom_site_occupancy
  Ca  Ca0  1  0.325141  0.692655  0.647397  1
  Ca  Ca1  1  0.674859  0.307345  0.352603  1
  Ge  Ge2  1  0.228223  0.117412  0.166820  1
  Ge  Ge3  1  0.771777  0.882588  0.833180  1
  P  P4  1  0.168175  0.684589  0.148089  1
  P  P5  1  0.831825  0.315411  0.851911  1
  P  P6  1  0.226759  0.225675  0.598824  1
  P  P7  1  0.773241  0.774325  0.401176  1
  O  O8  1  0.100074  0.759708  0.935645  1
  O  O9  1  0.899926  0.240292  0.064355  1
  O  O10  1  0.198227  0.854902  0.261928  1
  O  O11  1  0.801773  0.145098  0.738072  1
  O  O12  1  0.358045  0.483569  0.165753  1
  O  O13  1  0.641955  0.516431  0.834247  1
  O  O14  1  0.637637  0.640134  0.434504  1
  O  O15  1  0.362363  0.359866  0.565496  1
  O  O16  1  0.088268  0.224333  0.415982  1
  O  O17  1  0.911732  0.775667  0.584018  1
  O  O18  1  0.046011  0.347279  0.755255  1
  O  O19  1  0.648774  0.990923  0.319954  1
  O  O20  1  0.351226  0.009077  0.680046  1
  O  O21  1  0.953989  0.652721  0.244745  1
