# generated using pymatgen
data_Dy3Ho5(Si4Tc3)4
_symmetry_space_group_name_H-M   'P 1'
_cell_length_a   6.78848653
_cell_length_b   6.78776454
_cell_length_c   12.68605583
_cell_angle_alpha   90.06456989
_cell_angle_beta   89.97239109
_cell_angle_gamma   89.99247689
_symmetry_Int_Tables_number   1
_chemical_formula_structural   Dy3Ho5(Si4Tc3)4
_chemical_formula_sum   'Dy3 Ho5 Si16 Tc12'
_cell_volume   584.55585908
_cell_formula_units_Z   1
loop_
 _symmetry_equiv_pos_site_id
 _symmetry_equiv_pos_as_xyz
  1  'x, y, z'
loop_
 _atom_site_type_symbol
 _atom_site_label
 _atom_site_symmetry_multiplicity
 _atom_site_fract_x
 _atom_site_fract_y
 _atom_site_fract_z
 _atom_site_occupancy
  Dy  Dy0  1  0.337841  0.996911  0.469619  1
  Dy  Dy1  1  0.502902  0.838270  0.719726  1
  Dy  Dy2  1  0.497453  0.161945  0.219715  1
  Ho  Ho3  1  0.838657  0.503088  0.280110  1
  Ho  Ho4  1  0.161435  0.497093  0.780262  1
  Ho  Ho5  1  0.661671  0.003242  0.969706  1
  Ho  Ho6  1  0.996745  0.338186  0.530187  1
  Ho  Ho7  1  0.003327  0.661645  0.030277  1
  Si  Si8  1  0.191736  0.115746  0.687725  1
  Si  Si9  1  0.384036  0.692413  0.937563  1
  Si  Si10  1  0.615501  0.308128  0.437510  1
  Si  Si11  1  0.692971  0.384367  0.062367  1
  Si  Si12  1  0.307063  0.614899  0.562629  1
  Si  Si13  1  0.808277  0.884157  0.187415  1
  Si  Si14  1  0.114901  0.192494  0.312354  1
  Si  Si15  1  0.884404  0.807737  0.812767  1
  Si  Si16  1  0.276337  0.975934  0.064286  1
  Si  Si17  1  0.523589  0.774520  0.313924  1
  Si  Si18  1  0.476250  0.224730  0.814609  1
  Si  Si19  1  0.776138  0.523314  0.685848  1
  Si  Si20  1  0.224589  0.476998  0.185655  1
  Si  Si21  1  0.725017  0.023509  0.564065  1
  Si  Si22  1  0.976125  0.276587  0.935521  1
  Si  Si23  1  0.022751  0.724041  0.435912  1
  Tc  Tc24  1  0.666879  0.666037  0.499783  1
  Tc  Tc25  1  0.181758  0.980403  0.873488  1
  Tc  Tc26  1  0.520986  0.682882  0.122429  1
  Tc  Tc27  1  0.480227  0.317817  0.623461  1
  Tc  Tc28  1  0.682780  0.520302  0.877405  1
  Tc  Tc29  1  0.316477  0.480313  0.377210  1
  Tc  Tc30  1  0.816969  0.019941  0.372904  1
  Tc  Tc31  1  0.980932  0.182197  0.126511  1
  Tc  Tc32  1  0.019541  0.816360  0.627489  1
  Tc  Tc33  1  0.333528  0.333812  0.999748  1
  Tc  Tc34  1  0.166491  0.832984  0.249667  1
  Tc  Tc35  1  0.833715  0.166995  0.750157  1
