# generated using pymatgen
data_Tb5Tm5(In2Bi)2
_symmetry_space_group_name_H-M   'P 1'
_cell_length_a   6.56492400
_cell_length_b   9.01354407
_cell_length_c   9.01880400
_cell_angle_alpha   120.01641055
_cell_angle_beta   89.99962151
_cell_angle_gamma   90.00036436
_symmetry_Int_Tables_number   1
_chemical_formula_structural   Tb5Tm5(In2Bi)2
_chemical_formula_sum   'Tb5 Tm5 In4 Bi2'
_cell_volume   462.09687257
_cell_formula_units_Z   1
loop_
 _symmetry_equiv_pos_site_id
 _symmetry_equiv_pos_as_xyz
  1  'x, y, z'
loop_
 _atom_site_type_symbol
 _atom_site_label
 _atom_site_symmetry_multiplicity
 _atom_site_fract_x
 _atom_site_fract_y
 _atom_site_fract_z
 _atom_site_occupancy
  Tb  Tb0  1  0.749999  0.229003  0.990717  1
  Tb  Tb1  1  0.749998  0.770869  0.761667  1
  Tb  Tb2  1  0.749998  0.999975  0.240087  1
  Tb  Tb3  1  0.250000  0.764098  0.000255  1
  Tb  Tb4  1  0.249999  0.236020  0.236229  1
  Tm  Tm5  1  0.492957  0.328799  0.667468  1
  Tm  Tm6  1  0.492948  0.671210  0.338669  1
  Tm  Tm7  1  0.007049  0.671203  0.338663  1
  Tm  Tm8  1  0.007041  0.328800  0.667470  1
  Tm  Tm9  1  0.249999  0.000039  0.762267  1
  In  In10  1  0.750001  0.999976  0.595502  1
  In  In11  1  0.250015  0.397354  0.002136  1
  In  In12  1  0.250000  0.602677  0.604809  1
  In  In13  1  0.249997  0.000038  0.398887  1
  Bi  Bi14  1  0.750000  0.603194  0.999228  1
  Bi  Bi15  1  0.749998  0.396744  0.395949  1
