# generated using pymatgen
data_Pr6Sn6PdRh5
_symmetry_space_group_name_H-M   'P 1'
_cell_length_a   7.72404300
_cell_length_b   7.72404235
_cell_length_c   8.12519300
_cell_angle_alpha   90.00000000
_cell_angle_beta   90.00000000
_cell_angle_gamma   119.99999849
_symmetry_Int_Tables_number   1
_chemical_formula_structural   Pr6Sn6PdRh5
_chemical_formula_sum   'Pr6 Sn6 Pd1 Rh5'
_cell_volume   419.81084481
_cell_formula_units_Z   1
loop_
 _symmetry_equiv_pos_site_id
 _symmetry_equiv_pos_as_xyz
  1  'x, y, z'
loop_
 _atom_site_type_symbol
 _atom_site_label
 _atom_site_symmetry_multiplicity
 _atom_site_fract_x
 _atom_site_fract_y
 _atom_site_fract_z
 _atom_site_occupancy
  Pr  Pr0  1  0.586974  0.995630  0.746866  1
  Pr  Pr1  1  0.408657  0.413026  0.746866  1
  Pr  Pr2  1  0.004370  0.591343  0.746866  1
  Pr  Pr3  1  0.587096  0.996253  0.253163  1
  Pr  Pr4  1  0.409156  0.412904  0.253163  1
  Pr  Pr5  1  0.003747  0.590844  0.253163  1
  Sn  Sn6  1  0.249462  0.995925  0.000045  1
  Sn  Sn7  1  0.748643  0.745964  0.500045  1
  Sn  Sn8  1  0.997320  0.251357  0.500045  1
  Sn  Sn9  1  0.004075  0.253536  0.000045  1
  Sn  Sn10  1  0.746464  0.750538  0.000045  1
  Sn  Sn11  1  0.254036  0.002680  0.500045  1
  Pd  Pd12  1  0.666667  0.333333  0.998854  1
  Rh  Rh13  1  0.666667  0.333333  0.500756  1
  Rh  Rh14  1  0.333333  0.666667  0.000566  1
  Rh  Rh15  1  0.333333  0.666667  0.499388  1
  Rh  Rh16  1  0.000000  0.000000  0.749380  1
  Rh  Rh17  1  0.000000  0.000000  0.250701  1
