# generated using pymatgen
data_MgVFeP3PbO12
_symmetry_space_group_name_H-M   'P 1'
_cell_length_a   9.22046509
_cell_length_b   9.22046473
_cell_length_c   9.22046506
_cell_angle_alpha   137.76086871
_cell_angle_beta   109.86889911
_cell_angle_gamma   85.39909174
_symmetry_Int_Tables_number   1
_chemical_formula_structural   MgVFeP3PbO12
_chemical_formula_sum   'Mg2 V2 Fe2 P6 Pb2 O24'
_cell_volume   477.02521401
_cell_formula_units_Z   2
loop_
 _symmetry_equiv_pos_site_id
 _symmetry_equiv_pos_as_xyz
  1  'x, y, z'
loop_
 _atom_site_type_symbol
 _atom_site_label
 _atom_site_symmetry_multiplicity
 _atom_site_fract_x
 _atom_site_fract_y
 _atom_site_fract_z
 _atom_site_occupancy
  Mg  Mg0  1  0.617112  0.617112  0.500000  1
  Mg  Mg1  1  0.882888  0.382888  0.000000  1
  V  V2  1  0.500499  0.000000  0.500499  1
  V  V3  1  0.999501  0.500000  0.499501  1
  Fe  Fe4  1  0.115988  0.615988  0.000000  1
  Fe  Fe5  1  0.384012  0.384012  0.500000  1
  P  P6  1  0.750000  0.344859  0.594859  1
  P  P7  1  0.250000  0.655141  0.405141  1
  P  P8  1  0.821700  0.821700  0.500000  1
  P  P9  1  0.678300  0.178300  0.000000  1
  P  P10  1  0.323481  0.823481  0.000000  1
  P  P11  1  0.176519  0.176519  0.500000  1
  Pb  Pb12  1  0.750000  0.856456  0.106456  1
  Pb  Pb13  1  0.250000  0.143544  0.893544  1
  O  O14  1  0.654011  0.116695  0.456100  1
  O  O15  1  0.339404  0.883305  0.537315  1
  O  O16  1  0.160596  0.697912  0.543900  1
  O  O17  1  0.845989  0.302088  0.462685  1
  O  O18  1  0.637309  0.491019  0.618621  1
  O  O19  1  0.127601  0.508981  0.146290  1
  O  O20  1  0.372399  0.518690  0.381379  1
  O  O21  1  0.862691  0.481310  0.853710  1
  O  O22  1  0.921710  0.066995  0.721355  1
  O  O23  1  0.654359  0.933005  0.854714  1
  O  O24  1  0.425486  0.703352  0.856701  1
  O  O25  1  0.153349  0.296648  0.722134  1
  O  O26  1  0.074514  0.931216  0.277866  1
  O  O27  1  0.346651  0.068784  0.143299  1
  O  O28  1  0.578290  0.299645  0.145286  1
  O  O29  1  0.845641  0.700355  0.278645  1
  O  O30  1  0.635257  0.792181  0.436373  1
  O  O31  1  0.644191  0.207819  0.843076  1
  O  O32  1  0.137595  0.701653  0.842716  1
  O  O33  1  0.141063  0.298347  0.435942  1
  O  O34  1  0.362405  0.205121  0.564058  1
  O  O35  1  0.358937  0.794879  0.157284  1
  O  O36  1  0.864743  0.301116  0.156924  1
  O  O37  1  0.855809  0.698884  0.563627  1
