# generated using pymatgen
data_Tb19Dy(Cd3Ni)2
_symmetry_space_group_name_H-M   'P 1'
_cell_length_a   9.61266700
_cell_length_b   9.61266777
_cell_length_c   9.86958900
_cell_angle_alpha   90.00000000
_cell_angle_beta   90.00000000
_cell_angle_gamma   119.99999390
_symmetry_Int_Tables_number   1
_chemical_formula_structural   Tb19Dy(Cd3Ni)2
_chemical_formula_sum   'Tb19 Dy1 Cd6 Ni2'
_cell_volume   789.80077691
_cell_formula_units_Z   1
loop_
 _symmetry_equiv_pos_site_id
 _symmetry_equiv_pos_as_xyz
  1  'x, y, z'
loop_
 _atom_site_type_symbol
 _atom_site_label
 _atom_site_symmetry_multiplicity
 _atom_site_fract_x
 _atom_site_fract_y
 _atom_site_fract_z
 _atom_site_occupancy
  Tb  Tb0  1  0.000000  0.000000  0.000000  1
  Tb  Tb1  1  0.543712  0.456288  0.250009  1
  Tb  Tb2  1  0.543712  0.087423  0.250009  1
  Tb  Tb3  1  0.912577  0.456288  0.250009  1
  Tb  Tb4  1  0.456288  0.543712  0.749991  1
  Tb  Tb5  1  0.456288  0.912577  0.749991  1
  Tb  Tb6  1  0.087423  0.543712  0.749991  1
  Tb  Tb7  1  0.210330  0.789670  0.436549  1
  Tb  Tb8  1  0.210330  0.420661  0.436549  1
  Tb  Tb9  1  0.579339  0.789670  0.436549  1
  Tb  Tb10  1  0.789670  0.210330  0.563451  1
  Tb  Tb11  1  0.789670  0.579339  0.563451  1
  Tb  Tb12  1  0.420661  0.210330  0.563451  1
  Tb  Tb13  1  0.789633  0.210367  0.936537  1
  Tb  Tb14  1  0.789633  0.579265  0.936537  1
  Tb  Tb15  1  0.420735  0.210367  0.936537  1
  Tb  Tb16  1  0.210367  0.789633  0.063463  1
  Tb  Tb17  1  0.210367  0.420735  0.063463  1
  Tb  Tb18  1  0.579265  0.789633  0.063463  1
  Dy  Dy19  1  0.000000  0.000000  0.500000  1
  Cd  Cd20  1  0.884991  0.115009  0.250109  1
  Cd  Cd21  1  0.884991  0.769982  0.250109  1
  Cd  Cd22  1  0.230018  0.115009  0.250109  1
  Cd  Cd23  1  0.115009  0.884991  0.749891  1
  Cd  Cd24  1  0.115009  0.230018  0.749891  1
  Cd  Cd25  1  0.769982  0.884991  0.749891  1
  Ni  Ni26  1  0.333333  0.666667  0.250052  1
  Ni  Ni27  1  0.666667  0.333333  0.749948  1
