# generated using pymatgen
data_Ti6Al3Ga(CuO)2
_symmetry_space_group_name_H-M   'P 1'
_cell_length_a   8.10751936
_cell_length_b   8.11576963
_cell_length_c   8.11589303
_cell_angle_alpha   60.06414098
_cell_angle_beta   60.03455682
_cell_angle_gamma   60.03266100
_symmetry_Int_Tables_number   1
_chemical_formula_structural   Ti6Al3Ga(CuO)2
_chemical_formula_sum   'Ti12 Al6 Ga2 Cu4 O4'
_cell_volume   377.98080857
_cell_formula_units_Z   2
loop_
 _symmetry_equiv_pos_site_id
 _symmetry_equiv_pos_as_xyz
  1  'x, y, z'
loop_
 _atom_site_type_symbol
 _atom_site_label
 _atom_site_symmetry_multiplicity
 _atom_site_fract_x
 _atom_site_fract_y
 _atom_site_fract_z
 _atom_site_occupancy
  Ti  Ti0  1  0.570156  0.929389  0.571196  1
  Ti  Ti1  1  0.321081  0.679451  0.679442  1
  Ti  Ti2  1  0.679049  0.319700  0.319769  1
  Ti  Ti3  1  0.320760  0.678804  0.320619  1
  Ti  Ti4  1  0.679741  0.681079  0.320200  1
  Ti  Ti5  1  0.320783  0.320612  0.678789  1
  Ti  Ti6  1  0.570133  0.571198  0.929378  1
  Ti  Ti7  1  0.929979  0.570537  0.570512  1
  Ti  Ti8  1  0.568494  0.930284  0.930271  1
  Ti  Ti9  1  0.931011  0.929838  0.568909  1
  Ti  Ti10  1  0.679735  0.320194  0.681056  1
  Ti  Ti11  1  0.931040  0.568924  0.929821  1
  Al  Al12  1  0.333407  0.334244  0.334277  1
  Al  Al13  1  0.251912  0.915762  0.915715  1
  Al  Al14  1  0.915754  0.251586  0.915875  1
  Al  Al15  1  0.915732  0.915931  0.251581  1
  Al  Al16  1  0.333239  0.998430  0.334105  1
  Al  Al17  1  0.333272  0.334118  0.998366  1
  Ga  Ga18  1  0.994065  0.335310  0.335338  1
  Ga  Ga19  1  0.914705  0.914723  0.914671  1
  Cu  Cu20  1  0.124912  0.124454  0.124397  1
  Cu  Cu21  1  0.623750  0.125627  0.125573  1
  Cu  Cu22  1  0.125694  0.625007  0.125066  1
  Cu  Cu23  1  0.125730  0.124982  0.625008  1
  O  O24  1  0.626441  0.623993  0.624067  1
  O  O25  1  0.124508  0.625906  0.625984  1
  O  O26  1  0.627450  0.124968  0.625013  1
  O  O27  1  0.627467  0.624949  0.125003  1
