# generated using pymatgen
data_Ho5Lu3(SiI6)2
_symmetry_space_group_name_H-M   'P 1'
_cell_length_a   4.18813100
_cell_length_b   13.84091904
_cell_length_c   14.63625436
_cell_angle_alpha   89.90204798
_cell_angle_beta   90.00000000
_cell_angle_gamma   90.00000000
_symmetry_Int_Tables_number   1
_chemical_formula_structural   Ho5Lu3(SiI6)2
_chemical_formula_sum   'Ho5 Lu3 Si2 I12'
_cell_volume   848.42703668
_cell_formula_units_Z   1
loop_
 _symmetry_equiv_pos_site_id
 _symmetry_equiv_pos_as_xyz
  1  'x, y, z'
loop_
 _atom_site_type_symbol
 _atom_site_label
 _atom_site_symmetry_multiplicity
 _atom_site_fract_x
 _atom_site_fract_y
 _atom_site_fract_z
 _atom_site_occupancy
  Ho  Ho0  1  0.500000  0.114476  0.347069  1
  Ho  Ho1  1  0.500000  0.885011  0.652631  1
  Ho  Ho2  1  0.500000  0.614643  0.152607  1
  Ho  Ho3  1  0.500000  0.385561  0.847509  1
  Ho  Ho4  1  0.000000  0.109236  0.573729  1
  Lu  Lu5  1  0.000000  0.891065  0.426636  1
  Lu  Lu6  1  0.000000  0.607961  0.927497  1
  Lu  Lu7  1  0.000000  0.392175  0.072700  1
  Si  Si8  1  0.500000  0.998462  0.498989  1
  Si  Si9  1  0.500000  0.500091  0.000142  1
  I  I10  1  0.500000  0.250668  0.161373  1
  I  I11  1  0.500000  0.748994  0.838374  1
  I  I12  1  0.500000  0.749900  0.337836  1
  I  I13  1  0.500000  0.252935  0.663287  1
  I  I14  1  0.000000  0.260064  0.415041  1
  I  I15  1  0.000000  0.740334  0.582860  1
  I  I16  1  0.000000  0.759307  0.082584  1
  I  I17  1  0.000000  0.240858  0.917524  1
  I  I18  1  0.000000  0.998079  0.240081  1
  I  I19  1  0.000000  0.999771  0.761323  1
  I  I20  1  0.000000  0.497922  0.259396  1
  I  I21  1  0.000000  0.502488  0.740814  1
