# generated using pymatgen
data_YSc5Co17P12Ru
_symmetry_space_group_name_H-M   'P 1'
_cell_length_a   3.61475700
_cell_length_b   10.39401400
_cell_length_c   12.00677900
_cell_angle_alpha   90.00000000
_cell_angle_beta   90.00000000
_cell_angle_gamma   90.00000000
_symmetry_Int_Tables_number   1
_chemical_formula_structural   YSc5Co17P12Ru
_chemical_formula_sum   'Y1 Sc5 Co17 P12 Ru1'
_cell_volume   451.11671784
_cell_formula_units_Z   1
loop_
 _symmetry_equiv_pos_site_id
 _symmetry_equiv_pos_as_xyz
  1  'x, y, z'
loop_
 _atom_site_type_symbol
 _atom_site_label
 _atom_site_symmetry_multiplicity
 _atom_site_fract_x
 _atom_site_fract_y
 _atom_site_fract_z
 _atom_site_occupancy
  Y  Y0  1  0.500000  0.000000  0.475908  1
  Sc  Sc1  1  0.000000  0.500000  0.526383  1
  Sc  Sc2  1  0.500000  0.818226  0.206725  1
  Sc  Sc3  1  0.500000  0.181774  0.206725  1
  Sc  Sc4  1  0.000000  0.680209  0.793043  1
  Sc  Sc5  1  0.000000  0.319791  0.793043  1
  Co  Co6  1  0.000000  0.000000  0.840655  1
  Co  Co7  1  0.500000  0.500000  0.703183  1
  Co  Co8  1  0.000000  0.000000  0.293183  1
  Co  Co9  1  0.000000  0.500000  0.987111  1
  Co  Co10  1  0.500000  0.000000  0.013294  1
  Co  Co11  1  0.500000  0.332374  0.990071  1
  Co  Co12  1  0.500000  0.667626  0.990071  1
  Co  Co13  1  0.000000  0.167260  0.006214  1
  Co  Co14  1  0.000000  0.832740  0.006214  1
  Co  Co15  1  0.500000  0.299738  0.431316  1
  Co  Co16  1  0.500000  0.700262  0.431316  1
  Co  Co17  1  0.000000  0.205492  0.568960  1
  Co  Co18  1  0.000000  0.794508  0.568960  1
  Co  Co19  1  0.500000  0.875769  0.709534  1
  Co  Co20  1  0.500000  0.124231  0.709534  1
  Co  Co21  1  0.000000  0.622363  0.292510  1
  Co  Co22  1  0.000000  0.377637  0.292510  1
  P  P23  1  0.500000  0.500000  0.878919  1
  P  P24  1  0.000000  0.000000  0.117988  1
  P  P25  1  0.500000  0.500000  0.355970  1
  P  P26  1  0.000000  0.000000  0.655305  1
  P  P27  1  0.500000  0.315561  0.618499  1
  P  P28  1  0.500000  0.684439  0.618499  1
  P  P29  1  0.000000  0.187519  0.380377  1
  P  P30  1  0.000000  0.812481  0.380377  1
  P  P31  1  0.500000  0.845509  0.889773  1
  P  P32  1  0.500000  0.154491  0.889773  1
  P  P33  1  0.000000  0.657804  0.108655  1
  P  P34  1  0.000000  0.342196  0.108655  1
  Ru  Ru35  1  0.500000  0.500000  0.160750  1
