# generated using pymatgen
data_Nd8DyEr11Pb16
_symmetry_space_group_name_H-M   'P 1'
_cell_length_a   8.26494432
_cell_length_b   8.36219233
_cell_length_c   15.74799302
_cell_angle_alpha   89.99487974
_cell_angle_beta   90.00015195
_cell_angle_gamma   89.96807696
_symmetry_Int_Tables_number   1
_chemical_formula_structural   Nd8DyEr11Pb16
_chemical_formula_sum   'Nd8 Dy1 Er11 Pb16'
_cell_volume   1088.39171888
_cell_formula_units_Z   1
loop_
 _symmetry_equiv_pos_site_id
 _symmetry_equiv_pos_as_xyz
  1  'x, y, z'
loop_
 _atom_site_type_symbol
 _atom_site_label
 _atom_site_symmetry_multiplicity
 _atom_site_fract_x
 _atom_site_fract_y
 _atom_site_fract_z
 _atom_site_occupancy
  Nd  Nd0  1  0.469707  0.678356  0.599480  1
  Nd  Nd1  1  0.969728  0.821502  0.900546  1
  Nd  Nd2  1  0.530322  0.321551  0.099476  1
  Nd  Nd3  1  0.030241  0.178379  0.400542  1
  Nd  Nd4  1  0.530229  0.321613  0.400390  1
  Nd  Nd5  1  0.030301  0.178475  0.099478  1
  Nd  Nd6  1  0.469685  0.678433  0.900562  1
  Nd  Nd7  1  0.969799  0.821471  0.599448  1
  Dy  Dy8  1  0.626587  0.160304  0.620936  1
  Er  Er9  1  0.126593  0.339791  0.879018  1
  Er  Er10  1  0.373350  0.839758  0.121008  1
  Er  Er11  1  0.873359  0.660223  0.378952  1
  Er  Er12  1  0.373386  0.839834  0.379030  1
  Er  Er13  1  0.873329  0.660210  0.120991  1
  Er  Er14  1  0.626625  0.160203  0.879038  1
  Er  Er15  1  0.126681  0.339755  0.621016  1
  Er  Er16  1  0.794466  0.494355  0.750077  1
  Er  Er17  1  0.294199  0.005780  0.750063  1
  Er  Er18  1  0.205663  0.505816  0.250012  1
  Er  Er19  1  0.705667  0.994135  0.249990  1
  Pb  Pb20  1  0.712723  0.963495  0.456293  1
  Pb  Pb21  1  0.212598  0.536233  0.043449  1
  Pb  Pb22  1  0.287434  0.036202  0.956575  1
  Pb  Pb23  1  0.787702  0.464299  0.543350  1
  Pb  Pb24  1  0.286916  0.036059  0.543350  1
  Pb  Pb25  1  0.787419  0.463787  0.956573  1
  Pb  Pb26  1  0.712592  0.963787  0.043429  1
  Pb  Pb27  1  0.212579  0.536223  0.456559  1
  Pb  Pb28  1  0.430547  0.371169  0.750152  1
  Pb  Pb29  1  0.931022  0.129085  0.750113  1
  Pb  Pb30  1  0.569189  0.629094  0.249993  1
  Pb  Pb31  1  0.069245  0.870918  0.249992  1
  Pb  Pb32  1  0.660065  0.852020  0.750107  1
  Pb  Pb33  1  0.160099  0.647665  0.750008  1
  Pb  Pb34  1  0.339996  0.147733  0.249998  1
  Pb  Pb35  1  0.839958  0.352284  0.250006  1
