# generated using pymatgen
data_Nb8AlNiTe8
_symmetry_space_group_name_H-M   'P 1'
_cell_length_a   4.87718600
_cell_length_b   11.01064717
_cell_length_c   19.27389401
_cell_angle_alpha   90.00846454
_cell_angle_beta   90.00000000
_cell_angle_gamma   90.00000000
_symmetry_Int_Tables_number   1
_chemical_formula_structural   Nb8AlNiTe8
_chemical_formula_sum   'Nb16 Al2 Ni2 Te16'
_cell_volume   1035.02687362
_cell_formula_units_Z   2
loop_
 _symmetry_equiv_pos_site_id
 _symmetry_equiv_pos_as_xyz
  1  'x, y, z'
loop_
 _atom_site_type_symbol
 _atom_site_label
 _atom_site_symmetry_multiplicity
 _atom_site_fract_x
 _atom_site_fract_y
 _atom_site_fract_z
 _atom_site_occupancy
  Nb  Nb0  1  0.500202  0.565063  0.382348  1
  Nb  Nb1  1  0.500202  0.434937  0.617652  1
  Nb  Nb2  1  0.499749  0.065169  0.117636  1
  Nb  Nb3  1  0.499749  0.934831  0.882364  1
  Nb  Nb4  1  0.502052  0.706771  0.537155  1
  Nb  Nb5  1  0.502052  0.293229  0.462845  1
  Nb  Nb6  1  0.501707  0.206537  0.962799  1
  Nb  Nb7  1  0.501707  0.793463  0.037201  1
  Nb  Nb8  1  0.999342  0.692167  0.442884  1
  Nb  Nb9  1  0.999342  0.307833  0.557116  1
  Nb  Nb10  1  0.998963  0.192138  0.057160  1
  Nb  Nb11  1  0.998963  0.807862  0.942840  1
  Nb  Nb12  1  0.998453  0.399843  0.390592  1
  Nb  Nb13  1  0.998453  0.600157  0.609408  1
  Nb  Nb14  1  0.999575  0.900240  0.109451  1
  Nb  Nb15  1  0.999575  0.099760  0.890549  1
  Al  Al16  1  0.750199  0.000000  0.000000  1
  Al  Al17  1  0.750059  0.500000  0.500000  1
  Ni  Ni18  1  0.250196  0.000000  0.000000  1
  Ni  Ni19  1  0.250137  0.500000  0.500000  1
  Te  Te20  1  0.006929  0.845372  0.561976  1
  Te  Te21  1  0.006929  0.154628  0.438024  1
  Te  Te22  1  0.005859  0.344748  0.937839  1
  Te  Te23  1  0.005859  0.655252  0.062161  1
  Te  Te24  1  0.492818  0.333465  0.317039  1
  Te  Te25  1  0.492818  0.666535  0.682961  1
  Te  Te26  1  0.494448  0.833839  0.182948  1
  Te  Te27  1  0.494448  0.166161  0.817052  1
  Te  Te28  1  0.493666  0.820971  0.404525  1
  Te  Te29  1  0.493666  0.179029  0.595475  1
  Te  Te30  1  0.494384  0.320879  0.095364  1
  Te  Te31  1  0.494384  0.679121  0.904636  1
  Te  Te32  1  0.006375  0.608416  0.303324  1
  Te  Te33  1  0.006375  0.391584  0.696676  1
  Te  Te34  1  0.005184  0.108513  0.196727  1
  Te  Te35  1  0.005184  0.891487  0.803273  1
