# generated using pymatgen
data_Ce2CdRuAu
_symmetry_space_group_name_H-M   'P 1'
_cell_length_a   7.90611700
_cell_length_b   7.81182400
_cell_length_c   3.78733300
_cell_angle_alpha   90.00000000
_cell_angle_beta   90.00000000
_cell_angle_gamma   90.00000000
_symmetry_Int_Tables_number   1
_chemical_formula_structural   Ce2CdRuAu
_chemical_formula_sum   'Ce4 Cd2 Ru2 Au2'
_cell_volume   233.91021015
_cell_formula_units_Z   2
loop_
 _symmetry_equiv_pos_site_id
 _symmetry_equiv_pos_as_xyz
  1  'x, y, z'
loop_
 _atom_site_type_symbol
 _atom_site_label
 _atom_site_symmetry_multiplicity
 _atom_site_fract_x
 _atom_site_fract_y
 _atom_site_fract_z
 _atom_site_occupancy
  Ce  Ce0  1  0.169410  0.356877  0.500000  1
  Ce  Ce1  1  0.316382  0.804851  0.500000  1
  Ce  Ce2  1  0.816382  0.695149  0.500000  1
  Ce  Ce3  1  0.669410  0.143123  0.500000  1
  Cd  Cd4  1  0.501318  0.497670  0.000000  1
  Cd  Cd5  1  0.001318  0.002330  0.000000  1
  Ru  Ru6  1  0.651434  0.867495  0.000000  1
  Ru  Ru7  1  0.151434  0.632505  0.000000  1
  Au  Au8  1  0.861457  0.381449  0.000000  1
  Au  Au9  1  0.361457  0.118551  0.000000  1
