# generated using pymatgen
data_Lu12Fe3SnIr
_symmetry_space_group_name_H-M   'P 1'
_cell_length_a   8.07151285
_cell_length_b   8.07151188
_cell_length_c   8.07151300
_cell_angle_alpha   107.18000441
_cell_angle_beta   110.71033010
_cell_angle_gamma   110.54738257
_symmetry_Int_Tables_number   1
_chemical_formula_structural   Lu12Fe3SnIr
_chemical_formula_sum   'Lu12 Fe3 Sn1 Ir1'
_cell_volume   404.31829099
_cell_formula_units_Z   1
loop_
 _symmetry_equiv_pos_site_id
 _symmetry_equiv_pos_as_xyz
  1  'x, y, z'
loop_
 _atom_site_type_symbol
 _atom_site_label
 _atom_site_symmetry_multiplicity
 _atom_site_fract_x
 _atom_site_fract_y
 _atom_site_fract_z
 _atom_site_occupancy
  Lu  Lu0  1  0.313060  0.304104  0.617164  1
  Lu  Lu1  1  0.686940  0.695896  0.382836  1
  Lu  Lu2  1  0.686940  0.304104  0.991043  1
  Lu  Lu3  1  0.313060  0.695896  0.008957  1
  Lu  Lu4  1  0.188570  0.405770  0.217198  1
  Lu  Lu5  1  0.811430  0.594230  0.782802  1
  Lu  Lu6  1  0.188570  0.971371  0.782802  1
  Lu  Lu7  1  0.917085  0.190914  0.726172  1
  Lu  Lu8  1  0.811430  0.028629  0.217198  1
  Lu  Lu9  1  0.082915  0.809086  0.273828  1
  Lu  Lu10  1  0.464743  0.190914  0.273828  1
  Lu  Lu11  1  0.535257  0.809086  0.726172  1
  Fe  Fe12  1  0.382343  0.382343  0.000000  1
  Fe  Fe13  1  0.617657  0.617657  0.000000  1
  Fe  Fe14  1  0.000000  0.000000  0.000000  1
  Sn  Sn15  1  0.000000  0.500000  0.500000  1
  Ir  Ir16  1  0.500000  0.000000  0.500000  1
