# generated using pymatgen
data_Nd2YEr3CoI10
_symmetry_space_group_name_H-M   'P 1'
_cell_length_a   7.72373043
_cell_length_b   9.72047434
_cell_length_c   9.69842701
_cell_angle_alpha   106.93868853
_cell_angle_beta   96.43405738
_cell_angle_gamma   105.18165702
_symmetry_Int_Tables_number   1
_chemical_formula_structural   Nd2YEr3CoI10
_chemical_formula_sum   'Nd2 Y1 Er3 Co1 I10'
_cell_volume   658.10377954
_cell_formula_units_Z   1
loop_
 _symmetry_equiv_pos_site_id
 _symmetry_equiv_pos_as_xyz
  1  'x, y, z'
loop_
 _atom_site_type_symbol
 _atom_site_label
 _atom_site_symmetry_multiplicity
 _atom_site_fract_x
 _atom_site_fract_y
 _atom_site_fract_z
 _atom_site_occupancy
  Nd  Nd0  1  0.886415  0.957931  0.231158  1
  Nd  Nd1  1  0.112039  0.041338  0.768098  1
  Y  Y2  1  0.344889  0.123310  0.163129  1
  Er  Er3  1  0.028709  0.719862  0.915600  1
  Er  Er4  1  0.970673  0.280098  0.083994  1
  Er  Er5  1  0.658810  0.877464  0.838127  1
  Co  Co6  1  0.999014  0.999587  0.999563  1
  I  I7  1  0.650065  0.551498  0.729293  1
  I  I8  1  0.348936  0.449906  0.270807  1
  I  I9  1  0.732114  0.909708  0.540688  1
  I  I10  1  0.266706  0.089896  0.460158  1
  I  I11  1  0.083796  0.377766  0.823363  1
  I  I12  1  0.916242  0.622252  0.176606  1
  I  I13  1  0.448065  0.814511  0.089368  1
  I  I14  1  0.551922  0.184220  0.909110  1
  I  I15  1  0.224567  0.738114  0.656703  1
  I  I16  1  0.777038  0.262539  0.344235  1
