# generated using pymatgen
data_PrNd3Ga4(PtRh)2
_symmetry_space_group_name_H-M   'P 1'
_cell_length_a   4.48346000
_cell_length_b   7.09561203
_cell_length_c   7.85898903
_cell_angle_alpha   89.98961707
_cell_angle_beta   90.00043597
_cell_angle_gamma   90.00022808
_symmetry_Int_Tables_number   1
_chemical_formula_structural   PrNd3Ga4(PtRh)2
_chemical_formula_sum   'Pr1 Nd3 Ga4 Pt2 Rh2'
_cell_volume   250.01717077
_cell_formula_units_Z   1
loop_
 _symmetry_equiv_pos_site_id
 _symmetry_equiv_pos_as_xyz
  1  'x, y, z'
loop_
 _atom_site_type_symbol
 _atom_site_label
 _atom_site_symmetry_multiplicity
 _atom_site_fract_x
 _atom_site_fract_y
 _atom_site_fract_z
 _atom_site_occupancy
  Pr  Pr0  1  0.749999  0.975019  0.309121  1
  Nd  Nd1  1  0.250004  0.030403  0.684963  1
  Nd  Nd2  1  0.250001  0.530322  0.815405  1
  Nd  Nd3  1  0.749999  0.474742  0.191019  1
  Ga  Ga4  1  0.250001  0.153692  0.071247  1
  Ga  Ga5  1  0.250000  0.653013  0.428481  1
  Ga  Ga6  1  0.750000  0.842191  0.932991  1
  Ga  Ga7  1  0.750001  0.342573  0.566775  1
  Pt  Pt8  1  0.750000  0.720064  0.611551  1
  Pt  Pt9  1  0.750001  0.220624  0.888801  1
  Rh  Rh10  1  0.250000  0.278995  0.390992  1
  Rh  Rh11  1  0.249993  0.778362  0.108653  1
