# generated using pymatgen
data_TbTm3Ga4(IrPt)2
_symmetry_space_group_name_H-M   'P 1'
_cell_length_a   4.39248200
_cell_length_b   6.76927521
_cell_length_c   7.72853590
_cell_angle_alpha   89.49753500
_cell_angle_beta   90.00000000
_cell_angle_gamma   90.00000000
_symmetry_Int_Tables_number   1
_chemical_formula_structural   TbTm3Ga4(IrPt)2
_chemical_formula_sum   'Tb1 Tm3 Ga4 Ir2 Pt2'
_cell_volume   229.79082784
_cell_formula_units_Z   1
loop_
 _symmetry_equiv_pos_site_id
 _symmetry_equiv_pos_as_xyz
  1  'x, y, z'
loop_
 _atom_site_type_symbol
 _atom_site_label
 _atom_site_symmetry_multiplicity
 _atom_site_fract_x
 _atom_site_fract_y
 _atom_site_fract_z
 _atom_site_occupancy
  Tb  Tb0  1  0.250000  0.975367  0.313921  1
  Tm  Tm1  1  0.250000  0.474190  0.184547  1
  Tm  Tm2  1  0.750000  0.019382  0.693045  1
  Tm  Tm3  1  0.750000  0.517846  0.807608  1
  Ga  Ga4  1  0.250000  0.345171  0.570854  1
  Ga  Ga5  1  0.250000  0.843182  0.928910  1
  Ga  Ga6  1  0.750000  0.661489  0.434705  1
  Ga  Ga7  1  0.750000  0.161338  0.066027  1
  Ir  Ir8  1  0.250000  0.232350  0.890641  1
  Ir  Ir9  1  0.250000  0.731881  0.612265  1
  Pt  Pt10  1  0.750000  0.764969  0.107092  1
  Pt  Pt11  1  0.750000  0.272839  0.390386  1
