# generated using pymatgen
data_Y8Ho2IrRu3
_symmetry_space_group_name_H-M   'P 1'
_cell_length_a   6.38690740
_cell_length_b   7.33191561
_cell_length_c   8.51594674
_cell_angle_alpha   96.85061312
_cell_angle_beta   112.14342091
_cell_angle_gamma   90.01066446
_symmetry_Int_Tables_number   1
_chemical_formula_structural   Y8Ho2IrRu3
_chemical_formula_sum   'Y8 Ho2 Ir1 Ru3'
_cell_volume   366.29446465
_cell_formula_units_Z   1
loop_
 _symmetry_equiv_pos_site_id
 _symmetry_equiv_pos_as_xyz
  1  'x, y, z'
loop_
 _atom_site_type_symbol
 _atom_site_label
 _atom_site_symmetry_multiplicity
 _atom_site_fract_x
 _atom_site_fract_y
 _atom_site_fract_z
 _atom_site_occupancy
  Y  Y0  1  0.978448  0.917557  0.185158  1
  Y  Y1  1  0.791599  0.585386  0.813170  1
  Y  Y2  1  0.022067  0.084989  0.814273  1
  Y  Y3  1  0.209504  0.414069  0.185141  1
  Y  Y4  1  0.640727  0.816140  0.435078  1
  Y  Y5  1  0.207987  0.684446  0.566662  1
  Y  Y6  1  0.358474  0.184851  0.565723  1
  Y  Y7  1  0.792799  0.314013  0.435809  1
  Ho  Ho8  1  0.421687  0.749990  0.999841  1
  Ho  Ho9  1  0.577212  0.248855  0.998850  1
  Ir  Ir10  1  0.819133  0.575331  0.218866  1
  Ru  Ru11  1  0.603217  0.923953  0.782011  1
  Ru  Ru12  1  0.178603  0.425568  0.781443  1
  Ru  Ru13  1  0.398543  0.074854  0.217977  1
