# generated using pymatgen
data_Tm8ZrSi16W11
_symmetry_space_group_name_H-M   'P 1'
_cell_length_a   6.73039532
_cell_length_b   6.92961045
_cell_length_c   12.98429825
_cell_angle_alpha   89.93291886
_cell_angle_beta   89.95694780
_cell_angle_gamma   89.98381106
_symmetry_Int_Tables_number   1
_chemical_formula_structural   Tm8ZrSi16W11
_chemical_formula_sum   'Tm8 Zr1 Si16 W11'
_cell_volume   605.57430629
_cell_formula_units_Z   1
loop_
 _symmetry_equiv_pos_site_id
 _symmetry_equiv_pos_as_xyz
  1  'x, y, z'
loop_
 _atom_site_type_symbol
 _atom_site_label
 _atom_site_symmetry_multiplicity
 _atom_site_fract_x
 _atom_site_fract_y
 _atom_site_fract_z
 _atom_site_occupancy
  Tm  Tm0  1  0.998106  0.170684  0.093458  1
  Tm  Tm1  1  0.002751  0.831931  0.904787  1
  Tm  Tm2  1  0.500717  0.667170  0.906143  1
  Tm  Tm3  1  0.003700  0.830530  0.593268  1
  Tm  Tm4  1  0.498871  0.328220  0.094388  1
  Tm  Tm5  1  0.997654  0.171626  0.408604  1
  Tm  Tm6  1  0.497577  0.328658  0.408195  1
  Tm  Tm7  1  0.502940  0.668544  0.593387  1
  Zr  Zr8  1  0.168836  0.668983  0.124146  1
  Si  Si9  1  0.033155  0.126280  0.748831  1
  Si  Si10  1  0.964142  0.880484  0.254701  1
  Si  Si11  1  0.472434  0.625260  0.253585  1
  Si  Si12  1  0.530820  0.372206  0.748630  1
  Si  Si13  1  0.300797  0.864131  0.749274  1
  Si  Si14  1  0.702470  0.136282  0.250778  1
  Si  Si15  1  0.203639  0.361158  0.251339  1
  Si  Si16  1  0.799344  0.635256  0.749793  1
  Si  Si17  1  0.163931  0.457087  0.545309  1
  Si  Si18  1  0.835842  0.543763  0.456807  1
  Si  Si19  1  0.336384  0.957821  0.455630  1
  Si  Si20  1  0.828165  0.541252  0.041045  1
  Si  Si21  1  0.662455  0.040732  0.547429  1
  Si  Si22  1  0.160447  0.454046  0.949341  1
  Si  Si23  1  0.662702  0.039512  0.953304  1
  Si  Si24  1  0.342547  0.967399  0.041638  1
  W  W25  1  0.159770  0.496142  0.748230  1
  W  W26  1  0.841075  0.505872  0.252795  1
  W  W27  1  0.338707  0.999555  0.253237  1
  W  W28  1  0.665631  0.998256  0.749291  1
  W  W29  1  0.329014  0.162444  0.624201  1
  W  W30  1  0.668722  0.837701  0.376852  1
  W  W31  1  0.169137  0.660543  0.377914  1
  W  W32  1  0.670557  0.834194  0.125325  1
  W  W33  1  0.828653  0.338272  0.624687  1
  W  W34  1  0.333682  0.163160  0.870716  1
  W  W35  1  0.824626  0.334842  0.872945  1
