# generated using pymatgen
data_DyEr4Zr3(Ni4P3)4
_symmetry_space_group_name_H-M   'P 1'
_cell_length_a   12.32011400
_cell_length_b   12.32011526
_cell_length_c   3.78962700
_cell_angle_alpha   90.00000000
_cell_angle_beta   90.00000000
_cell_angle_gamma   120.00000736
_symmetry_Int_Tables_number   1
_chemical_formula_structural   DyEr4Zr3(Ni4P3)4
_chemical_formula_sum   'Dy1 Er4 Zr3 Ni16 P12'
_cell_volume   498.14590285
_cell_formula_units_Z   1
loop_
 _symmetry_equiv_pos_site_id
 _symmetry_equiv_pos_as_xyz
  1  'x, y, z'
loop_
 _atom_site_type_symbol
 _atom_site_label
 _atom_site_symmetry_multiplicity
 _atom_site_fract_x
 _atom_site_fract_y
 _atom_site_fract_z
 _atom_site_occupancy
  Dy  Dy0  1  0.666667  0.333333  0.000000  1
  Er  Er1  1  0.183773  0.183843  0.500000  1
  Er  Er2  1  0.816157  0.999930  0.500000  1
  Er  Er3  1  0.000070  0.816227  0.500000  1
  Er  Er4  1  0.333333  0.666667  0.000000  1
  Zr  Zr5  1  0.560655  0.560841  0.000000  1
  Zr  Zr6  1  0.439159  0.999813  0.000000  1
  Zr  Zr7  1  0.000187  0.439345  0.000000  1
  Ni  Ni8  1  0.726885  0.727014  0.500000  1
  Ni  Ni9  1  0.272986  0.999871  0.500000  1
  Ni  Ni10  1  0.000129  0.273115  0.500000  1
  Ni  Ni11  1  0.185250  0.376164  0.000000  1
  Ni  Ni12  1  0.623836  0.809085  0.000000  1
  Ni  Ni13  1  0.190915  0.814750  0.000000  1
  Ni  Ni14  1  0.809211  0.624174  0.000000  1
  Ni  Ni15  1  0.814963  0.190789  0.000000  1
  Ni  Ni16  1  0.375826  0.185037  0.000000  1
  Ni  Ni17  1  0.359488  0.484469  0.500000  1
  Ni  Ni18  1  0.515531  0.875021  0.500000  1
  Ni  Ni19  1  0.124979  0.640512  0.500000  1
  Ni  Ni20  1  0.875707  0.516135  0.500000  1
  Ni  Ni21  1  0.640429  0.124293  0.500000  1
  Ni  Ni22  1  0.483865  0.359571  0.500000  1
  Ni  Ni23  1  0.000000  0.000000  0.000000  1
  P  P24  1  0.822617  0.822639  0.000000  1
  P  P25  1  0.177361  0.999978  0.000000  1
  P  P26  1  0.000022  0.177383  0.000000  1
  P  P27  1  0.171223  0.476996  0.500000  1
  P  P28  1  0.523004  0.694227  0.500000  1
  P  P29  1  0.305773  0.828777  0.500000  1
  P  P30  1  0.694370  0.523745  0.500000  1
  P  P31  1  0.829376  0.305630  0.500000  1
  P  P32  1  0.476255  0.170624  0.500000  1
  P  P33  1  0.355008  0.354908  0.000000  1
  P  P34  1  0.645092  0.000099  0.000000  1
  P  P35  1  0.999901  0.644992  0.000000  1
