# generated using pymatgen
data_CeLu19(CoBi2)4
_symmetry_space_group_name_H-M   'P 1'
_cell_length_a   7.77357722
_cell_length_b   8.81086500
_cell_length_c   12.17263200
_cell_angle_alpha   90.00000000
_cell_angle_beta   90.01373139
_cell_angle_gamma   90.00000000
_symmetry_Int_Tables_number   1
_chemical_formula_structural   CeLu19(CoBi2)4
_chemical_formula_sum   'Ce1 Lu19 Co4 Bi8'
_cell_volume   833.72715033
_cell_formula_units_Z   1
loop_
 _symmetry_equiv_pos_site_id
 _symmetry_equiv_pos_as_xyz
  1  'x, y, z'
loop_
 _atom_site_type_symbol
 _atom_site_label
 _atom_site_symmetry_multiplicity
 _atom_site_fract_x
 _atom_site_fract_y
 _atom_site_fract_z
 _atom_site_occupancy
  Ce  Ce0  1  0.897333  0.750000  0.824729  1
  Lu  Lu1  1  0.147726  0.750000  0.194334  1
  Lu  Lu2  1  0.652607  0.250000  0.297114  1
  Lu  Lu3  1  0.844336  0.250000  0.797047  1
  Lu  Lu4  1  0.349190  0.750000  0.701109  1
  Lu  Lu5  1  0.442074  0.750000  0.994623  1
  Lu  Lu6  1  0.939128  0.250000  0.501383  1
  Lu  Lu7  1  0.556180  0.250000  0.003004  1
  Lu  Lu8  1  0.063904  0.750000  0.498340  1
  Lu  Lu9  1  0.612364  0.750000  0.315271  1
  Lu  Lu10  1  0.112695  0.250000  0.186105  1
  Lu  Lu11  1  0.389604  0.250000  0.685946  1
  Lu  Lu12  1  0.822147  0.966516  0.068301  1
  Lu  Lu13  1  0.329203  0.040126  0.436385  1
  Lu  Lu14  1  0.175132  0.446231  0.936399  1
  Lu  Lu15  1  0.673905  0.540718  0.564667  1
  Lu  Lu16  1  0.175132  0.053769  0.936399  1
  Lu  Lu17  1  0.673905  0.959282  0.564667  1
  Lu  Lu18  1  0.822147  0.533484  0.068301  1
  Lu  Lu19  1  0.329203  0.459874  0.436385  1
  Co  Co20  1  0.432264  0.750000  0.494104  1
  Co  Co21  1  0.925766  0.250000  0.007782  1
  Co  Co22  1  0.571245  0.250000  0.506299  1
  Co  Co23  1  0.061255  0.750000  0.981710  1
  Bi  Bi24  1  0.932048  0.989124  0.327677  1
  Bi  Bi25  1  0.426198  0.006647  0.171356  1
  Bi  Bi26  1  0.073151  0.488411  0.671934  1
  Bi  Bi27  1  0.569379  0.508877  0.828830  1
  Bi  Bi28  1  0.073151  0.011589  0.671934  1
  Bi  Bi29  1  0.569379  0.991123  0.828830  1
  Bi  Bi30  1  0.932048  0.510876  0.327677  1
  Bi  Bi31  1  0.426198  0.493353  0.171356  1
