# generated using pymatgen
data_LaPr4ScRuO12
_symmetry_space_group_name_H-M   'P 1'
_cell_length_a   7.16945138
_cell_length_b   7.16945135
_cell_length_c   7.72327996
_cell_angle_alpha   74.43883019
_cell_angle_beta   74.43882710
_cell_angle_gamma   50.52453253
_symmetry_Int_Tables_number   1
_chemical_formula_structural   LaPr4ScRuO12
_chemical_formula_sum   'La1 Pr4 Sc1 Ru1 O12'
_cell_volume   292.63884824
_cell_formula_units_Z   1
loop_
 _symmetry_equiv_pos_site_id
 _symmetry_equiv_pos_as_xyz
  1  'x, y, z'
loop_
 _atom_site_type_symbol
 _atom_site_label
 _atom_site_symmetry_multiplicity
 _atom_site_fract_x
 _atom_site_fract_y
 _atom_site_fract_z
 _atom_site_occupancy
  La  La0  1  0.008530  0.991470  0.500000  1
  Pr  Pr1  1  0.309295  0.300612  0.358051  1
  Pr  Pr2  1  0.699388  0.690705  0.641949  1
  Pr  Pr3  1  0.689235  0.696951  0.166084  1
  Pr  Pr4  1  0.303049  0.310765  0.833916  1
  Sc  Sc5  1  0.755342  0.244658  0.000000  1
  Ru  Ru6  1  0.242804  0.757196  0.000000  1
  O  O7  1  0.095875  0.596829  0.573751  1
  O  O8  1  0.019542  0.979059  0.176913  1
  O  O9  1  0.403171  0.904125  0.426249  1
  O  O10  1  0.485959  0.515946  0.177203  1
  O  O11  1  0.103080  0.587165  0.078570  1
  O  O12  1  0.907626  0.404568  0.420404  1
  O  O13  1  0.020941  0.980458  0.823087  1
  O  O14  1  0.595432  0.092373  0.579596  1
  O  O15  1  0.484054  0.514041  0.822797  1
  O  O16  1  0.564930  0.101088  0.081215  1
  O  O17  1  0.412835  0.896920  0.921430  1
  O  O18  1  0.898912  0.435070  0.918785  1
