# generated using pymatgen
data_Tb6Ho9Er(CdPt)4
_symmetry_space_group_name_H-M   'P 1'
_cell_length_a   9.67643800
_cell_length_b   9.67643757
_cell_length_c   9.66251700
_cell_angle_alpha   60.04758068
_cell_angle_beta   60.04758215
_cell_angle_gamma   60.05255418
_symmetry_Int_Tables_number   1
_chemical_formula_structural   Tb6Ho9Er(CdPt)4
_chemical_formula_sum   'Tb6 Ho9 Er1 Cd4 Pt4'
_cell_volume   640.45806827
_cell_formula_units_Z   1
loop_
 _symmetry_equiv_pos_site_id
 _symmetry_equiv_pos_as_xyz
  1  'x, y, z'
loop_
 _atom_site_type_symbol
 _atom_site_label
 _atom_site_symmetry_multiplicity
 _atom_site_fract_x
 _atom_site_fract_y
 _atom_site_fract_z
 _atom_site_occupancy
  Tb  Tb0  1  0.936742  0.563255  0.563947  1
  Tb  Tb1  1  0.563255  0.936742  0.936056  1
  Tb  Tb2  1  0.563255  0.936742  0.563947  1
  Tb  Tb3  1  0.936742  0.563255  0.936056  1
  Tb  Tb4  1  0.564640  0.564640  0.935360  1
  Tb  Tb5  1  0.937480  0.937480  0.562520  1
  Ho  Ho6  1  0.352022  0.352022  0.349818  1
  Ho  Ho7  1  0.352022  0.352022  0.946139  1
  Ho  Ho8  1  0.354731  0.941257  0.352006  1
  Ho  Ho9  1  0.941257  0.354731  0.352006  1
  Ho  Ho10  1  0.811133  0.188548  0.190029  1
  Ho  Ho11  1  0.188548  0.811133  0.810290  1
  Ho  Ho12  1  0.188548  0.811133  0.190029  1
  Ho  Ho13  1  0.811133  0.188548  0.810290  1
  Ho  Ho14  1  0.190202  0.190202  0.809798  1
  Er  Er15  1  0.811290  0.811290  0.188710  1
  Cd  Cd16  1  0.580935  0.580935  0.581374  1
  Cd  Cd17  1  0.580935  0.580935  0.256755  1
  Cd  Cd18  1  0.581159  0.255204  0.581818  1
  Cd  Cd19  1  0.255204  0.581159  0.581818  1
  Pt  Pt20  1  0.143207  0.143207  0.144883  1
  Pt  Pt21  1  0.143207  0.143207  0.568703  1
  Pt  Pt22  1  0.141207  0.571147  0.143823  1
  Pt  Pt23  1  0.571147  0.141207  0.143823  1
