# generated using pymatgen
data_Zr8In4Rh3Au5
_symmetry_space_group_name_H-M   'P 1'
_cell_length_a   7.60912556
_cell_length_b   7.60912556
_cell_length_c   7.01277977
_cell_angle_alpha   90.03736919
_cell_angle_beta   90.03736919
_cell_angle_gamma   90.41192439
_symmetry_Int_Tables_number   1
_chemical_formula_structural   Zr8In4Rh3Au5
_chemical_formula_sum   'Zr8 In4 Rh3 Au5'
_cell_volume   406.02080821
_cell_formula_units_Z   1
loop_
 _symmetry_equiv_pos_site_id
 _symmetry_equiv_pos_as_xyz
  1  'x, y, z'
loop_
 _atom_site_type_symbol
 _atom_site_label
 _atom_site_symmetry_multiplicity
 _atom_site_fract_x
 _atom_site_fract_y
 _atom_site_fract_z
 _atom_site_occupancy
  Zr  Zr0  1  0.150740  0.150740  0.007136  1
  Zr  Zr1  1  0.834968  0.834968  0.997351  1
  Zr  Zr2  1  0.647421  0.358609  0.492781  1
  Zr  Zr3  1  0.358609  0.647421  0.492781  1
  Zr  Zr4  1  0.683128  0.330347  0.006186  1
  Zr  Zr5  1  0.330347  0.683128  0.006186  1
  Zr  Zr6  1  0.800854  0.800854  0.501200  1
  Zr  Zr7  1  0.198004  0.198004  0.489974  1
  In  In8  1  0.501076  0.003470  0.246483  1
  In  In9  1  0.500181  0.995446  0.751357  1
  In  In10  1  0.003470  0.501076  0.246483  1
  In  In11  1  0.995446  0.500181  0.751357  1
  Rh  Rh12  1  0.368204  0.368204  0.217171  1
  Rh  Rh13  1  0.629492  0.629492  0.777290  1
  Rh  Rh14  1  0.632816  0.632816  0.219671  1
  Au  Au15  1  0.869234  0.130438  0.712861  1
  Au  Au16  1  0.868650  0.128044  0.288797  1
  Au  Au17  1  0.368877  0.368877  0.793278  1
  Au  Au18  1  0.128044  0.868650  0.288797  1
  Au  Au19  1  0.130438  0.869234  0.712861  1
