# generated using pymatgen
data_CeEr5Tc2
_symmetry_space_group_name_H-M   'P 1'
_cell_length_a   7.33320137
_cell_length_b   9.25810400
_cell_length_c   6.25990817
_cell_angle_alpha   90.00000000
_cell_angle_beta   87.93688957
_cell_angle_gamma   90.00000000
_symmetry_Int_Tables_number   1
_chemical_formula_structural   CeEr5Tc2
_chemical_formula_sum   'Ce2 Er10 Tc4'
_cell_volume   424.71932126
_cell_formula_units_Z   2
loop_
 _symmetry_equiv_pos_site_id
 _symmetry_equiv_pos_as_xyz
  1  'x, y, z'
loop_
 _atom_site_type_symbol
 _atom_site_label
 _atom_site_symmetry_multiplicity
 _atom_site_fract_x
 _atom_site_fract_y
 _atom_site_fract_z
 _atom_site_occupancy
  Ce  Ce0  1  0.058116  0.250000  0.646504  1
  Ce  Ce1  1  0.941884  0.750000  0.353496  1
  Er  Er2  1  0.460487  0.750000  0.127703  1
  Er  Er3  1  0.539513  0.250000  0.872297  1
  Er  Er4  1  0.174665  0.063856  0.167575  1
  Er  Er5  1  0.825335  0.936144  0.832425  1
  Er  Er6  1  0.325579  0.933633  0.665473  1
  Er  Er7  1  0.825335  0.563856  0.832425  1
  Er  Er8  1  0.674421  0.066367  0.334527  1
  Er  Er9  1  0.174665  0.436144  0.167575  1
  Er  Er10  1  0.674421  0.433633  0.334527  1
  Er  Er11  1  0.325579  0.566367  0.665473  1
  Tc  Tc12  1  0.361630  0.250000  0.482475  1
  Tc  Tc13  1  0.638370  0.750000  0.517525  1
  Tc  Tc14  1  0.111210  0.750000  0.001538  1
  Tc  Tc15  1  0.888790  0.250000  0.998462  1
