# generated using pymatgen
data_La2Nd14Cd4Ni3Ir
_symmetry_space_group_name_H-M   'P 1'
_cell_length_a   9.92307995
_cell_length_b   9.92307988
_cell_length_c   9.92617929
_cell_angle_alpha   59.69751293
_cell_angle_beta   59.69751103
_cell_angle_gamma   59.71403561
_symmetry_Int_Tables_number   1
_chemical_formula_structural   La2Nd14Cd4Ni3Ir
_chemical_formula_sum   'La2 Nd14 Cd4 Ni3 Ir1'
_cell_volume   686.46832657
_cell_formula_units_Z   1
loop_
 _symmetry_equiv_pos_site_id
 _symmetry_equiv_pos_as_xyz
  1  'x, y, z'
loop_
 _atom_site_type_symbol
 _atom_site_label
 _atom_site_symmetry_multiplicity
 _atom_site_fract_x
 _atom_site_fract_y
 _atom_site_fract_z
 _atom_site_occupancy
  La  La0  1  0.595433  0.595433  0.596612  1
  La  La1  1  0.598712  0.598712  0.205623  1
  Nd  Nd2  1  0.600625  0.201149  0.601858  1
  Nd  Nd3  1  0.201149  0.600625  0.601858  1
  Nd  Nd4  1  0.060948  0.438969  0.438977  1
  Nd  Nd5  1  0.438605  0.060844  0.060212  1
  Nd  Nd6  1  0.438969  0.060948  0.438977  1
  Nd  Nd7  1  0.060844  0.438605  0.060212  1
  Nd  Nd8  1  0.438953  0.438953  0.060070  1
  Nd  Nd9  1  0.059827  0.059827  0.437651  1
  Nd  Nd10  1  0.189336  0.815135  0.814202  1
  Nd  Nd11  1  0.807196  0.188302  0.188403  1
  Nd  Nd12  1  0.815135  0.189336  0.814202  1
  Nd  Nd13  1  0.188302  0.807196  0.188403  1
  Nd  Nd14  1  0.814526  0.814526  0.187776  1
  Nd  Nd15  1  0.188966  0.188966  0.807010  1
  Cd  Cd16  1  0.831250  0.831250  0.829672  1
  Cd  Cd17  1  0.830377  0.830377  0.508981  1
  Cd  Cd18  1  0.830611  0.509444  0.828373  1
  Cd  Cd19  1  0.509444  0.830611  0.828373  1
  Ni  Ni20  1  0.392148  0.392148  0.823797  1
  Ni  Ni21  1  0.391692  0.823713  0.392972  1
  Ni  Ni22  1  0.823713  0.391692  0.392972  1
  Ir  Ir23  1  0.393241  0.393241  0.392817  1
