# generated using pymatgen
data_VHg3(SF3)2
_symmetry_space_group_name_H-M   'P 1'
_cell_length_a   7.64475782
_cell_length_b   7.64367832
_cell_length_c   5.06711847
_cell_angle_alpha   106.30592697
_cell_angle_beta   106.30063100
_cell_angle_gamma   55.27802338
_symmetry_Int_Tables_number   1
_chemical_formula_structural   VHg3(SF3)2
_chemical_formula_sum   'V1 Hg3 S2 F6'
_cell_volume   230.82405046
_cell_formula_units_Z   1
loop_
 _symmetry_equiv_pos_site_id
 _symmetry_equiv_pos_as_xyz
  1  'x, y, z'
loop_
 _atom_site_type_symbol
 _atom_site_label
 _atom_site_symmetry_multiplicity
 _atom_site_fract_x
 _atom_site_fract_y
 _atom_site_fract_z
 _atom_site_occupancy
  V  V0  1  0.000000  0.000000  0.499999  1
  Hg  Hg1  1  0.500000  0.500000  0.000000  1
  Hg  Hg2  1  0.500000  0.000000  0.499999  1
  Hg  Hg3  1  0.000000  0.500000  0.499999  1
  S  S4  1  0.687089  0.687027  0.166078  1
  S  S5  1  0.312911  0.312973  0.833922  1
  F  F6  1  0.727748  0.114212  0.277402  1
  F  F7  1  0.114133  0.727908  0.277481  1
  F  F8  1  0.094965  0.094952  0.290797  1
  F  F9  1  0.905035  0.905048  0.709203  1
  F  F10  1  0.885867  0.272092  0.722519  1
  F  F11  1  0.272252  0.885788  0.722598  1
