# generated using pymatgen
data_Sr6Fe2IrO12
_symmetry_space_group_name_H-M   'P 1'
_cell_length_a   8.87573663
_cell_length_b   8.87573694
_cell_length_c   6.93668998
_cell_angle_alpha   67.49802823
_cell_angle_beta   67.49802939
_cell_angle_gamma   36.85978109
_symmetry_Int_Tables_number   1
_chemical_formula_structural   Sr6Fe2IrO12
_chemical_formula_sum   'Sr6 Fe2 Ir1 O12'
_cell_volume   299.94479866
_cell_formula_units_Z   1
loop_
 _symmetry_equiv_pos_site_id
 _symmetry_equiv_pos_as_xyz
  1  'x, y, z'
loop_
 _atom_site_type_symbol
 _atom_site_label
 _atom_site_symmetry_multiplicity
 _atom_site_fract_x
 _atom_site_fract_y
 _atom_site_fract_z
 _atom_site_occupancy
  Sr  Sr0  1  0.874788  0.874788  0.715427  1
  Sr  Sr1  1  0.220641  0.220641  0.710928  1
  Sr  Sr2  1  0.548298  0.548298  0.706624  1
  Sr  Sr3  1  0.451702  0.451702  0.293376  1
  Sr  Sr4  1  0.779359  0.779359  0.289072  1
  Sr  Sr5  1  0.125212  0.125212  0.284573  1
  Fe  Fe6  1  0.669356  0.669356  0.998820  1
  Fe  Fe7  1  0.330644  0.330644  0.001180  1
  Ir  Ir8  1  0.000000  0.000000  0.000000  1
  O  O9  1  0.947511  0.947511  0.315664  1
  O  O10  1  0.281617  0.281617  0.324016  1
  O  O11  1  0.610378  0.610378  0.323852  1
  O  O12  1  0.389622  0.389622  0.676148  1
  O  O13  1  0.718383  0.718383  0.675984  1
  O  O14  1  0.052489  0.052489  0.684336  1
  O  O15  1  0.500000  0.000000  0.000000  1
  O  O16  1  0.835994  0.326345  0.000452  1
  O  O17  1  0.164006  0.673655  0.999548  1
  O  O18  1  0.000000  0.500000  0.000000  1
  O  O19  1  0.326345  0.835994  0.000452  1
  O  O20  1  0.673655  0.164006  0.999548  1
