# generated using pymatgen
data_Yb8GaTc11Ge16
_symmetry_space_group_name_H-M   'P 1'
_cell_length_a   6.92020739
_cell_length_b   6.91411668
_cell_length_c   12.87280300
_cell_angle_alpha   89.89948128
_cell_angle_beta   89.82741380
_cell_angle_gamma   90.00608630
_symmetry_Int_Tables_number   1
_chemical_formula_structural   Yb8GaTc11Ge16
_chemical_formula_sum   'Yb8 Ga1 Tc11 Ge16'
_cell_volume   615.92282195
_cell_formula_units_Z   1
loop_
 _symmetry_equiv_pos_site_id
 _symmetry_equiv_pos_as_xyz
  1  'x, y, z'
loop_
 _atom_site_type_symbol
 _atom_site_label
 _atom_site_symmetry_multiplicity
 _atom_site_fract_x
 _atom_site_fract_y
 _atom_site_fract_z
 _atom_site_occupancy
  Yb  Yb0  1  0.326255  0.991543  0.472266  1
  Yb  Yb1  1  0.513660  0.841922  0.724292  1
  Yb  Yb2  1  0.500419  0.168903  0.222898  1
  Yb  Yb3  1  0.830198  0.497752  0.273696  1
  Yb  Yb4  1  0.162838  0.499516  0.777603  1
  Yb  Yb5  1  0.670042  0.005748  0.971931  1
  Yb  Yb6  1  0.997686  0.340548  0.528632  1
  Yb  Yb7  1  0.007576  0.672323  0.028538  1
  Ga  Ga8  1  0.978436  0.788803  0.627881  1
  Tc  Tc9  1  0.340467  0.342676  0.002306  1
  Tc  Tc10  1  0.168527  0.839271  0.247004  1
  Tc  Tc11  1  0.838045  0.157013  0.745029  1
  Tc  Tc12  1  0.669664  0.661496  0.503550  1
  Tc  Tc13  1  0.184745  0.009641  0.881088  1
  Tc  Tc14  1  0.507812  0.675351  0.123580  1
  Tc  Tc15  1  0.470300  0.297666  0.615271  1
  Tc  Tc16  1  0.685169  0.516977  0.883285  1
  Tc  Tc17  1  0.320190  0.498729  0.377001  1
  Tc  Tc18  1  0.823879  0.018436  0.368181  1
  Tc  Tc19  1  0.995955  0.174066  0.127507  1
  Ge  Ge20  1  0.189727  0.108320  0.691124  1
  Ge  Ge21  1  0.384230  0.698224  0.932105  1
  Ge  Ge22  1  0.615800  0.309127  0.429873  1
  Ge  Ge23  1  0.698418  0.379603  0.068169  1
  Ge  Ge24  1  0.323829  0.612365  0.566303  1
  Ge  Ge25  1  0.807375  0.879629  0.182310  1
  Ge  Ge26  1  0.122422  0.197002  0.317722  1
  Ge  Ge27  1  0.893839  0.809311  0.821547  1
  Ge  Ge28  1  0.293935  0.980370  0.070214  1
  Ge  Ge29  1  0.524474  0.788657  0.317194  1
  Ge  Ge30  1  0.483142  0.228370  0.816832  1
  Ge  Ge31  1  0.747181  0.493534  0.687834  1
  Ge  Ge32  1  0.214204  0.479491  0.182445  1
  Ge  Ge33  1  0.715447  0.026598  0.559041  1
  Ge  Ge34  1  0.979584  0.294529  0.935261  1
  Ge  Ge35  1  0.014531  0.716494  0.420486  1
