# generated using pymatgen
data_Pr6Y3Ho(In2Pd)4
_symmetry_space_group_name_H-M   'P 1'
_cell_length_a   3.74644200
_cell_length_b   8.33767917
_cell_length_c   18.55053439
_cell_angle_alpha   89.97656172
_cell_angle_beta   90.00000000
_cell_angle_gamma   90.00000000
_symmetry_Int_Tables_number   1
_chemical_formula_structural   Pr6Y3Ho(In2Pd)4
_chemical_formula_sum   'Pr6 Y3 Ho1 In8 Pd4'
_cell_volume   579.45615724
_cell_formula_units_Z   1
loop_
 _symmetry_equiv_pos_site_id
 _symmetry_equiv_pos_as_xyz
  1  'x, y, z'
loop_
 _atom_site_type_symbol
 _atom_site_label
 _atom_site_symmetry_multiplicity
 _atom_site_fract_x
 _atom_site_fract_y
 _atom_site_fract_z
 _atom_site_occupancy
  Pr  Pr0  1  0.500000  0.237028  0.785850  1
  Pr  Pr1  1  0.500000  0.763166  0.214119  1
  Pr  Pr2  1  0.500000  0.263004  0.285871  1
  Pr  Pr3  1  0.500000  0.736855  0.713966  1
  Pr  Pr4  1  0.500000  0.000021  0.999983  1
  Pr  Pr5  1  0.500000  0.499218  0.500210  1
  Y  Y6  1  0.500000  0.879301  0.415217  1
  Y  Y7  1  0.500000  0.379000  0.085001  1
  Y  Y8  1  0.500000  0.620899  0.914931  1
  Ho  Ho9  1  0.500000  0.120351  0.585969  1
  In  In10  1  0.000000  0.088977  0.152844  1
  In  In11  1  0.000000  0.911085  0.847044  1
  In  In12  1  0.000000  0.410474  0.652695  1
  In  In13  1  0.000000  0.589021  0.347194  1
  In  In14  1  0.000000  0.192650  0.437959  1
  In  In15  1  0.000000  0.807935  0.562407  1
  In  In16  1  0.000000  0.307205  0.937489  1
  In  In17  1  0.000000  0.692684  0.062525  1
  Pd  Pd18  1  0.000000  0.025618  0.692730  1
  Pd  Pd19  1  0.000000  0.975399  0.306013  1
  Pd  Pd20  1  0.000000  0.475440  0.194072  1
  Pd  Pd21  1  0.000000  0.524669  0.805910  1
