# generated using pymatgen
data_DyTaTiBi2O9
_symmetry_space_group_name_H-M   'P 1'
_cell_length_a   5.47663500
_cell_length_b   5.39147706
_cell_length_c   12.94103834
_cell_angle_alpha   78.15891800
_cell_angle_beta   90.00000000
_cell_angle_gamma   90.00000000
_symmetry_Int_Tables_number   1
_chemical_formula_structural   DyTaTiBi2O9
_chemical_formula_sum   'Dy2 Ta2 Ti2 Bi4 O18'
_cell_volume   373.98085686
_cell_formula_units_Z   2
loop_
 _symmetry_equiv_pos_site_id
 _symmetry_equiv_pos_as_xyz
  1  'x, y, z'
loop_
 _atom_site_type_symbol
 _atom_site_label
 _atom_site_symmetry_multiplicity
 _atom_site_fract_x
 _atom_site_fract_y
 _atom_site_fract_z
 _atom_site_occupancy
  Dy  Dy0  1  0.489841  0.240818  0.999430  1
  Dy  Dy1  1  0.989841  0.759182  0.000570  1
  Ta  Ta2  1  0.538767  0.822296  0.834340  1
  Ta  Ta3  1  0.038767  0.177704  0.165660  1
  Ti  Ti4  1  0.534873  0.662935  0.168726  1
  Ti  Ti5  1  0.034873  0.337065  0.831274  1
  Bi  Bi6  1  0.475271  0.026887  0.397118  1
  Bi  Bi7  1  0.473364  0.425719  0.603077  1
  Bi  Bi8  1  0.975271  0.973113  0.602882  1
  Bi  Bi9  1  0.973364  0.574281  0.396923  1
  O  O10  1  0.741545  0.258008  0.499633  1
  O  O11  1  0.740997  0.756464  0.500298  1
  O  O12  1  0.241545  0.741992  0.500367  1
  O  O13  1  0.240997  0.243536  0.499702  1
  O  O14  1  0.582860  0.652712  0.998097  1
  O  O15  1  0.082860  0.347288  0.001903  1
  O  O16  1  0.860514  0.482100  0.171002  1
  O  O17  1  0.863789  0.645195  0.828502  1
  O  O18  1  0.360514  0.517900  0.828998  1
  O  O19  1  0.363789  0.354805  0.171498  1
  O  O20  1  0.543097  0.675656  0.305870  1
  O  O21  1  0.541700  0.979219  0.689691  1
  O  O22  1  0.043097  0.324344  0.694130  1
  O  O23  1  0.041700  0.020781  0.310309  1
  O  O24  1  0.766738  0.987263  0.115674  1
  O  O25  1  0.766443  0.097630  0.883679  1
  O  O26  1  0.266738  0.012737  0.884326  1
  O  O27  1  0.266443  0.902370  0.116321  1
