# generated using pymatgen
data_YTm3B12MoRh
_symmetry_space_group_name_H-M   'P 1'
_cell_length_a   3.64518900
_cell_length_b   9.14574953
_cell_length_c   11.55580401
_cell_angle_alpha   90.40204729
_cell_angle_beta   90.00000000
_cell_angle_gamma   90.00000000
_symmetry_Int_Tables_number   1
_chemical_formula_structural   YTm3B12MoRh
_chemical_formula_sum   'Y2 Tm6 B24 Mo2 Rh2'
_cell_volume   385.23774283
_cell_formula_units_Z   2
loop_
 _symmetry_equiv_pos_site_id
 _symmetry_equiv_pos_as_xyz
  1  'x, y, z'
loop_
 _atom_site_type_symbol
 _atom_site_label
 _atom_site_symmetry_multiplicity
 _atom_site_fract_x
 _atom_site_fract_y
 _atom_site_fract_z
 _atom_site_occupancy
  Y  Y0  1  0.500000  0.318998  0.411882  1
  Y  Y1  1  0.500000  0.681002  0.588118  1
  Tm  Tm2  1  0.500000  0.174875  0.917039  1
  Tm  Tm3  1  0.500000  0.825125  0.082961  1
  Tm  Tm4  1  0.500000  0.443449  0.126534  1
  Tm  Tm5  1  0.500000  0.556551  0.873466  1
  Tm  Tm6  1  0.500000  0.054871  0.628329  1
  Tm  Tm7  1  0.500000  0.945129  0.371671  1
  B  B8  1  0.000000  0.105182  0.472229  1
  B  B9  1  0.000000  0.894818  0.527771  1
  B  B10  1  0.000000  0.394908  0.970249  1
  B  B11  1  0.000000  0.605092  0.029751  1
  B  B12  1  0.000000  0.131794  0.317138  1
  B  B13  1  0.000000  0.868206  0.682862  1
  B  B14  1  0.000000  0.368197  0.816273  1
  B  B15  1  0.000000  0.631803  0.183727  1
  B  B16  1  0.000000  0.051727  0.065746  1
  B  B17  1  0.000000  0.948273  0.934254  1
  B  B18  1  0.000000  0.445661  0.566124  1
  B  B19  1  0.000000  0.554339  0.433876  1
  B  B20  1  0.000000  0.483774  0.287552  1
  B  B21  1  0.000000  0.516226  0.712448  1
  B  B22  1  0.000000  0.020876  0.786533  1
  B  B23  1  0.000000  0.979124  0.213467  1
  B  B24  1  0.000000  0.250505  0.078956  1
  B  B25  1  0.000000  0.749495  0.921044  1
  B  B26  1  0.000000  0.249844  0.579873  1
  B  B27  1  0.000000  0.750156  0.420127  1
  B  B28  1  0.000000  0.295741  0.235761  1
  B  B29  1  0.000000  0.704259  0.764239  1
  B  B30  1  0.000000  0.208429  0.734661  1
  B  B31  1  0.000000  0.791571  0.265339  1
  Mo  Mo32  1  0.500000  0.139058  0.180871  1
  Mo  Mo33  1  0.500000  0.860942  0.819129  1
  Rh  Rh34  1  0.500000  0.361079  0.679040  1
  Rh  Rh35  1  0.500000  0.638921  0.320960  1
