# generated using pymatgen
data_YCrCo(PRh)3
_symmetry_space_group_name_H-M   'P 1'
_cell_length_a   3.79851700
_cell_length_b   10.75284800
_cell_length_c   12.41873500
_cell_angle_alpha   90.00000000
_cell_angle_beta   90.00000000
_cell_angle_gamma   90.00000000
_symmetry_Int_Tables_number   1
_chemical_formula_structural   YCrCo(PRh)3
_chemical_formula_sum   'Y4 Cr4 Co4 P12 Rh12'
_cell_volume   507.24169024
_cell_formula_units_Z   4
loop_
 _symmetry_equiv_pos_site_id
 _symmetry_equiv_pos_as_xyz
  1  'x, y, z'
loop_
 _atom_site_type_symbol
 _atom_site_label
 _atom_site_symmetry_multiplicity
 _atom_site_fract_x
 _atom_site_fract_y
 _atom_site_fract_z
 _atom_site_occupancy
  Y  Y0  1  0.250000  0.916226  0.208802  1
  Y  Y1  1  0.750000  0.083774  0.791198  1
  Y  Y2  1  0.750000  0.416226  0.291198  1
  Y  Y3  1  0.250000  0.583774  0.708802  1
  Cr  Cr4  1  0.250000  0.789875  0.488590  1
  Cr  Cr5  1  0.750000  0.210125  0.511410  1
  Cr  Cr6  1  0.750000  0.289875  0.011410  1
  Cr  Cr7  1  0.250000  0.710125  0.988590  1
  Co  Co8  1  0.250000  0.034767  0.435273  1
  Co  Co9  1  0.750000  0.965233  0.564727  1
  Co  Co10  1  0.750000  0.534767  0.064727  1
  Co  Co11  1  0.250000  0.465233  0.935273  1
  P  P12  1  0.250000  0.077885  0.605566  1
  P  P13  1  0.750000  0.922115  0.394434  1
  P  P14  1  0.750000  0.577885  0.894434  1
  P  P15  1  0.250000  0.422115  0.105566  1
  P  P16  1  0.250000  0.228349  0.373567  1
  P  P17  1  0.750000  0.771651  0.626433  1
  P  P18  1  0.750000  0.728349  0.126433  1
  P  P19  1  0.250000  0.271651  0.873567  1
  P  P20  1  0.250000  0.900385  0.889459  1
  P  P21  1  0.750000  0.099615  0.110541  1
  P  P22  1  0.750000  0.400385  0.610541  1
  P  P23  1  0.250000  0.599615  0.389459  1
  Rh  Rh24  1  0.250000  0.094987  0.985136  1
  Rh  Rh25  1  0.750000  0.905013  0.014864  1
  Rh  Rh26  1  0.750000  0.594987  0.514864  1
  Rh  Rh27  1  0.250000  0.405013  0.485136  1
  Rh  Rh28  1  0.250000  0.271801  0.678119  1
  Rh  Rh29  1  0.750000  0.728199  0.321881  1
  Rh  Rh30  1  0.750000  0.771801  0.821881  1
  Rh  Rh31  1  0.250000  0.228199  0.178119  1
  Rh  Rh32  1  0.250000  0.612346  0.197099  1
  Rh  Rh33  1  0.750000  0.387654  0.802901  1
  Rh  Rh34  1  0.750000  0.112346  0.302901  1
  Rh  Rh35  1  0.250000  0.887654  0.697099  1
