# generated using pymatgen
data_Sc12Al(CoBr8)2
_symmetry_space_group_name_H-M   'P 1'
_cell_length_a   8.78360850
_cell_length_b   11.51434729
_cell_length_c   12.13503000
_cell_angle_alpha   117.53680203
_cell_angle_beta   101.16660394
_cell_angle_gamma   100.69024661
_symmetry_Int_Tables_number   1
_chemical_formula_structural   Sc12Al(CoBr8)2
_chemical_formula_sum   'Sc12 Al1 Co2 Br16'
_cell_volume   1012.90349738
_cell_formula_units_Z   1
loop_
 _symmetry_equiv_pos_site_id
 _symmetry_equiv_pos_as_xyz
  1  'x, y, z'
loop_
 _atom_site_type_symbol
 _atom_site_label
 _atom_site_symmetry_multiplicity
 _atom_site_fract_x
 _atom_site_fract_y
 _atom_site_fract_z
 _atom_site_occupancy
  Sc  Sc0  1  0.094432  0.262534  0.354014  1
  Sc  Sc1  1  0.905568  0.737466  0.645986  1
  Sc  Sc2  1  0.770045  0.536504  0.324379  1
  Sc  Sc3  1  0.229955  0.463496  0.675621  1
  Sc  Sc4  1  0.288099  0.737371  0.645659  1
  Sc  Sc5  1  0.711901  0.262629  0.354341  1
  Sc  Sc6  1  0.152530  0.535980  0.324432  1
  Sc  Sc7  1  0.847470  0.464020  0.675568  1
  Sc  Sc8  1  0.407759  0.362010  0.279884  1
  Sc  Sc9  1  0.592241  0.637990  0.720116  1
  Sc  Sc10  1  0.459732  0.313081  0.520102  1
  Sc  Sc11  1  0.540268  0.686919  0.479898  1
  Al  Al12  1  0.000000  0.500000  0.500000  1
  Co  Co13  1  0.338773  0.500028  0.499678  1
  Co  Co14  1  0.661228  0.499972  0.500322  1
  Br  Br15  1  0.393278  0.734304  0.873173  1
  Br  Br16  1  0.606722  0.265696  0.126827  1
  Br  Br17  1  0.183941  0.951006  0.776701  1
  Br  Br18  1  0.816059  0.048994  0.223299  1
  Br  Br19  1  0.340350  0.106820  0.257699  1
  Br  Br20  1  0.659650  0.893180  0.742301  1
  Br  Br21  1  0.558599  0.440991  0.790876  1
  Br  Br22  1  0.441401  0.559009  0.209124  1
  Br  Br23  1  0.306331  0.817507  0.464478  1
  Br  Br24  1  0.693669  0.182493  0.535522  1
  Br  Br25  1  0.169562  0.181337  0.533274  1
  Br  Br26  1  0.830438  0.818663  0.466726  1
  Br  Br27  1  0.927658  0.570280  0.167988  1
  Br  Br28  1  0.072342  0.429720  0.832012  1
  Br  Br29  1  0.919143  0.733279  0.873480  1
  Br  Br30  1  0.080857  0.266721  0.126520  1
