# generated using pymatgen
data_Dy10Y5Th(CdPt)4
_symmetry_space_group_name_H-M   'P 1'
_cell_length_a   9.72686142
_cell_length_b   9.72942094
_cell_length_c   9.72942123
_cell_angle_alpha   60.11757274
_cell_angle_beta   60.12555631
_cell_angle_gamma   60.12555787
_symmetry_Int_Tables_number   1
_chemical_formula_structural   Dy10Y5Th(CdPt)4
_chemical_formula_sum   'Dy10 Y5 Th1 Cd4 Pt4'
_cell_volume   652.88877294
_cell_formula_units_Z   1
loop_
 _symmetry_equiv_pos_site_id
 _symmetry_equiv_pos_as_xyz
  1  'x, y, z'
loop_
 _atom_site_type_symbol
 _atom_site_label
 _atom_site_symmetry_multiplicity
 _atom_site_fract_x
 _atom_site_fract_y
 _atom_site_fract_z
 _atom_site_occupancy
  Dy  Dy0  1  0.353663  0.353654  0.939571  1
  Dy  Dy1  1  0.353663  0.939571  0.353654  1
  Dy  Dy2  1  0.939704  0.353687  0.353687  1
  Dy  Dy3  1  0.812634  0.189146  0.189146  1
  Dy  Dy4  1  0.190307  0.810794  0.810794  1
  Dy  Dy5  1  0.189010  0.812602  0.189248  1
  Dy  Dy6  1  0.810908  0.190556  0.810761  1
  Dy  Dy7  1  0.189010  0.189248  0.812602  1
  Dy  Dy8  1  0.810908  0.810761  0.190556  1
  Dy  Dy9  1  0.936498  0.565997  0.565997  1
  Y  Y10  1  0.563479  0.937034  0.937034  1
  Y  Y11  1  0.566131  0.936364  0.565798  1
  Y  Y12  1  0.936821  0.563592  0.936741  1
  Y  Y13  1  0.566131  0.565798  0.936364  1
  Y  Y14  1  0.936821  0.936741  0.563592  1
  Th  Th15  1  0.348853  0.349214  0.349214  1
  Cd  Cd16  1  0.581788  0.581666  0.581666  1
  Cd  Cd17  1  0.582495  0.582414  0.252826  1
  Cd  Cd18  1  0.582495  0.252826  0.582414  1
  Cd  Cd19  1  0.252703  0.582446  0.582446  1
  Pt  Pt20  1  0.144103  0.144188  0.144188  1
  Pt  Pt21  1  0.140900  0.140745  0.570105  1
  Pt  Pt22  1  0.140900  0.570105  0.140745  1
  Pt  Pt23  1  0.570074  0.140850  0.140850  1
