# generated using pymatgen
data_CeHo3Lu12(CdNi)4
_symmetry_space_group_name_H-M   'P 1'
_cell_length_a   9.41546219
_cell_length_b   9.41546273
_cell_length_c   9.41546298
_cell_angle_alpha   59.57745893
_cell_angle_beta   59.57745690
_cell_angle_gamma   59.57746056
_symmetry_Int_Tables_number   1
_chemical_formula_structural   CeHo3Lu12(CdNi)4
_chemical_formula_sum   'Ce1 Ho3 Lu12 Cd4 Ni4'
_cell_volume   584.54553737
_cell_formula_units_Z   1
loop_
 _symmetry_equiv_pos_site_id
 _symmetry_equiv_pos_as_xyz
  1  'x, y, z'
loop_
 _atom_site_type_symbol
 _atom_site_label
 _atom_site_symmetry_multiplicity
 _atom_site_fract_x
 _atom_site_fract_y
 _atom_site_fract_z
 _atom_site_occupancy
  Ce  Ce0  1  0.347124  0.347124  0.347124  1
  Ho  Ho1  1  0.349587  0.349587  0.949700  1
  Ho  Ho2  1  0.349587  0.949700  0.349587  1
  Ho  Ho3  1  0.949700  0.349587  0.349587  1
  Lu  Lu4  1  0.812887  0.186907  0.186907  1
  Lu  Lu5  1  0.188187  0.812677  0.812677  1
  Lu  Lu6  1  0.186907  0.812887  0.186907  1
  Lu  Lu7  1  0.812677  0.188187  0.812677  1
  Lu  Lu8  1  0.186907  0.186907  0.812887  1
  Lu  Lu9  1  0.812677  0.812677  0.188187  1
  Lu  Lu10  1  0.937076  0.564307  0.564307  1
  Lu  Lu11  1  0.564986  0.935045  0.935045  1
  Lu  Lu12  1  0.564307  0.937076  0.564307  1
  Lu  Lu13  1  0.935045  0.564986  0.935045  1
  Lu  Lu14  1  0.564307  0.564307  0.937076  1
  Lu  Lu15  1  0.935045  0.935045  0.564986  1
  Cd  Cd16  1  0.582254  0.582254  0.582254  1
  Cd  Cd17  1  0.582124  0.582124  0.252736  1
  Cd  Cd18  1  0.582124  0.252736  0.582124  1
  Cd  Cd19  1  0.252736  0.582124  0.582124  1
  Ni  Ni20  1  0.141697  0.141697  0.141697  1
  Ni  Ni21  1  0.144278  0.144278  0.573496  1
  Ni  Ni22  1  0.144278  0.573496  0.144278  1
  Ni  Ni23  1  0.573496  0.144278  0.144278  1
