# generated using pymatgen
data_Sm3P2S
_symmetry_space_group_name_H-M   'P 1'
_cell_length_a   7.08116445
_cell_length_b   7.08116341
_cell_length_c   7.08116328
_cell_angle_alpha   146.54010317
_cell_angle_beta   132.09788688
_cell_angle_gamma   59.69047704
_symmetry_Int_Tables_number   1
_chemical_formula_structural   Sm3P2S
_chemical_formula_sum   'Sm3 P2 S1'
_cell_volume   143.95999321
_cell_formula_units_Z   1
loop_
 _symmetry_equiv_pos_site_id
 _symmetry_equiv_pos_as_xyz
  1  'x, y, z'
loop_
 _atom_site_type_symbol
 _atom_site_label
 _atom_site_symmetry_multiplicity
 _atom_site_fract_x
 _atom_site_fract_y
 _atom_site_fract_z
 _atom_site_occupancy
  Sm  Sm0  1  0.500000  0.000000  0.500000  1
  Sm  Sm1  1  0.170719  0.670719  0.500000  1
  Sm  Sm2  1  0.829281  0.329281  0.500000  1
  P  P3  1  0.665906  0.665906  0.000000  1
  P  P4  1  0.334094  0.334094  0.000000  1
  S  S5  1  0.000000  0.000000  0.000000  1
