# generated using pymatgen
data_Li22Si11As
_symmetry_space_group_name_H-M   'P 1'
_cell_length_a   4.16724325
_cell_length_b   10.18085700
_cell_length_c   11.98611400
_cell_angle_alpha   90.00000000
_cell_angle_beta   79.98904302
_cell_angle_gamma   90.00000000
_symmetry_Int_Tables_number   1
_chemical_formula_structural   Li22Si11As
_chemical_formula_sum   'Li22 Si11 As1'
_cell_volume   500.78164146
_cell_formula_units_Z   1
loop_
 _symmetry_equiv_pos_site_id
 _symmetry_equiv_pos_as_xyz
  1  'x, y, z'
loop_
 _atom_site_type_symbol
 _atom_site_label
 _atom_site_symmetry_multiplicity
 _atom_site_fract_x
 _atom_site_fract_y
 _atom_site_fract_z
 _atom_site_occupancy
  Li  Li0  1  0.974248  0.750000  0.051506  1
  Li  Li1  1  0.464604  0.113938  0.070793  1
  Li  Li2  1  0.464604  0.386063  0.070793  1
  Li  Li3  1  0.912246  0.000518  0.175508  1
  Li  Li4  1  0.912246  0.499482  0.175508  1
  Li  Li5  1  0.357689  0.250000  0.284624  1
  Li  Li6  1  0.857372  0.750000  0.285259  1
  Li  Li7  1  0.820357  0.118238  0.359289  1
  Li  Li8  1  0.820357  0.381762  0.359289  1
  Li  Li9  1  0.758014  0.604546  0.483972  1
  Li  Li10  1  0.758014  0.895454  0.483972  1
  Li  Li11  1  0.242238  0.105361  0.515528  1
  Li  Li12  1  0.242238  0.394639  0.515528  1
  Li  Li13  1  0.180099  0.617017  0.639804  1
  Li  Li14  1  0.180099  0.882984  0.639804  1
  Li  Li15  1  0.142636  0.250000  0.714729  1
  Li  Li16  1  0.641672  0.750000  0.716657  1
  Li  Li17  1  0.088135  0.499405  0.823730  1
  Li  Li18  1  0.088135  0.000595  0.823730  1
  Li  Li19  1  0.535178  0.613224  0.929645  1
  Li  Li20  1  0.535178  0.886777  0.929645  1
  Li  Li21  1  0.025001  0.250000  0.949999  1
  Si  Si22  1  0.423379  0.636464  0.153243  1
  Si  Si23  1  0.423379  0.863536  0.153243  1
  Si  Si24  1  0.918341  0.250000  0.163319  1
  Si  Si25  1  0.329337  0.554984  0.341327  1
  Si  Si26  1  0.329337  0.945016  0.341327  1
  Si  Si27  1  0.273293  0.750000  0.453416  1
  Si  Si28  1  0.727152  0.250000  0.545699  1
  Si  Si29  1  0.670380  0.057098  0.659242  1
  Si  Si30  1  0.670380  0.442902  0.659242  1
  Si  Si31  1  0.576166  0.136179  0.847671  1
  Si  Si32  1  0.576166  0.363820  0.847671  1
  As  As33  1  0.082352  0.750000  0.835297  1
