# generated using pymatgen
data_Nd5YPd10
_symmetry_space_group_name_H-M   'P 1'
_cell_length_a   5.97481388
_cell_length_b   5.97481401
_cell_length_c   9.89004900
_cell_angle_alpha   90.00000000
_cell_angle_beta   90.00000000
_cell_angle_gamma   104.50135926
_symmetry_Int_Tables_number   1
_chemical_formula_structural   Nd5YPd10
_chemical_formula_sum   'Nd5 Y1 Pd10'
_cell_volume   341.81108411
_cell_formula_units_Z   1
loop_
 _symmetry_equiv_pos_site_id
 _symmetry_equiv_pos_as_xyz
  1  'x, y, z'
loop_
 _atom_site_type_symbol
 _atom_site_label
 _atom_site_symmetry_multiplicity
 _atom_site_fract_x
 _atom_site_fract_y
 _atom_site_fract_z
 _atom_site_occupancy
  Nd  Nd0  1  0.620404  0.620404  0.250000  1
  Nd  Nd1  1  0.201929  0.796688  0.501526  1
  Nd  Nd2  1  0.201929  0.796688  0.998474  1
  Nd  Nd3  1  0.796688  0.201929  0.501526  1
  Nd  Nd4  1  0.796688  0.201929  0.998474  1
  Y  Y5  1  0.377216  0.377216  0.750000  1
  Pd  Pd6  1  0.027360  0.027360  0.250000  1
  Pd  Pd7  1  0.978506  0.978506  0.750000  1
  Pd  Pd8  1  0.314817  0.314817  0.045725  1
  Pd  Pd9  1  0.682752  0.682752  0.946172  1
  Pd  Pd10  1  0.314817  0.314817  0.454275  1
  Pd  Pd11  1  0.682752  0.682752  0.553828  1
  Pd  Pd12  1  0.501861  0.062820  0.250000  1
  Pd  Pd13  1  0.941838  0.497625  0.750000  1
  Pd  Pd14  1  0.497625  0.941838  0.750000  1
  Pd  Pd15  1  0.062820  0.501861  0.250000  1
