# generated using pymatgen
data_Tb4ErMoRhO12
_symmetry_space_group_name_H-M   'P 1'
_cell_length_a   6.86008265
_cell_length_b   6.86008238
_cell_length_c   7.48166476
_cell_angle_alpha   73.88848238
_cell_angle_beta   73.88848258
_cell_angle_gamma   49.92903130
_symmetry_Int_Tables_number   1
_chemical_formula_structural   Tb4ErMoRhO12
_chemical_formula_sum   'Tb4 Er1 Mo1 Rh1 O12'
_cell_volume   256.50420150
_cell_formula_units_Z   1
loop_
 _symmetry_equiv_pos_site_id
 _symmetry_equiv_pos_as_xyz
  1  'x, y, z'
loop_
 _atom_site_type_symbol
 _atom_site_label
 _atom_site_symmetry_multiplicity
 _atom_site_fract_x
 _atom_site_fract_y
 _atom_site_fract_z
 _atom_site_occupancy
  Tb  Tb0  1  0.317964  0.287035  0.358669  1
  Tb  Tb1  1  0.712965  0.682036  0.641331  1
  Tb  Tb2  1  0.319301  0.305838  0.827224  1
  Tb  Tb3  1  0.694162  0.680699  0.172776  1
  Er  Er4  1  0.008371  0.991629  0.500000  1
  Mo  Mo5  1  0.202771  0.797229  0.000000  1
  Rh  Rh6  1  0.753600  0.246400  0.000000  1
  O  O7  1  0.911748  0.435769  0.913721  1
  O  O8  1  0.413020  0.904064  0.915972  1
  O  O9  1  0.095936  0.586980  0.084028  1
  O  O10  1  0.564231  0.088252  0.086279  1
  O  O11  1  0.109029  0.594778  0.567779  1
  O  O12  1  0.604572  0.087318  0.575538  1
  O  O13  1  0.912682  0.395428  0.424462  1
  O  O14  1  0.405222  0.890971  0.432221  1
  O  O15  1  0.998258  0.998504  0.800172  1
  O  O16  1  0.001496  0.001742  0.199828  1
  O  O17  1  0.487910  0.513239  0.822190  1
  O  O18  1  0.486761  0.512090  0.177810  1
