# generated using pymatgen
data_Y4Ga4IrPdRh2
_symmetry_space_group_name_H-M   'P 1'
_cell_length_a   4.35989200
_cell_length_b   6.90049475
_cell_length_c   7.76190542
_cell_angle_alpha   89.95217413
_cell_angle_beta   90.00000000
_cell_angle_gamma   90.00000000
_symmetry_Int_Tables_number   1
_chemical_formula_structural   Y4Ga4IrPdRh2
_chemical_formula_sum   'Y4 Ga4 Ir1 Pd1 Rh2'
_cell_volume   233.52003999
_cell_formula_units_Z   1
loop_
 _symmetry_equiv_pos_site_id
 _symmetry_equiv_pos_as_xyz
  1  'x, y, z'
loop_
 _atom_site_type_symbol
 _atom_site_label
 _atom_site_symmetry_multiplicity
 _atom_site_fract_x
 _atom_site_fract_y
 _atom_site_fract_z
 _atom_site_occupancy
  Y  Y0  1  0.250000  0.978833  0.309264  1
  Y  Y1  1  0.250000  0.481039  0.195820  1
  Y  Y2  1  0.750000  0.018475  0.686756  1
  Y  Y3  1  0.750000  0.528392  0.808202  1
  Ga  Ga4  1  0.250000  0.343246  0.570447  1
  Ga  Ga5  1  0.250000  0.834572  0.928024  1
  Ga  Ga6  1  0.750000  0.659618  0.426923  1
  Ga  Ga7  1  0.750000  0.158567  0.073039  1
  Ir  Ir8  1  0.250000  0.729082  0.607068  1
  Pd  Pd9  1  0.250000  0.223106  0.895327  1
  Rh  Rh10  1  0.750000  0.773081  0.104817  1
  Rh  Rh11  1  0.750000  0.271988  0.394312  1
