# generated using pymatgen
data_Er3CoNi2Sn3
_symmetry_space_group_name_H-M   'P 1'
_cell_length_a   7.35112400
_cell_length_b   7.35112389
_cell_length_c   3.79655100
_cell_angle_alpha   90.00000000
_cell_angle_beta   90.00000000
_cell_angle_gamma   120.00000051
_symmetry_Int_Tables_number   1
_chemical_formula_structural   Er3CoNi2Sn3
_chemical_formula_sum   'Er3 Co1 Ni2 Sn3'
_cell_volume   177.67542304
_cell_formula_units_Z   1
loop_
 _symmetry_equiv_pos_site_id
 _symmetry_equiv_pos_as_xyz
  1  'x, y, z'
loop_
 _atom_site_type_symbol
 _atom_site_label
 _atom_site_symmetry_multiplicity
 _atom_site_fract_x
 _atom_site_fract_y
 _atom_site_fract_z
 _atom_site_occupancy
  Er  Er0  1  0.403327  0.403327  0.500000  1
  Er  Er1  1  0.596673  0.000000  0.500000  1
  Er  Er2  1  0.000000  0.596673  0.500000  1
  Co  Co3  1  0.000000  0.000000  0.500000  1
  Ni  Ni4  1  0.666667  0.333333  0.000000  1
  Ni  Ni5  1  0.333333  0.666667  0.000000  1
  Sn  Sn6  1  0.741101  0.741101  0.000000  1
  Sn  Sn7  1  0.258899  0.000000  0.000000  1
  Sn  Sn8  1  0.000000  0.258899  0.000000  1
