# generated using pymatgen
data_DyMn4CrP3
_symmetry_space_group_name_H-M   'P 1'
_cell_length_a   3.61751300
_cell_length_b   10.67539700
_cell_length_c   12.21299700
_cell_angle_alpha   90.00000000
_cell_angle_beta   90.00000000
_cell_angle_gamma   90.00000000
_symmetry_Int_Tables_number   1
_chemical_formula_structural   DyMn4CrP3
_chemical_formula_sum   'Dy4 Mn16 Cr4 P12'
_cell_volume   471.64624980
_cell_formula_units_Z   4
loop_
 _symmetry_equiv_pos_site_id
 _symmetry_equiv_pos_as_xyz
  1  'x, y, z'
loop_
 _atom_site_type_symbol
 _atom_site_label
 _atom_site_symmetry_multiplicity
 _atom_site_fract_x
 _atom_site_fract_y
 _atom_site_fract_z
 _atom_site_occupancy
  Dy  Dy0  1  0.250000  0.585524  0.705806  1
  Dy  Dy1  1  0.250000  0.914476  0.205806  1
  Dy  Dy2  1  0.750000  0.414476  0.294194  1
  Dy  Dy3  1  0.750000  0.085524  0.794194  1
  Mn  Mn4  1  0.250000  0.410202  0.493078  1
  Mn  Mn5  1  0.250000  0.089798  0.993078  1
  Mn  Mn6  1  0.750000  0.589798  0.506922  1
  Mn  Mn7  1  0.750000  0.910202  0.006922  1
  Mn  Mn8  1  0.250000  0.213379  0.180378  1
  Mn  Mn9  1  0.250000  0.286621  0.680378  1
  Mn  Mn10  1  0.750000  0.786621  0.819622  1
  Mn  Mn11  1  0.750000  0.713379  0.319622  1
  Mn  Mn12  1  0.250000  0.881912  0.693747  1
  Mn  Mn13  1  0.250000  0.618088  0.193747  1
  Mn  Mn14  1  0.750000  0.118088  0.306253  1
  Mn  Mn15  1  0.750000  0.381912  0.806253  1
  Mn  Mn16  1  0.250000  0.465567  0.935111  1
  Mn  Mn17  1  0.250000  0.034433  0.435111  1
  Mn  Mn18  1  0.750000  0.534433  0.064889  1
  Mn  Mn19  1  0.750000  0.965567  0.564889  1
  Cr  Cr20  1  0.250000  0.708760  0.983658  1
  Cr  Cr21  1  0.250000  0.791240  0.483658  1
  Cr  Cr22  1  0.750000  0.291240  0.016342  1
  Cr  Cr23  1  0.750000  0.208760  0.516342  1
  P  P24  1  0.250000  0.412144  0.115119  1
  P  P25  1  0.250000  0.087856  0.615119  1
  P  P26  1  0.750000  0.587856  0.884881  1
  P  P27  1  0.750000  0.912144  0.384881  1
  P  P28  1  0.250000  0.264552  0.875440  1
  P  P29  1  0.250000  0.235448  0.375440  1
  P  P30  1  0.750000  0.735448  0.124560  1
  P  P31  1  0.750000  0.764552  0.624560  1
  P  P32  1  0.250000  0.594729  0.385315  1
  P  P33  1  0.250000  0.905271  0.885315  1
  P  P34  1  0.750000  0.405271  0.614685  1
  P  P35  1  0.750000  0.094729  0.114685  1
