# generated using pymatgen
data_Tb2Tm3Lu5Sn6
_symmetry_space_group_name_H-M   'P 1'
_cell_length_a   8.84592962
_cell_length_b   8.81906482
_cell_length_c   6.44790900
_cell_angle_alpha   90.00000000
_cell_angle_beta   90.00000000
_cell_angle_gamma   119.78834833
_symmetry_Int_Tables_number   1
_chemical_formula_structural   Tb2Tm3Lu5Sn6
_chemical_formula_sum   'Tb2 Tm3 Lu5 Sn6'
_cell_volume   436.55386595
_cell_formula_units_Z   1
loop_
 _symmetry_equiv_pos_site_id
 _symmetry_equiv_pos_as_xyz
  1  'x, y, z'
loop_
 _atom_site_type_symbol
 _atom_site_label
 _atom_site_symmetry_multiplicity
 _atom_site_fract_x
 _atom_site_fract_y
 _atom_site_fract_z
 _atom_site_occupancy
  Tb  Tb0  1  0.000524  0.235431  0.750000  1
  Tb  Tb1  1  0.999241  0.764730  0.250000  1
  Tm  Tm2  1  0.238011  0.001241  0.750000  1
  Tm  Tm3  1  0.240600  0.239419  0.250000  1
  Tm  Tm4  1  0.762110  0.998653  0.250000  1
  Lu  Lu5  1  0.667901  0.333177  0.999967  1
  Lu  Lu6  1  0.331855  0.666589  0.999907  1
  Lu  Lu7  1  0.331855  0.666589  0.500093  1
  Lu  Lu8  1  0.667901  0.333177  0.500033  1
  Lu  Lu9  1  0.760737  0.761803  0.750000  1
  Sn  Sn10  1  0.398360  0.397012  0.750000  1
  Sn  Sn11  1  0.601253  0.998094  0.750000  1
  Sn  Sn12  1  0.999478  0.605317  0.750000  1
  Sn  Sn13  1  0.601776  0.603175  0.250000  1
  Sn  Sn14  1  0.398664  0.000841  0.250000  1
  Sn  Sn15  1  0.999737  0.394755  0.250000  1
