# generated using pymatgen
data_Cd2Ni3BiO8
_symmetry_space_group_name_H-M   'P 1'
_cell_length_a   6.27493718
_cell_length_b   6.27493629
_cell_length_c   6.38155008
_cell_angle_alpha   60.55112986
_cell_angle_beta   119.44887299
_cell_angle_gamma   120.00000112
_symmetry_Int_Tables_number   1
_chemical_formula_structural   Cd2Ni3BiO8
_chemical_formula_sum   'Cd2 Ni3 Bi1 O8'
_cell_volume   179.14219839
_cell_formula_units_Z   1
loop_
 _symmetry_equiv_pos_site_id
 _symmetry_equiv_pos_as_xyz
  1  'x, y, z'
loop_
 _atom_site_type_symbol
 _atom_site_label
 _atom_site_symmetry_multiplicity
 _atom_site_fract_x
 _atom_site_fract_y
 _atom_site_fract_z
 _atom_site_occupancy
  Cd  Cd0  1  0.866099  0.133901  0.598298  1
  Cd  Cd1  1  0.133901  0.866099  0.401702  1
  Ni  Ni2  1  0.500000  0.500000  0.000000  1
  Ni  Ni3  1  0.500000  0.000000  0.000000  1
  Ni  Ni4  1  0.000000  0.500000  0.000000  1
  Bi  Bi5  1  0.500000  0.500000  0.500000  1
  O  O6  1  0.738726  0.708586  0.768866  1
  O  O7  1  0.738726  0.261274  0.768866  1
  O  O8  1  0.272033  0.727967  0.816099  1
  O  O9  1  0.291414  0.261274  0.768866  1
  O  O10  1  0.708586  0.738726  0.231134  1
  O  O11  1  0.727967  0.272033  0.183901  1
  O  O12  1  0.261274  0.738726  0.231134  1
  O  O13  1  0.261274  0.291414  0.231134  1
