# generated using pymatgen
data_Tb5Ho(MoO7)2
_symmetry_space_group_name_H-M   'P 1'
_cell_length_a   6.47355875
_cell_length_b   6.51738575
_cell_length_c   7.49168765
_cell_angle_alpha   90.04452249
_cell_angle_beta   90.01845197
_cell_angle_gamma   108.73528546
_symmetry_Int_Tables_number   1
_chemical_formula_structural   Tb5Ho(MoO7)2
_chemical_formula_sum   'Tb5 Ho1 Mo2 O14'
_cell_volume   299.33103856
_cell_formula_units_Z   1
loop_
 _symmetry_equiv_pos_site_id
 _symmetry_equiv_pos_as_xyz
  1  'x, y, z'
loop_
 _atom_site_type_symbol
 _atom_site_label
 _atom_site_symmetry_multiplicity
 _atom_site_fract_x
 _atom_site_fract_y
 _atom_site_fract_z
 _atom_site_occupancy
  Tb  Tb0  1  0.530716  0.532843  0.498560  1
  Tb  Tb1  1  0.470352  0.466258  0.999423  1
  Tb  Tb2  1  0.000525  0.535192  0.240668  1
  Tb  Tb3  1  0.999198  0.466119  0.745887  1
  Tb  Tb4  1  0.536873  0.000107  0.754299  1
  Ho  Ho5  1  0.461904  0.999190  0.260168  1
  Mo  Mo6  1  0.000864  0.001072  0.498906  1
  Mo  Mo7  1  0.999289  0.999453  0.000038  1
  O  O8  1  0.926601  0.074065  0.749642  1
  O  O9  1  0.075106  0.924568  0.250010  1
  O  O10  1  0.365557  0.641879  0.247779  1
  O  O11  1  0.634233  0.359991  0.748115  1
  O  O12  1  0.371214  0.632746  0.750774  1
  O  O13  1  0.627171  0.364290  0.251681  1
  O  O14  1  0.323005  0.077250  0.975070  1
  O  O15  1  0.671469  0.917797  0.473213  1
  O  O16  1  0.311573  0.052174  0.537218  1
  O  O17  1  0.698641  0.956613  0.045252  1
  O  O18  1  0.060511  0.308229  0.460760  1
  O  O19  1  0.930844  0.683579  0.964166  1
  O  O20  1  0.916027  0.674954  0.525512  1
  O  O21  1  0.088328  0.331632  0.022859  1
