# generated using pymatgen
data_Y20Cd5HgPdRu
_symmetry_space_group_name_H-M   'P 1'
_cell_length_a   9.69296772
_cell_length_b   9.69296784
_cell_length_c   9.82402800
_cell_angle_alpha   90.00000000
_cell_angle_beta   90.00000000
_cell_angle_gamma   119.82179587
_symmetry_Int_Tables_number   1
_chemical_formula_structural   Y20Cd5HgPdRu
_chemical_formula_sum   'Y20 Cd5 Hg1 Pd1 Ru1'
_cell_volume   800.77559337
_cell_formula_units_Z   1
loop_
 _symmetry_equiv_pos_site_id
 _symmetry_equiv_pos_as_xyz
  1  'x, y, z'
loop_
 _atom_site_type_symbol
 _atom_site_label
 _atom_site_symmetry_multiplicity
 _atom_site_fract_x
 _atom_site_fract_y
 _atom_site_fract_z
 _atom_site_occupancy
  Y  Y0  1  0.001155  0.998845  0.500977  1
  Y  Y1  1  0.001155  0.998845  0.999023  1
  Y  Y2  1  0.207692  0.792308  0.442474  1
  Y  Y3  1  0.207717  0.415632  0.442659  1
  Y  Y4  1  0.584368  0.792283  0.442659  1
  Y  Y5  1  0.790346  0.209654  0.561073  1
  Y  Y6  1  0.790249  0.580825  0.561005  1
  Y  Y7  1  0.419175  0.209751  0.561005  1
  Y  Y8  1  0.790346  0.209654  0.938927  1
  Y  Y9  1  0.790249  0.580825  0.938995  1
  Y  Y10  1  0.419175  0.209751  0.938995  1
  Y  Y11  1  0.207692  0.792308  0.057526  1
  Y  Y12  1  0.207717  0.415632  0.057341  1
  Y  Y13  1  0.584368  0.792283  0.057341  1
  Y  Y14  1  0.543002  0.456998  0.250000  1
  Y  Y15  1  0.542876  0.085981  0.250000  1
  Y  Y16  1  0.914019  0.457124  0.250000  1
  Y  Y17  1  0.458858  0.541142  0.750000  1
  Y  Y18  1  0.456517  0.917765  0.750000  1
  Y  Y19  1  0.082235  0.543483  0.750000  1
  Cd  Cd20  1  0.885089  0.114911  0.250000  1
  Cd  Cd21  1  0.885122  0.769900  0.250000  1
  Cd  Cd22  1  0.230100  0.114878  0.250000  1
  Cd  Cd23  1  0.115344  0.231491  0.750000  1
  Cd  Cd24  1  0.768509  0.884656  0.750000  1
  Hg  Hg25  1  0.117134  0.882866  0.750000  1
  Pd  Pd26  1  0.333271  0.666729  0.250000  1
  Ru  Ru27  1  0.666519  0.333481  0.750000  1
