# generated using pymatgen
data_K2VNiF7
_symmetry_space_group_name_H-M   'P 1'
_cell_length_a   7.71916822
_cell_length_b   7.71916875
_cell_length_c   7.71916866
_cell_angle_alpha   120.79431341
_cell_angle_beta   117.02143099
_cell_angle_gamma   91.93230381
_symmetry_Int_Tables_number   1
_chemical_formula_structural   K2VNiF7
_chemical_formula_sum   'K4 V2 Ni2 F14'
_cell_volume   329.97015807
_cell_formula_units_Z   2
loop_
 _symmetry_equiv_pos_site_id
 _symmetry_equiv_pos_as_xyz
  1  'x, y, z'
loop_
 _atom_site_type_symbol
 _atom_site_label
 _atom_site_symmetry_multiplicity
 _atom_site_fract_x
 _atom_site_fract_y
 _atom_site_fract_z
 _atom_site_occupancy
  K  K0  1  0.500000  0.500000  0.500000  1
  K  K1  1  0.500000  0.000000  0.000000  1
  K  K2  1  0.000000  0.000000  0.000000  1
  K  K3  1  0.500000  0.500000  0.000000  1
  V  V4  1  0.500000  0.000000  0.500000  1
  V  V5  1  0.000000  0.500000  0.500000  1
  Ni  Ni6  1  0.000000  0.000000  0.500000  1
  Ni  Ni7  1  0.000000  0.500000  0.000000  1
  F  F8  1  0.691940  0.926940  0.386098  1
  F  F9  1  0.040842  0.426940  0.235001  1
  F  F10  1  0.905342  0.750000  0.155342  1
  F  F11  1  0.700766  0.411802  0.288963  1
  F  F12  1  0.691940  0.305842  0.764999  1
  F  F13  1  0.622839  0.911802  0.711037  1
  F  F14  1  0.094658  0.250000  0.844658  1
  F  F15  1  0.299234  0.588198  0.711037  1
  F  F16  1  0.377161  0.088198  0.288963  1
  F  F17  1  0.308060  0.694158  0.235001  1
  F  F18  1  0.040842  0.805842  0.613902  1
  F  F19  1  0.308060  0.073060  0.613902  1
  F  F20  1  0.959158  0.573060  0.764999  1
  F  F21  1  0.959158  0.194158  0.386098  1
