# generated using pymatgen
data_K2RhO4
_symmetry_space_group_name_H-M   'P 1'
_cell_length_a   6.30021400
_cell_length_b   10.91905200
_cell_length_c   23.95418500
_cell_angle_alpha   90.00000000
_cell_angle_beta   90.00000000
_cell_angle_gamma   90.00000000
_symmetry_Int_Tables_number   1
_chemical_formula_structural   K2RhO4
_chemical_formula_sum   'K24 Rh12 O48'
_cell_volume   1647.86502048
_cell_formula_units_Z   12
loop_
 _symmetry_equiv_pos_site_id
 _symmetry_equiv_pos_as_xyz
  1  'x, y, z'
loop_
 _atom_site_type_symbol
 _atom_site_label
 _atom_site_symmetry_multiplicity
 _atom_site_fract_x
 _atom_site_fract_y
 _atom_site_fract_z
 _atom_site_occupancy
  K  K0  1  0.776034  0.293122  0.335023  1
  K  K1  1  0.276034  0.706878  0.664977  1
  K  K2  1  0.250345  0.432387  0.112671  1
  K  K3  1  0.222328  0.706740  0.998576  1
  K  K4  1  0.722328  0.206740  0.501424  1
  K  K5  1  0.276034  0.793122  0.164977  1
  K  K6  1  0.222328  0.793260  0.498576  1
  K  K7  1  0.750345  0.567613  0.887329  1
  K  K8  1  0.764339  0.207767  0.168834  1
  K  K9  1  0.764339  0.292233  0.668834  1
  K  K10  1  0.715918  0.938696  0.054198  1
  K  K11  1  0.715918  0.561304  0.554198  1
  K  K12  1  0.215918  0.061304  0.945802  1
  K  K13  1  0.278086  0.074176  0.280186  1
  K  K14  1  0.278086  0.425824  0.780186  1
  K  K15  1  0.778086  0.574176  0.219814  1
  K  K16  1  0.250345  0.067613  0.612671  1
  K  K17  1  0.776034  0.206878  0.835023  1
  K  K18  1  0.264339  0.792233  0.831166  1
  K  K19  1  0.215918  0.438696  0.445802  1
  K  K20  1  0.778086  0.925824  0.719814  1
  K  K21  1  0.264339  0.707767  0.331166  1
  K  K22  1  0.722328  0.293260  0.001424  1
  K  K23  1  0.750345  0.932387  0.387329  1
  Rh  Rh24  1  0.264801  0.416951  0.261125  1
  Rh  Rh25  1  0.230272  0.082839  0.096455  1
  Rh  Rh26  1  0.253933  0.083324  0.429105  1
  Rh  Rh27  1  0.730272  0.582839  0.403545  1
  Rh  Rh28  1  0.253933  0.416676  0.929105  1
  Rh  Rh29  1  0.764801  0.916951  0.238875  1
  Rh  Rh30  1  0.230272  0.417161  0.596455  1
  Rh  Rh31  1  0.753933  0.583324  0.070895  1
  Rh  Rh32  1  0.764801  0.583049  0.738875  1
  Rh  Rh33  1  0.730272  0.917161  0.903545  1
  Rh  Rh34  1  0.264801  0.083049  0.761125  1
  Rh  Rh35  1  0.753933  0.916676  0.570895  1
  O  O36  1  0.524293  0.638017  0.774304  1
  O  O37  1  0.000508  0.336878  0.567808  1
  O  O38  1  0.990130  0.852548  0.604952  1
  O  O39  1  0.470938  0.333602  0.579697  1
  O  O40  1  0.240256  0.561183  0.556686  1
  O  O41  1  0.530636  0.816646  0.583969  1
  O  O42  1  0.970938  0.833602  0.920303  1
  O  O43  1  0.323801  0.444686  0.000969  1
  O  O44  1  0.024293  0.361983  0.225696  1
  O  O45  1  0.000508  0.163122  0.067808  1
  O  O46  1  0.823801  0.555314  0.999031  1
  O  O47  1  0.740256  0.061183  0.943314  1
  O  O48  1  0.216170  0.938482  0.391592  1
  O  O49  1  0.990130  0.647452  0.104952  1
  O  O50  1  0.470938  0.166398  0.079697  1
  O  O51  1  0.685919  0.948582  0.830727  1
  O  O52  1  0.821624  0.441104  0.776837  1
  O  O53  1  0.685919  0.551418  0.330727  1
  O  O54  1  0.490130  0.147452  0.395048  1
  O  O55  1  0.970938  0.666398  0.420303  1
  O  O56  1  0.321624  0.941104  0.723163  1
  O  O57  1  0.740256  0.438817  0.443314  1
  O  O58  1  0.240256  0.938817  0.056686  1
  O  O59  1  0.024293  0.138017  0.725696  1
  O  O60  1  0.323801  0.055314  0.500969  1
  O  O61  1  0.030636  0.316646  0.916031  1
  O  O62  1  0.185919  0.448582  0.669273  1
  O  O63  1  0.687621  0.943673  0.167381  1
  O  O64  1  0.471681  0.195871  0.750114  1
  O  O65  1  0.821624  0.058896  0.276837  1
  O  O66  1  0.500508  0.836878  0.932192  1
  O  O67  1  0.530636  0.683354  0.083969  1
  O  O68  1  0.187621  0.056327  0.832619  1
  O  O69  1  0.716169  0.061518  0.608408  1
  O  O70  1  0.716169  0.438482  0.108408  1
  O  O71  1  0.471681  0.304129  0.250114  1
  O  O72  1  0.185919  0.051418  0.169273  1
  O  O73  1  0.524293  0.861983  0.274304  1
  O  O74  1  0.687621  0.556327  0.667381  1
  O  O75  1  0.321624  0.558896  0.223163  1
  O  O76  1  0.030636  0.183354  0.416031  1
  O  O77  1  0.823801  0.944686  0.499031  1
  O  O78  1  0.500508  0.663122  0.432192  1
  O  O79  1  0.187621  0.443673  0.332619  1
  O  O80  1  0.490130  0.352548  0.895048  1
  O  O81  1  0.216170  0.561518  0.891592  1
  O  O82  1  0.971681  0.695871  0.749886  1
  O  O83  1  0.971681  0.804129  0.249886  1
