# generated using pymatgen
data_Tb5Lu(CdHg2)6
_symmetry_space_group_name_H-M   'P 1'
_cell_length_a   5.08738900
_cell_length_b   7.11138900
_cell_length_c   15.44590500
_cell_angle_alpha   90.00000000
_cell_angle_beta   89.99961708
_cell_angle_gamma   90.00000000
_symmetry_Int_Tables_number   1
_chemical_formula_structural   Tb5Lu(CdHg2)6
_chemical_formula_sum   'Tb5 Lu1 Cd6 Hg12'
_cell_volume   558.80816302
_cell_formula_units_Z   1
loop_
 _symmetry_equiv_pos_site_id
 _symmetry_equiv_pos_as_xyz
  1  'x, y, z'
loop_
 _atom_site_type_symbol
 _atom_site_label
 _atom_site_symmetry_multiplicity
 _atom_site_fract_x
 _atom_site_fract_y
 _atom_site_fract_z
 _atom_site_occupancy
  Tb  Tb0  1  0.000004  0.000000  0.998865  1
  Tb  Tb1  1  0.499851  0.500000  0.165599  1
  Tb  Tb2  1  0.999857  0.000000  0.333181  1
  Tb  Tb3  1  0.499986  0.500000  0.500976  1
  Tb  Tb4  1  0.000110  0.000000  0.667935  1
  Lu  Lu5  1  0.500296  0.500000  0.833518  1
  Cd  Cd6  1  0.999985  0.500000  0.001312  1
  Cd  Cd7  1  0.499834  0.000000  0.164186  1
  Cd  Cd8  1  0.999869  0.500000  0.332792  1
  Cd  Cd9  1  0.499983  0.000000  0.501892  1
  Cd  Cd10  1  0.000113  0.500000  0.665870  1
  Cd  Cd11  1  0.500123  0.000000  0.833728  1
  Hg  Hg12  1  0.499985  0.254789  0.996683  1
  Hg  Hg13  1  0.499985  0.745210  0.996683  1
  Hg  Hg14  1  0.999838  0.248166  0.166326  1
  Hg  Hg15  1  0.999838  0.751833  0.166326  1
  Hg  Hg16  1  0.499853  0.252516  0.332994  1
  Hg  Hg17  1  0.499853  0.747484  0.332994  1
  Hg  Hg18  1  0.999983  0.247928  0.499987  1
  Hg  Hg19  1  0.999983  0.752071  0.499987  1
  Hg  Hg20  1  0.500107  0.254851  0.670410  1
  Hg  Hg21  1  0.500107  0.745149  0.670410  1
  Hg  Hg22  1  0.000228  0.255280  0.833672  1
  Hg  Hg23  1  0.000228  0.744719  0.833672  1
