# generated using pymatgen
data_Ho4Er6(InBi)3
_symmetry_space_group_name_H-M   'P 1'
_cell_length_a   9.00478004
_cell_length_b   9.00478151
_cell_length_c   6.52235900
_cell_angle_alpha   90.00000000
_cell_angle_beta   90.00000000
_cell_angle_gamma   120.01080414
_symmetry_Int_Tables_number   1
_chemical_formula_structural   Ho4Er6(InBi)3
_chemical_formula_sum   'Ho4 Er6 In3 Bi3'
_cell_volume   457.96715035
_cell_formula_units_Z   1
loop_
 _symmetry_equiv_pos_site_id
 _symmetry_equiv_pos_as_xyz
  1  'x, y, z'
loop_
 _atom_site_type_symbol
 _atom_site_label
 _atom_site_symmetry_multiplicity
 _atom_site_fract_x
 _atom_site_fract_y
 _atom_site_fract_z
 _atom_site_occupancy
  Ho  Ho0  1  0.763704  0.763704  0.750000  1
  Ho  Ho1  1  0.236325  0.999981  0.750000  1
  Ho  Ho2  1  0.999981  0.236325  0.750000  1
  Ho  Ho3  1  0.238033  0.238033  0.250000  1
  Er  Er4  1  0.666701  0.333329  0.007441  1
  Er  Er5  1  0.333329  0.666701  0.007441  1
  Er  Er6  1  0.333329  0.666701  0.492559  1
  Er  Er7  1  0.666701  0.333329  0.492559  1
  Er  Er8  1  0.761917  0.999959  0.250000  1
  Er  Er9  1  0.999959  0.761917  0.250000  1
  In  In10  1  0.606660  0.606660  0.250000  1
  In  In11  1  0.393417  0.999947  0.250000  1
  In  In12  1  0.999947  0.393417  0.250000  1
  Bi  Bi13  1  0.396038  0.396038  0.750000  1
  Bi  Bi14  1  0.603961  0.999999  0.750000  1
  Bi  Bi15  1  0.999999  0.603961  0.750000  1
