# generated using pymatgen
data_Nd5FeTcO12
_symmetry_space_group_name_H-M   'P 1'
_cell_length_a   7.05227571
_cell_length_b   7.05227604
_cell_length_c   7.64291400
_cell_angle_alpha   74.28194791
_cell_angle_beta   74.28194716
_cell_angle_gamma   50.94651676
_symmetry_Int_Tables_number   1
_chemical_formula_structural   Nd5FeTcO12
_chemical_formula_sum   'Nd5 Fe1 Tc1 O12'
_cell_volume   281.57978986
_cell_formula_units_Z   1
loop_
 _symmetry_equiv_pos_site_id
 _symmetry_equiv_pos_as_xyz
  1  'x, y, z'
loop_
 _atom_site_type_symbol
 _atom_site_label
 _atom_site_symmetry_multiplicity
 _atom_site_fract_x
 _atom_site_fract_y
 _atom_site_fract_z
 _atom_site_occupancy
  Nd  Nd0  1  0.318986  0.294264  0.357712  1
  Nd  Nd1  1  0.705736  0.681014  0.642288  1
  Nd  Nd2  1  0.691157  0.690702  0.168244  1
  Nd  Nd3  1  0.309298  0.308843  0.831756  1
  Nd  Nd4  1  0.009712  0.990288  0.500000  1
  Fe  Fe5  1  0.747221  0.252779  0.000000  1
  Tc  Tc6  1  0.230088  0.769912  0.000000  1
  O  O7  1  0.102723  0.592060  0.573787  1
  O  O8  1  0.005602  0.992985  0.177607  1
  O  O9  1  0.407940  0.897277  0.426213  1
  O  O10  1  0.483117  0.518360  0.177097  1
  O  O11  1  0.102962  0.588165  0.078417  1
  O  O12  1  0.912691  0.400061  0.419089  1
  O  O13  1  0.007015  0.994398  0.822393  1
  O  O14  1  0.599939  0.087308  0.580911  1
  O  O15  1  0.481640  0.516883  0.822903  1
  O  O16  1  0.573084  0.100747  0.079102  1
  O  O17  1  0.411835  0.897038  0.921583  1
  O  O18  1  0.899253  0.426916  0.920898  1
