# generated using pymatgen
data_Li4TcO5
_symmetry_space_group_name_H-M   'P 1'
_cell_length_a   5.36630868
_cell_length_b   5.36630968
_cell_length_c   8.00549117
_cell_angle_alpha   82.96374785
_cell_angle_beta   82.96374858
_cell_angle_gamma   66.99942451
_symmetry_Int_Tables_number   1
_chemical_formula_structural   Li4TcO5
_chemical_formula_sum   'Li8 Tc2 O10'
_cell_volume   209.90675496
_cell_formula_units_Z   2
loop_
 _symmetry_equiv_pos_site_id
 _symmetry_equiv_pos_as_xyz
  1  'x, y, z'
loop_
 _atom_site_type_symbol
 _atom_site_label
 _atom_site_symmetry_multiplicity
 _atom_site_fract_x
 _atom_site_fract_y
 _atom_site_fract_z
 _atom_site_occupancy
  Li  Li0  1  0.636069  0.965980  0.649854  1
  Li  Li1  1  0.965980  0.636069  0.149854  1
  Li  Li2  1  0.783862  0.443053  0.555765  1
  Li  Li3  1  0.443053  0.783862  0.055765  1
  Li  Li4  1  0.556947  0.216138  0.944235  1
  Li  Li5  1  0.216138  0.556947  0.444235  1
  Li  Li6  1  0.034020  0.363931  0.850146  1
  Li  Li7  1  0.363931  0.034020  0.350146  1
  Tc  Tc8  1  0.170287  0.829713  0.750000  1
  Tc  Tc9  1  0.829713  0.170287  0.250000  1
  O  O10  1  0.980047  0.641810  0.655886  1
  O  O11  1  0.641810  0.980047  0.155886  1
  O  O12  1  0.416304  0.768340  0.564783  1
  O  O13  1  0.768340  0.416304  0.064783  1
  O  O14  1  0.859180  0.140820  0.750000  1
  O  O15  1  0.140820  0.859180  0.250000  1
  O  O16  1  0.231660  0.583696  0.935217  1
  O  O17  1  0.583696  0.231660  0.435217  1
  O  O18  1  0.358190  0.019953  0.844114  1
  O  O19  1  0.019953  0.358190  0.344114  1
