# generated using pymatgen
data_Pr16Er4Si15P
_symmetry_space_group_name_H-M   'P 1'
_cell_length_a   7.81363449
_cell_length_b   7.81252883
_cell_length_c   15.30189689
_cell_angle_alpha   89.87918769
_cell_angle_beta   89.80384579
_cell_angle_gamma   90.11885527
_symmetry_Int_Tables_number   1
_chemical_formula_structural   Pr16Er4Si15P
_chemical_formula_sum   'Pr16 Er4 Si15 P1'
_cell_volume   934.08316449
_cell_formula_units_Z   1
loop_
 _symmetry_equiv_pos_site_id
 _symmetry_equiv_pos_as_xyz
  1  'x, y, z'
loop_
 _atom_site_type_symbol
 _atom_site_label
 _atom_site_symmetry_multiplicity
 _atom_site_fract_x
 _atom_site_fract_y
 _atom_site_fract_z
 _atom_site_occupancy
  Pr  Pr0  1  0.380276  0.009929  0.443154  1
  Pr  Pr1  1  0.484663  0.879621  0.695998  1
  Pr  Pr2  1  0.513024  0.120606  0.194747  1
  Pr  Pr3  1  0.878250  0.485969  0.304550  1
  Pr  Pr4  1  0.123949  0.511023  0.804239  1
  Pr  Pr5  1  0.623578  0.987178  0.944901  1
  Pr  Pr6  1  0.010762  0.377060  0.555285  1
  Pr  Pr7  1  0.987960  0.621126  0.054832  1
  Pr  Pr8  1  0.128923  0.981179  0.876188  1
  Pr  Pr9  1  0.523180  0.626395  0.127709  1
  Pr  Pr10  1  0.471807  0.369740  0.629926  1
  Pr  Pr11  1  0.626688  0.523527  0.871493  1
  Pr  Pr12  1  0.372601  0.474888  0.372630  1
  Pr  Pr13  1  0.875440  0.023011  0.378928  1
  Pr  Pr14  1  0.977215  0.125359  0.121439  1
  Pr  Pr15  1  0.026493  0.880126  0.622217  1
  Er  Er16  1  0.311475  0.310491  0.999827  1
  Er  Er17  1  0.189528  0.808547  0.249787  1
  Er  Er18  1  0.808622  0.190662  0.749871  1
  Er  Er19  1  0.688963  0.689134  0.500249  1
  Si  Si20  1  0.327853  0.689216  0.956902  1
  Si  Si21  1  0.671092  0.311962  0.458992  1
  Si  Si22  1  0.689734  0.329458  0.042454  1
  Si  Si23  1  0.311332  0.670724  0.543332  1
  Si  Si24  1  0.812734  0.827860  0.208189  1
  Si  Si25  1  0.172407  0.186632  0.291262  1
  Si  Si26  1  0.830580  0.812020  0.791399  1
  Si  Si27  1  0.286254  0.921899  0.062619  1
  Si  Si28  1  0.578681  0.784650  0.313176  1
  Si  Si29  1  0.428008  0.213149  0.816236  1
  Si  Si30  1  0.786713  0.579530  0.685613  1
  Si  Si31  1  0.213486  0.422196  0.186582  1
  Si  Si32  1  0.709662  0.076228  0.563727  1
  Si  Si33  1  0.923753  0.287792  0.936620  1
  Si  Si34  1  0.077957  0.712582  0.437210  1
  P  P35  1  0.176355  0.178532  0.707719  1
