# generated using pymatgen
data_Yb4Pr16Si15Ru
_symmetry_space_group_name_H-M   'P 1'
_cell_length_a   7.93695033
_cell_length_b   7.88572431
_cell_length_c   15.10877683
_cell_angle_alpha   90.04263504
_cell_angle_beta   89.90807485
_cell_angle_gamma   90.19649807
_symmetry_Int_Tables_number   1
_chemical_formula_structural   Yb4Pr16Si15Ru
_chemical_formula_sum   'Yb4 Pr16 Si15 Ru1'
_cell_volume   945.63018535
_cell_formula_units_Z   1
loop_
 _symmetry_equiv_pos_site_id
 _symmetry_equiv_pos_as_xyz
  1  'x, y, z'
loop_
 _atom_site_type_symbol
 _atom_site_label
 _atom_site_symmetry_multiplicity
 _atom_site_fract_x
 _atom_site_fract_y
 _atom_site_fract_z
 _atom_site_occupancy
  Yb  Yb0  1  0.309073  0.308323  0.998826  1
  Yb  Yb1  1  0.190893  0.809844  0.250923  1
  Yb  Yb2  1  0.817969  0.192096  0.747258  1
  Yb  Yb3  1  0.692743  0.691207  0.502123  1
  Pr  Pr4  1  0.375164  0.009469  0.450312  1
  Pr  Pr5  1  0.488693  0.882309  0.696736  1
  Pr  Pr6  1  0.508553  0.123862  0.199113  1
  Pr  Pr7  1  0.877249  0.490920  0.302370  1
  Pr  Pr8  1  0.125492  0.499604  0.797091  1
  Pr  Pr9  1  0.623194  0.991090  0.947576  1
  Pr  Pr10  1  0.003496  0.377825  0.551763  1
  Pr  Pr11  1  0.991083  0.623124  0.050782  1
  Pr  Pr12  1  0.128978  0.989961  0.870726  1
  Pr  Pr13  1  0.513421  0.626861  0.125892  1
  Pr  Pr14  1  0.472484  0.361726  0.628823  1
  Pr  Pr15  1  0.625495  0.511509  0.874483  1
  Pr  Pr16  1  0.374413  0.486935  0.375619  1
  Pr  Pr17  1  0.876506  0.014821  0.377112  1
  Pr  Pr18  1  0.987617  0.123194  0.123855  1
  Pr  Pr19  1  0.025046  0.886348  0.627824  1
  Si  Si20  1  0.331527  0.697384  0.949167  1
  Si  Si21  1  0.662780  0.296746  0.449729  1
  Si  Si22  1  0.703119  0.334331  0.052250  1
  Si  Si23  1  0.299933  0.668511  0.549165  1
  Si  Si24  1  0.801174  0.832472  0.201344  1
  Si  Si25  1  0.166934  0.200754  0.298933  1
  Si  Si26  1  0.832923  0.798678  0.800639  1
  Si  Si27  1  0.287216  0.918271  0.058148  1
  Si  Si28  1  0.580615  0.788274  0.309579  1
  Si  Si29  1  0.424366  0.207290  0.813100  1
  Si  Si30  1  0.781473  0.583739  0.690613  1
  Si  Si31  1  0.211479  0.421506  0.190679  1
  Si  Si32  1  0.707031  0.077327  0.558796  1
  Si  Si33  1  0.920280  0.287551  0.941434  1
  Si  Si34  1  0.080958  0.715132  0.441112  1
  Ru  Ru35  1  0.200631  0.171004  0.696108  1
