# generated using pymatgen
data_Er2Si3PbO10
_symmetry_space_group_name_H-M   'P 1'
_cell_length_a   5.44354891
_cell_length_b   12.22381300
_cell_length_c   6.89373568
_cell_angle_alpha   90.00000000
_cell_angle_beta   107.65071528
_cell_angle_gamma   90.00000000
_symmetry_Int_Tables_number   1
_chemical_formula_structural   Er2Si3PbO10
_chemical_formula_sum   'Er4 Si6 Pb2 O20'
_cell_volume   437.12043008
_cell_formula_units_Z   2
loop_
 _symmetry_equiv_pos_site_id
 _symmetry_equiv_pos_as_xyz
  1  'x, y, z'
loop_
 _atom_site_type_symbol
 _atom_site_label
 _atom_site_symmetry_multiplicity
 _atom_site_fract_x
 _atom_site_fract_y
 _atom_site_fract_z
 _atom_site_occupancy
  Er  Er0  1  0.165503  0.098120  0.685030  1
  Er  Er1  1  0.834503  0.598119  0.314987  1
  Er  Er2  1  0.834503  0.901882  0.314987  1
  Er  Er3  1  0.165503  0.401880  0.685030  1
  Si  Si4  1  0.302703  0.060602  0.216640  1
  Si  Si5  1  0.697293  0.560596  0.783365  1
  Si  Si6  1  0.697293  0.939405  0.783365  1
  Si  Si7  1  0.302703  0.439399  0.216640  1
  Si  Si8  1  0.577350  0.250000  0.489080  1
  Si  Si9  1  0.422646  0.750000  0.510919  1
  Pb  Pb10  1  0.810017  0.250000  0.990435  1
  Pb  Pb11  1  0.189958  0.750000  0.009506  1
  O  O12  1  0.105597  0.046390  0.355951  1
  O  O13  1  0.894413  0.546390  0.644062  1
  O  O14  1  0.894413  0.953609  0.644062  1
  O  O15  1  0.105597  0.453610  0.355951  1
  O  O16  1  0.152767  0.122780  0.002503  1
  O  O17  1  0.847223  0.622779  0.997498  1
  O  O18  1  0.847223  0.877221  0.997498  1
  O  O19  1  0.152767  0.377219  0.002503  1
  O  O20  1  0.432676  0.945011  0.186647  1
  O  O21  1  0.567330  0.445005  0.813349  1
  O  O22  1  0.567330  0.054995  0.813349  1
  O  O23  1  0.432676  0.554989  0.186647  1
  O  O24  1  0.548624  0.140796  0.345382  1
  O  O25  1  0.451369  0.640791  0.654613  1
  O  O26  1  0.451369  0.859208  0.654613  1
  O  O27  1  0.548624  0.359204  0.345382  1
  O  O28  1  0.872560  0.250000  0.650993  1
  O  O29  1  0.127447  0.750000  0.349001  1
  O  O30  1  0.358197  0.250000  0.607340  1
  O  O31  1  0.641819  0.750000  0.392678  1
