# generated using pymatgen
data_LiHf(Ta2B5)4
_symmetry_space_group_name_H-M   'P 1'
_cell_length_a   6.19509296
_cell_length_b   7.03392323
_cell_length_c   7.34192239
_cell_angle_alpha   93.55747600
_cell_angle_beta   102.15503432
_cell_angle_gamma   116.16332610
_symmetry_Int_Tables_number   1
_chemical_formula_structural   LiHf(Ta2B5)4
_chemical_formula_sum   'Li1 Hf1 Ta8 B20'
_cell_volume   276.30435716
_cell_formula_units_Z   1
loop_
 _symmetry_equiv_pos_site_id
 _symmetry_equiv_pos_as_xyz
  1  'x, y, z'
loop_
 _atom_site_type_symbol
 _atom_site_label
 _atom_site_symmetry_multiplicity
 _atom_site_fract_x
 _atom_site_fract_y
 _atom_site_fract_z
 _atom_site_occupancy
  Li  Li0  1  0.999925  0.999893  0.999952  1
  Hf  Hf1  1  0.500337  0.800388  0.399647  1
  Ta  Ta2  1  0.500649  0.001934  0.999408  1
  Ta  Ta3  1  0.999821  0.396024  0.199740  1
  Ta  Ta4  1  0.500921  0.199318  0.600839  1
  Ta  Ta5  1  0.998604  0.795699  0.400011  1
  Ta  Ta6  1  0.502589  0.599907  0.799880  1
  Ta  Ta7  1  0.496437  0.398976  0.198833  1
  Ta  Ta8  1  0.001327  0.204615  0.601575  1
  Ta  Ta9  1  0.999475  0.603511  0.799758  1
  B  B10  1  0.329298  0.229791  0.869220  1
  B  B11  1  0.332378  0.632100  0.065367  1
  B  B12  1  0.165073  0.362127  0.936291  1
  B  B13  1  0.329492  0.033840  0.263181  1
  B  B14  1  0.164311  0.769146  0.129138  1
  B  B15  1  0.834888  0.230460  0.869469  1
  B  B16  1  0.165075  0.164685  0.328593  1
  B  B17  1  0.835014  0.638053  0.063315  1
  B  B18  1  0.332499  0.431449  0.465643  1
  B  B19  1  0.667143  0.367634  0.933059  1
  B  B20  1  0.835259  0.033469  0.262468  1
  B  B21  1  0.670067  0.769161  0.129324  1
  B  B22  1  0.333753  0.835015  0.668040  1
  B  B23  1  0.167335  0.567379  0.534427  1
  B  B24  1  0.666013  0.165903  0.332944  1
  B  B25  1  0.832127  0.432060  0.466780  1
  B  B26  1  0.165776  0.967493  0.738019  1
  B  B27  1  0.835926  0.835099  0.672004  1
  B  B28  1  0.667849  0.567079  0.534802  1
  B  B29  1  0.670637  0.967792  0.738275  1
