# generated using pymatgen
data_YbTh2CoSn3Ir2
_symmetry_space_group_name_H-M   'P 1'
_cell_length_a   7.42317600
_cell_length_b   7.52496314
_cell_length_c   4.06053700
_cell_angle_alpha   90.00000000
_cell_angle_beta   90.00000000
_cell_angle_gamma   119.55352604
_symmetry_Int_Tables_number   1
_chemical_formula_structural   YbTh2CoSn3Ir2
_chemical_formula_sum   'Yb1 Th2 Co1 Sn3 Ir2'
_cell_volume   197.30795101
_cell_formula_units_Z   1
loop_
 _symmetry_equiv_pos_site_id
 _symmetry_equiv_pos_as_xyz
  1  'x, y, z'
loop_
 _atom_site_type_symbol
 _atom_site_label
 _atom_site_symmetry_multiplicity
 _atom_site_fract_x
 _atom_site_fract_y
 _atom_site_fract_z
 _atom_site_occupancy
  Yb  Yb0  1  0.408648  0.000000  0.500000  1
  Th  Th1  1  0.000579  0.411102  0.500000  1
  Th  Th2  1  0.589478  0.588898  0.500000  1
  Co  Co3  1  0.985049  0.000000  0.500000  1
  Sn  Sn4  1  0.014027  0.768175  0.000000  1
  Sn  Sn5  1  0.245851  0.231825  0.000000  1
  Sn  Sn6  1  0.741439  0.000000  0.000000  1
  Ir  Ir7  1  0.330066  0.645202  0.000000  1
  Ir  Ir8  1  0.684865  0.354798  0.000000  1
