# generated using pymatgen
data_Ti24BeSiS6
_symmetry_space_group_name_H-M   'P 1'
_cell_length_a   9.84684328
_cell_length_b   9.87792200
_cell_length_c   4.95463400
_cell_angle_alpha   90.09625748
_cell_angle_beta   90.04674740
_cell_angle_gamma   90.00603507
_symmetry_Int_Tables_number   1
_chemical_formula_structural   Ti24BeSiS6
_chemical_formula_sum   'Ti24 Be1 Si1 S6'
_cell_volume   481.91832055
_cell_formula_units_Z   1
loop_
 _symmetry_equiv_pos_site_id
 _symmetry_equiv_pos_as_xyz
  1  'x, y, z'
loop_
 _atom_site_type_symbol
 _atom_site_label
 _atom_site_symmetry_multiplicity
 _atom_site_fract_x
 _atom_site_fract_y
 _atom_site_fract_z
 _atom_site_occupancy
  Ti  Ti0  1  0.971431  0.862722  0.280994  1
  Ti  Ti1  1  0.361298  0.528992  0.783886  1
  Ti  Ti2  1  0.638734  0.472769  0.779432  1
  Ti  Ti3  1  0.029055  0.138571  0.282758  1
  Ti  Ti4  1  0.527842  0.636528  0.216967  1
  Ti  Ti5  1  0.142495  0.975990  0.720650  1
  Ti  Ti6  1  0.860333  0.031602  0.717061  1
  Ti  Ti7  1  0.470443  0.357767  0.219401  1
  Ti  Ti8  1  0.817143  0.283238  0.013132  1
  Ti  Ti9  1  0.781870  0.678541  0.508762  1
  Ti  Ti10  1  0.215197  0.320659  0.519023  1
  Ti  Ti11  1  0.184197  0.714233  0.015182  1
  Ti  Ti12  1  0.682135  0.216364  0.489446  1
  Ti  Ti13  1  0.713041  0.820502  0.985259  1
  Ti  Ti14  1  0.286574  0.180055  0.984632  1
  Ti  Ti15  1  0.318431  0.783032  0.485154  1
  Ti  Ti16  1  0.915295  0.393346  0.541558  1
  Ti  Ti17  1  0.892317  0.581309  0.039300  1
  Ti  Ti18  1  0.108291  0.415722  0.036770  1
  Ti  Ti19  1  0.085672  0.603833  0.538967  1
  Ti  Ti20  1  0.583385  0.106449  0.952439  1
  Ti  Ti21  1  0.606731  0.915995  0.461562  1
  Ti  Ti22  1  0.394301  0.086389  0.467293  1
  Ti  Ti23  1  0.415439  0.892761  0.959566  1
  Be  Be24  1  0.459013  0.298175  0.710894  1
  Si  Si25  1  0.960288  0.794027  0.786045  1
  S  S26  1  0.791367  0.040074  0.211181  1
  S  S27  1  0.209060  0.959643  0.213810  1
  S  S28  1  0.539377  0.708191  0.709060  1
  S  S29  1  0.039562  0.208216  0.789333  1
  S  S30  1  0.706256  0.456462  0.290108  1
  S  S31  1  0.293422  0.537844  0.290370  1
