# generated using pymatgen
data_Ca3La17Ga11Ge
_symmetry_space_group_name_H-M   'P 1'
_cell_length_a   7.98474900
_cell_length_b   7.98474900
_cell_length_c   14.63167300
_cell_angle_alpha   90.00000000
_cell_angle_beta   90.00000000
_cell_angle_gamma   90.00000000
_symmetry_Int_Tables_number   1
_chemical_formula_structural   Ca3La17Ga11Ge
_chemical_formula_sum   'Ca3 La17 Ga11 Ge1'
_cell_volume   932.86011291
_cell_formula_units_Z   1
loop_
 _symmetry_equiv_pos_site_id
 _symmetry_equiv_pos_as_xyz
  1  'x, y, z'
loop_
 _atom_site_type_symbol
 _atom_site_label
 _atom_site_symmetry_multiplicity
 _atom_site_fract_x
 _atom_site_fract_y
 _atom_site_fract_z
 _atom_site_occupancy
  Ca  Ca0  1  0.000000  0.500000  0.736396  1
  Ca  Ca1  1  0.000000  0.500000  0.244192  1
  Ca  Ca2  1  0.500000  0.000000  0.249132  1
  La  La3  1  0.818724  0.830310  0.601170  1
  La  La4  1  0.175975  0.829829  0.098984  1
  La  La5  1  0.168906  0.822689  0.398563  1
  La  La6  1  0.831094  0.177311  0.398563  1
  La  La7  1  0.677311  0.668906  0.398563  1
  La  La8  1  0.669690  0.318724  0.601170  1
  La  La9  1  0.330310  0.681276  0.601170  1
  La  La10  1  0.670171  0.675975  0.098984  1
  La  La11  1  0.678158  0.337718  0.898718  1
  La  La12  1  0.837718  0.821842  0.898718  1
  La  La13  1  0.322689  0.331094  0.398563  1
  La  La14  1  0.181276  0.169690  0.601170  1
  La  La15  1  0.824025  0.170171  0.098984  1
  La  La16  1  0.321842  0.662282  0.898718  1
  La  La17  1  0.329829  0.324025  0.098984  1
  La  La18  1  0.162282  0.178158  0.898718  1
  La  La19  1  0.500000  0.000000  0.791190  1
  Ga  Ga20  1  0.618983  0.383275  0.248545  1
  Ga  Ga21  1  0.118364  0.881088  0.748702  1
  Ga  Ga22  1  0.381088  0.381636  0.748702  1
  Ga  Ga23  1  0.381017  0.616725  0.248545  1
  Ga  Ga24  1  0.883275  0.881017  0.248545  1
  Ga  Ga25  1  0.618912  0.618364  0.748702  1
  Ga  Ga26  1  0.881636  0.118912  0.748702  1
  Ga  Ga27  1  0.500000  0.000000  0.489967  1
  Ga  Ga28  1  0.500000  0.000000  0.003571  1
  Ga  Ga29  1  0.116725  0.118983  0.248545  1
  Ga  Ga30  1  0.000000  0.500000  0.003689  1
  Ge  Ge31  1  0.000000  0.500000  0.503145  1
