# generated using pymatgen
data_Y16Cd4CoNi2Ir
_symmetry_space_group_name_H-M   'P 1'
_cell_length_a   9.62384103
_cell_length_b   9.62384157
_cell_length_c   9.64701115
_cell_angle_alpha   59.79372042
_cell_angle_beta   59.79372018
_cell_angle_gamma   59.68877737
_symmetry_Int_Tables_number   1
_chemical_formula_structural   Y16Cd4CoNi2Ir
_chemical_formula_sum   'Y16 Cd4 Co1 Ni2 Ir1'
_cell_volume   628.33030622
_cell_formula_units_Z   1
loop_
 _symmetry_equiv_pos_site_id
 _symmetry_equiv_pos_as_xyz
  1  'x, y, z'
loop_
 _atom_site_type_symbol
 _atom_site_label
 _atom_site_symmetry_multiplicity
 _atom_site_fract_x
 _atom_site_fract_y
 _atom_site_fract_z
 _atom_site_occupancy
  Y  Y0  1  0.594834  0.594834  0.599526  1
  Y  Y1  1  0.602946  0.602946  0.199849  1
  Y  Y2  1  0.599931  0.204169  0.603546  1
  Y  Y3  1  0.204169  0.599931  0.603546  1
  Y  Y4  1  0.058651  0.438846  0.439832  1
  Y  Y5  1  0.436634  0.064883  0.057609  1
  Y  Y6  1  0.438846  0.058651  0.439832  1
  Y  Y7  1  0.064883  0.436634  0.057609  1
  Y  Y8  1  0.438649  0.438649  0.056855  1
  Y  Y9  1  0.060599  0.060599  0.437350  1
  Y  Y10  1  0.186427  0.813916  0.816612  1
  Y  Y11  1  0.808933  0.188625  0.188716  1
  Y  Y12  1  0.813916  0.186427  0.816612  1
  Y  Y13  1  0.188625  0.808933  0.188716  1
  Y  Y14  1  0.814854  0.814854  0.187417  1
  Y  Y15  1  0.188836  0.188836  0.810268  1
  Cd  Cd16  1  0.829906  0.829906  0.830754  1
  Cd  Cd17  1  0.829540  0.829540  0.507408  1
  Cd  Cd18  1  0.829918  0.506411  0.829963  1
  Cd  Cd19  1  0.506411  0.829918  0.829963  1
  Co  Co20  1  0.391687  0.391687  0.825860  1
  Ni  Ni21  1  0.391698  0.825410  0.390480  1
  Ni  Ni22  1  0.825410  0.391698  0.390480  1
  Ir  Ir23  1  0.393695  0.393695  0.391193  1
