# generated using pymatgen
data_Zn2N13
_symmetry_space_group_name_H-M   'P 1'
_cell_length_a   3.56197333
_cell_length_b   7.77578390
_cell_length_c   15.98204617
_cell_angle_alpha   89.62630575
_cell_angle_beta   94.26192516
_cell_angle_gamma   99.31007979
_symmetry_Int_Tables_number   1
_chemical_formula_structural   Zn2N13
_chemical_formula_sum   'Zn2 N13'
_cell_volume   435.61114660
_cell_formula_units_Z   1
loop_
 _symmetry_equiv_pos_site_id
 _symmetry_equiv_pos_as_xyz
  1  'x, y, z'
loop_
 _atom_site_type_symbol
 _atom_site_label
 _atom_site_symmetry_multiplicity
 _atom_site_fract_x
 _atom_site_fract_y
 _atom_site_fract_z
 _atom_site_occupancy
  Zn  Zn0  1  0.776846  0.041132  0.314864  1
  Zn  Zn1  1  0.236251  0.830966  0.414120  1
  N  N2  1  0.587792  0.896842  0.071416  1
  N  N3  1  0.297126  0.297391  0.936066  1
  N  N4  1  0.862883  0.455608  0.184804  1
  N  N5  1  0.203222  0.268620  0.000299  1
  N  N6  1  0.035276  0.426991  0.728969  1
  N  N7  1  0.741798  0.861968  0.397827  1
  N  N8  1  0.682543  0.944549  0.804382  1
  N  N9  1  0.451263  0.318416  0.536223  1
  N  N10  1  0.422675  0.788818  0.032055  1
  N  N11  1  0.762483  0.824712  0.834380  1
  N  N12  1  0.595200  0.376038  0.480702  1
  N  N13  1  0.017503  0.588825  0.200900  1
  N  N14  1  0.090244  0.552713  0.694802  1
