# generated using pymatgen
data_Sm7Er12TmSn16
_symmetry_space_group_name_H-M   'P 1'
_cell_length_a   8.04511615
_cell_length_b   8.19124859
_cell_length_c   15.46507503
_cell_angle_alpha   90.02016110
_cell_angle_beta   90.17284379
_cell_angle_gamma   89.82484786
_symmetry_Int_Tables_number   1
_chemical_formula_structural   Sm7Er12TmSn16
_chemical_formula_sum   'Sm7 Er12 Tm1 Sn16'
_cell_volume   1019.13196961
_cell_formula_units_Z   1
loop_
 _symmetry_equiv_pos_site_id
 _symmetry_equiv_pos_as_xyz
  1  'x, y, z'
loop_
 _atom_site_type_symbol
 _atom_site_label
 _atom_site_symmetry_multiplicity
 _atom_site_fract_x
 _atom_site_fract_y
 _atom_site_fract_z
 _atom_site_occupancy
  Sm  Sm0  1  0.018911  0.179391  0.597936  1
  Sm  Sm1  1  0.481259  0.678948  0.403031  1
  Sm  Sm2  1  0.980655  0.821049  0.096737  1
  Sm  Sm3  1  0.480277  0.678078  0.096655  1
  Sm  Sm4  1  0.981451  0.821075  0.403103  1
  Sm  Sm5  1  0.518183  0.321374  0.596557  1
  Sm  Sm6  1  0.018950  0.179693  0.902890  1
  Er  Er7  1  0.365492  0.836019  0.877111  1
  Er  Er8  1  0.864585  0.663494  0.623120  1
  Er  Er9  1  0.634814  0.163831  0.377153  1
  Er  Er10  1  0.133520  0.336240  0.122204  1
  Er  Er11  1  0.633502  0.164404  0.122243  1
  Er  Er12  1  0.135114  0.336088  0.377343  1
  Er  Er13  1  0.365222  0.836550  0.623598  1
  Er  Er14  1  0.865809  0.663282  0.877580  1
  Er  Er15  1  0.521989  0.321820  0.901806  1
  Er  Er16  1  0.197882  0.503323  0.750796  1
  Er  Er17  1  0.697053  0.996193  0.750574  1
  Er  Er18  1  0.802448  0.495957  0.249753  1
  Tm  Tm19  1  0.302601  0.004143  0.249749  1
  Sn  Sn20  1  0.297846  0.038639  0.041763  1
  Sn  Sn21  1  0.798285  0.460732  0.458299  1
  Sn  Sn22  1  0.701686  0.961281  0.542041  1
  Sn  Sn23  1  0.206676  0.535528  0.957242  1
  Sn  Sn24  1  0.700706  0.963557  0.957612  1
  Sn  Sn25  1  0.201349  0.539816  0.541968  1
  Sn  Sn26  1  0.298385  0.038764  0.458378  1
  Sn  Sn27  1  0.794919  0.459602  0.040367  1
  Sn  Sn28  1  0.563446  0.621362  0.750337  1
  Sn  Sn29  1  0.063375  0.877212  0.750182  1
  Sn  Sn30  1  0.436116  0.377602  0.249798  1
  Sn  Sn31  1  0.936473  0.122829  0.249831  1
  Sn  Sn32  1  0.330459  0.146894  0.751759  1
  Sn  Sn33  1  0.826146  0.355131  0.750637  1
  Sn  Sn34  1  0.672067  0.855231  0.249838  1
  Sn  Sn35  1  0.172344  0.644866  0.250009  1
