# generated using pymatgen
data_Tb8ErMg(SiB4)4
_symmetry_space_group_name_H-M   'P 1'
_cell_length_a   7.20465600
_cell_length_b   7.20465600
_cell_length_c   8.03730600
_cell_angle_alpha   90.00000000
_cell_angle_beta   90.00000000
_cell_angle_gamma   90.00000000
_symmetry_Int_Tables_number   1
_chemical_formula_structural   Tb8ErMg(SiB4)4
_chemical_formula_sum   'Tb8 Er1 Mg1 Si4 B16'
_cell_volume   417.19298971
_cell_formula_units_Z   1
loop_
 _symmetry_equiv_pos_site_id
 _symmetry_equiv_pos_as_xyz
  1  'x, y, z'
loop_
 _atom_site_type_symbol
 _atom_site_label
 _atom_site_symmetry_multiplicity
 _atom_site_fract_x
 _atom_site_fract_y
 _atom_site_fract_z
 _atom_site_occupancy
  Tb  Tb0  1  0.682067  0.180065  0.229232  1
  Tb  Tb1  1  0.317933  0.819935  0.770768  1
  Tb  Tb2  1  0.317933  0.819935  0.229232  1
  Tb  Tb3  1  0.819935  0.682067  0.229232  1
  Tb  Tb4  1  0.819935  0.682067  0.770768  1
  Tb  Tb5  1  0.682067  0.180065  0.770768  1
  Tb  Tb6  1  0.180065  0.317933  0.770768  1
  Tb  Tb7  1  0.180065  0.317933  0.229232  1
  Er  Er8  1  0.500000  0.500000  0.500000  1
  Mg  Mg9  1  0.000000  0.000000  0.500000  1
  Si  Si10  1  0.115288  0.615837  0.500000  1
  Si  Si11  1  0.884712  0.384163  0.500000  1
  Si  Si12  1  0.384163  0.115288  0.500000  1
  Si  Si13  1  0.615837  0.884712  0.500000  1
  B  B14  1  0.174313  0.038447  0.000000  1
  B  B15  1  0.825687  0.961553  0.000000  1
  B  B16  1  0.961553  0.174313  0.000000  1
  B  B17  1  0.327263  0.539588  0.000000  1
  B  B18  1  0.038447  0.825687  0.000000  1
  B  B19  1  0.672737  0.460412  0.000000  1
  B  B20  1  0.539588  0.672737  0.000000  1
  B  B21  1  0.460412  0.327263  0.000000  1
  B  B22  1  0.089512  0.588625  0.000000  1
  B  B23  1  0.910488  0.411375  0.000000  1
  B  B24  1  0.411375  0.089512  0.000000  1
  B  B25  1  0.588625  0.910488  0.000000  1
  B  B26  1  0.000000  0.000000  0.157672  1
  B  B27  1  0.000000  0.000000  0.842328  1
  B  B28  1  0.500000  0.500000  0.837706  1
  B  B29  1  0.500000  0.500000  0.162294  1
