# generated using pymatgen
data_DyLu(Si7Ir3)2
_symmetry_space_group_name_H-M   'P 1'
_cell_length_a   8.03810831
_cell_length_b   8.03810837
_cell_length_c   8.03810892
_cell_angle_alpha   56.47721760
_cell_angle_beta   56.47722511
_cell_angle_gamma   56.47722422
_symmetry_Int_Tables_number   1
_chemical_formula_structural   DyLu(Si7Ir3)2
_chemical_formula_sum   'Dy1 Lu1 Si14 Ir6'
_cell_volume   337.33202148
_cell_formula_units_Z   1
loop_
 _symmetry_equiv_pos_site_id
 _symmetry_equiv_pos_as_xyz
  1  'x, y, z'
loop_
 _atom_site_type_symbol
 _atom_site_label
 _atom_site_symmetry_multiplicity
 _atom_site_fract_x
 _atom_site_fract_y
 _atom_site_fract_z
 _atom_site_occupancy
  Dy  Dy0  1  0.500000  0.500000  0.500000  1
  Lu  Lu1  1  0.000000  0.000000  0.000000  1
  Si  Si2  1  0.850418  0.063939  0.672804  1
  Si  Si3  1  0.672804  0.850418  0.063939  1
  Si  Si4  1  0.063939  0.672804  0.850418  1
  Si  Si5  1  0.649531  0.827616  0.435620  1
  Si  Si6  1  0.249942  0.249942  0.249942  1
  Si  Si7  1  0.750058  0.750058  0.750058  1
  Si  Si8  1  0.172384  0.564380  0.350469  1
  Si  Si9  1  0.564380  0.350469  0.172384  1
  Si  Si10  1  0.350469  0.172384  0.564380  1
  Si  Si11  1  0.936061  0.327196  0.149582  1
  Si  Si12  1  0.327196  0.149582  0.936061  1
  Si  Si13  1  0.149582  0.936061  0.327196  1
  Si  Si14  1  0.827616  0.435620  0.649531  1
  Si  Si15  1  0.435620  0.649531  0.827616  1
  Ir  Ir16  1  0.751065  0.070321  0.427913  1
  Ir  Ir17  1  0.427913  0.751065  0.070321  1
  Ir  Ir18  1  0.070321  0.427913  0.751065  1
  Ir  Ir19  1  0.248935  0.929679  0.572087  1
  Ir  Ir20  1  0.572087  0.248935  0.929679  1
  Ir  Ir21  1  0.929679  0.572087  0.248935  1
