# generated using pymatgen
data_La8TbTmRu4
_symmetry_space_group_name_H-M   'P 1'
_cell_length_a   6.67332441
_cell_length_b   7.24798861
_cell_length_c   9.05001331
_cell_angle_alpha   94.21493341
_cell_angle_beta   111.63493085
_cell_angle_gamma   90.00000036
_symmetry_Int_Tables_number   1
_chemical_formula_structural   La8TbTmRu4
_chemical_formula_sum   'La8 Tb1 Tm1 Ru4'
_cell_volume   405.62131554
_cell_formula_units_Z   1
loop_
 _symmetry_equiv_pos_site_id
 _symmetry_equiv_pos_as_xyz
  1  'x, y, z'
loop_
 _atom_site_type_symbol
 _atom_site_label
 _atom_site_symmetry_multiplicity
 _atom_site_fract_x
 _atom_site_fract_y
 _atom_site_fract_z
 _atom_site_occupancy
  La  La0  1  0.795204  0.091520  0.817931  1
  La  La1  1  0.977274  0.408480  0.182069  1
  La  La2  1  0.204254  0.906657  0.181738  1
  La  La3  1  0.022515  0.593343  0.818262  1
  La  La4  1  0.208457  0.181746  0.574225  1
  La  La5  1  0.634233  0.318254  0.425775  1
  La  La6  1  0.790868  0.817242  0.424093  1
  La  La7  1  0.366774  0.682758  0.575907  1
  Tb  Tb8  1  0.430215  0.250000  0.000000  1
  Tm  Tm9  1  0.567949  0.750000  0.000000  1
  Ru  Ru10  1  0.603453  0.423085  0.783067  1
  Ru  Ru11  1  0.820385  0.076915  0.216933  1
  Ru  Ru12  1  0.397824  0.579674  0.217230  1
  Ru  Ru13  1  0.180595  0.920326  0.782770  1
