# generated using pymatgen
data_Ac2AgAu3
_symmetry_space_group_name_H-M   'P 1'
_cell_length_a   6.27186950
_cell_length_b   6.28381572
_cell_length_c   6.28381482
_cell_angle_alpha   135.00524186
_cell_angle_beta   101.74175918
_cell_angle_gamma   95.15700389
_symmetry_Int_Tables_number   1
_chemical_formula_structural   Ac2AgAu3
_chemical_formula_sum   'Ac2 Ag1 Au3'
_cell_volume   161.36378913
_cell_formula_units_Z   1
loop_
 _symmetry_equiv_pos_site_id
 _symmetry_equiv_pos_as_xyz
  1  'x, y, z'
loop_
 _atom_site_type_symbol
 _atom_site_label
 _atom_site_symmetry_multiplicity
 _atom_site_fract_x
 _atom_site_fract_y
 _atom_site_fract_z
 _atom_site_occupancy
  Ac  Ac0  1  0.237217  0.486029  0.751187  1
  Ac  Ac1  1  0.765152  0.515443  0.249709  1
  Ag  Ag2  1  0.815871  0.834066  0.981805  1
  Au  Au3  1  0.350763  0.835447  0.515317  1
  Au  Au4  1  0.657199  0.168177  0.489021  1
  Au  Au5  1  0.173799  0.160837  0.012961  1
