# generated using pymatgen
data_Lu3U(Si3Rh)2
_symmetry_space_group_name_H-M   'P 1'
_cell_length_a   8.11897800
_cell_length_b   8.11897783
_cell_length_c   7.68570400
_cell_angle_alpha   90.00000000
_cell_angle_beta   90.00000000
_cell_angle_gamma   120.00000071
_symmetry_Int_Tables_number   1
_chemical_formula_structural   Lu3U(Si3Rh)2
_chemical_formula_sum   'Lu6 U2 Si12 Rh4'
_cell_volume   438.74987216
_cell_formula_units_Z   2
loop_
 _symmetry_equiv_pos_site_id
 _symmetry_equiv_pos_as_xyz
  1  'x, y, z'
loop_
 _atom_site_type_symbol
 _atom_site_label
 _atom_site_symmetry_multiplicity
 _atom_site_fract_x
 _atom_site_fract_y
 _atom_site_fract_z
 _atom_site_occupancy
  Lu  Lu0  1  0.981396  0.490698  0.250000  1
  Lu  Lu1  1  0.509302  0.490698  0.250000  1
  Lu  Lu2  1  0.490698  0.981396  0.750000  1
  Lu  Lu3  1  0.018604  0.509302  0.750000  1
  Lu  Lu4  1  0.490698  0.509302  0.750000  1
  Lu  Lu5  1  0.509302  0.018604  0.250000  1
  U  U6  1  0.000000  0.000000  0.750000  1
  U  U7  1  0.000000  0.000000  0.250000  1
  Si  Si8  1  0.166822  0.833178  0.499308  1
  Si  Si9  1  0.166822  0.333644  0.499308  1
  Si  Si10  1  0.666356  0.833178  0.499308  1
  Si  Si11  1  0.333644  0.166822  0.999308  1
  Si  Si12  1  0.833178  0.666356  0.500692  1
  Si  Si13  1  0.833178  0.166822  0.999308  1
  Si  Si14  1  0.833178  0.666356  0.999308  1
  Si  Si15  1  0.166822  0.333644  0.000692  1
  Si  Si16  1  0.666356  0.833178  0.000692  1
  Si  Si17  1  0.333644  0.166822  0.500692  1
  Si  Si18  1  0.833178  0.166822  0.500692  1
  Si  Si19  1  0.166822  0.833178  0.000692  1
  Rh  Rh20  1  0.333333  0.666667  0.033108  1
  Rh  Rh21  1  0.666667  0.333333  0.966892  1
  Rh  Rh22  1  0.666667  0.333333  0.533108  1
  Rh  Rh23  1  0.333333  0.666667  0.466892  1
