# generated using pymatgen
data_La9Bi4PbO5
_symmetry_space_group_name_H-M   'P 1'
_cell_length_a   10.60085689
_cell_length_b   10.59512229
_cell_length_c   9.47945400
_cell_angle_alpha   89.99397577
_cell_angle_beta   89.97651603
_cell_angle_gamma   90.04473585
_symmetry_Int_Tables_number   1
_chemical_formula_structural   La9Bi4PbO5
_chemical_formula_sum   'La18 Bi8 Pb2 O10'
_cell_volume   1064.70697093
_cell_formula_units_Z   2
loop_
 _symmetry_equiv_pos_site_id
 _symmetry_equiv_pos_as_xyz
  1  'x, y, z'
loop_
 _atom_site_type_symbol
 _atom_site_label
 _atom_site_symmetry_multiplicity
 _atom_site_fract_x
 _atom_site_fract_y
 _atom_site_fract_z
 _atom_site_occupancy
  La  La0  1  0.996469  0.498641  0.325984  1
  La  La1  1  0.500006  0.000221  0.677621  1
  La  La2  1  0.794631  0.108066  0.337447  1
  La  La3  1  0.605093  0.700534  0.337456  1
  La  La4  1  0.398898  0.297793  0.337640  1
  La  La5  1  0.203953  0.895601  0.337735  1
  La  La6  1  0.707684  0.396883  0.658758  1
  La  La7  1  0.896742  0.792028  0.662122  1
  La  La8  1  0.103326  0.207851  0.662220  1
  La  La9  1  0.292039  0.603210  0.661682  1
  La  La10  1  0.080524  0.725601  0.996754  1
  La  La11  1  0.226045  0.418907  0.996794  1
  La  La12  1  0.772341  0.579412  0.998467  1
  La  La13  1  0.918310  0.273966  0.997148  1
  La  La14  1  0.418433  0.772359  0.002755  1
  La  La15  1  0.272817  0.081816  0.002617  1
  La  La16  1  0.727805  0.918126  0.002360  1
  La  La17  1  0.582565  0.230091  0.004260  1
  Bi  Bi18  1  0.500035  0.999062  0.310841  1
  Bi  Bi19  1  0.902674  0.804942  0.298953  1
  Bi  Bi20  1  0.098028  0.195706  0.299072  1
  Bi  Bi21  1  0.303354  0.597215  0.299018  1
  Bi  Bi22  1  0.803787  0.095714  0.700550  1
  Bi  Bi23  1  0.595918  0.696966  0.700972  1
  Bi  Bi24  1  0.403458  0.303536  0.700827  1
  Bi  Bi25  1  0.196349  0.903934  0.700202  1
  Pb  Pb26  1  0.000835  0.500230  0.690581  1
  Pb  Pb27  1  0.696236  0.402568  0.298460  1
  O  O28  1  0.002103  0.501103  0.073883  1
  O  O29  1  0.499241  0.998889  0.926566  1
  O  O30  1  0.879119  0.777000  0.911626  1
  O  O31  1  0.277132  0.621279  0.911565  1
  O  O32  1  0.723550  0.378642  0.909742  1
  O  O33  1  0.121223  0.223302  0.912049  1
  O  O34  1  0.620981  0.725836  0.089021  1
  O  O35  1  0.224936  0.878751  0.089061  1
  O  O36  1  0.775554  0.119801  0.088336  1
  O  O37  1  0.377807  0.274419  0.088860  1
