# generated using pymatgen
data_Lu4Sn2Sb4Rh7
_symmetry_space_group_name_H-M   'P 1'
_cell_length_a   7.55317472
_cell_length_b   7.55317542
_cell_length_c   7.55193094
_cell_angle_alpha   109.49771696
_cell_angle_beta   109.49770539
_cell_angle_gamma   109.42494013
_symmetry_Int_Tables_number   1
_chemical_formula_structural   Lu4Sn2Sb4Rh7
_chemical_formula_sum   'Lu4 Sn2 Sb4 Rh7'
_cell_volume   331.63406012
_cell_formula_units_Z   1
loop_
 _symmetry_equiv_pos_site_id
 _symmetry_equiv_pos_as_xyz
  1  'x, y, z'
loop_
 _atom_site_type_symbol
 _atom_site_label
 _atom_site_symmetry_multiplicity
 _atom_site_fract_x
 _atom_site_fract_y
 _atom_site_fract_z
 _atom_site_occupancy
  Lu  Lu0  1  0.495446  0.000439  0.000000  1
  Lu  Lu1  1  0.999561  0.504554  0.000000  1
  Lu  Lu2  1  0.998991  0.001009  0.500000  1
  Lu  Lu3  1  0.498991  0.501009  0.500000  1
  Sn  Sn4  1  0.997775  0.311107  0.308882  1
  Sn  Sn5  1  0.688893  0.002225  0.691118  1
  Sb  Sb6  1  0.683222  0.686719  0.000000  1
  Sb  Sb7  1  0.998020  0.679037  0.677056  1
  Sb  Sb8  1  0.320963  0.001980  0.322944  1
  Sb  Sb9  1  0.313281  0.316778  0.000000  1
  Rh  Rh10  1  0.006278  0.993722  0.000000  1
  Rh  Rh11  1  0.500309  0.750325  0.250635  1
  Rh  Rh12  1  0.747541  0.499604  0.247145  1
  Rh  Rh13  1  0.250328  0.749672  0.500000  1
  Rh  Rh14  1  0.249675  0.499691  0.749365  1
  Rh  Rh15  1  0.500396  0.252459  0.752855  1
  Rh  Rh16  1  0.750328  0.249672  0.500000  1
