# generated using pymatgen
data_HfZr2Sb3
_symmetry_space_group_name_H-M   'P 1'
_cell_length_a   5.59176889
_cell_length_b   5.59176968
_cell_length_c   14.15417900
_cell_angle_alpha   90.00000000
_cell_angle_beta   90.00000000
_cell_angle_gamma   140.12305064
_symmetry_Int_Tables_number   1
_chemical_formula_structural   HfZr2Sb3
_chemical_formula_sum   'Hf2 Zr4 Sb6'
_cell_volume   283.75053094
_cell_formula_units_Z   2
loop_
 _symmetry_equiv_pos_site_id
 _symmetry_equiv_pos_as_xyz
  1  'x, y, z'
loop_
 _atom_site_type_symbol
 _atom_site_label
 _atom_site_symmetry_multiplicity
 _atom_site_fract_x
 _atom_site_fract_y
 _atom_site_fract_z
 _atom_site_occupancy
  Hf  Hf0  1  0.386145  0.613855  0.250000  1
  Hf  Hf1  1  0.613855  0.386145  0.750000  1
  Zr  Zr2  1  0.927304  0.072696  0.608810  1
  Zr  Zr3  1  0.072696  0.927304  0.391190  1
  Zr  Zr4  1  0.072696  0.927304  0.108810  1
  Zr  Zr5  1  0.927304  0.072696  0.891190  1
  Sb  Sb6  1  0.675165  0.324835  0.250000  1
  Sb  Sb7  1  0.324835  0.675165  0.750000  1
  Sb  Sb8  1  0.641987  0.358013  0.549688  1
  Sb  Sb9  1  0.358013  0.641987  0.450312  1
  Sb  Sb10  1  0.358013  0.641987  0.049688  1
  Sb  Sb11  1  0.641987  0.358013  0.950312  1
