# generated using pymatgen
data_EuCr2(P2O7)2
_symmetry_space_group_name_H-M   'P 1'
_cell_length_a   6.20307538
_cell_length_b   6.25624441
_cell_length_c   7.88163575
_cell_angle_alpha   96.13463804
_cell_angle_beta   102.54746014
_cell_angle_gamma   106.54315948
_symmetry_Int_Tables_number   1
_chemical_formula_structural   EuCr2(P2O7)2
_chemical_formula_sum   'Eu1 Cr2 P4 O14'
_cell_volume   281.51465213
_cell_formula_units_Z   1
loop_
 _symmetry_equiv_pos_site_id
 _symmetry_equiv_pos_as_xyz
  1  'x, y, z'
loop_
 _atom_site_type_symbol
 _atom_site_label
 _atom_site_symmetry_multiplicity
 _atom_site_fract_x
 _atom_site_fract_y
 _atom_site_fract_z
 _atom_site_occupancy
  Eu  Eu0  1  0.000000  0.000000  0.000000  1
  Cr  Cr1  1  0.625495  0.308302  0.774884  1
  Cr  Cr2  1  0.374505  0.691698  0.225116  1
  P  P3  1  0.819015  0.539061  0.193843  1
  P  P4  1  0.180985  0.460939  0.806157  1
  P  P5  1  0.526809  0.754088  0.668370  1
  P  P6  1  0.473191  0.245912  0.331630  1
  O  O7  1  0.928955  0.312878  0.726345  1
  O  O8  1  0.071045  0.687122  0.273655  1
  O  O9  1  0.698449  0.643054  0.769474  1
  O  O10  1  0.301551  0.356946  0.230526  1
  O  O11  1  0.674098  0.699882  0.155010  1
  O  O12  1  0.325902  0.300118  0.844990  1
  O  O13  1  0.581840  0.981209  0.791029  1
  O  O14  1  0.418160  0.018791  0.208971  1
  O  O15  1  0.539580  0.768163  0.481148  1
  O  O16  1  0.460420  0.231837  0.518852  1
  O  O17  1  0.264103  0.598730  0.657201  1
  O  O18  1  0.735897  0.401270  0.342799  1
  O  O19  1  0.210960  0.643264  0.964553  1
  O  O20  1  0.789040  0.356736  0.035447  1
