# generated using pymatgen
data_CaLaSn3AsRh4
_symmetry_space_group_name_H-M   'P 1'
_cell_length_a   4.37204700
_cell_length_b   4.37204700
_cell_length_c   11.00688400
_cell_angle_alpha   90.00000000
_cell_angle_beta   90.00000000
_cell_angle_gamma   90.00000000
_symmetry_Int_Tables_number   1
_chemical_formula_structural   CaLaSn3AsRh4
_chemical_formula_sum   'Ca1 La1 Sn3 As1 Rh4'
_cell_volume   210.39433092
_cell_formula_units_Z   1
loop_
 _symmetry_equiv_pos_site_id
 _symmetry_equiv_pos_as_xyz
  1  'x, y, z'
loop_
 _atom_site_type_symbol
 _atom_site_label
 _atom_site_symmetry_multiplicity
 _atom_site_fract_x
 _atom_site_fract_y
 _atom_site_fract_z
 _atom_site_occupancy
  Ca  Ca0  1  0.500000  0.000000  0.750373  1
  La  La1  1  0.000000  0.500000  0.243364  1
  Sn  Sn2  1  0.000000  0.000000  0.495295  1
  Sn  Sn3  1  0.500000  0.500000  0.495295  1
  Sn  Sn4  1  0.000000  0.500000  0.874675  1
  As  As5  1  0.500000  0.000000  0.128201  1
  Rh  Rh6  1  0.000000  0.000000  0.013949  1
  Rh  Rh7  1  0.500000  0.500000  0.013949  1
  Rh  Rh8  1  0.000000  0.500000  0.636455  1
  Rh  Rh9  1  0.500000  0.000000  0.348445  1
