# generated using pymatgen
data_Zr16Co4CuIr3N4
_symmetry_space_group_name_H-M   'P 1'
_cell_length_a   8.70423203
_cell_length_b   8.70423194
_cell_length_c   8.70423235
_cell_angle_alpha   60.18960031
_cell_angle_beta   60.18959970
_cell_angle_gamma   60.18960367
_symmetry_Int_Tables_number   1
_chemical_formula_structural   Zr16Co4CuIr3N4
_chemical_formula_sum   'Zr16 Co4 Cu1 Ir3 N4'
_cell_volume   468.31392637
_cell_formula_units_Z   1
loop_
 _symmetry_equiv_pos_site_id
 _symmetry_equiv_pos_as_xyz
  1  'x, y, z'
loop_
 _atom_site_type_symbol
 _atom_site_label
 _atom_site_symmetry_multiplicity
 _atom_site_fract_x
 _atom_site_fract_y
 _atom_site_fract_z
 _atom_site_occupancy
  Zr  Zr0  1  0.084524  0.638164  0.638164  1
  Zr  Zr1  1  0.638164  0.084524  0.638164  1
  Zr  Zr2  1  0.638164  0.638164  0.084524  1
  Zr  Zr3  1  0.642280  0.642280  0.642280  1
  Zr  Zr4  1  0.813084  0.813084  0.186062  1
  Zr  Zr5  1  0.183992  0.183992  0.816489  1
  Zr  Zr6  1  0.813084  0.186062  0.813084  1
  Zr  Zr7  1  0.183992  0.816489  0.183992  1
  Zr  Zr8  1  0.186062  0.813084  0.813084  1
  Zr  Zr9  1  0.816489  0.183992  0.183992  1
  Zr  Zr10  1  0.433276  0.433276  0.061244  1
  Zr  Zr11  1  0.064997  0.064997  0.433668  1
  Zr  Zr12  1  0.433276  0.061244  0.433276  1
  Zr  Zr13  1  0.064997  0.433668  0.064997  1
  Zr  Zr14  1  0.061244  0.433276  0.433276  1
  Zr  Zr15  1  0.433668  0.064997  0.064997  1
  Co  Co16  1  0.443701  0.854461  0.854461  1
  Co  Co17  1  0.854461  0.443701  0.854461  1
  Co  Co18  1  0.854461  0.854461  0.443701  1
  Co  Co19  1  0.849158  0.849158  0.849158  1
  Cu  Cu20  1  0.420426  0.420426  0.420426  1
  Ir  Ir21  1  0.748351  0.419100  0.419100  1
  Ir  Ir22  1  0.419100  0.748351  0.419100  1
  Ir  Ir23  1  0.419100  0.419100  0.748351  1
  N  N24  1  0.622561  0.125920  0.125920  1
  N  N25  1  0.125920  0.622561  0.125920  1
  N  N26  1  0.125920  0.125920  0.622561  1
  N  N27  1  0.125555  0.125555  0.125555  1
