# generated using pymatgen
data_CaYLu6(B6Os)4
_symmetry_space_group_name_H-M   'P 1'
_cell_length_a   3.60691200
_cell_length_b   9.06423772
_cell_length_c   11.44979769
_cell_angle_alpha   89.93256585
_cell_angle_beta   90.00000000
_cell_angle_gamma   90.00000000
_symmetry_Int_Tables_number   1
_chemical_formula_structural   CaYLu6(B6Os)4
_chemical_formula_sum   'Ca1 Y1 Lu6 B24 Os4'
_cell_volume   374.33837073
_cell_formula_units_Z   1
loop_
 _symmetry_equiv_pos_site_id
 _symmetry_equiv_pos_as_xyz
  1  'x, y, z'
loop_
 _atom_site_type_symbol
 _atom_site_label
 _atom_site_symmetry_multiplicity
 _atom_site_fract_x
 _atom_site_fract_y
 _atom_site_fract_z
 _atom_site_occupancy
  Ca  Ca0  1  0.000000  0.678665  0.586163  1
  Y  Y1  1  0.000000  0.322475  0.414786  1
  Lu  Lu2  1  0.000000  0.820421  0.084931  1
  Lu  Lu3  1  0.000000  0.178811  0.913899  1
  Lu  Lu4  1  0.000000  0.942761  0.372132  1
  Lu  Lu5  1  0.000000  0.055456  0.628650  1
  Lu  Lu6  1  0.000000  0.443982  0.126620  1
  Lu  Lu7  1  0.000000  0.556769  0.872150  1
  B  B8  1  0.500000  0.554491  0.431863  1
  B  B9  1  0.500000  0.445487  0.568146  1
  B  B10  1  0.500000  0.053902  0.066043  1
  B  B11  1  0.500000  0.946861  0.934618  1
  B  B12  1  0.500000  0.749945  0.417716  1
  B  B13  1  0.500000  0.249765  0.582085  1
  B  B14  1  0.500000  0.249408  0.079388  1
  B  B15  1  0.500000  0.751171  0.920466  1
  B  B16  1  0.500000  0.792085  0.263803  1
  B  B17  1  0.500000  0.207052  0.735963  1
  B  B18  1  0.500000  0.291224  0.232948  1
  B  B19  1  0.500000  0.709321  0.767157  1
  B  B20  1  0.500000  0.631159  0.182957  1
  B  B21  1  0.500000  0.368530  0.816183  1
  B  B22  1  0.500000  0.130003  0.314567  1
  B  B23  1  0.500000  0.870148  0.686187  1
  B  B24  1  0.500000  0.981609  0.212006  1
  B  B25  1  0.500000  0.018350  0.788707  1
  B  B26  1  0.500000  0.482951  0.285662  1
  B  B27  1  0.500000  0.516965  0.714060  1
  B  B28  1  0.500000  0.605121  0.028585  1
  B  B29  1  0.500000  0.394710  0.970967  1
  B  B30  1  0.500000  0.101848  0.471963  1
  B  B31  1  0.500000  0.899230  0.527809  1
  Os  Os32  1  0.000000  0.639086  0.317789  1
  Os  Os33  1  0.000000  0.359267  0.681624  1
  Os  Os34  1  0.000000  0.137135  0.177944  1
  Os  Os35  1  0.000000  0.863835  0.823462  1
