# generated using pymatgen
data_Rb4Na2GdLuSb4
_symmetry_space_group_name_H-M   'P 1'
_cell_length_a   11.16394648
_cell_length_b   11.16394662
_cell_length_c   7.37356100
_cell_angle_alpha   90.00000000
_cell_angle_beta   90.00000000
_cell_angle_gamma   98.41145451
_symmetry_Int_Tables_number   1
_chemical_formula_structural   Rb4Na2GdLuSb4
_chemical_formula_sum   'Rb8 Na4 Gd2 Lu2 Sb8'
_cell_volume   909.10868738
_cell_formula_units_Z   2
loop_
 _symmetry_equiv_pos_site_id
 _symmetry_equiv_pos_as_xyz
  1  'x, y, z'
loop_
 _atom_site_type_symbol
 _atom_site_label
 _atom_site_symmetry_multiplicity
 _atom_site_fract_x
 _atom_site_fract_y
 _atom_site_fract_z
 _atom_site_occupancy
  Rb  Rb0  1  0.067933  0.432067  0.250000  1
  Rb  Rb1  1  0.432067  0.067933  0.750000  1
  Rb  Rb2  1  0.929679  0.570321  0.750000  1
  Rb  Rb3  1  0.570321  0.929679  0.250000  1
  Rb  Rb4  1  0.678574  0.322635  0.214387  1
  Rb  Rb5  1  0.821426  0.177365  0.714387  1
  Rb  Rb6  1  0.322635  0.678574  0.785613  1
  Rb  Rb7  1  0.177365  0.821426  0.285613  1
  Na  Na8  1  0.382431  0.382431  0.000000  1
  Na  Na9  1  0.117569  0.117569  0.500000  1
  Na  Na10  1  0.618032  0.618032  0.000000  1
  Na  Na11  1  0.881968  0.881968  0.500000  1
  Gd  Gd12  1  0.130524  0.130524  0.000000  1
  Gd  Gd13  1  0.369476  0.369476  0.500000  1
  Lu  Lu14  1  0.868849  0.868849  0.000000  1
  Lu  Lu15  1  0.631151  0.631151  0.500000  1
  Sb  Sb16  1  0.846176  0.653823  0.250000  1
  Sb  Sb17  1  0.653823  0.846176  0.750000  1
  Sb  Sb18  1  0.149070  0.350929  0.750000  1
  Sb  Sb19  1  0.350929  0.149070  0.250000  1
  Sb  Sb20  1  0.894592  0.099323  0.212570  1
  Sb  Sb21  1  0.605408  0.400677  0.712570  1
  Sb  Sb22  1  0.099323  0.894592  0.787430  1
  Sb  Sb23  1  0.400677  0.605408  0.287430  1
