# generated using pymatgen
data_Tm10In5Te
_symmetry_space_group_name_H-M   'P 1'
_cell_length_a   6.47956700
_cell_length_b   8.93396418
_cell_length_c   8.88768150
_cell_angle_alpha   120.17231731
_cell_angle_beta   90.00038807
_cell_angle_gamma   89.99925840
_symmetry_Int_Tables_number   1
_chemical_formula_structural   Tm10In5Te
_chemical_formula_sum   'Tm10 In5 Te1'
_cell_volume   444.78750938
_cell_formula_units_Z   1
loop_
 _symmetry_equiv_pos_site_id
 _symmetry_equiv_pos_as_xyz
  1  'x, y, z'
loop_
 _atom_site_type_symbol
 _atom_site_label
 _atom_site_symmetry_multiplicity
 _atom_site_fract_x
 _atom_site_fract_y
 _atom_site_fract_z
 _atom_site_occupancy
  Tm  Tm0  1  0.495783  0.329500  0.663567  1
  Tm  Tm1  1  0.495784  0.665933  0.336433  1
  Tm  Tm2  1  0.004201  0.665964  0.336463  1
  Tm  Tm3  1  0.004202  0.329500  0.663537  1
  Tm  Tm4  1  0.749985  0.230407  0.000001  1
  Tm  Tm5  1  0.750028  0.766813  0.758459  1
  Tm  Tm6  1  0.750028  0.008350  0.241539  1
  Tm  Tm7  1  0.250030  0.764872  0.000001  1
  Tm  Tm8  1  0.249989  0.235531  0.236779  1
  Tm  Tm9  1  0.249988  0.998750  0.763220  1
  In  In10  1  0.749993  0.402639  0.401355  1
  In  In11  1  0.749993  0.001282  0.598648  1
  In  In12  1  0.249989  0.395664  0.999998  1
  In  In13  1  0.250002  0.599482  0.603183  1
  In  In14  1  0.250002  0.996299  0.396814  1
  Te  Te15  1  0.750003  0.609018  0.000002  1
