# generated using pymatgen
data_SrSc(Si7Ir3)2
_symmetry_space_group_name_H-M   'P 1'
_cell_length_a   8.04434279
_cell_length_b   8.04434256
_cell_length_c   8.04434318
_cell_angle_alpha   56.70010257
_cell_angle_beta   56.70010897
_cell_angle_gamma   56.70010384
_symmetry_Int_Tables_number   1
_chemical_formula_structural   SrSc(Si7Ir3)2
_chemical_formula_sum   'Sr1 Sc1 Si14 Ir6'
_cell_volume   340.04383706
_cell_formula_units_Z   1
loop_
 _symmetry_equiv_pos_site_id
 _symmetry_equiv_pos_as_xyz
  1  'x, y, z'
loop_
 _atom_site_type_symbol
 _atom_site_label
 _atom_site_symmetry_multiplicity
 _atom_site_fract_x
 _atom_site_fract_y
 _atom_site_fract_z
 _atom_site_occupancy
  Sr  Sr0  1  0.000000  0.000000  0.000000  1
  Sc  Sc1  1  0.500000  0.500000  0.500000  1
  Si  Si2  1  0.750075  0.750075  0.750075  1
  Si  Si3  1  0.249925  0.249925  0.249925  1
  Si  Si4  1  0.849614  0.066348  0.671753  1
  Si  Si5  1  0.671753  0.849614  0.066348  1
  Si  Si6  1  0.066348  0.671753  0.849614  1
  Si  Si7  1  0.648532  0.826115  0.436657  1
  Si  Si8  1  0.436657  0.648532  0.826115  1
  Si  Si9  1  0.826115  0.436657  0.648532  1
  Si  Si10  1  0.173885  0.563343  0.351468  1
  Si  Si11  1  0.563343  0.351468  0.173885  1
  Si  Si12  1  0.351468  0.173885  0.563343  1
  Si  Si13  1  0.933652  0.328247  0.150386  1
  Si  Si14  1  0.328247  0.150386  0.933652  1
  Si  Si15  1  0.150386  0.933652  0.328247  1
  Ir  Ir16  1  0.075990  0.433679  0.744407  1
  Ir  Ir17  1  0.255593  0.924010  0.566321  1
  Ir  Ir18  1  0.566321  0.255593  0.924010  1
  Ir  Ir19  1  0.924010  0.566321  0.255593  1
  Ir  Ir20  1  0.433679  0.744407  0.075990  1
  Ir  Ir21  1  0.744407  0.075990  0.433679  1
