# generated using pymatgen
data_Sc12Tc3Rh
_symmetry_space_group_name_H-M   'P 1'
_cell_length_a   5.80038648
_cell_length_b   7.01879228
_cell_length_c   8.49557400
_cell_angle_alpha   90.00000000
_cell_angle_beta   90.00000000
_cell_angle_gamma   89.76999380
_symmetry_Int_Tables_number   1
_chemical_formula_structural   Sc12Tc3Rh
_chemical_formula_sum   'Sc12 Tc3 Rh1'
_cell_volume   345.86653984
_cell_formula_units_Z   1
loop_
 _symmetry_equiv_pos_site_id
 _symmetry_equiv_pos_as_xyz
  1  'x, y, z'
loop_
 _atom_site_type_symbol
 _atom_site_label
 _atom_site_symmetry_multiplicity
 _atom_site_fract_x
 _atom_site_fract_y
 _atom_site_fract_z
 _atom_site_occupancy
  Sc  Sc0  1  0.344665  0.678495  0.063485  1
  Sc  Sc1  1  0.152854  0.177518  0.438252  1
  Sc  Sc2  1  0.651159  0.315672  0.559869  1
  Sc  Sc3  1  0.845744  0.828036  0.940202  1
  Sc  Sc4  1  0.651159  0.315672  0.940131  1
  Sc  Sc5  1  0.845744  0.828036  0.559798  1
  Sc  Sc6  1  0.344665  0.678495  0.436515  1
  Sc  Sc7  1  0.152854  0.177518  0.061748  1
  Sc  Sc8  1  0.878864  0.539028  0.250000  1
  Sc  Sc9  1  0.615610  0.034950  0.250000  1
  Sc  Sc10  1  0.122969  0.462266  0.750000  1
  Sc  Sc11  1  0.379015  0.960883  0.750000  1
  Tc  Tc12  1  0.043539  0.880647  0.250000  1
  Tc  Tc13  1  0.456915  0.382626  0.250000  1
  Tc  Tc14  1  0.959488  0.122570  0.750000  1
  Rh  Rh15  1  0.554756  0.617591  0.750000  1
