# generated using pymatgen
data_TbDy7Sc12Si15Tc
_symmetry_space_group_name_H-M   'P 1'
_cell_length_a   7.08830901
_cell_length_b   7.44895925
_cell_length_c   13.94861303
_cell_angle_alpha   90.00723115
_cell_angle_beta   90.00160140
_cell_angle_gamma   90.19679336
_symmetry_Int_Tables_number   1
_chemical_formula_structural   TbDy7Sc12Si15Tc
_chemical_formula_sum   'Tb1 Dy7 Sc12 Si15 Tc1'
_cell_volume   736.48974015
_cell_formula_units_Z   1
loop_
 _symmetry_equiv_pos_site_id
 _symmetry_equiv_pos_as_xyz
  1  'x, y, z'
loop_
 _atom_site_type_symbol
 _atom_site_label
 _atom_site_symmetry_multiplicity
 _atom_site_fract_x
 _atom_site_fract_y
 _atom_site_fract_z
 _atom_site_occupancy
  Tb  Tb0  1  0.011517  0.178447  0.095930  1
  Dy  Dy1  1  0.990997  0.827299  0.903647  1
  Dy  Dy2  1  0.488996  0.675765  0.903941  1
  Dy  Dy3  1  0.991006  0.827318  0.596332  1
  Dy  Dy4  1  0.510798  0.323008  0.096104  1
  Dy  Dy5  1  0.011566  0.178554  0.403975  1
  Dy  Dy6  1  0.510817  0.322986  0.403902  1
  Dy  Dy7  1  0.488990  0.675761  0.596051  1
  Sc  Sc8  1  0.156379  0.498716  0.749971  1
  Sc  Sc9  1  0.838251  0.494953  0.249995  1
  Sc  Sc10  1  0.338701  0.005393  0.250066  1
  Sc  Sc11  1  0.667687  0.999017  0.749984  1
  Sc  Sc12  1  0.316566  0.171591  0.627866  1
  Sc  Sc13  1  0.671923  0.826107  0.373964  1
  Sc  Sc14  1  0.171634  0.677885  0.373920  1
  Sc  Sc15  1  0.671893  0.826084  0.126088  1
  Sc  Sc16  1  0.837438  0.319593  0.627303  1
  Sc  Sc17  1  0.316614  0.171571  0.872104  1
  Sc  Sc18  1  0.837380  0.319652  0.872652  1
  Sc  Sc19  1  0.171645  0.677900  0.126127  1
  Si  Si20  1  0.968321  0.883913  0.250044  1
  Si  Si21  1  0.469997  0.614210  0.250008  1
  Si  Si22  1  0.529643  0.388039  0.749997  1
  Si  Si23  1  0.286918  0.867761  0.749992  1
  Si  Si24  1  0.712814  0.129049  0.250076  1
  Si  Si25  1  0.214209  0.370357  0.250083  1
  Si  Si26  1  0.780009  0.628101  0.749997  1
  Si  Si27  1  0.159876  0.468706  0.536833  1
  Si  Si28  1  0.844703  0.536332  0.461520  1
  Si  Si29  1  0.344559  0.965406  0.459922  1
  Si  Si30  1  0.844649  0.536482  0.038449  1
  Si  Si31  1  0.655077  0.033968  0.538865  1
  Si  Si32  1  0.159915  0.468835  0.963125  1
  Si  Si33  1  0.655013  0.033934  0.961115  1
  Si  Si34  1  0.344748  0.965313  0.040043  1
  Tc  Tc35  1  0.028753  0.111993  0.750009  1
