# generated using pymatgen
data_Pr3Th(Zn5Sn)2
_symmetry_space_group_name_H-M   'P 1'
_cell_length_a   8.61462009
_cell_length_b   8.61462131
_cell_length_c   9.09943600
_cell_angle_alpha   90.00000000
_cell_angle_beta   90.00000000
_cell_angle_gamma   149.61667460
_symmetry_Int_Tables_number   1
_chemical_formula_structural   Pr3Th(Zn5Sn)2
_chemical_formula_sum   'Pr3 Th1 Zn10 Sn2'
_cell_volume   341.54724749
_cell_formula_units_Z   1
loop_
 _symmetry_equiv_pos_site_id
 _symmetry_equiv_pos_as_xyz
  1  'x, y, z'
loop_
 _atom_site_type_symbol
 _atom_site_label
 _atom_site_symmetry_multiplicity
 _atom_site_fract_x
 _atom_site_fract_y
 _atom_site_fract_z
 _atom_site_occupancy
  Pr  Pr0  1  0.794912  0.205088  0.750000  1
  Pr  Pr1  1  0.000604  0.999396  0.502231  1
  Pr  Pr2  1  0.000604  0.999396  0.997769  1
  Th  Th3  1  0.205411  0.794589  0.250000  1
  Zn  Zn4  1  0.813050  0.186950  0.391447  1
  Zn  Zn5  1  0.185247  0.814753  0.608522  1
  Zn  Zn6  1  0.813050  0.186950  0.108553  1
  Zn  Zn7  1  0.185247  0.814753  0.891478  1
  Zn  Zn8  1  0.658058  0.341942  0.482799  1
  Zn  Zn9  1  0.343185  0.656815  0.515450  1
  Zn  Zn10  1  0.658058  0.341942  0.017201  1
  Zn  Zn11  1  0.343185  0.656815  0.984550  1
  Zn  Zn12  1  0.395367  0.604633  0.250000  1
  Zn  Zn13  1  0.604607  0.395393  0.750000  1
  Sn  Sn14  1  0.555294  0.444706  0.250000  1
  Sn  Sn15  1  0.444119  0.555881  0.750000  1
