# generated using pymatgen
data_La3YAs7Ir8
_symmetry_space_group_name_H-M   'P 1'
_cell_length_a   4.14485500
_cell_length_b   13.23336121
_cell_length_c   13.69459406
_cell_angle_alpha   82.18176250
_cell_angle_beta   90.00000000
_cell_angle_gamma   90.00000000
_symmetry_Int_Tables_number   1
_chemical_formula_structural   La3YAs7Ir8
_chemical_formula_sum   'La6 Y2 As14 Ir16'
_cell_volume   744.17118210
_cell_formula_units_Z   2
loop_
 _symmetry_equiv_pos_site_id
 _symmetry_equiv_pos_as_xyz
  1  'x, y, z'
loop_
 _atom_site_type_symbol
 _atom_site_label
 _atom_site_symmetry_multiplicity
 _atom_site_fract_x
 _atom_site_fract_y
 _atom_site_fract_z
 _atom_site_occupancy
  La  La0  1  0.250000  0.099555  0.792469  1
  La  La1  1  0.750000  0.900445  0.207531  1
  La  La2  1  0.250000  0.286134  0.104620  1
  La  La3  1  0.750000  0.713866  0.895380  1
  La  La4  1  0.250000  0.518011  0.293290  1
  La  La5  1  0.750000  0.481989  0.706710  1
  Y  Y6  1  0.250000  0.205679  0.441405  1
  Y  Y7  1  0.750000  0.794321  0.558595  1
  As  As8  1  0.250000  0.057588  0.100780  1
  As  As9  1  0.750000  0.942412  0.899220  1
  As  As10  1  0.250000  0.311039  0.686132  1
  As  As11  1  0.750000  0.688961  0.313868  1
  As  As12  1  0.250000  0.609111  0.566237  1
  As  As13  1  0.750000  0.390889  0.433763  1
  As  As14  1  0.250000  0.846624  0.716785  1
  As  As15  1  0.750000  0.153376  0.283215  1
  As  As16  1  0.750000  0.255400  0.917763  1
  As  As17  1  0.250000  0.744600  0.082237  1
  As  As18  1  0.750000  0.095554  0.585612  1
  As  As19  1  0.250000  0.904446  0.414388  1
  As  As20  1  0.750000  0.472382  0.127730  1
  As  As21  1  0.250000  0.527618  0.872270  1
  Ir  Ir22  1  0.250000  0.988589  0.573032  1
  Ir  Ir23  1  0.750000  0.011411  0.426968  1
  Ir  Ir24  1  0.250000  0.664802  0.732502  1
  Ir  Ir25  1  0.750000  0.335198  0.267498  1
  Ir  Ir26  1  0.250000  0.555507  0.046263  1
  Ir  Ir27  1  0.750000  0.444493  0.953737  1
  Ir  Ir28  1  0.250000  0.055443  0.280753  1
  Ir  Ir29  1  0.750000  0.944557  0.719247  1
  Ir  Ir30  1  0.250000  0.424230  0.525086  1
  Ir  Ir31  1  0.750000  0.575770  0.474914  1
  Ir  Ir32  1  0.250000  0.919677  0.996792  1
  Ir  Ir33  1  0.750000  0.080323  0.003208  1
  Ir  Ir34  1  0.250000  0.723023  0.404615  1
  Ir  Ir35  1  0.750000  0.276977  0.595385  1
  Ir  Ir36  1  0.250000  0.342190  0.859902  1
  Ir  Ir37  1  0.750000  0.657810  0.140098  1
