# generated using pymatgen
data_Ba3Ta5Si4WO26
_symmetry_space_group_name_H-M   'P 1'
_cell_length_a   9.14051720
_cell_length_b   9.13506197
_cell_length_c   7.81340817
_cell_angle_alpha   90.01206050
_cell_angle_beta   89.97591856
_cell_angle_gamma   120.01967877
_symmetry_Int_Tables_number   1
_chemical_formula_structural   Ba3Ta5Si4WO26
_chemical_formula_sum   'Ba3 Ta5 Si4 W1 O26'
_cell_volume   564.89433645
_cell_formula_units_Z   1
loop_
 _symmetry_equiv_pos_site_id
 _symmetry_equiv_pos_as_xyz
  1  'x, y, z'
loop_
 _atom_site_type_symbol
 _atom_site_label
 _atom_site_symmetry_multiplicity
 _atom_site_fract_x
 _atom_site_fract_y
 _atom_site_fract_z
 _atom_site_occupancy
  Ba  Ba0  1  0.605660  0.000008  0.497028  1
  Ba  Ba1  1  0.399589  0.401353  0.496723  1
  Ba  Ba2  1  0.998243  0.598660  0.496723  1
  Ta  Ta3  1  0.002080  0.237688  0.242410  1
  Ta  Ta4  1  0.764400  0.762326  0.242410  1
  Ta  Ta5  1  0.760789  0.761465  0.753866  1
  Ta  Ta6  1  0.236973  0.000007  0.755548  1
  Ta  Ta7  1  0.999330  0.238548  0.753865  1
  Si  Si8  1  0.667504  0.333458  0.206930  1
  Si  Si9  1  0.334053  0.666556  0.206930  1
  Si  Si10  1  0.665245  0.332422  0.794306  1
  Si  Si11  1  0.332830  0.667590  0.794306  1
  W  W12  1  0.241233  0.000006  0.246674  1
  O  O13  1  0.273378  0.000007  0.004421  1
  O  O14  1  0.000935  0.277298  0.998885  1
  O  O15  1  0.663953  0.331627  0.000503  1
  O  O16  1  0.332335  0.668386  0.000503  1
  O  O17  1  0.723642  0.722715  0.998886  1
  O  O18  1  0.821109  0.000007  0.234540  1
  O  O19  1  0.997592  0.818505  0.235379  1
  O  O20  1  0.179093  0.181507  0.235380  1
  O  O21  1  0.490880  0.182550  0.287113  1
  O  O22  1  0.182628  0.488033  0.284279  1
  O  O23  1  0.819227  0.306718  0.283084  1
  O  O24  1  0.308337  0.817463  0.287113  1
  O  O25  1  0.694601  0.511980  0.284279  1
  O  O26  1  0.512515  0.693294  0.283085  1
  O  O27  1  0.225805  0.000007  0.496848  1
  O  O28  1  0.999338  0.229379  0.500389  1
  O  O29  1  0.769967  0.770636  0.500389  1
  O  O30  1  0.694464  0.511553  0.716394  1
  O  O31  1  0.512142  0.696673  0.716995  1
  O  O32  1  0.815474  0.303340  0.716995  1
  O  O33  1  0.304268  0.818692  0.717541  1
  O  O34  1  0.485581  0.181321  0.717539  1
  O  O35  1  0.182918  0.488460  0.716394  1
  O  O36  1  0.177291  0.176362  0.764662  1
  O  O37  1  0.823915  0.000006  0.766025  1
  O  O38  1  0.000935  0.823650  0.764663  1
