# generated using pymatgen
data_Cs4Rb2ErTmAs4
_symmetry_space_group_name_H-M   'P 1'
_cell_length_a   9.96755031
_cell_length_b   9.96754972
_cell_length_c   9.96755063
_cell_angle_alpha   130.36007719
_cell_angle_beta   136.43921828
_cell_angle_gamma   68.14661648
_symmetry_Int_Tables_number   1
_chemical_formula_structural   Cs4Rb2ErTmAs4
_chemical_formula_sum   'Cs4 Rb2 Er1 Tm1 As4'
_cell_volume   511.05345709
_cell_formula_units_Z   1
loop_
 _symmetry_equiv_pos_site_id
 _symmetry_equiv_pos_as_xyz
  1  'x, y, z'
loop_
 _atom_site_type_symbol
 _atom_site_label
 _atom_site_symmetry_multiplicity
 _atom_site_fract_x
 _atom_site_fract_y
 _atom_site_fract_z
 _atom_site_occupancy
  Cs  Cs0  1  0.688785  0.465432  0.782227  1
  Cs  Cs1  1  0.811215  0.093441  0.276648  1
  Cs  Cs2  1  0.183206  0.906559  0.717773  1
  Cs  Cs3  1  0.316794  0.534568  0.223352  1
  Rb  Rb4  1  0.750000  0.000000  0.750000  1
  Rb  Rb5  1  0.250000  0.000000  0.250000  1
  Er  Er6  1  0.250000  0.500000  0.750000  1
  Tm  Tm7  1  0.750000  0.500000  0.250000  1
  As  As8  1  0.410072  0.224428  0.815108  1
  As  As9  1  0.590681  0.775572  0.185644  1
  As  As10  1  0.089928  0.405036  0.314356  1
  As  As11  1  0.909319  0.594964  0.684892  1
