# generated using pymatgen
data_Ho3Lu5Re3B24Ru
_symmetry_space_group_name_H-M   'P 1'
_cell_length_a   3.63004500
_cell_length_b   9.08211429
_cell_length_c   11.45664305
_cell_angle_alpha   90.09645740
_cell_angle_beta   90.00000000
_cell_angle_gamma   90.00000000
_symmetry_Int_Tables_number   1
_chemical_formula_structural   Ho3Lu5Re3B24Ru
_chemical_formula_sum   'Ho3 Lu5 Re3 B24 Ru1'
_cell_volume   377.70761278
_cell_formula_units_Z   1
loop_
 _symmetry_equiv_pos_site_id
 _symmetry_equiv_pos_as_xyz
  1  'x, y, z'
loop_
 _atom_site_type_symbol
 _atom_site_label
 _atom_site_symmetry_multiplicity
 _atom_site_fract_x
 _atom_site_fract_y
 _atom_site_fract_z
 _atom_site_occupancy
  Ho  Ho0  1  0.000000  0.321238  0.414249  1
  Ho  Ho1  1  0.000000  0.677872  0.587655  1
  Ho  Ho2  1  0.000000  0.824086  0.084264  1
  Lu  Lu3  1  0.000000  0.177162  0.913735  1
  Lu  Lu4  1  0.000000  0.942355  0.369938  1
  Lu  Lu5  1  0.000000  0.056130  0.629237  1
  Lu  Lu6  1  0.000000  0.443166  0.129691  1
  Lu  Lu7  1  0.000000  0.556504  0.871338  1
  Re  Re8  1  0.000000  0.361031  0.679532  1
  Re  Re9  1  0.000000  0.138946  0.179654  1
  Re  Re10  1  0.000000  0.861590  0.820349  1
  B  B11  1  0.500000  0.554065  0.432669  1
  B  B12  1  0.500000  0.446772  0.566910  1
  B  B13  1  0.500000  0.053718  0.066132  1
  B  B14  1  0.500000  0.947663  0.932985  1
  B  B15  1  0.500000  0.750053  0.418506  1
  B  B16  1  0.500000  0.248862  0.581310  1
  B  B17  1  0.500000  0.250950  0.080309  1
  B  B18  1  0.500000  0.749936  0.918887  1
  B  B19  1  0.500000  0.791893  0.265110  1
  B  B20  1  0.500000  0.206615  0.735254  1
  B  B21  1  0.500000  0.292950  0.234912  1
  B  B22  1  0.500000  0.707015  0.765707  1
  B  B23  1  0.500000  0.630671  0.184787  1
  B  B24  1  0.500000  0.369465  0.815724  1
  B  B25  1  0.500000  0.130405  0.315689  1
  B  B26  1  0.500000  0.869754  0.684799  1
  B  B27  1  0.500000  0.981580  0.212196  1
  B  B28  1  0.500000  0.019305  0.787588  1
  B  B29  1  0.500000  0.482743  0.287525  1
  B  B30  1  0.500000  0.518763  0.712816  1
  B  B31  1  0.500000  0.599952  0.028210  1
  B  B32  1  0.500000  0.399650  0.972511  1
  B  B33  1  0.500000  0.098463  0.472234  1
  B  B34  1  0.500000  0.899543  0.527443  1
  Ru  Ru35  1  0.000000  0.639133  0.320147  1
