# generated using pymatgen
data_Ti5Co16Si7Pd
_symmetry_space_group_name_H-M   'P 1'
_cell_length_a   7.85315052
_cell_length_b   7.84899899
_cell_length_c   7.84899910
_cell_angle_alpha   60.03499490
_cell_angle_beta   59.98250046
_cell_angle_gamma   59.98250681
_symmetry_Int_Tables_number   1
_chemical_formula_structural   Ti5Co16Si7Pd
_chemical_formula_sum   'Ti5 Co16 Si7 Pd1'
_cell_volume   342.10328158
_cell_formula_units_Z   1
loop_
 _symmetry_equiv_pos_site_id
 _symmetry_equiv_pos_as_xyz
  1  'x, y, z'
loop_
 _atom_site_type_symbol
 _atom_site_label
 _atom_site_symmetry_multiplicity
 _atom_site_fract_x
 _atom_site_fract_y
 _atom_site_fract_z
 _atom_site_occupancy
  Ti  Ti0  1  0.795800  0.790027  0.204200  1
  Ti  Ti1  1  0.787584  0.212416  0.212416  1
  Ti  Ti2  1  0.209973  0.204200  0.790027  1
  Ti  Ti3  1  0.795800  0.204200  0.790027  1
  Ti  Ti4  1  0.209973  0.790027  0.204200  1
  Co  Co5  1  0.620541  0.615875  0.143043  1
  Co  Co6  1  0.168125  0.488110  0.175639  1
  Co  Co7  1  0.856957  0.379459  0.379459  1
  Co  Co8  1  0.511890  0.831875  0.831875  1
  Co  Co9  1  0.512997  0.163461  0.163461  1
  Co  Co10  1  0.836539  0.839920  0.487003  1
  Co  Co11  1  0.168125  0.175639  0.488110  1
  Co  Co12  1  0.143993  0.618465  0.618465  1
  Co  Co13  1  0.160080  0.163461  0.163461  1
  Co  Co14  1  0.381535  0.380922  0.856007  1
  Co  Co15  1  0.619078  0.618465  0.618465  1
  Co  Co16  1  0.381535  0.856007  0.380922  1
  Co  Co17  1  0.384125  0.379459  0.379459  1
  Co  Co18  1  0.824361  0.831875  0.831875  1
  Co  Co19  1  0.620541  0.143043  0.615875  1
  Co  Co20  1  0.836539  0.487003  0.839920  1
  Si  Si21  1  0.495505  0.995330  0.504495  1
  Si  Si22  1  0.495505  0.504495  0.995330  1
  Si  Si23  1  0.501289  0.498711  0.498711  1
  Si  Si24  1  0.004670  0.995330  0.504495  1
  Si  Si25  1  0.004670  0.504495  0.995330  1
  Si  Si26  1  0.996748  0.503252  0.503252  1
  Si  Si27  1  0.496748  0.003252  0.003252  1
  Pd  Pd28  1  0.178775  0.821225  0.821225  1
