# generated using pymatgen
data_Ca3Si2P
_symmetry_space_group_name_H-M   'P 1'
_cell_length_a   4.32328672
_cell_length_b   5.83468669
_cell_length_c   11.48002854
_cell_angle_alpha   93.51385368
_cell_angle_beta   112.01836705
_cell_angle_gamma   137.95849796
_symmetry_Int_Tables_number   1
_chemical_formula_structural   Ca3Si2P
_chemical_formula_sum   'Ca3 Si2 P1'
_cell_volume   150.47713124
_cell_formula_units_Z   1
loop_
 _symmetry_equiv_pos_site_id
 _symmetry_equiv_pos_as_xyz
  1  'x, y, z'
loop_
 _atom_site_type_symbol
 _atom_site_label
 _atom_site_symmetry_multiplicity
 _atom_site_fract_x
 _atom_site_fract_y
 _atom_site_fract_z
 _atom_site_occupancy
  Ca  Ca0  1  0.550160  0.426372  0.107170  1
  Ca  Ca1  1  0.980864  0.483000  0.484349  1
  Ca  Ca2  1  0.757055  0.446806  0.794942  1
  Si  Si3  1  0.713577  0.823716  0.375953  1
  Si  Si4  1  0.818495  0.085951  0.216043  1
  P  P5  1  0.759839  0.947770  0.795712  1
