# generated using pymatgen
data_Eu8SnPPd23
_symmetry_space_group_name_H-M   'P 1'
_cell_length_a   8.51025400
_cell_length_b   8.51025400
_cell_length_c   8.82166200
_cell_angle_alpha   90.00000000
_cell_angle_beta   90.00000000
_cell_angle_gamma   90.00000000
_symmetry_Int_Tables_number   1
_chemical_formula_structural   Eu8SnPPd23
_chemical_formula_sum   'Eu8 Sn1 P1 Pd23'
_cell_volume   638.90378153
_cell_formula_units_Z   1
loop_
 _symmetry_equiv_pos_site_id
 _symmetry_equiv_pos_as_xyz
  1  'x, y, z'
loop_
 _atom_site_type_symbol
 _atom_site_label
 _atom_site_symmetry_multiplicity
 _atom_site_fract_x
 _atom_site_fract_y
 _atom_site_fract_z
 _atom_site_occupancy
  Eu  Eu0  1  0.753365  0.753365  0.243787  1
  Eu  Eu1  1  0.746407  0.253593  0.750972  1
  Eu  Eu2  1  0.253593  0.746407  0.750972  1
  Eu  Eu3  1  0.746407  0.746407  0.750972  1
  Eu  Eu4  1  0.753365  0.246635  0.243787  1
  Eu  Eu5  1  0.253593  0.253593  0.750972  1
  Eu  Eu6  1  0.246635  0.753365  0.243787  1
  Eu  Eu7  1  0.246635  0.246635  0.243787  1
  Sn  Sn8  1  0.000000  0.000000  0.999801  1
  P  P9  1  0.000000  0.000000  0.416150  1
  Pd  Pd10  1  0.730665  0.000000  0.495211  1
  Pd  Pd11  1  0.730054  0.500000  0.000812  1
  Pd  Pd12  1  0.500000  0.000000  0.725219  1
  Pd  Pd13  1  0.000000  0.730665  0.495211  1
  Pd  Pd14  1  0.500000  0.000000  0.262008  1
  Pd  Pd15  1  0.000000  0.269335  0.495211  1
  Pd  Pd16  1  0.500000  0.730054  0.000812  1
  Pd  Pd17  1  0.254687  0.500000  0.493988  1
  Pd  Pd18  1  0.500000  0.500000  0.739377  1
  Pd  Pd19  1  0.500000  0.500000  0.254237  1
  Pd  Pd20  1  0.500000  0.254687  0.493988  1
  Pd  Pd21  1  0.500000  0.745313  0.493988  1
  Pd  Pd22  1  0.745313  0.500000  0.493988  1
  Pd  Pd23  1  0.319402  0.000000  0.995419  1
  Pd  Pd24  1  0.000000  0.000000  0.695222  1
  Pd  Pd25  1  0.000000  0.500000  0.262008  1
  Pd  Pd26  1  0.000000  0.319402  0.995419  1
  Pd  Pd27  1  0.000000  0.680598  0.995419  1
  Pd  Pd28  1  0.680598  0.000000  0.995419  1
  Pd  Pd29  1  0.269946  0.500000  0.000812  1
  Pd  Pd30  1  0.269335  0.000000  0.495211  1
  Pd  Pd31  1  0.000000  0.500000  0.725219  1
  Pd  Pd32  1  0.500000  0.269946  0.000812  1
