# generated using pymatgen
data_K2Ca(SiS3)2
_symmetry_space_group_name_H-M   'P 1'
_cell_length_a   8.62426824
_cell_length_b   8.62426908
_cell_length_c   8.66313973
_cell_angle_alpha   90.64165751
_cell_angle_beta   90.64165478
_cell_angle_gamma   113.22437926
_symmetry_Int_Tables_number   1
_chemical_formula_structural   K2Ca(SiS3)2
_chemical_formula_sum   'K4 Ca2 Si4 S12'
_cell_volume   592.01150020
_cell_formula_units_Z   2
loop_
 _symmetry_equiv_pos_site_id
 _symmetry_equiv_pos_as_xyz
  1  'x, y, z'
loop_
 _atom_site_type_symbol
 _atom_site_label
 _atom_site_symmetry_multiplicity
 _atom_site_fract_x
 _atom_site_fract_y
 _atom_site_fract_z
 _atom_site_occupancy
  K  K0  1  0.261011  0.536746  0.522312  1
  K  K1  1  0.738989  0.463254  0.477688  1
  K  K2  1  0.463254  0.738989  0.977688  1
  K  K3  1  0.536746  0.261011  0.022312  1
  Ca  Ca4  1  0.998486  0.001514  0.250000  1
  Ca  Ca5  1  0.001514  0.998486  0.750000  1
  Si  Si6  1  0.976965  0.654407  0.045939  1
  Si  Si7  1  0.023035  0.345593  0.954061  1
  Si  Si8  1  0.345593  0.023035  0.454061  1
  Si  Si9  1  0.654407  0.976965  0.545939  1
  S  S10  1  0.662360  0.767507  0.660552  1
  S  S11  1  0.904121  0.495750  0.836912  1
  S  S12  1  0.232493  0.337640  0.839448  1
  S  S13  1  0.495750  0.904121  0.336912  1
  S  S14  1  0.337640  0.232493  0.339448  1
  S  S15  1  0.895578  0.160648  0.501519  1
  S  S16  1  0.839352  0.104422  0.998481  1
  S  S17  1  0.160648  0.895578  0.001519  1
  S  S18  1  0.095879  0.504250  0.163088  1
  S  S19  1  0.504250  0.095879  0.663088  1
  S  S20  1  0.104422  0.839352  0.498481  1
  S  S21  1  0.767507  0.662360  0.160552  1
