# generated using pymatgen
data_Tb8CdNiHgIr
_symmetry_space_group_name_H-M   'P 1'
_cell_length_a   9.60912793
_cell_length_b   9.60912869
_cell_length_c   9.66384600
_cell_angle_alpha   59.81144757
_cell_angle_beta   59.81144493
_cell_angle_gamma   59.65414476
_symmetry_Int_Tables_number   1
_chemical_formula_structural   Tb8CdNiHgIr
_chemical_formula_sum   'Tb16 Cd2 Ni2 Hg2 Ir2'
_cell_volume   627.50588160
_cell_formula_units_Z   2
loop_
 _symmetry_equiv_pos_site_id
 _symmetry_equiv_pos_as_xyz
  1  'x, y, z'
loop_
 _atom_site_type_symbol
 _atom_site_label
 _atom_site_symmetry_multiplicity
 _atom_site_fract_x
 _atom_site_fract_y
 _atom_site_fract_z
 _atom_site_occupancy
  Tb  Tb0  1  0.351190  0.351190  0.344415  1
  Tb  Tb1  1  0.351190  0.351190  0.953204  1
  Tb  Tb2  1  0.355162  0.947538  0.348650  1
  Tb  Tb3  1  0.947538  0.355162  0.348650  1
  Tb  Tb4  1  0.808816  0.187238  0.191804  1
  Tb  Tb5  1  0.187238  0.808816  0.812144  1
  Tb  Tb6  1  0.187238  0.808816  0.191804  1
  Tb  Tb7  1  0.808816  0.187238  0.812144  1
  Tb  Tb8  1  0.189026  0.189026  0.810974  1
  Tb  Tb9  1  0.809713  0.809713  0.190287  1
  Tb  Tb10  1  0.937289  0.560078  0.565775  1
  Tb  Tb11  1  0.560078  0.937289  0.936859  1
  Tb  Tb12  1  0.560078  0.937289  0.565775  1
  Tb  Tb13  1  0.937289  0.560078  0.936859  1
  Tb  Tb14  1  0.564980  0.564980  0.935020  1
  Tb  Tb15  1  0.939151  0.939151  0.560849  1
  Cd  Cd16  1  0.579181  0.256616  0.582100  1
  Cd  Cd17  1  0.256616  0.579181  0.582100  1
  Ni  Ni18  1  0.142548  0.574049  0.141701  1
  Ni  Ni19  1  0.574049  0.142548  0.141701  1
  Hg  Hg20  1  0.583104  0.583104  0.588210  1
  Hg  Hg21  1  0.583104  0.583104  0.245582  1
  Ir  Ir22  1  0.143302  0.143302  0.141859  1
  Ir  Ir23  1  0.143302  0.143302  0.571536  1
