# generated using pymatgen
data_NaY6FeBr12
_symmetry_space_group_name_H-M   'P 1'
_cell_length_a   9.18849136
_cell_length_b   9.18849079
_cell_length_c   9.18849163
_cell_angle_alpha   106.80508622
_cell_angle_beta   106.80508792
_cell_angle_gamma   106.80508835
_symmetry_Int_Tables_number   1
_chemical_formula_structural   NaY6FeBr12
_chemical_formula_sum   'Na1 Y6 Fe1 Br12'
_cell_volume   649.47266521
_cell_formula_units_Z   1
loop_
 _symmetry_equiv_pos_site_id
 _symmetry_equiv_pos_as_xyz
  1  'x, y, z'
loop_
 _atom_site_type_symbol
 _atom_site_label
 _atom_site_symmetry_multiplicity
 _atom_site_fract_x
 _atom_site_fract_y
 _atom_site_fract_z
 _atom_site_occupancy
  Na  Na0  1  0.500000  0.500000  0.500000  1
  Y  Y1  1  0.310456  0.104324  0.029367  1
  Y  Y2  1  0.029367  0.310456  0.104324  1
  Y  Y3  1  0.104324  0.029367  0.310456  1
  Y  Y4  1  0.895675  0.970633  0.689544  1
  Y  Y5  1  0.970633  0.689544  0.895675  1
  Y  Y6  1  0.689544  0.895676  0.970632  1
  Fe  Fe7  1  0.000000  0.000000  0.000000  1
  Br  Br8  1  0.683056  0.219603  0.073690  1
  Br  Br9  1  0.369772  0.448196  0.144631  1
  Br  Br10  1  0.073690  0.683056  0.219603  1
  Br  Br11  1  0.780396  0.926310  0.316944  1
  Br  Br12  1  0.448196  0.144632  0.369771  1
  Br  Br13  1  0.144632  0.369771  0.448196  1
  Br  Br14  1  0.855369  0.630229  0.551805  1
  Br  Br15  1  0.551804  0.855369  0.630229  1
  Br  Br16  1  0.219603  0.073690  0.683056  1
  Br  Br17  1  0.926310  0.316944  0.780396  1
  Br  Br18  1  0.630229  0.551805  0.855369  1
  Br  Br19  1  0.316944  0.780396  0.926310  1
