# generated using pymatgen
data_Ga6Fe5CuRh12
_symmetry_space_group_name_H-M   'P 1'
_cell_length_a   4.27511600
_cell_length_b   6.01953800
_cell_length_c   12.85053801
_cell_angle_alpha   90.00000000
_cell_angle_beta   89.99574229
_cell_angle_gamma   90.00000000
_symmetry_Int_Tables_number   1
_chemical_formula_structural   Ga6Fe5CuRh12
_chemical_formula_sum   'Ga6 Fe5 Cu1 Rh12'
_cell_volume   330.69861289
_cell_formula_units_Z   1
loop_
 _symmetry_equiv_pos_site_id
 _symmetry_equiv_pos_as_xyz
  1  'x, y, z'
loop_
 _atom_site_type_symbol
 _atom_site_label
 _atom_site_symmetry_multiplicity
 _atom_site_fract_x
 _atom_site_fract_y
 _atom_site_fract_z
 _atom_site_occupancy
  Ga  Ga0  1  0.999993  0.500000  0.997835  1
  Ga  Ga1  1  0.499824  0.000000  0.165622  1
  Ga  Ga2  1  0.999819  0.500000  0.333332  1
  Ga  Ga3  1  0.500003  0.000000  0.501059  1
  Ga  Ga4  1  0.000177  0.500000  0.668811  1
  Ga  Ga5  1  0.500175  0.000000  0.833343  1
  Fe  Fe6  1  0.000008  0.000000  0.998325  1
  Fe  Fe7  1  0.499854  0.500000  0.165913  1
  Fe  Fe8  1  0.999813  0.000000  0.333334  1
  Fe  Fe9  1  0.499943  0.500000  0.500744  1
  Fe  Fe10  1  0.000164  0.000000  0.668354  1
  Cu  Cu11  1  0.500198  0.500000  0.833321  1
  Rh  Rh12  1  0.499990  0.248918  0.002340  1
  Rh  Rh13  1  0.499990  0.751083  0.002340  1
  Rh  Rh14  1  0.999832  0.250165  0.167417  1
  Rh  Rh15  1  0.999832  0.749834  0.167417  1
  Rh  Rh16  1  0.499830  0.250183  0.333340  1
  Rh  Rh17  1  0.499830  0.749816  0.333340  1
  Rh  Rh18  1  0.000007  0.250144  0.499260  1
  Rh  Rh19  1  0.000007  0.749855  0.499260  1
  Rh  Rh20  1  0.500176  0.248940  0.664318  1
  Rh  Rh21  1  0.500176  0.751059  0.664318  1
  Rh  Rh22  1  0.000181  0.246227  0.833327  1
  Rh  Rh23  1  0.000181  0.753772  0.833327  1
