# generated using pymatgen
data_Tb6Er3Tm7(In3Co)2
_symmetry_space_group_name_H-M   'P 1'
_cell_length_a   10.30577900
_cell_length_b   10.30561472
_cell_length_c   7.00962000
_cell_angle_alpha   90.00007305
_cell_angle_beta   90.00030280
_cell_angle_gamma   120.00081896
_symmetry_Int_Tables_number   1
_chemical_formula_structural   Tb6Er3Tm7(In3Co)2
_chemical_formula_sum   'Tb6 Er3 Tm7 In6 Co2'
_cell_volume   644.72758196
_cell_formula_units_Z   1
loop_
 _symmetry_equiv_pos_site_id
 _symmetry_equiv_pos_as_xyz
  1  'x, y, z'
loop_
 _atom_site_type_symbol
 _atom_site_label
 _atom_site_symmetry_multiplicity
 _atom_site_fract_x
 _atom_site_fract_y
 _atom_site_fract_z
 _atom_site_occupancy
  Tb  Tb0  1  0.534582  0.069155  0.790733  1
  Tb  Tb1  1  0.930854  0.465423  0.790735  1
  Tb  Tb2  1  0.534580  0.465427  0.790729  1
  Tb  Tb3  1  0.465587  0.931167  0.290480  1
  Tb  Tb4  1  0.068816  0.534407  0.290485  1
  Tb  Tb5  1  0.465583  0.534410  0.290500  1
  Er  Er6  1  0.333328  0.666654  0.684164  1
  Er  Er7  1  0.000005  0.000024  0.779513  1
  Er  Er8  1  0.999989  0.000014  0.279736  1
  Tm  Tm9  1  0.821772  0.643554  0.498092  1
  Tm  Tm10  1  0.356451  0.178226  0.498092  1
  Tm  Tm11  1  0.821774  0.178221  0.498098  1
  Tm  Tm12  1  0.178120  0.356210  0.998398  1
  Tm  Tm13  1  0.643800  0.821893  0.998402  1
  Tm  Tm14  1  0.178101  0.821906  0.998396  1
  Tm  Tm15  1  0.666665  0.333331  0.184873  1
  In  In16  1  0.837222  0.674455  0.040717  1
  In  In17  1  0.325550  0.162776  0.040704  1
  In  In18  1  0.837238  0.162775  0.040725  1
  In  In19  1  0.162534  0.325058  0.540387  1
  In  In20  1  0.674915  0.837471  0.540396  1
  In  In21  1  0.162535  0.837444  0.540366  1
  Co  Co22  1  0.666667  0.333333  0.565607  1
  Co  Co23  1  0.333333  0.666666  0.065578  1
