# generated using pymatgen
data_La2Hf3P7Ir9
_symmetry_space_group_name_H-M   'P 1'
_cell_length_a   9.80546300
_cell_length_b   9.80546270
_cell_length_c   4.02450500
_cell_angle_alpha   90.00000000
_cell_angle_beta   90.00000000
_cell_angle_gamma   119.99999763
_symmetry_Int_Tables_number   1
_chemical_formula_structural   La2Hf3P7Ir9
_chemical_formula_sum   'La2 Hf3 P7 Ir9'
_cell_volume   335.10376765
_cell_formula_units_Z   1
loop_
 _symmetry_equiv_pos_site_id
 _symmetry_equiv_pos_as_xyz
  1  'x, y, z'
loop_
 _atom_site_type_symbol
 _atom_site_label
 _atom_site_symmetry_multiplicity
 _atom_site_fract_x
 _atom_site_fract_y
 _atom_site_fract_z
 _atom_site_occupancy
  La  La0  1  0.333333  0.666667  0.000000  1
  La  La1  1  0.000000  0.000000  0.500000  1
  Hf  Hf2  1  0.789089  0.230038  0.500000  1
  Hf  Hf3  1  0.769962  0.559050  0.500000  1
  Hf  Hf4  1  0.440950  0.210911  0.500000  1
  P  P5  1  0.779443  0.027441  0.000000  1
  P  P6  1  0.972559  0.752001  0.000000  1
  P  P7  1  0.247999  0.220557  0.000000  1
  P  P8  1  0.382323  0.918606  0.500000  1
  P  P9  1  0.081394  0.463718  0.500000  1
  P  P10  1  0.536282  0.617677  0.500000  1
  P  P11  1  0.666667  0.333333  0.000000  1
  Ir  Ir12  1  0.027997  0.256968  0.000000  1
  Ir  Ir13  1  0.743032  0.771029  0.000000  1
  Ir  Ir14  1  0.228971  0.972003  0.000000  1
  Ir  Ir15  1  0.551337  0.055943  0.000000  1
  Ir  Ir16  1  0.944057  0.495394  0.000000  1
  Ir  Ir17  1  0.504606  0.448663  0.000000  1
  Ir  Ir18  1  0.614106  0.888240  0.500000  1
  Ir  Ir19  1  0.111760  0.725865  0.500000  1
  Ir  Ir20  1  0.274135  0.385894  0.500000  1
