# generated using pymatgen
data_Zr16Nb3Si16Mo
_symmetry_space_group_name_H-M   'P 1'
_cell_length_a   7.06136878
_cell_length_b   7.06136878
_cell_length_c   12.93371800
_cell_angle_alpha   89.93626943
_cell_angle_beta   90.06373057
_cell_angle_gamma   90.05079496
_symmetry_Int_Tables_number   1
_chemical_formula_structural   Zr16Nb3Si16Mo
_chemical_formula_sum   'Zr16 Nb3 Si16 Mo1'
_cell_volume   644.91201314
_cell_formula_units_Z   1
loop_
 _symmetry_equiv_pos_site_id
 _symmetry_equiv_pos_as_xyz
  1  'x, y, z'
loop_
 _atom_site_type_symbol
 _atom_site_label
 _atom_site_symmetry_multiplicity
 _atom_site_fract_x
 _atom_site_fract_y
 _atom_site_fract_z
 _atom_site_occupancy
  Zr  Zr0  1  0.355815  0.503785  0.377228  1
  Zr  Zr1  1  0.855023  0.996753  0.374281  1
  Zr  Zr2  1  0.002860  0.144679  0.126410  1
  Zr  Zr3  1  0.996753  0.855023  0.625719  1
  Zr  Zr4  1  0.644753  0.497789  0.875700  1
  Zr  Zr5  1  0.503785  0.355815  0.622772  1
  Zr  Zr6  1  0.497789  0.644753  0.124300  1
  Zr  Zr7  1  0.144679  0.002860  0.873590  1
  Zr  Zr8  1  0.998726  0.650914  0.034044  1
  Zr  Zr9  1  0.001364  0.349135  0.533142  1
  Zr  Zr10  1  0.650914  0.998726  0.965956  1
  Zr  Zr11  1  0.150751  0.501595  0.783042  1
  Zr  Zr12  1  0.849119  0.499253  0.283535  1
  Zr  Zr13  1  0.501595  0.150751  0.216958  1
  Zr  Zr14  1  0.499253  0.849119  0.716465  1
  Zr  Zr15  1  0.349135  0.001364  0.466858  1
  Nb  Nb16  1  0.824130  0.175097  0.749496  1
  Nb  Nb17  1  0.175097  0.824130  0.250504  1
  Nb  Nb18  1  0.324424  0.324424  0.000000  1
  Si  Si19  1  0.047196  0.698648  0.435962  1
  Si  Si20  1  0.950218  0.300723  0.935593  1
  Si  Si21  1  0.698648  0.047196  0.564038  1
  Si  Si22  1  0.199124  0.450896  0.185939  1
  Si  Si23  1  0.799656  0.550946  0.684586  1
  Si  Si24  1  0.450896  0.199124  0.814061  1
  Si  Si25  1  0.550946  0.799656  0.315414  1
  Si  Si26  1  0.300723  0.950218  0.064407  1
  Si  Si27  1  0.852493  0.796837  0.821151  1
  Si  Si28  1  0.147769  0.202918  0.321549  1
  Si  Si29  1  0.796837  0.852493  0.178849  1
  Si  Si30  1  0.297828  0.647744  0.571857  1
  Si  Si31  1  0.702883  0.352433  0.071397  1
  Si  Si32  1  0.647744  0.297828  0.428143  1
  Si  Si33  1  0.352433  0.702883  0.928603  1
  Si  Si34  1  0.202918  0.147769  0.678451  1
  Mo  Mo35  1  0.675723  0.675723  0.500000  1
