# generated using pymatgen
data_Tb8Hg2PdRu
_symmetry_space_group_name_H-M   'P 1'
_cell_length_a   9.64338490
_cell_length_b   9.64338522
_cell_length_c   9.63870900
_cell_angle_alpha   60.01603611
_cell_angle_beta   60.01603501
_cell_angle_gamma   60.29639314
_symmetry_Int_Tables_number   1
_chemical_formula_structural   Tb8Hg2PdRu
_chemical_formula_sum   'Tb16 Hg4 Pd2 Ru2'
_cell_volume   635.37769319
_cell_formula_units_Z   2
loop_
 _symmetry_equiv_pos_site_id
 _symmetry_equiv_pos_as_xyz
  1  'x, y, z'
loop_
 _atom_site_type_symbol
 _atom_site_label
 _atom_site_symmetry_multiplicity
 _atom_site_fract_x
 _atom_site_fract_y
 _atom_site_fract_z
 _atom_site_occupancy
  Tb  Tb0  1  0.602070  0.602070  0.596990  1
  Tb  Tb1  1  0.602070  0.602070  0.198871  1
  Tb  Tb2  1  0.611628  0.186891  0.600742  1
  Tb  Tb3  1  0.186891  0.611628  0.600742  1
  Tb  Tb4  1  0.054315  0.440312  0.439745  1
  Tb  Tb5  1  0.440312  0.054315  0.065628  1
  Tb  Tb6  1  0.440312  0.054315  0.439745  1
  Tb  Tb7  1  0.054315  0.440312  0.065628  1
  Tb  Tb8  1  0.441949  0.441949  0.058051  1
  Tb  Tb9  1  0.061321  0.061321  0.438679  1
  Tb  Tb10  1  0.188630  0.815950  0.809265  1
  Tb  Tb11  1  0.815950  0.188630  0.186155  1
  Tb  Tb12  1  0.815950  0.188630  0.809265  1
  Tb  Tb13  1  0.188630  0.815950  0.186155  1
  Tb  Tb14  1  0.812206  0.812206  0.187794  1
  Tb  Tb15  1  0.187197  0.187197  0.812803  1
  Hg  Hg16  1  0.835124  0.835124  0.835714  1
  Hg  Hg17  1  0.835124  0.835124  0.494037  1
  Hg  Hg18  1  0.834288  0.494755  0.835478  1
  Hg  Hg19  1  0.494755  0.834288  0.835478  1
  Pd  Pd20  1  0.391695  0.391695  0.396903  1
  Pd  Pd21  1  0.391695  0.391695  0.819707  1
  Ru  Ru22  1  0.391128  0.822449  0.393212  1
  Ru  Ru23  1  0.822449  0.391128  0.393212  1
