# generated using pymatgen
data_YbSm4Ho3(B6Ru)4
_symmetry_space_group_name_H-M   'P 1'
_cell_length_a   3.69439900
_cell_length_b   9.16918125
_cell_length_c   11.57275732
_cell_angle_alpha   90.02700207
_cell_angle_beta   90.00000000
_cell_angle_gamma   90.00000000
_symmetry_Int_Tables_number   1
_chemical_formula_structural   YbSm4Ho3(B6Ru)4
_chemical_formula_sum   'Yb1 Sm4 Ho3 B24 Ru4'
_cell_volume   392.02264431
_cell_formula_units_Z   1
loop_
 _symmetry_equiv_pos_site_id
 _symmetry_equiv_pos_as_xyz
  1  'x, y, z'
loop_
 _atom_site_type_symbol
 _atom_site_label
 _atom_site_symmetry_multiplicity
 _atom_site_fract_x
 _atom_site_fract_y
 _atom_site_fract_z
 _atom_site_occupancy
  Yb  Yb0  1  0.000000  0.557607  0.870277  1
  Sm  Sm1  1  0.000000  0.322412  0.415710  1
  Sm  Sm2  1  0.000000  0.677113  0.587516  1
  Sm  Sm3  1  0.000000  0.821377  0.083536  1
  Sm  Sm4  1  0.000000  0.178691  0.913495  1
  Ho  Ho5  1  0.000000  0.942641  0.371446  1
  Ho  Ho6  1  0.000000  0.057031  0.628942  1
  Ho  Ho7  1  0.000000  0.443184  0.127662  1
  B  B8  1  0.500000  0.554756  0.431628  1
  B  B9  1  0.500000  0.445190  0.569214  1
  B  B10  1  0.500000  0.055155  0.068325  1
  B  B11  1  0.500000  0.944968  0.931099  1
  B  B12  1  0.500000  0.748662  0.418205  1
  B  B13  1  0.500000  0.251254  0.582304  1
  B  B14  1  0.500000  0.249249  0.081731  1
  B  B15  1  0.500000  0.750744  0.917228  1
  B  B16  1  0.500000  0.789315  0.266013  1
  B  B17  1  0.500000  0.211231  0.733750  1
  B  B18  1  0.500000  0.289808  0.233752  1
  B  B19  1  0.500000  0.710083  0.766661  1
  B  B20  1  0.500000  0.629877  0.184541  1
  B  B21  1  0.500000  0.371213  0.814745  1
  B  B22  1  0.500000  0.129977  0.314859  1
  B  B23  1  0.500000  0.869873  0.685900  1
  B  B24  1  0.500000  0.983808  0.212986  1
  B  B25  1  0.500000  0.016248  0.787152  1
  B  B26  1  0.500000  0.483885  0.286832  1
  B  B27  1  0.500000  0.515991  0.713522  1
  B  B28  1  0.500000  0.602218  0.028202  1
  B  B29  1  0.500000  0.397684  0.971902  1
  B  B30  1  0.500000  0.104103  0.471428  1
  B  B31  1  0.500000  0.895492  0.528717  1
  Ru  Ru32  1  0.000000  0.637719  0.320654  1
  Ru  Ru33  1  0.000000  0.361510  0.679831  1
  Ru  Ru34  1  0.000000  0.138105  0.180480  1
  Ru  Ru35  1  0.000000  0.861824  0.819756  1
