# generated using pymatgen
data_TmLuMgNi7B2
_symmetry_space_group_name_H-M   'P 1'
_cell_length_a   4.95579300
_cell_length_b   4.95579270
_cell_length_c   14.14830300
_cell_angle_alpha   90.00000000
_cell_angle_beta   90.00000000
_cell_angle_gamma   120.00000867
_symmetry_Int_Tables_number   1
_chemical_formula_structural   TmLuMgNi7B2
_chemical_formula_sum   'Tm2 Lu2 Mg2 Ni14 B4'
_cell_volume   300.92705534
_cell_formula_units_Z   2
loop_
 _symmetry_equiv_pos_site_id
 _symmetry_equiv_pos_as_xyz
  1  'x, y, z'
loop_
 _atom_site_type_symbol
 _atom_site_label
 _atom_site_symmetry_multiplicity
 _atom_site_fract_x
 _atom_site_fract_y
 _atom_site_fract_z
 _atom_site_occupancy
  Tm  Tm0  1  0.333333  0.666667  0.745203  1
  Tm  Tm1  1  0.666667  0.333333  0.245203  1
  Lu  Lu2  1  0.666667  0.333333  0.469487  1
  Lu  Lu3  1  0.333333  0.666667  0.969487  1
  Mg  Mg4  1  0.333333  0.666667  0.533338  1
  Mg  Mg5  1  0.666667  0.333333  0.033338  1
  Ni  Ni6  1  0.000000  0.000000  0.000708  1
  Ni  Ni7  1  0.000000  0.000000  0.500708  1
  Ni  Ni8  1  0.165698  0.331395  0.145490  1
  Ni  Ni9  1  0.834302  0.668605  0.645490  1
  Ni  Ni10  1  0.668605  0.834302  0.145490  1
  Ni  Ni11  1  0.165698  0.834302  0.145490  1
  Ni  Ni12  1  0.834302  0.165698  0.645490  1
  Ni  Ni13  1  0.331395  0.165698  0.645490  1
  Ni  Ni14  1  0.833388  0.666775  0.854188  1
  Ni  Ni15  1  0.833388  0.166612  0.854188  1
  Ni  Ni16  1  0.333225  0.166612  0.854188  1
  Ni  Ni17  1  0.666775  0.833388  0.354188  1
  Ni  Ni18  1  0.166612  0.833388  0.354188  1
  Ni  Ni19  1  0.166612  0.333225  0.354188  1
  B  B20  1  0.333333  0.666667  0.249991  1
  B  B21  1  0.666667  0.333333  0.749991  1
  B  B22  1  0.000000  0.000000  0.252238  1
  B  B23  1  0.000000  0.000000  0.752238  1
