# generated using pymatgen
data_Pr2ReP2RhO2
_symmetry_space_group_name_H-M   'P 1'
_cell_length_a   4.08155500
_cell_length_b   4.08155700
_cell_length_c   8.41077100
_cell_angle_alpha   90.00002766
_cell_angle_beta   90.00003447
_cell_angle_gamma   89.99994385
_symmetry_Int_Tables_number   1
_chemical_formula_structural   Pr2ReP2RhO2
_chemical_formula_sum   'Pr2 Re1 P2 Rh1 O2'
_cell_volume   140.11586996
_cell_formula_units_Z   1
loop_
 _symmetry_equiv_pos_site_id
 _symmetry_equiv_pos_as_xyz
  1  'x, y, z'
loop_
 _atom_site_type_symbol
 _atom_site_label
 _atom_site_symmetry_multiplicity
 _atom_site_fract_x
 _atom_site_fract_y
 _atom_site_fract_z
 _atom_site_occupancy
  Pr  Pr0  1  0.250001  0.250002  0.141781  1
  Pr  Pr1  1  0.750002  0.750002  0.858220  1
  Re  Re2  1  0.750002  0.250000  0.499999  1
  P  P3  1  0.750001  0.750001  0.356510  1
  P  P4  1  0.250001  0.250001  0.643487  1
  Rh  Rh5  1  0.250001  0.750002  0.499999  1
  O  O6  1  0.750002  0.250001  0.000000  1
  O  O7  1  0.250000  0.750002  0.000000  1
