# generated using pymatgen
data_Tb12TlCo4Pd
_symmetry_space_group_name_H-M   'P 1'
_cell_length_a   8.36933832
_cell_length_b   8.36933701
_cell_length_c   8.36933800
_cell_angle_alpha   111.06009740
_cell_angle_beta   110.23998346
_cell_angle_gamma   107.13954488
_symmetry_Int_Tables_number   1
_chemical_formula_structural   Tb12TlCo4Pd
_chemical_formula_sum   'Tb12 Tl1 Co4 Pd1'
_cell_volume   450.70373119
_cell_formula_units_Z   1
loop_
 _symmetry_equiv_pos_site_id
 _symmetry_equiv_pos_as_xyz
  1  'x, y, z'
loop_
 _atom_site_type_symbol
 _atom_site_label
 _atom_site_symmetry_multiplicity
 _atom_site_fract_x
 _atom_site_fract_y
 _atom_site_fract_z
 _atom_site_occupancy
  Tb  Tb0  1  0.812982  0.704358  0.517339  1
  Tb  Tb1  1  0.187018  0.295642  0.482661  1
  Tb  Tb2  1  0.187018  0.704358  0.891378  1
  Tb  Tb3  1  0.812982  0.295642  0.108622  1
  Tb  Tb4  1  0.685078  0.380218  0.695140  1
  Tb  Tb5  1  0.314922  0.619782  0.304860  1
  Tb  Tb6  1  0.685078  0.989937  0.304860  1
  Tb  Tb7  1  0.314922  0.010063  0.695140  1
  Tb  Tb8  1  0.588945  0.787942  0.801004  1
  Tb  Tb9  1  0.411055  0.212058  0.198996  1
  Tb  Tb10  1  0.986937  0.787942  0.198996  1
  Tb  Tb11  1  0.013063  0.212058  0.801004  1
  Tl  Tl12  1  0.500000  0.500000  0.000000  1
  Co  Co13  1  0.619536  0.000000  0.619536  1
  Co  Co14  1  0.380464  0.000000  0.380464  1
  Co  Co15  1  0.112061  0.612061  0.500000  1
  Co  Co16  1  0.887939  0.387939  0.500000  1
  Pd  Pd17  1  0.000000  0.000000  0.000000  1
