# generated using pymatgen
data_ScSb(SeO3)4
_symmetry_space_group_name_H-M   'P 1'
_cell_length_a   8.37797700
_cell_length_b   8.39878666
_cell_length_c   8.38054041
_cell_angle_alpha   89.71560128
_cell_angle_beta   90.00000000
_cell_angle_gamma   90.00000000
_symmetry_Int_Tables_number   1
_chemical_formula_structural   ScSb(SeO3)4
_chemical_formula_sum   'Sc2 Sb2 Se8 O24'
_cell_volume   589.68813282
_cell_formula_units_Z   2
loop_
 _symmetry_equiv_pos_site_id
 _symmetry_equiv_pos_as_xyz
  1  'x, y, z'
loop_
 _atom_site_type_symbol
 _atom_site_label
 _atom_site_symmetry_multiplicity
 _atom_site_fract_x
 _atom_site_fract_y
 _atom_site_fract_z
 _atom_site_occupancy
  Sc  Sc0  1  0.000000  0.500000  0.000000  1
  Sc  Sc1  1  0.500000  0.500000  0.500000  1
  Sb  Sb2  1  0.000000  0.000000  0.500000  1
  Sb  Sb3  1  0.500000  0.000000  0.000000  1
  Se  Se4  1  0.336236  0.674171  0.164399  1
  Se  Se5  1  0.836236  0.325829  0.335601  1
  Se  Se6  1  0.677162  0.836556  0.676101  1
  Se  Se7  1  0.177162  0.163444  0.823899  1
  Se  Se8  1  0.663764  0.325829  0.835601  1
  Se  Se9  1  0.163764  0.674171  0.664399  1
  Se  Se10  1  0.322838  0.163444  0.323899  1
  Se  Se11  1  0.822838  0.836556  0.176101  1
  O  O12  1  0.242568  0.551255  0.034740  1
  O  O13  1  0.742568  0.448745  0.465260  1
  O  O14  1  0.762582  0.979511  0.543740  1
  O  O15  1  0.262582  0.020489  0.956260  1
  O  O16  1  0.542910  0.975729  0.762910  1
  O  O17  1  0.467782  0.551152  0.256784  1
  O  O18  1  0.967782  0.448848  0.243216  1
  O  O19  1  0.042910  0.024271  0.737090  1
  O  O20  1  0.978336  0.235090  0.475341  1
  O  O21  1  0.553372  0.745138  0.549182  1
  O  O22  1  0.478336  0.764910  0.024659  1
  O  O23  1  0.053372  0.254862  0.950818  1
  O  O24  1  0.757432  0.448745  0.965260  1
  O  O25  1  0.257432  0.551255  0.534740  1
  O  O26  1  0.237418  0.020489  0.456260  1
  O  O27  1  0.737418  0.979511  0.043740  1
  O  O28  1  0.457090  0.024271  0.237090  1
  O  O29  1  0.532218  0.448848  0.743216  1
  O  O30  1  0.032218  0.551152  0.756784  1
  O  O31  1  0.957090  0.975729  0.262910  1
  O  O32  1  0.021664  0.764910  0.524659  1
  O  O33  1  0.446628  0.254862  0.450818  1
  O  O34  1  0.521664  0.235090  0.975341  1
  O  O35  1  0.946628  0.745138  0.049182  1
