# generated using pymatgen
data_CaNp(Si2Rh3)2
_symmetry_space_group_name_H-M   'P 1'
_cell_length_a   6.65560775
_cell_length_b   6.65560691
_cell_length_c   6.65560726
_cell_angle_alpha   130.24293569
_cell_angle_beta   114.60583852
_cell_angle_gamma   86.42222904
_symmetry_Int_Tables_number   1
_chemical_formula_structural   CaNp(Si2Rh3)2
_chemical_formula_sum   'Ca1 Np1 Si4 Rh6'
_cell_volume   195.33209348
_cell_formula_units_Z   1
loop_
 _symmetry_equiv_pos_site_id
 _symmetry_equiv_pos_as_xyz
  1  'x, y, z'
loop_
 _atom_site_type_symbol
 _atom_site_label
 _atom_site_symmetry_multiplicity
 _atom_site_fract_x
 _atom_site_fract_y
 _atom_site_fract_z
 _atom_site_occupancy
  Ca  Ca0  1  0.250000  0.534340  0.284340  1
  Np  Np1  1  0.750000  0.453351  0.703351  1
  Si  Si2  1  0.080012  0.885233  0.805221  1
  Si  Si3  1  0.922339  0.114168  0.191830  1
  Si  Si4  1  0.577661  0.769491  0.191830  1
  Si  Si5  1  0.419988  0.225209  0.805221  1
  Rh  Rh6  1  0.714962  0.003212  0.715811  1
  Rh  Rh7  1  0.212598  0.500850  0.715811  1
  Rh  Rh8  1  0.287402  0.003212  0.288251  1
  Rh  Rh9  1  0.785038  0.500850  0.288251  1
  Rh  Rh10  1  0.997631  0.005042  0.502673  1
  Rh  Rh11  1  0.502369  0.005042  0.007411  1
