# generated using pymatgen
data_Ho2(AlPt3)3
_symmetry_space_group_name_H-M   'P 1'
_cell_length_a   7.69525753
_cell_length_b   7.69525835
_cell_length_c   10.21992268
_cell_angle_alpha   67.97650862
_cell_angle_beta   67.97650386
_cell_angle_gamma   59.83165209
_symmetry_Int_Tables_number   1
_chemical_formula_structural   Ho2(AlPt3)3
_chemical_formula_sum   'Ho4 Al6 Pt18'
_cell_volume   471.72116941
_cell_formula_units_Z   2
loop_
 _symmetry_equiv_pos_site_id
 _symmetry_equiv_pos_as_xyz
  1  'x, y, z'
loop_
 _atom_site_type_symbol
 _atom_site_label
 _atom_site_symmetry_multiplicity
 _atom_site_fract_x
 _atom_site_fract_y
 _atom_site_fract_z
 _atom_site_occupancy
  Ho  Ho0  1  0.414293  0.246570  0.750372  1
  Ho  Ho1  1  0.585707  0.753430  0.249628  1
  Ho  Ho2  1  0.753430  0.585707  0.749628  1
  Ho  Ho3  1  0.246570  0.414293  0.250372  1
  Al  Al4  1  0.646909  0.177041  0.999541  1
  Al  Al5  1  0.822959  0.353091  0.500459  1
  Al  Al6  1  0.353091  0.822959  0.000459  1
  Al  Al7  1  0.000000  0.500000  0.000000  1
  Al  Al8  1  0.177041  0.646909  0.499541  1
  Al  Al9  1  0.500000  0.000000  0.500000  1
  Pt  Pt10  1  0.472849  0.643892  0.576173  1
  Pt  Pt11  1  0.356108  0.527151  0.923827  1
  Pt  Pt12  1  0.858664  0.694364  0.424447  1
  Pt  Pt13  1  0.864248  0.135752  0.750000  1
  Pt  Pt14  1  0.527151  0.356108  0.423827  1
  Pt  Pt15  1  0.694364  0.858664  0.924447  1
  Pt  Pt16  1  0.917010  0.297482  0.252427  1
  Pt  Pt17  1  0.976991  0.808012  0.073266  1
  Pt  Pt18  1  0.297482  0.917010  0.752427  1
  Pt  Pt19  1  0.141336  0.305636  0.575553  1
  Pt  Pt20  1  0.808012  0.976991  0.573266  1
  Pt  Pt21  1  0.305636  0.141336  0.075553  1
  Pt  Pt22  1  0.135752  0.864248  0.250000  1
  Pt  Pt23  1  0.023009  0.191988  0.926734  1
  Pt  Pt24  1  0.082990  0.702518  0.747573  1
  Pt  Pt25  1  0.643892  0.472849  0.076173  1
  Pt  Pt26  1  0.191988  0.023009  0.426734  1
  Pt  Pt27  1  0.702518  0.082990  0.247573  1
