# generated using pymatgen
data_La2Al16CuPt8
_symmetry_space_group_name_H-M   'P 1'
_cell_length_a   11.16548173
_cell_length_b   11.16548311
_cell_length_c   11.16548264
_cell_angle_alpha   158.48563920
_cell_angle_beta   114.91245991
_cell_angle_gamma   69.41731342
_symmetry_Int_Tables_number   1
_chemical_formula_structural   La2Al16CuPt8
_chemical_formula_sum   'La2 Al16 Cu1 Pt8'
_cell_volume   459.57160472
_cell_formula_units_Z   1
loop_
 _symmetry_equiv_pos_site_id
 _symmetry_equiv_pos_as_xyz
  1  'x, y, z'
loop_
 _atom_site_type_symbol
 _atom_site_label
 _atom_site_symmetry_multiplicity
 _atom_site_fract_x
 _atom_site_fract_y
 _atom_site_fract_z
 _atom_site_occupancy
  La  La0  1  0.226381  0.227357  0.999024  1
  La  La1  1  0.771666  0.772643  0.999024  1
  Al  Al2  1  0.273546  0.392052  0.881493  1
  Al  Al3  1  0.092472  0.919937  0.172536  1
  Al  Al4  1  0.511765  0.204920  0.306845  1
  Al  Al5  1  0.252599  0.080063  0.172536  1
  Al  Al6  1  0.916179  0.414785  0.501394  1
  Al  Al7  1  0.722932  0.605085  0.117848  1
  Al  Al8  1  0.895216  0.202267  0.692948  1
  Al  Al9  1  0.490682  0.797733  0.692948  1
  Al  Al10  1  0.384557  0.000000  0.384557  1
  Al  Al11  1  0.612690  0.000000  0.612690  1
  Al  Al12  1  0.489442  0.607948  0.881493  1
  Al  Al13  1  0.101924  0.795080  0.306845  1
  Al  Al14  1  0.907290  0.078218  0.829072  1
  Al  Al15  1  0.750854  0.921782  0.829072  1
  Al  Al16  1  0.512763  0.394915  0.117848  1
  Al  Al17  1  0.086609  0.585215  0.501394  1
  Cu  Cu18  1  0.749046  0.500000  0.249046  1
  Pt  Pt19  1  0.027205  0.339361  0.687844  1
  Pt  Pt20  1  0.623854  0.123823  0.500032  1
  Pt  Pt21  1  0.251255  0.500000  0.751255  1
  Pt  Pt22  1  0.376208  0.876177  0.500032  1
  Pt  Pt23  1  0.001639  0.000000  0.001639  1
  Pt  Pt24  1  0.654913  0.343542  0.311371  1
  Pt  Pt25  1  0.348482  0.660639  0.687844  1
  Pt  Pt26  1  0.967827  0.656458  0.311371  1
