# generated using pymatgen
data_Sr2Cd21Pt
_symmetry_space_group_name_H-M   'P 1'
_cell_length_a   9.41129719
_cell_length_b   9.42998177
_cell_length_c   9.41129817
_cell_angle_alpha   100.21934276
_cell_angle_beta   98.99913126
_cell_angle_gamma   131.64337177
_symmetry_Int_Tables_number   1
_chemical_formula_structural   Sr2Cd21Pt
_chemical_formula_sum   'Sr2 Cd21 Pt1'
_cell_volume   569.93862046
_cell_formula_units_Z   1
loop_
 _symmetry_equiv_pos_site_id
 _symmetry_equiv_pos_as_xyz
  1  'x, y, z'
loop_
 _atom_site_type_symbol
 _atom_site_label
 _atom_site_symmetry_multiplicity
 _atom_site_fract_x
 _atom_site_fract_y
 _atom_site_fract_z
 _atom_site_occupancy
  Sr  Sr0  1  0.751101  0.250878  0.499777  1
  Sr  Sr1  1  0.498899  0.499122  0.000223  1
  Cd  Cd2  1  0.001893  0.319712  0.929813  1
  Cd  Cd3  1  0.125000  0.875000  0.750000  1
  Cd  Cd4  1  0.679480  0.596910  0.676666  1
  Cd  Cd5  1  0.389900  0.319712  0.317820  1
  Cd  Cd6  1  0.687262  0.012449  0.088580  1
  Cd  Cd7  1  0.860100  0.430288  0.182180  1
  Cd  Cd8  1  0.408420  0.082000  0.086829  1
  Cd  Cd9  1  0.005522  0.015404  0.009883  1
  Cd  Cd10  1  0.841580  0.668000  0.413171  1
  Cd  Cd11  1  0.244478  0.734596  0.490117  1
  Cd  Cd12  1  0.326133  0.737551  0.174813  1
  Cd  Cd13  1  0.125000  0.875000  0.250000  1
  Cd  Cd14  1  0.248107  0.430288  0.570187  1
  Cd  Cd15  1  0.562738  0.737551  0.411420  1
  Cd  Cd16  1  0.995170  0.082000  0.673579  1
  Cd  Cd17  1  0.923867  0.012449  0.325187  1
  Cd  Cd18  1  0.329757  0.153090  0.582570  1
  Cd  Cd19  1  0.254830  0.668000  0.826421  1
  Cd  Cd20  1  0.570520  0.153090  0.823334  1
  Cd  Cd21  1  0.920243  0.596910  0.917430  1
  Cd  Cd22  1  0.625000  0.875000  0.750000  1
  Pt  Pt23  1  0.125000  0.375000  0.250000  1
