# generated using pymatgen
data_NdSn6(RuRh)2
_symmetry_space_group_name_H-M   'P 1'
_cell_length_a   6.99612222
_cell_length_b   6.99612276
_cell_length_c   6.99895875
_cell_angle_alpha   120.59518770
_cell_angle_beta   120.59518827
_cell_angle_gamma   88.94851462
_symmetry_Int_Tables_number   1
_chemical_formula_structural   NdSn6(RuRh)2
_chemical_formula_sum   'Nd1 Sn6 Ru2 Rh2'
_cell_volume   240.06048677
_cell_formula_units_Z   1
loop_
 _symmetry_equiv_pos_site_id
 _symmetry_equiv_pos_as_xyz
  1  'x, y, z'
loop_
 _atom_site_type_symbol
 _atom_site_label
 _atom_site_symmetry_multiplicity
 _atom_site_fract_x
 _atom_site_fract_y
 _atom_site_fract_z
 _atom_site_occupancy
  Nd  Nd0  1  0.000634  0.000634  0.001269  1
  Sn  Sn1  1  0.468596  0.468596  0.593892  1
  Sn  Sn2  1  0.125297  0.125297  0.593892  1
  Sn  Sn3  1  0.877620  0.529749  0.407370  1
  Sn  Sn4  1  0.529749  0.877620  0.407370  1
  Sn  Sn5  1  0.994696  0.494696  0.989392  1
  Sn  Sn6  1  0.494696  0.994696  0.989392  1
  Ru  Ru7  1  0.252133  0.596341  0.848474  1
  Ru  Ru8  1  0.596341  0.252133  0.848474  1
  Rh  Rh9  1  0.398703  0.398703  0.160237  1
  Rh  Rh10  1  0.761534  0.761534  0.160237  1
