# generated using pymatgen
data_Nd2Si3GeRh6
_symmetry_space_group_name_H-M   'P 1'
_cell_length_a   6.72397743
_cell_length_b   6.72247870
_cell_length_c   6.72397718
_cell_angle_alpha   130.37820953
_cell_angle_beta   114.38458802
_cell_angle_gamma   86.52811024
_symmetry_Int_Tables_number   1
_chemical_formula_structural   Nd2Si3GeRh6
_chemical_formula_sum   'Nd2 Si3 Ge1 Rh6'
_cell_volume   201.28497551
_cell_formula_units_Z   1
loop_
 _symmetry_equiv_pos_site_id
 _symmetry_equiv_pos_as_xyz
  1  'x, y, z'
loop_
 _atom_site_type_symbol
 _atom_site_label
 _atom_site_symmetry_multiplicity
 _atom_site_fract_x
 _atom_site_fract_y
 _atom_site_fract_z
 _atom_site_occupancy
  Nd  Nd0  1  0.750519  0.041559  0.291039  1
  Nd  Nd1  1  0.249911  0.970161  0.720250  1
  Si  Si2  1  0.427950  0.629864  0.201914  1
  Si  Si3  1  0.072807  0.271698  0.198891  1
  Si  Si4  1  0.913206  0.710328  0.797122  1
  Ge  Ge5  1  0.586424  0.386062  0.799638  1
  Rh  Rh6  1  0.212762  0.502620  0.715445  1
  Rh  Rh7  1  0.721450  0.996814  0.721518  1
  Rh  Rh8  1  0.787175  0.502620  0.289858  1
  Rh  Rh9  1  0.275295  0.996814  0.275363  1
  Rh  Rh10  1  0.482705  0.495730  0.475934  1
  Rh  Rh11  1  0.019796  0.495730  0.013026  1
