# generated using pymatgen
data_YEr2TcB7
_symmetry_space_group_name_H-M   'P 1'
_cell_length_a   8.02400538
_cell_length_b   8.02400475
_cell_length_c   9.32306800
_cell_angle_alpha   90.00000000
_cell_angle_beta   90.00000000
_cell_angle_gamma   154.65296285
_symmetry_Int_Tables_number   1
_chemical_formula_structural   YEr2TcB7
_chemical_formula_sum   'Y2 Er4 Tc2 B14'
_cell_volume   256.97234956
_cell_formula_units_Z   2
loop_
 _symmetry_equiv_pos_site_id
 _symmetry_equiv_pos_as_xyz
  1  'x, y, z'
loop_
 _atom_site_type_symbol
 _atom_site_label
 _atom_site_symmetry_multiplicity
 _atom_site_fract_x
 _atom_site_fract_y
 _atom_site_fract_z
 _atom_site_occupancy
  Y  Y0  1  0.242851  0.757149  0.250000  1
  Y  Y1  1  0.757149  0.242851  0.750000  1
  Er  Er2  1  0.895377  0.104623  0.440781  1
  Er  Er3  1  0.104623  0.895377  0.559219  1
  Er  Er4  1  0.895377  0.104623  0.059219  1
  Er  Er5  1  0.104623  0.895377  0.940781  1
  Tc  Tc6  1  0.052356  0.947644  0.250000  1
  Tc  Tc7  1  0.947644  0.052356  0.750000  1
  B  B8  1  0.727126  0.272874  0.466944  1
  B  B9  1  0.272874  0.727126  0.533056  1
  B  B10  1  0.727126  0.272874  0.033056  1
  B  B11  1  0.272874  0.727126  0.966944  1
  B  B12  1  0.631683  0.368317  0.150719  1
  B  B13  1  0.368317  0.631683  0.849281  1
  B  B14  1  0.631683  0.368317  0.349281  1
  B  B15  1  0.368317  0.631683  0.650719  1
  B  B16  1  0.520379  0.479621  0.095399  1
  B  B17  1  0.479621  0.520379  0.904601  1
  B  B18  1  0.520379  0.479621  0.404601  1
  B  B19  1  0.479621  0.520379  0.595399  1
  B  B20  1  0.455983  0.544017  0.250000  1
  B  B21  1  0.544017  0.455983  0.750000  1
