# generated using pymatgen
data_K7Rb11(GaBi4)2
_symmetry_space_group_name_H-M   'P 1'
_cell_length_a   11.15865785
_cell_length_b   11.17852110
_cell_length_c   11.67105182
_cell_angle_alpha   89.95890529
_cell_angle_beta   89.99727321
_cell_angle_gamma   119.77659312
_symmetry_Int_Tables_number   1
_chemical_formula_structural   K7Rb11(GaBi4)2
_chemical_formula_sum   'K7 Rb11 Ga2 Bi8'
_cell_volume   1263.60131475
_cell_formula_units_Z   1
loop_
 _symmetry_equiv_pos_site_id
 _symmetry_equiv_pos_as_xyz
  1  'x, y, z'
loop_
 _atom_site_type_symbol
 _atom_site_label
 _atom_site_symmetry_multiplicity
 _atom_site_fract_x
 _atom_site_fract_y
 _atom_site_fract_z
 _atom_site_occupancy
  K  K0  1  0.119873  0.239412  0.250725  1
  K  K1  1  0.880699  0.761642  0.749858  1
  K  K2  1  0.761232  0.880575  0.250245  1
  K  K3  1  0.119517  0.880643  0.250230  1
  K  K4  1  0.881342  0.120257  0.749574  1
  K  K5  1  0.238831  0.120362  0.749570  1
  K  K6  1  0.206425  0.413027  0.542281  1
  Rb  Rb7  1  0.791644  0.583067  0.043599  1
  Rb  Rb8  1  0.581964  0.790743  0.543426  1
  Rb  Rb9  1  0.208627  0.790653  0.543452  1
  Rb  Rb10  1  0.791594  0.208023  0.043345  1
  Rb  Rb11  1  0.416491  0.207967  0.043295  1
  Rb  Rb12  1  0.791733  0.583279  0.457073  1
  Rb  Rb13  1  0.792324  0.208606  0.456809  1
  Rb  Rb14  1  0.416346  0.208523  0.456848  1
  Rb  Rb15  1  0.583200  0.791995  0.956657  1
  Rb  Rb16  1  0.208659  0.791914  0.956617  1
  Rb  Rb17  1  0.208299  0.416841  0.955896  1
  Ga  Ga18  1  0.333123  0.666575  0.251095  1
  Ga  Ga19  1  0.666785  0.333264  0.748890  1
  Bi  Bi20  1  0.999885  0.999768  0.000239  1
  Bi  Bi21  1  0.001213  0.002442  0.500162  1
  Bi  Bi22  1  0.477495  0.522147  0.251645  1
  Bi  Bi23  1  0.521854  0.478019  0.748506  1
  Bi  Bi24  1  0.477177  0.954418  0.249594  1
  Bi  Bi25  1  0.044876  0.522279  0.251681  1
  Bi  Bi26  1  0.955938  0.477909  0.748486  1
  Bi  Bi27  1  0.522853  0.045651  0.750208  1
