# generated using pymatgen
data_Nd2GdTm3Ta2O14
_symmetry_space_group_name_H-M   'P 1'
_cell_length_a   6.48215852
_cell_length_b   6.46729369
_cell_length_c   7.58525800
_cell_angle_alpha   90.00000000
_cell_angle_beta   90.00000000
_cell_angle_gamma   109.29359456
_symmetry_Int_Tables_number   1
_chemical_formula_structural   Nd2GdTm3Ta2O14
_chemical_formula_sum   'Nd2 Gd1 Tm3 Ta2 O14'
_cell_volume   300.13040803
_cell_formula_units_Z   1
loop_
 _symmetry_equiv_pos_site_id
 _symmetry_equiv_pos_as_xyz
  1  'x, y, z'
loop_
 _atom_site_type_symbol
 _atom_site_label
 _atom_site_symmetry_multiplicity
 _atom_site_fract_x
 _atom_site_fract_y
 _atom_site_fract_z
 _atom_site_occupancy
  Nd  Nd0  1  0.502355  0.502809  0.501696  1
  Nd  Nd1  1  0.502355  0.502809  0.998304  1
  Gd  Gd2  1  0.467457  0.000053  0.250000  1
  Tm  Tm3  1  0.001953  0.531951  0.250000  1
  Tm  Tm4  1  0.998745  0.467530  0.750000  1
  Tm  Tm5  1  0.533800  0.001153  0.750000  1
  Ta  Ta6  1  0.000805  0.000166  0.501608  1
  Ta  Ta7  1  0.000805  0.000166  0.998392  1
  O  O8  1  0.935811  0.068912  0.750000  1
  O  O9  1  0.060198  0.934437  0.250000  1
  O  O10  1  0.354546  0.638725  0.250000  1
  O  O11  1  0.646802  0.355109  0.750000  1
  O  O12  1  0.360188  0.637701  0.750000  1
  O  O13  1  0.643065  0.370994  0.250000  1
  O  O14  1  0.319170  0.069718  0.961862  1
  O  O15  1  0.676384  0.925570  0.475024  1
  O  O16  1  0.319170  0.069718  0.538138  1
  O  O17  1  0.676384  0.925570  0.024976  1
  O  O18  1  0.065770  0.320125  0.465669  1
  O  O19  1  0.934233  0.678329  0.966516  1
  O  O20  1  0.934233  0.678329  0.533484  1
  O  O21  1  0.065770  0.320125  0.034331  1
