# generated using pymatgen
data_Dy4Pd2PtAu
_symmetry_space_group_name_H-M   'P 1'
_cell_length_a   4.60299600
_cell_length_b   5.63761950
_cell_length_c   7.04022881
_cell_angle_alpha   90.25058279
_cell_angle_beta   90.00000000
_cell_angle_gamma   90.00000000
_symmetry_Int_Tables_number   1
_chemical_formula_structural   Dy4Pd2PtAu
_chemical_formula_sum   'Dy4 Pd2 Pt1 Au1'
_cell_volume   182.69176795
_cell_formula_units_Z   1
loop_
 _symmetry_equiv_pos_site_id
 _symmetry_equiv_pos_as_xyz
  1  'x, y, z'
loop_
 _atom_site_type_symbol
 _atom_site_label
 _atom_site_symmetry_multiplicity
 _atom_site_fract_x
 _atom_site_fract_y
 _atom_site_fract_z
 _atom_site_occupancy
  Dy  Dy0  1  0.000000  0.110820  0.691073  1
  Dy  Dy1  1  0.000000  0.894340  0.173973  1
  Dy  Dy2  1  0.500000  0.389874  0.313308  1
  Dy  Dy3  1  0.500000  0.608492  0.821486  1
  Pd  Pd4  1  0.000000  0.595179  0.540366  1
  Pd  Pd5  1  0.000000  0.407015  0.043706  1
  Pt  Pt6  1  0.500000  0.096982  0.957571  1
  Au  Au7  1  0.500000  0.897297  0.458518  1
