# generated using pymatgen
data_Li4LaNd(YSi3)2
_symmetry_space_group_name_H-M   'P 1'
_cell_length_a   9.39397857
_cell_length_b   9.39397867
_cell_length_c   6.84348300
_cell_angle_alpha   90.00000000
_cell_angle_beta   90.00000000
_cell_angle_gamma   153.16815599
_symmetry_Int_Tables_number   1
_chemical_formula_structural   Li4LaNd(YSi3)2
_chemical_formula_sum   'Li4 La1 Nd1 Y2 Si6'
_cell_volume   272.59158115
_cell_formula_units_Z   1
loop_
 _symmetry_equiv_pos_site_id
 _symmetry_equiv_pos_as_xyz
  1  'x, y, z'
loop_
 _atom_site_type_symbol
 _atom_site_label
 _atom_site_symmetry_multiplicity
 _atom_site_fract_x
 _atom_site_fract_y
 _atom_site_fract_z
 _atom_site_occupancy
  Li  Li0  1  0.190783  0.809217  0.059040  1
  Li  Li1  1  0.190783  0.809217  0.440960  1
  Li  Li2  1  0.809477  0.190523  0.940211  1
  Li  Li3  1  0.809477  0.190523  0.559789  1
  La  La4  1  0.553890  0.446110  0.250000  1
  Nd  Nd5  1  0.445856  0.554144  0.750000  1
  Y  Y6  1  0.344189  0.655811  0.250000  1
  Y  Y7  1  0.655689  0.344311  0.750000  1
  Si  Si8  1  0.724009  0.275991  0.250000  1
  Si  Si9  1  0.277076  0.722924  0.750000  1
  Si  Si10  1  0.058857  0.941143  0.923400  1
  Si  Si11  1  0.940529  0.059471  0.074796  1
  Si  Si12  1  0.940529  0.059471  0.425204  1
  Si  Si13  1  0.058857  0.941143  0.576600  1
