# generated using pymatgen
data_Ta4Ti2V6Si9Ge
_symmetry_space_group_name_H-M   'P 1'
_cell_length_a   4.95505078
_cell_length_b   7.70643407
_cell_length_c   9.35616602
_cell_angle_alpha   65.29317925
_cell_angle_beta   74.64483990
_cell_angle_gamma   89.99998996
_symmetry_Int_Tables_number   1
_chemical_formula_structural   Ta4Ti2V6Si9Ge
_chemical_formula_sum   'Ta4 Ti2 V6 Si9 Ge1'
_cell_volume   310.47300452
_cell_formula_units_Z   1
loop_
 _symmetry_equiv_pos_site_id
 _symmetry_equiv_pos_as_xyz
  1  'x, y, z'
loop_
 _atom_site_type_symbol
 _atom_site_label
 _atom_site_symmetry_multiplicity
 _atom_site_fract_x
 _atom_site_fract_y
 _atom_site_fract_z
 _atom_site_occupancy
  Ta  Ta0  1  0.358190  0.740623  0.283620  1
  Ta  Ta1  1  0.641211  0.261379  0.717578  1
  Ta  Ta2  1  0.139490  0.028515  0.721020  1
  Ta  Ta3  1  0.860491  0.971382  0.279020  1
  Ti  Ti4  1  0.064512  0.319533  0.870976  1
  Ti  Ti5  1  0.935396  0.680947  0.129208  1
  V  V6  1  0.943602  0.687419  0.619397  1
  V  V7  1  0.559746  0.312272  0.379106  1
  V  V8  1  0.061148  0.312272  0.379106  1
  V  V9  1  0.437001  0.687419  0.619397  1
  V  V10  1  0.437438  0.190286  0.125125  1
  V  V11  1  0.561190  0.808630  0.877619  1
  Si  Si12  1  0.436227  0.516283  0.127545  1
  Si  Si13  1  0.563649  0.484408  0.872704  1
  Si  Si14  1  0.065558  0.650995  0.868885  1
  Si  Si15  1  0.934392  0.349374  0.131217  1
  Si  Si16  1  0.253905  0.000235  0.000057  1
  Si  Si17  1  0.746038  0.000235  0.000057  1
  Si  Si18  1  0.215820  0.420706  0.568362  1
  Si  Si19  1  0.784151  0.578199  0.431699  1
  Si  Si20  1  0.287853  0.991798  0.424294  1
  Ge  Ge21  1  0.712994  0.007086  0.574012  1
