# generated using pymatgen
data_Ti10SnB2Sb5
_symmetry_space_group_name_H-M   'P 1'
_cell_length_a   8.07839000
_cell_length_b   8.08957213
_cell_length_c   5.41923200
_cell_angle_alpha   90.00000000
_cell_angle_beta   90.00000000
_cell_angle_gamma   119.95428476
_symmetry_Int_Tables_number   1
_chemical_formula_structural   Ti10SnB2Sb5
_chemical_formula_sum   'Ti10 Sn1 B2 Sb5'
_cell_volume   306.84469520
_cell_formula_units_Z   1
loop_
 _symmetry_equiv_pos_site_id
 _symmetry_equiv_pos_as_xyz
  1  'x, y, z'
loop_
 _atom_site_type_symbol
 _atom_site_label
 _atom_site_symmetry_multiplicity
 _atom_site_fract_x
 _atom_site_fract_y
 _atom_site_fract_z
 _atom_site_occupancy
  Ti  Ti0  1  0.228842  0.000000  0.750000  1
  Ti  Ti1  1  0.772972  0.000000  0.250000  1
  Ti  Ti2  1  0.999817  0.229281  0.750000  1
  Ti  Ti3  1  0.000815  0.771636  0.250000  1
  Ti  Ti4  1  0.770535  0.770719  0.750000  1
  Ti  Ti5  1  0.229179  0.228364  0.250000  1
  Ti  Ti6  1  0.331614  0.664481  0.500133  1
  Ti  Ti7  1  0.667135  0.335519  0.500133  1
  Ti  Ti8  1  0.667135  0.335519  0.999867  1
  Ti  Ti9  1  0.331614  0.664481  0.999867  1
  Sn  Sn10  1  0.602422  0.000000  0.750000  1
  B  B11  1  0.999486  0.000000  0.500663  1
  B  B12  1  0.999486  0.000000  0.999337  1
  Sb  Sb13  1  0.400247  0.000000  0.250000  1
  Sb  Sb14  1  0.000122  0.603753  0.750000  1
  Sb  Sb15  1  0.998896  0.395581  0.250000  1
  Sb  Sb16  1  0.396369  0.396247  0.750000  1
  Sb  Sb17  1  0.603315  0.604419  0.250000  1
