# generated using pymatgen
data_Dy2Si7(NiRu3)3
_symmetry_space_group_name_H-M   'P 1'
_cell_length_a   9.52749300
_cell_length_b   9.52749241
_cell_length_c   3.81774900
_cell_angle_alpha   90.00000000
_cell_angle_beta   90.00000000
_cell_angle_gamma   120.00000553
_symmetry_Int_Tables_number   1
_chemical_formula_structural   Dy2Si7(NiRu3)3
_chemical_formula_sum   'Dy2 Si7 Ni3 Ru9'
_cell_volume   300.12020146
_cell_formula_units_Z   1
loop_
 _symmetry_equiv_pos_site_id
 _symmetry_equiv_pos_as_xyz
  1  'x, y, z'
loop_
 _atom_site_type_symbol
 _atom_site_label
 _atom_site_symmetry_multiplicity
 _atom_site_fract_x
 _atom_site_fract_y
 _atom_site_fract_z
 _atom_site_occupancy
  Dy  Dy0  1  0.333333  0.666667  0.000000  1
  Dy  Dy1  1  0.666667  0.333333  0.500000  1
  Si  Si2  1  0.400316  0.107597  0.000000  1
  Si  Si3  1  0.892403  0.292719  0.000000  1
  Si  Si4  1  0.707281  0.599684  0.000000  1
  Si  Si5  1  0.104303  0.712102  0.500000  1
  Si  Si6  1  0.287898  0.392201  0.500000  1
  Si  Si7  1  0.607799  0.895697  0.500000  1
  Si  Si8  1  0.000000  0.000000  0.000000  1
  Ni  Ni9  1  0.150911  0.876907  0.000000  1
  Ni  Ni10  1  0.123093  0.274004  0.000000  1
  Ni  Ni11  1  0.725996  0.849089  0.000000  1
  Ru  Ru12  1  0.429590  0.370191  0.000000  1
  Ru  Ru13  1  0.629809  0.059399  0.000000  1
  Ru  Ru14  1  0.940601  0.570410  0.000000  1
  Ru  Ru15  1  0.377762  0.941428  0.500000  1
  Ru  Ru16  1  0.058572  0.436333  0.500000  1
  Ru  Ru17  1  0.563667  0.622238  0.500000  1
  Ru  Ru18  1  0.205614  0.108230  0.500000  1
  Ru  Ru19  1  0.891770  0.097384  0.500000  1
  Ru  Ru20  1  0.902616  0.794386  0.500000  1
