# generated using pymatgen
data_Sr4Si8Os7Rh
_symmetry_space_group_name_H-M   'P 1'
_cell_length_a   6.14506183
_cell_length_b   8.10799263
_cell_length_c   8.10822800
_cell_angle_alpha   78.41705538
_cell_angle_beta   90.15957830
_cell_angle_gamma   89.83719482
_symmetry_Int_Tables_number   1
_chemical_formula_structural   Sr4Si8Os7Rh
_chemical_formula_sum   'Sr4 Si8 Os7 Rh1'
_cell_volume   395.75423772
_cell_formula_units_Z   1
loop_
 _symmetry_equiv_pos_site_id
 _symmetry_equiv_pos_as_xyz
  1  'x, y, z'
loop_
 _atom_site_type_symbol
 _atom_site_label
 _atom_site_symmetry_multiplicity
 _atom_site_fract_x
 _atom_site_fract_y
 _atom_site_fract_z
 _atom_site_occupancy
  Sr  Sr0  1  0.374997  0.001497  0.251288  1
  Sr  Sr1  1  0.874969  0.501561  0.751773  1
  Sr  Sr2  1  0.124415  0.500031  0.247723  1
  Sr  Sr3  1  0.625628  0.997419  0.749726  1
  Si  Si4  1  0.376985  0.319020  0.930148  1
  Si  Si5  1  0.124160  0.178655  0.572545  1
  Si  Si6  1  0.626364  0.322642  0.428734  1
  Si  Si7  1  0.881803  0.816340  0.429209  1
  Si  Si8  1  0.868192  0.179287  0.066262  1
  Si  Si9  1  0.623089  0.681780  0.070072  1
  Si  Si10  1  0.126360  0.819996  0.931661  1
  Si  Si11  1  0.373013  0.680023  0.569118  1
  Os  Os12  1  0.375171  0.377388  0.627523  1
  Os  Os13  1  0.625661  0.622952  0.371786  1
  Os  Os14  1  0.123856  0.878960  0.629356  1
  Os  Os15  1  0.124343  0.121740  0.872887  1
  Os  Os16  1  0.626144  0.379439  0.129029  1
  Os  Os17  1  0.874828  0.879010  0.128926  1
  Os  Os18  1  0.374830  0.621079  0.871183  1
  Rh  Rh19  1  0.875194  0.121179  0.371053  1
