# generated using pymatgen
data_Mo3P6WO24
_symmetry_space_group_name_H-M   'P 1'
_cell_length_a   8.80287262
_cell_length_b   8.80281785
_cell_length_c   9.07967500
_cell_angle_alpha   89.93046647
_cell_angle_beta   61.07465415
_cell_angle_gamma   120.00455482
_symmetry_Int_Tables_number   1
_chemical_formula_structural   Mo3P6WO24
_chemical_formula_sum   'Mo3 P6 W1 O24'
_cell_volume   505.11621319
_cell_formula_units_Z   1
loop_
 _symmetry_equiv_pos_site_id
 _symmetry_equiv_pos_as_xyz
  1  'x, y, z'
loop_
 _atom_site_type_symbol
 _atom_site_label
 _atom_site_symmetry_multiplicity
 _atom_site_fract_x
 _atom_site_fract_y
 _atom_site_fract_z
 _atom_site_occupancy
  Mo  Mo0  1  0.789506  0.145977  0.068465  1
  Mo  Mo1  1  0.788901  0.642090  0.567410  1
  Mo  Mo2  1  0.213577  0.356637  0.430681  1
  P  P3  1  0.283544  0.036732  0.251979  1
  P  P4  1  0.711614  0.745755  0.252247  1
  P  P5  1  0.282852  0.245726  0.749307  1
  P  P6  1  0.717461  0.970270  0.749148  1
  P  P7  1  0.005603  0.539507  0.747620  1
  P  P8  1  0.000411  0.463333  0.252761  1
  W  W9  1  0.212030  0.855720  0.932588  1
  O  O10  1  0.489201  0.077548  0.218792  1
  O  O11  1  0.865849  0.377370  0.914966  1
  O  O12  1  0.897141  0.145967  0.585143  1
  O  O13  1  0.864083  0.575543  0.723654  1
  O  O14  1  0.129902  0.637833  0.084204  1
  O  O15  1  0.096660  0.863334  0.412012  1
  O  O16  1  0.167155  0.463474  0.263407  1
  O  O17  1  0.149928  0.718362  0.780335  1
  O  O18  1  0.157215  0.519783  0.582743  1
  O  O19  1  0.268796  0.202733  0.271589  1
  O  O20  1  0.276011  0.996081  0.084321  1
  O  O21  1  0.700210  0.908461  0.227697  1
  O  O22  1  0.525662  0.565969  0.270267  1
  O  O23  1  0.269755  0.247242  0.588180  1
  O  O24  1  0.846948  0.480865  0.416306  1
  O  O25  1  0.086184  0.209827  0.918868  1
  O  O26  1  0.920220  0.780510  0.082498  1
  O  O27  1  0.502485  0.933034  0.787754  1
  O  O28  1  0.719658  0.723749  0.415735  1
  O  O29  1  0.479998  0.415768  0.723962  1
  O  O30  1  0.287233  0.071234  0.786177  1
  O  O31  1  0.712311  0.994893  0.918080  1
  O  O32  1  0.714820  0.800235  0.720279  1
  O  O33  1  0.867078  0.288436  0.220828  1
