# generated using pymatgen
data_Hf4Zr6Sn6Ge
_symmetry_space_group_name_H-M   'P 1'
_cell_length_a   5.88296101
_cell_length_b   8.59499018
_cell_length_c   8.59502001
_cell_angle_alpha   119.99977786
_cell_angle_beta   90.00029210
_cell_angle_gamma   89.99951135
_symmetry_Int_Tables_number   1
_chemical_formula_structural   Hf4Zr6Sn6Ge
_chemical_formula_sum   'Hf4 Zr6 Sn6 Ge1'
_cell_volume   376.37420444
_cell_formula_units_Z   1
loop_
 _symmetry_equiv_pos_site_id
 _symmetry_equiv_pos_as_xyz
  1  'x, y, z'
loop_
 _atom_site_type_symbol
 _atom_site_label
 _atom_site_symmetry_multiplicity
 _atom_site_fract_x
 _atom_site_fract_y
 _atom_site_fract_z
 _atom_site_occupancy
  Hf  Hf0  1  0.500001  0.333332  0.666666  1
  Hf  Hf1  1  0.500001  0.666664  0.333330  1
  Hf  Hf2  1  0.000000  0.666655  0.333309  1
  Hf  Hf3  1  0.000001  0.333345  0.666691  1
  Zr  Zr4  1  0.759282  0.257623  0.000000  1
  Zr  Zr5  1  0.759253  0.742388  0.742380  1
  Zr  Zr6  1  0.759256  0.000008  0.257618  1
  Zr  Zr7  1  0.240715  0.742372  0.999997  1
  Zr  Zr8  1  0.240750  0.257612  0.257619  1
  Zr  Zr9  1  0.240746  0.999994  0.742382  1
  Sn  Sn10  1  0.747226  0.608463  0.000006  1
  Sn  Sn11  1  0.747262  0.391541  0.391545  1
  Sn  Sn12  1  0.747261  0.999998  0.608445  1
  Sn  Sn13  1  0.252771  0.391534  0.000007  1
  Sn  Sn14  1  0.252740  0.608447  0.608440  1
  Sn  Sn15  1  0.252739  0.000008  0.391552  1
  Ge  Ge16  1  0.499994  0.000013  0.000013  1
