# generated using pymatgen
data_HoErU(GaRu)3
_symmetry_space_group_name_H-M   'P 1'
_cell_length_a   6.86585019
_cell_length_b   6.86757528
_cell_length_c   3.97420000
_cell_angle_alpha   90.00000000
_cell_angle_beta   90.00000000
_cell_angle_gamma   116.29257789
_symmetry_Int_Tables_number   1
_chemical_formula_structural   HoErU(GaRu)3
_chemical_formula_sum   'Ho1 Er1 U1 Ga3 Ru3'
_cell_volume   168.00375588
_cell_formula_units_Z   1
loop_
 _symmetry_equiv_pos_site_id
 _symmetry_equiv_pos_as_xyz
  1  'x, y, z'
loop_
 _atom_site_type_symbol
 _atom_site_label
 _atom_site_symmetry_multiplicity
 _atom_site_fract_x
 _atom_site_fract_y
 _atom_site_fract_z
 _atom_site_occupancy
  Ho  Ho0  1  0.007829  0.413112  0.500000  1
  Er  Er1  1  0.412931  0.007917  0.500000  1
  U  U2  1  0.616350  0.616496  0.500000  1
  Ga  Ga3  1  0.743946  0.033020  0.000000  1
  Ga  Ga4  1  0.033460  0.745065  0.000000  1
  Ga  Ga5  1  0.210998  0.210346  0.000000  1
  Ru  Ru6  1  0.379308  0.637094  0.000000  1
  Ru  Ru7  1  0.636718  0.378919  0.000000  1
  Ru  Ru8  1  0.958460  0.958033  0.500000  1
