# generated using pymatgen
data_Ho8Tm12HgBi11
_symmetry_space_group_name_H-M   'P 1'
_cell_length_a   8.18756429
_cell_length_b   9.41649600
_cell_length_c   12.02635500
_cell_angle_alpha   90.00000000
_cell_angle_beta   90.27350707
_cell_angle_gamma   90.00000000
_symmetry_Int_Tables_number   1
_chemical_formula_structural   Ho8Tm12HgBi11
_chemical_formula_sum   'Ho8 Tm12 Hg1 Bi11'
_cell_volume   927.19935408
_cell_formula_units_Z   1
loop_
 _symmetry_equiv_pos_site_id
 _symmetry_equiv_pos_as_xyz
  1  'x, y, z'
loop_
 _atom_site_type_symbol
 _atom_site_label
 _atom_site_symmetry_multiplicity
 _atom_site_fract_x
 _atom_site_fract_y
 _atom_site_fract_z
 _atom_site_occupancy
  Ho  Ho0  1  0.188913  0.750000  0.719493  1
  Ho  Ho1  1  0.680183  0.750000  0.785372  1
  Ho  Ho2  1  0.811724  0.250000  0.282160  1
  Ho  Ho3  1  0.313737  0.250000  0.219136  1
  Ho  Ho4  1  0.355042  0.750000  0.211003  1
  Ho  Ho5  1  0.852240  0.750000  0.285440  1
  Ho  Ho6  1  0.648264  0.250000  0.783988  1
  Ho  Ho7  1  0.149809  0.250000  0.715381  1
  Tm  Tm8  1  0.033128  0.750000  0.990922  1
  Tm  Tm9  1  0.523628  0.750000  0.510073  1
  Tm  Tm10  1  0.978845  0.250000  0.010347  1
  Tm  Tm11  1  0.476254  0.250000  0.489899  1
  Tm  Tm12  1  0.307856  0.446200  0.940035  1
  Tm  Tm13  1  0.807168  0.065813  0.559346  1
  Tm  Tm14  1  0.687355  0.930275  0.056367  1
  Tm  Tm15  1  0.192492  0.565600  0.439696  1
  Tm  Tm16  1  0.687355  0.569725  0.056367  1
  Tm  Tm17  1  0.192492  0.934400  0.439696  1
  Tm  Tm18  1  0.307856  0.053800  0.940035  1
  Tm  Tm19  1  0.807168  0.434187  0.559346  1
  Hg  Hg20  1  0.405943  0.750000  0.959500  1
  Bi  Bi21  1  0.435494  0.003386  0.672762  1
  Bi  Bi22  1  0.935739  0.496511  0.826166  1
  Bi  Bi23  1  0.565033  0.503721  0.327662  1
  Bi  Bi24  1  0.063177  0.996658  0.174268  1
  Bi  Bi25  1  0.565033  0.996279  0.327662  1
  Bi  Bi26  1  0.063177  0.503342  0.174268  1
  Bi  Bi27  1  0.435494  0.496614  0.672762  1
  Bi  Bi28  1  0.935739  0.003489  0.826166  1
  Bi  Bi29  1  0.905231  0.750000  0.544581  1
  Bi  Bi30  1  0.593809  0.250000  0.042979  1
  Bi  Bi31  1  0.094621  0.250000  0.457119  1
