# generated using pymatgen
data_YbLu3Sb6Rh7
_symmetry_space_group_name_H-M   'P 1'
_cell_length_a   7.58359326
_cell_length_b   7.58359428
_cell_length_c   7.58359413
_cell_angle_alpha   109.58160164
_cell_angle_beta   109.58160180
_cell_angle_gamma   109.58160660
_symmetry_Int_Tables_number   1
_chemical_formula_structural   YbLu3Sb6Rh7
_chemical_formula_sum   'Yb1 Lu3 Sb6 Rh7'
_cell_volume   334.36103108
_cell_formula_units_Z   1
loop_
 _symmetry_equiv_pos_site_id
 _symmetry_equiv_pos_as_xyz
  1  'x, y, z'
loop_
 _atom_site_type_symbol
 _atom_site_label
 _atom_site_symmetry_multiplicity
 _atom_site_fract_x
 _atom_site_fract_y
 _atom_site_fract_z
 _atom_site_occupancy
  Yb  Yb0  1  0.500000  0.500000  0.500000  1
  Lu  Lu1  1  0.500000  0.000000  0.000000  1
  Lu  Lu2  1  0.000000  0.500000  0.000000  1
  Lu  Lu3  1  0.000000  0.000000  0.500000  1
  Sb  Sb4  1  0.316876  0.001674  0.316876  1
  Sb  Sb5  1  0.998326  0.683124  0.683124  1
  Sb  Sb6  1  0.683124  0.683124  0.998326  1
  Sb  Sb7  1  0.683124  0.998326  0.683124  1
  Sb  Sb8  1  0.001674  0.316876  0.316876  1
  Sb  Sb9  1  0.316876  0.316876  0.001674  1
  Rh  Rh10  1  0.245539  0.500000  0.754461  1
  Rh  Rh11  1  0.500000  0.245539  0.754461  1
  Rh  Rh12  1  0.754461  0.245539  0.500000  1
  Rh  Rh13  1  0.500000  0.754461  0.245539  1
  Rh  Rh14  1  0.000000  0.000000  0.000000  1
  Rh  Rh15  1  0.245539  0.754461  0.500000  1
  Rh  Rh16  1  0.754461  0.500000  0.245539  1
