# generated using pymatgen
data_Pr5Nd5(BiPb2)2
_symmetry_space_group_name_H-M   'P 1'
_cell_length_a   6.76972400
_cell_length_b   9.50550746
_cell_length_c   9.50989709
_cell_angle_alpha   120.03174657
_cell_angle_beta   89.99999398
_cell_angle_gamma   89.99999267
_symmetry_Int_Tables_number   1
_chemical_formula_structural   Pr5Nd5(BiPb2)2
_chemical_formula_sum   'Pr5 Nd5 Bi2 Pb4'
_cell_volume   529.80212914
_cell_formula_units_Z   1
loop_
 _symmetry_equiv_pos_site_id
 _symmetry_equiv_pos_as_xyz
  1  'x, y, z'
loop_
 _atom_site_type_symbol
 _atom_site_label
 _atom_site_symmetry_multiplicity
 _atom_site_fract_x
 _atom_site_fract_y
 _atom_site_fract_z
 _atom_site_occupancy
  Pr  Pr0  1  0.750000  0.240125  0.999875  1
  Pr  Pr1  1  0.750001  0.758619  0.759154  1
  Pr  Pr2  1  0.750001  0.999340  0.240931  1
  Pr  Pr3  1  0.250000  0.758725  0.999943  1
  Pr  Pr4  1  0.250001  0.241642  0.237682  1
  Nd  Nd5  1  0.500835  0.333304  0.668400  1
  Nd  Nd6  1  0.500822  0.664994  0.331658  1
  Nd  Nd7  1  0.999177  0.664991  0.331658  1
  Nd  Nd8  1  0.999163  0.333301  0.668401  1
  Nd  Nd9  1  0.250000  0.003932  0.762126  1
  Bi  Bi10  1  0.250000  0.609344  0.608696  1
  Bi  Bi11  1  0.250000  0.000363  0.391741  1
  Pb  Pb12  1  0.749999  0.607400  0.999997  1
  Pb  Pb13  1  0.750000  0.391881  0.393350  1
  Pb  Pb14  1  0.750000  0.998496  0.606655  1
  Pb  Pb15  1  0.249998  0.393543  0.999733  1
