# generated using pymatgen
data_Sr3Tm(BO3)3
_symmetry_space_group_name_H-M   'P 1'
_cell_length_a   7.88407691
_cell_length_b   7.88407668
_cell_length_c   7.88407609
_cell_angle_alpha   105.03338636
_cell_angle_beta   105.03338600
_cell_angle_gamma   105.03339915
_symmetry_Int_Tables_number   1
_chemical_formula_structural   Sr3Tm(BO3)3
_chemical_formula_sum   'Sr6 Tm2 B6 O18'
_cell_volume   428.14322972
_cell_formula_units_Z   2
loop_
 _symmetry_equiv_pos_site_id
 _symmetry_equiv_pos_as_xyz
  1  'x, y, z'
loop_
 _atom_site_type_symbol
 _atom_site_label
 _atom_site_symmetry_multiplicity
 _atom_site_fract_x
 _atom_site_fract_y
 _atom_site_fract_z
 _atom_site_occupancy
  Sr  Sr0  1  0.359545  0.735308  0.859351  1
  Sr  Sr1  1  0.859351  0.359545  0.735308  1
  Sr  Sr2  1  0.735308  0.859351  0.359545  1
  Sr  Sr3  1  0.640455  0.264692  0.140649  1
  Sr  Sr4  1  0.140649  0.640455  0.264692  1
  Sr  Sr5  1  0.264692  0.140649  0.640455  1
  Tm  Tm6  1  0.500000  0.500000  0.500000  1
  Tm  Tm7  1  0.000000  0.000000  0.000000  1
  B  B8  1  0.708540  0.612428  0.958356  1
  B  B9  1  0.958356  0.708540  0.612428  1
  B  B10  1  0.612428  0.958356  0.708540  1
  B  B11  1  0.041644  0.291460  0.387572  1
  B  B12  1  0.387572  0.041644  0.291460  1
  B  B13  1  0.291460  0.387572  0.041644  1
  O  O14  1  0.045573  0.810939  0.522526  1
  O  O15  1  0.522526  0.045573  0.810939  1
  O  O16  1  0.444623  0.492140  0.208251  1
  O  O17  1  0.492140  0.208251  0.444623  1
  O  O18  1  0.208251  0.444623  0.492140  1
  O  O19  1  0.791749  0.555377  0.507860  1
  O  O20  1  0.555377  0.507860  0.791749  1
  O  O21  1  0.507860  0.791749  0.555377  1
  O  O22  1  0.249631  0.194643  0.969545  1
  O  O23  1  0.194643  0.969545  0.249631  1
  O  O24  1  0.969545  0.249631  0.194643  1
  O  O25  1  0.750369  0.805357  0.030455  1
  O  O26  1  0.805357  0.030455  0.750369  1
  O  O27  1  0.030455  0.750369  0.805357  1
  O  O28  1  0.189061  0.477474  0.954427  1
  O  O29  1  0.477474  0.954427  0.189061  1
  O  O30  1  0.954427  0.189061  0.477474  1
  O  O31  1  0.810939  0.522526  0.045573  1
