# generated using pymatgen
data_CaFeAg2(NO3)8
_symmetry_space_group_name_H-M   'P 1'
_cell_length_a   8.07401794
_cell_length_b   8.11173017
_cell_length_c   7.81945351
_cell_angle_alpha   89.54844583
_cell_angle_beta   89.65488377
_cell_angle_gamma   88.69854831
_symmetry_Int_Tables_number   1
_chemical_formula_structural   CaFeAg2(NO3)8
_chemical_formula_sum   'Ca1 Fe1 Ag2 N8 O24'
_cell_volume   511.97252007
_cell_formula_units_Z   1
loop_
 _symmetry_equiv_pos_site_id
 _symmetry_equiv_pos_as_xyz
  1  'x, y, z'
loop_
 _atom_site_type_symbol
 _atom_site_label
 _atom_site_symmetry_multiplicity
 _atom_site_fract_x
 _atom_site_fract_y
 _atom_site_fract_z
 _atom_site_occupancy
  Ca  Ca0  1  0.000000  0.000000  0.000000  1
  Fe  Fe1  1  0.000000  0.500000  0.500000  1
  Ag  Ag2  1  0.500000  0.500000  0.000000  1
  Ag  Ag3  1  0.500000  0.000000  0.500000  1
  N  N4  1  0.313126  0.358762  0.321289  1
  N  N5  1  0.336831  0.164858  0.828776  1
  N  N6  1  0.167661  0.805113  0.352183  1
  N  N7  1  0.863207  0.319813  0.192794  1
  N  N8  1  0.686874  0.641238  0.678711  1
  N  N9  1  0.136793  0.680187  0.807206  1
  N  N10  1  0.832339  0.194887  0.647817  1
  N  N11  1  0.663169  0.835142  0.171224  1
  O  O12  1  0.759614  0.307067  0.076864  1
  O  O13  1  0.170469  0.916648  0.240191  1
  O  O14  1  0.273887  0.791548  0.466029  1
  O  O15  1  0.230331  0.178477  0.947202  1
  O  O16  1  0.208158  0.353696  0.446914  1
  O  O17  1  0.425177  0.251468  0.312681  1
  O  O18  1  0.298100  0.472817  0.211337  1
  O  O19  1  0.145006  0.552789  0.708800  1
  O  O20  1  0.952783  0.298511  0.654644  1
  O  O21  1  0.676494  0.953938  0.276603  1
  O  O22  1  0.024155  0.788193  0.783678  1
  O  O23  1  0.546701  0.736260  0.186329  1
  O  O24  1  0.829531  0.083352  0.759809  1
  O  O25  1  0.726113  0.208452  0.533971  1
  O  O26  1  0.769669  0.821523  0.052798  1
  O  O27  1  0.240386  0.692933  0.923136  1
  O  O28  1  0.791842  0.646304  0.553086  1
  O  O29  1  0.574823  0.748532  0.687319  1
  O  O30  1  0.701900  0.527183  0.788663  1
  O  O31  1  0.854994  0.447211  0.291200  1
  O  O32  1  0.047217  0.701489  0.345356  1
  O  O33  1  0.323506  0.046062  0.723397  1
  O  O34  1  0.975845  0.211807  0.216322  1
  O  O35  1  0.453299  0.263740  0.813671  1
