# generated using pymatgen
data_Y2Er2(PbO4)3
_symmetry_space_group_name_H-M   'P 1'
_cell_length_a   6.46846150
_cell_length_b   6.52082611
_cell_length_c   6.74027000
_cell_angle_alpha   99.96011543
_cell_angle_beta   98.26239193
_cell_angle_gamma   99.68622606
_symmetry_Int_Tables_number   1
_chemical_formula_structural   Y2Er2(PbO4)3
_chemical_formula_sum   'Y2 Er2 Pb3 O12'
_cell_volume   271.61831669
_cell_formula_units_Z   1
loop_
 _symmetry_equiv_pos_site_id
 _symmetry_equiv_pos_as_xyz
  1  'x, y, z'
loop_
 _atom_site_type_symbol
 _atom_site_label
 _atom_site_symmetry_multiplicity
 _atom_site_fract_x
 _atom_site_fract_y
 _atom_site_fract_z
 _atom_site_occupancy
  Y  Y0  1  0.303763  0.130035  0.610370  1
  Y  Y1  1  0.607425  0.301072  0.135461  1
  Er  Er2  1  0.694526  0.869049  0.388736  1
  Er  Er3  1  0.393036  0.701108  0.864209  1
  Pb  Pb4  1  0.998758  0.998051  0.999062  1
  Pb  Pb5  1  0.847415  0.399700  0.670985  1
  Pb  Pb6  1  0.152851  0.601592  0.328988  1
  O  O7  1  0.575806  0.416846  0.823770  1
  O  O8  1  0.822397  0.577682  0.417450  1
  O  O9  1  0.426737  0.814492  0.573891  1
  O  O10  1  0.423941  0.590543  0.175174  1
  O  O11  1  0.176991  0.426456  0.584328  1
  O  O12  1  0.577754  0.182672  0.426852  1
  O  O13  1  0.043411  0.676434  0.885522  1
  O  O14  1  0.918985  0.076402  0.685406  1
  O  O15  1  0.679597  0.932839  0.063432  1
  O  O16  1  0.960398  0.321823  0.116026  1
  O  O17  1  0.076704  0.921713  0.313774  1
  O  O18  1  0.319509  0.061492  0.936562  1
