# generated using pymatgen
data_Cs(CrSe)3
_symmetry_space_group_name_H-M   'P 1'
_cell_length_a   9.59971800
_cell_length_b   9.59971780
_cell_length_c   4.18743900
_cell_angle_alpha   90.00000000
_cell_angle_beta   90.00000000
_cell_angle_gamma   119.99999381
_symmetry_Int_Tables_number   1
_chemical_formula_structural   Cs(CrSe)3
_chemical_formula_sum   'Cs2 Cr6 Se6'
_cell_volume   334.19203438
_cell_formula_units_Z   2
loop_
 _symmetry_equiv_pos_site_id
 _symmetry_equiv_pos_as_xyz
  1  'x, y, z'
loop_
 _atom_site_type_symbol
 _atom_site_label
 _atom_site_symmetry_multiplicity
 _atom_site_fract_x
 _atom_site_fract_y
 _atom_site_fract_z
 _atom_site_occupancy
  Cs  Cs0  1  0.333333  0.666667  0.250000  1
  Cs  Cs1  1  0.666667  0.333333  0.750000  1
  Cr  Cr2  1  0.133566  0.156224  0.250000  1
  Cr  Cr3  1  0.866434  0.843776  0.750000  1
  Cr  Cr4  1  0.843776  0.977342  0.250000  1
  Cr  Cr5  1  0.022658  0.866434  0.250000  1
  Cr  Cr6  1  0.977342  0.133566  0.750000  1
  Cr  Cr7  1  0.156224  0.022658  0.750000  1
  Se  Se8  1  0.952804  0.273111  0.250000  1
  Se  Se9  1  0.047196  0.726889  0.750000  1
  Se  Se10  1  0.726889  0.679693  0.250000  1
  Se  Se11  1  0.320307  0.047196  0.250000  1
  Se  Se12  1  0.679693  0.952804  0.750000  1
  Se  Se13  1  0.273111  0.320307  0.750000  1
