# generated using pymatgen
data_Cs2Re6Te11
_symmetry_space_group_name_H-M   'P 1'
_cell_length_a   13.41021251
_cell_length_b   13.41021220
_cell_length_c   13.41021145
_cell_angle_alpha   46.42995048
_cell_angle_beta   46.42995260
_cell_angle_gamma   46.42994728
_symmetry_Int_Tables_number   1
_chemical_formula_structural   Cs2Re6Te11
_chemical_formula_sum   'Cs4 Re12 Te22'
_cell_volume   1155.79470830
_cell_formula_units_Z   2
loop_
 _symmetry_equiv_pos_site_id
 _symmetry_equiv_pos_as_xyz
  1  'x, y, z'
loop_
 _atom_site_type_symbol
 _atom_site_label
 _atom_site_symmetry_multiplicity
 _atom_site_fract_x
 _atom_site_fract_y
 _atom_site_fract_z
 _atom_site_occupancy
  Cs  Cs0  1  0.306599  0.306599  0.306599  1
  Cs  Cs1  1  0.193401  0.193401  0.193401  1
  Cs  Cs2  1  0.693401  0.693401  0.693401  1
  Cs  Cs3  1  0.806599  0.806599  0.806599  1
  Re  Re4  1  0.614093  0.318726  0.473204  1
  Re  Re5  1  0.473204  0.614093  0.318726  1
  Re  Re6  1  0.818726  0.114093  0.973204  1
  Re  Re7  1  0.973204  0.818726  0.114093  1
  Re  Re8  1  0.114093  0.973204  0.818726  1
  Re  Re9  1  0.681274  0.526796  0.385907  1
  Re  Re10  1  0.385907  0.681274  0.526796  1
  Re  Re11  1  0.526796  0.385907  0.681274  1
  Re  Re12  1  0.318726  0.473204  0.614093  1
  Re  Re13  1  0.885907  0.026796  0.181274  1
  Re  Re14  1  0.026796  0.181274  0.885907  1
  Re  Re15  1  0.181274  0.885907  0.026796  1
  Te  Te16  1  0.092871  0.092871  0.092871  1
  Te  Te17  1  0.407129  0.407129  0.407129  1
  Te  Te18  1  0.907129  0.907129  0.907129  1
  Te  Te19  1  0.592871  0.592871  0.592871  1
  Te  Te20  1  0.250000  0.947324  0.552676  1
  Te  Te21  1  0.552676  0.250000  0.947324  1
  Te  Te22  1  0.947324  0.552676  0.250000  1
  Te  Te23  1  0.750000  0.052676  0.447324  1
  Te  Te24  1  0.447324  0.750000  0.052676  1
  Te  Te25  1  0.052676  0.447324  0.750000  1
  Te  Te26  1  0.044264  0.725326  0.321983  1
  Te  Te27  1  0.321983  0.044264  0.725326  1
  Te  Te28  1  0.725326  0.321983  0.044264  1
  Te  Te29  1  0.455736  0.178017  0.774674  1
  Te  Te30  1  0.774674  0.455736  0.178017  1
  Te  Te31  1  0.178017  0.774674  0.455736  1
  Te  Te32  1  0.821983  0.225326  0.544264  1
  Te  Te33  1  0.225326  0.544264  0.821983  1
  Te  Te34  1  0.544264  0.821983  0.225326  1
  Te  Te35  1  0.274674  0.678017  0.955736  1
  Te  Te36  1  0.678017  0.955736  0.274674  1
  Te  Te37  1  0.955736  0.274674  0.678017  1
