# generated using pymatgen
data_PrZr2PdF15
_symmetry_space_group_name_H-M   'P 1'
_cell_length_a   8.37752919
_cell_length_b   8.37752927
_cell_length_c   8.31344207
_cell_angle_alpha   78.08718555
_cell_angle_beta   78.08718780
_cell_angle_gamma   97.54546254
_symmetry_Int_Tables_number   1
_chemical_formula_structural   PrZr2PdF15
_chemical_formula_sum   'Pr2 Zr4 Pd2 F30'
_cell_volume   549.30592280
_cell_formula_units_Z   2
loop_
 _symmetry_equiv_pos_site_id
 _symmetry_equiv_pos_as_xyz
  1  'x, y, z'
loop_
 _atom_site_type_symbol
 _atom_site_label
 _atom_site_symmetry_multiplicity
 _atom_site_fract_x
 _atom_site_fract_y
 _atom_site_fract_z
 _atom_site_occupancy
  Pr  Pr0  1  0.178274  0.821726  0.250000  1
  Pr  Pr1  1  0.821726  0.178274  0.750000  1
  Zr  Zr2  1  0.725573  0.681895  0.661379  1
  Zr  Zr3  1  0.318105  0.274427  0.838621  1
  Zr  Zr4  1  0.274427  0.318105  0.338621  1
  Zr  Zr5  1  0.681895  0.725573  0.161379  1
  Pd  Pd6  1  0.747663  0.252337  0.250000  1
  Pd  Pd7  1  0.252337  0.747663  0.750000  1
  F  F8  1  0.314590  0.350554  0.069072  1
  F  F9  1  0.924784  0.800062  0.158956  1
  F  F10  1  0.826602  0.470737  0.690582  1
  F  F11  1  0.470737  0.826602  0.190582  1
  F  F12  1  0.800062  0.924784  0.658956  1
  F  F13  1  0.350554  0.314590  0.569071  1
  F  F14  1  0.685410  0.649446  0.930928  1
  F  F15  1  0.075216  0.199938  0.841044  1
  F  F16  1  0.173398  0.529263  0.309418  1
  F  F17  1  0.529263  0.173398  0.809418  1
  F  F18  1  0.199938  0.075216  0.341044  1
  F  F19  1  0.649446  0.685410  0.430928  1
  F  F20  1  0.755499  0.272245  0.010621  1
  F  F21  1  0.984174  0.273578  0.201694  1
  F  F22  1  0.787919  0.501143  0.205549  1
  F  F23  1  0.501143  0.787919  0.705549  1
  F  F24  1  0.273578  0.984174  0.701694  1
  F  F25  1  0.272245  0.755499  0.510621  1
  F  F26  1  0.244501  0.727755  0.989379  1
  F  F27  1  0.015826  0.726422  0.798306  1
  F  F28  1  0.212081  0.498857  0.794451  1
  F  F29  1  0.498857  0.212081  0.294451  1
  F  F30  1  0.726422  0.015826  0.298306  1
  F  F31  1  0.727755  0.244501  0.489379  1
  F  F32  1  0.481464  0.518536  0.250000  1
  F  F33  1  0.748517  0.943846  0.979137  1
  F  F34  1  0.056154  0.251483  0.520863  1
  F  F35  1  0.251483  0.056154  0.020863  1
  F  F36  1  0.943846  0.748517  0.479137  1
  F  F37  1  0.518536  0.481464  0.750000  1
