# generated using pymatgen
data_Sr4Tb3Y(BO4)4
_symmetry_space_group_name_H-M   'P 1'
_cell_length_a   3.69408100
_cell_length_b   9.77774296
_cell_length_c   10.99886308
_cell_angle_alpha   89.94918178
_cell_angle_beta   90.00000000
_cell_angle_gamma   90.00000000
_symmetry_Int_Tables_number   1
_chemical_formula_structural   Sr4Tb3Y(BO4)4
_chemical_formula_sum   'Sr4 Tb3 Y1 B4 O16'
_cell_volume   397.27629797
_cell_formula_units_Z   1
loop_
 _symmetry_equiv_pos_site_id
 _symmetry_equiv_pos_as_xyz
  1  'x, y, z'
loop_
 _atom_site_type_symbol
 _atom_site_label
 _atom_site_symmetry_multiplicity
 _atom_site_fract_x
 _atom_site_fract_y
 _atom_site_fract_z
 _atom_site_occupancy
  Sr  Sr0  1  0.250000  0.659592  0.083492  1
  Sr  Sr1  1  0.750000  0.340442  0.916289  1
  Sr  Sr2  1  0.750000  0.159792  0.416838  1
  Sr  Sr3  1  0.250000  0.840447  0.583527  1
  Tb  Tb4  1  0.250000  0.082234  0.110703  1
  Tb  Tb5  1  0.750000  0.917762  0.889322  1
  Tb  Tb6  1  0.750000  0.581948  0.389626  1
  Y  Y7  1  0.250000  0.418472  0.610850  1
  B  B8  1  0.250000  0.363771  0.204233  1
  B  B9  1  0.750000  0.636094  0.795629  1
  B  B10  1  0.750000  0.863735  0.295757  1
  B  B11  1  0.250000  0.136381  0.703865  1
  O  O12  1  0.250000  0.490153  0.261879  1
  O  O13  1  0.750000  0.509674  0.738092  1
  O  O14  1  0.750000  0.990230  0.238143  1
  O  O15  1  0.250000  0.010230  0.762112  1
  O  O16  1  0.250000  0.241942  0.270546  1
  O  O17  1  0.750000  0.757983  0.729389  1
  O  O18  1  0.750000  0.741868  0.229584  1
  O  O19  1  0.250000  0.258803  0.769388  1
  O  O20  1  0.250000  0.356979  0.076860  1
  O  O21  1  0.750000  0.642836  0.922937  1
  O  O22  1  0.750000  0.856668  0.423088  1
  O  O23  1  0.250000  0.142321  0.576587  1
  O  O24  1  0.250000  0.612721  0.500781  1
  O  O25  1  0.750000  0.386865  0.500516  1
  O  O26  1  0.750000  0.113094  0.999458  1
  O  O27  1  0.250000  0.886963  0.000508  1
