# generated using pymatgen
data_Tb2Ga7Ni2Ag
_symmetry_space_group_name_H-M   'P 1'
_cell_length_a   4.15402728
_cell_length_b   6.45943512
_cell_length_c   8.03946066
_cell_angle_alpha   90.82193820
_cell_angle_beta   104.97232646
_cell_angle_gamma   89.99999901
_symmetry_Int_Tables_number   1
_chemical_formula_structural   Tb2Ga7Ni2Ag
_chemical_formula_sum   'Tb2 Ga7 Ni2 Ag1'
_cell_volume   208.37367075
_cell_formula_units_Z   1
loop_
 _symmetry_equiv_pos_site_id
 _symmetry_equiv_pos_as_xyz
  1  'x, y, z'
loop_
 _atom_site_type_symbol
 _atom_site_label
 _atom_site_symmetry_multiplicity
 _atom_site_fract_x
 _atom_site_fract_y
 _atom_site_fract_z
 _atom_site_occupancy
  Tb  Tb0  1  0.877853  0.761347  0.755705  1
  Tb  Tb1  1  0.122147  0.238653  0.244295  1
  Ga  Ga2  1  0.500000  0.000000  0.000000  1
  Ga  Ga3  1  0.069628  0.740981  0.139255  1
  Ga  Ga4  1  0.930372  0.259019  0.860745  1
  Ga  Ga5  1  0.684586  0.543884  0.369171  1
  Ga  Ga6  1  0.315414  0.456116  0.630829  1
  Ga  Ga7  1  0.686754  0.946617  0.373508  1
  Ga  Ga8  1  0.313246  0.053383  0.626492  1
  Ni  Ni9  1  0.220654  0.750501  0.441307  1
  Ni  Ni10  1  0.779346  0.249499  0.558693  1
  Ag  Ag11  1  0.500000  0.500000  0.000000  1
