# generated using pymatgen
data_Gd2YCI3
_symmetry_space_group_name_H-M   'P 1'
_cell_length_a   3.96546500
_cell_length_b   8.85203589
_cell_length_c   12.03365300
_cell_angle_alpha   92.13812758
_cell_angle_beta   90.00000000
_cell_angle_gamma   90.00000000
_symmetry_Int_Tables_number   1
_chemical_formula_structural   Gd2YCI3
_chemical_formula_sum   'Gd4 Y2 C2 I6'
_cell_volume   422.11647724
_cell_formula_units_Z   2
loop_
 _symmetry_equiv_pos_site_id
 _symmetry_equiv_pos_as_xyz
  1  'x, y, z'
loop_
 _atom_site_type_symbol
 _atom_site_label
 _atom_site_symmetry_multiplicity
 _atom_site_fract_x
 _atom_site_fract_y
 _atom_site_fract_z
 _atom_site_occupancy
  Gd  Gd0  1  0.250000  0.918234  0.599869  1
  Gd  Gd1  1  0.750000  0.081766  0.400131  1
  Gd  Gd2  1  0.250000  0.887688  0.185647  1
  Gd  Gd3  1  0.750000  0.112312  0.814353  1
  Y  Y4  1  0.250000  0.290334  0.615102  1
  Y  Y5  1  0.750000  0.709666  0.384898  1
  C  C6  1  0.250000  0.882064  0.385939  1
  C  C7  1  0.750000  0.117936  0.614061  1
  I  I8  1  0.250000  0.856718  0.873254  1
  I  I9  1  0.750000  0.143282  0.126746  1
  I  I10  1  0.250000  0.377676  0.867332  1
  I  I11  1  0.750000  0.622324  0.132668  1
  I  I12  1  0.250000  0.384954  0.370685  1
  I  I13  1  0.750000  0.615046  0.629315  1
