# generated using pymatgen
data_La2Ho3Se7
_symmetry_space_group_name_H-M   'P 1'
_cell_length_a   6.92094020
_cell_length_b   6.92094143
_cell_length_c   12.35286600
_cell_angle_alpha   75.71800604
_cell_angle_beta   75.71801199
_cell_angle_gamma   34.46055963
_symmetry_Int_Tables_number   1
_chemical_formula_structural   La2Ho3Se7
_chemical_formula_sum   'La2 Ho3 Se7'
_cell_volume   323.44368366
_cell_formula_units_Z   1
loop_
 _symmetry_equiv_pos_site_id
 _symmetry_equiv_pos_as_xyz
  1  'x, y, z'
loop_
 _atom_site_type_symbol
 _atom_site_label
 _atom_site_symmetry_multiplicity
 _atom_site_fract_x
 _atom_site_fract_y
 _atom_site_fract_z
 _atom_site_occupancy
  La  La0  1  0.301736  0.301736  0.805362  1
  La  La1  1  0.698264  0.698264  0.194638  1
  Ho  Ho2  1  0.112992  0.112992  0.573449  1
  Ho  Ho3  1  0.887008  0.887008  0.426551  1
  Ho  Ho4  1  0.000000  0.000000  0.000000  1
  Se  Se5  1  0.263963  0.263963  0.358119  1
  Se  Se6  1  0.736037  0.736037  0.641881  1
  Se  Se7  1  0.971593  0.971593  0.783481  1
  Se  Se8  1  0.028407  0.028407  0.216519  1
  Se  Se9  1  0.655360  0.655360  0.950500  1
  Se  Se10  1  0.500000  0.500000  0.500000  1
  Se  Se11  1  0.344640  0.344640  0.049500  1
