# generated using pymatgen
data_Er4ReTc3Os4
_symmetry_space_group_name_H-M   'P 1'
_cell_length_a   5.32775252
_cell_length_b   5.19006269
_cell_length_c   8.94035600
_cell_angle_alpha   90.00000000
_cell_angle_beta   90.00000000
_cell_angle_gamma   118.43192085
_symmetry_Int_Tables_number   1
_chemical_formula_structural   Er4ReTc3Os4
_chemical_formula_sum   'Er4 Re1 Tc3 Os4'
_cell_volume   217.39509952
_cell_formula_units_Z   1
loop_
 _symmetry_equiv_pos_site_id
 _symmetry_equiv_pos_as_xyz
  1  'x, y, z'
loop_
 _atom_site_type_symbol
 _atom_site_label
 _atom_site_symmetry_multiplicity
 _atom_site_fract_x
 _atom_site_fract_y
 _atom_site_fract_z
 _atom_site_occupancy
  Er  Er0  1  0.327418  0.665490  0.436176  1
  Er  Er1  1  0.670640  0.335935  0.563500  1
  Er  Er2  1  0.670640  0.335935  0.936500  1
  Er  Er3  1  0.327418  0.665490  0.063824  1
  Re  Re4  1  0.831538  0.164986  0.250000  1
  Tc  Tc5  1  0.828044  0.653471  0.250000  1
  Tc  Tc6  1  0.174262  0.828765  0.750000  1
  Tc  Tc7  1  0.172671  0.342801  0.750000  1
  Os  Os8  1  0.995788  0.003049  0.500659  1
  Os  Os9  1  0.995788  0.003049  0.999341  1
  Os  Os10  1  0.348719  0.172155  0.250000  1
  Os  Os11  1  0.657074  0.828872  0.750000  1
