# generated using pymatgen
data_Hf4Co6Si5TcGe
_symmetry_space_group_name_H-M   'P 1'
_cell_length_a   6.72691989
_cell_length_b   6.72691825
_cell_length_c   6.72691882
_cell_angle_alpha   109.59950196
_cell_angle_beta   109.59950055
_cell_angle_gamma   109.21495682
_symmetry_Int_Tables_number   1
_chemical_formula_structural   Hf4Co6Si5TcGe
_chemical_formula_sum   'Hf4 Co6 Si5 Tc1 Ge1'
_cell_volume   234.32586118
_cell_formula_units_Z   1
loop_
 _symmetry_equiv_pos_site_id
 _symmetry_equiv_pos_as_xyz
  1  'x, y, z'
loop_
 _atom_site_type_symbol
 _atom_site_label
 _atom_site_symmetry_multiplicity
 _atom_site_fract_x
 _atom_site_fract_y
 _atom_site_fract_z
 _atom_site_occupancy
  Hf  Hf0  1  0.495288  0.495288  0.493367  1
  Hf  Hf1  1  0.001921  0.001921  0.506633  1
  Hf  Hf2  1  0.001921  0.495288  0.000000  1
  Hf  Hf3  1  0.495288  0.001921  0.000000  1
  Co  Co4  1  0.498166  0.750075  0.251909  1
  Co  Co5  1  0.246256  0.498166  0.748091  1
  Co  Co6  1  0.749328  0.249328  0.500000  1
  Co  Co7  1  0.750075  0.498166  0.251909  1
  Co  Co8  1  0.498166  0.246256  0.748091  1
  Co  Co9  1  0.249328  0.749328  0.500000  1
  Si  Si10  1  0.998906  0.327603  0.328696  1
  Si  Si11  1  0.327603  0.998906  0.328696  1
  Si  Si12  1  0.330582  0.330582  0.000000  1
  Si  Si13  1  0.998906  0.670210  0.671304  1
  Si  Si14  1  0.670210  0.998906  0.671304  1
  Tc  Tc15  1  0.008723  0.008723  0.000000  1
  Ge  Ge16  1  0.679334  0.679334  0.000000  1
