# generated using pymatgen
data_Sm2TeP
_symmetry_space_group_name_H-M   'P 1'
_cell_length_a   7.57688934
_cell_length_b   7.57688931
_cell_length_c   7.57688843
_cell_angle_alpha   32.29505939
_cell_angle_beta   32.29505760
_cell_angle_gamma   32.29505925
_symmetry_Int_Tables_number   1
_chemical_formula_structural   Sm2TeP
_chemical_formula_sum   'Sm2 Te1 P1'
_cell_volume   110.37398512
_cell_formula_units_Z   1
loop_
 _symmetry_equiv_pos_site_id
 _symmetry_equiv_pos_as_xyz
  1  'x, y, z'
loop_
 _atom_site_type_symbol
 _atom_site_label
 _atom_site_symmetry_multiplicity
 _atom_site_fract_x
 _atom_site_fract_y
 _atom_site_fract_z
 _atom_site_occupancy
  Sm  Sm0  1  0.262438  0.262438  0.262438  1
  Sm  Sm1  1  0.737562  0.737562  0.737562  1
  Te  Te2  1  0.500000  0.500000  0.500000  1
  P  P3  1  0.000000  0.000000  0.000000  1
