# generated using pymatgen
data_Tm4Mg4Pt3Rh
_symmetry_space_group_name_H-M   'P 1'
_cell_length_a   4.04452800
_cell_length_b   7.11724042
_cell_length_c   8.64764657
_cell_angle_alpha   90.72139939
_cell_angle_beta   90.00000000
_cell_angle_gamma   90.00000000
_symmetry_Int_Tables_number   1
_chemical_formula_structural   Tm4Mg4Pt3Rh
_chemical_formula_sum   'Tm4 Mg4 Pt3 Rh1'
_cell_volume   248.91036969
_cell_formula_units_Z   1
loop_
 _symmetry_equiv_pos_site_id
 _symmetry_equiv_pos_as_xyz
  1  'x, y, z'
loop_
 _atom_site_type_symbol
 _atom_site_label
 _atom_site_symmetry_multiplicity
 _atom_site_fract_x
 _atom_site_fract_y
 _atom_site_fract_z
 _atom_site_occupancy
  Tm  Tm0  1  0.250000  0.540642  0.175377  1
  Tm  Tm1  1  0.750000  0.455636  0.821926  1
  Tm  Tm2  1  0.750000  0.966973  0.671847  1
  Tm  Tm3  1  0.250000  0.042082  0.327299  1
  Mg  Mg4  1  0.250000  0.634653  0.561814  1
  Mg  Mg5  1  0.750000  0.363656  0.440867  1
  Mg  Mg6  1  0.750000  0.864345  0.061680  1
  Mg  Mg7  1  0.250000  0.135044  0.937044  1
  Pt  Pt8  1  0.250000  0.745289  0.873931  1
  Pt  Pt9  1  0.750000  0.254574  0.127810  1
  Pt  Pt10  1  0.750000  0.753458  0.370623  1
  Rh  Rh11  1  0.250000  0.243648  0.629783  1
