# generated using pymatgen
data_HoPa3Co3NiGe4
_symmetry_space_group_name_H-M   'P 1'
_cell_length_a   4.26142000
_cell_length_b   6.98438956
_cell_length_c   7.13832032
_cell_angle_alpha   89.65734420
_cell_angle_beta   90.00000000
_cell_angle_gamma   90.00000000
_symmetry_Int_Tables_number   1
_chemical_formula_structural   HoPa3Co3NiGe4
_chemical_formula_sum   'Ho1 Pa3 Co3 Ni1 Ge4'
_cell_volume   212.45700730
_cell_formula_units_Z   1
loop_
 _symmetry_equiv_pos_site_id
 _symmetry_equiv_pos_as_xyz
  1  'x, y, z'
loop_
 _atom_site_type_symbol
 _atom_site_label
 _atom_site_symmetry_multiplicity
 _atom_site_fract_x
 _atom_site_fract_y
 _atom_site_fract_z
 _atom_site_occupancy
  Ho  Ho0  1  0.750000  0.507539  0.288136  1
  Pa  Pa1  1  0.250000  0.990516  0.797215  1
  Pa  Pa2  1  0.250000  0.476943  0.713884  1
  Pa  Pa3  1  0.750000  0.009875  0.205803  1
  Co  Co4  1  0.250000  0.216591  0.429969  1
  Co  Co5  1  0.250000  0.746547  0.063511  1
  Co  Co6  1  0.750000  0.281251  0.917176  1
  Ni  Ni7  1  0.750000  0.801333  0.581815  1
  Ge  Ge8  1  0.250000  0.794649  0.409919  1
  Ge  Ge9  1  0.250000  0.296508  0.095962  1
  Ge  Ge10  1  0.750000  0.191923  0.584502  1
  Ge  Ge11  1  0.750000  0.686325  0.912108  1
