# generated using pymatgen
data_BaSn2(Sb5Ir2)2
_symmetry_space_group_name_H-M   'P 1'
_cell_length_a   8.14336511
_cell_length_b   8.11940248
_cell_length_c   8.14336500
_cell_angle_alpha   109.34640502
_cell_angle_beta   109.97165586
_cell_angle_gamma   109.21472043
_symmetry_Int_Tables_number   1
_chemical_formula_structural   BaSn2(Sb5Ir2)2
_chemical_formula_sum   'Ba1 Sn2 Sb10 Ir4'
_cell_volume   413.86017906
_cell_formula_units_Z   1
loop_
 _symmetry_equiv_pos_site_id
 _symmetry_equiv_pos_as_xyz
  1  'x, y, z'
loop_
 _atom_site_type_symbol
 _atom_site_label
 _atom_site_symmetry_multiplicity
 _atom_site_fract_x
 _atom_site_fract_y
 _atom_site_fract_z
 _atom_site_occupancy
  Ba  Ba0  1  0.000000  0.000000  0.000000  1
  Sn  Sn1  1  0.346032  0.190345  0.844312  1
  Sn  Sn2  1  0.653968  0.809655  0.155688  1
  Sb  Sb3  1  0.654609  0.500971  0.846364  1
  Sb  Sb4  1  0.345391  0.499029  0.153636  1
  Sb  Sb5  1  0.185070  0.843755  0.343671  1
  Sb  Sb6  1  0.814930  0.156245  0.656329  1
  Sb  Sb7  1  0.500083  0.843755  0.658684  1
  Sb  Sb8  1  0.499917  0.156245  0.341316  1
  Sb  Sb9  1  0.840316  0.341862  0.183628  1
  Sb  Sb10  1  0.159684  0.658138  0.816372  1
  Sb  Sb11  1  0.841767  0.658138  0.498453  1
  Sb  Sb12  1  0.158233  0.341862  0.501547  1
  Ir  Ir13  1  0.000000  0.000000  0.500000  1
  Ir  Ir14  1  0.500000  0.000000  0.000000  1
  Ir  Ir15  1  0.000000  0.500000  0.000000  1
  Ir  Ir16  1  0.500000  0.500000  0.500000  1
