# generated using pymatgen
data_Rb2GdY5F20
_symmetry_space_group_name_H-M   'P 1'
_cell_length_a   8.33821051
_cell_length_b   8.33815625
_cell_length_c   8.31478400
_cell_angle_alpha   60.09310947
_cell_angle_beta   60.09312389
_cell_angle_gamma   59.81441553
_symmetry_Int_Tables_number   1
_chemical_formula_structural   Rb2GdY5F20
_chemical_formula_sum   'Rb2 Gd1 Y5 F20'
_cell_volume   408.76542127
_cell_formula_units_Z   1
loop_
 _symmetry_equiv_pos_site_id
 _symmetry_equiv_pos_as_xyz
  1  'x, y, z'
loop_
 _atom_site_type_symbol
 _atom_site_label
 _atom_site_symmetry_multiplicity
 _atom_site_fract_x
 _atom_site_fract_y
 _atom_site_fract_z
 _atom_site_occupancy
  Rb  Rb0  1  0.249834  0.249831  0.250167  1
  Rb  Rb1  1  0.749833  0.749832  0.750166  1
  Gd  Gd2  1  0.759148  0.759146  0.240852  1
  Y  Y3  1  0.759348  0.239917  0.240652  1
  Y  Y4  1  0.239920  0.759351  0.760080  1
  Y  Y5  1  0.239919  0.759347  0.240654  1
  Y  Y6  1  0.759346  0.239920  0.760081  1
  Y  Y7  1  0.240284  0.240285  0.759716  1
  F  F8  1  0.830585  0.497074  0.502925  1
  F  F9  1  0.170775  0.500050  0.499952  1
  F  F10  1  0.497075  0.830584  0.169415  1
  F  F11  1  0.500048  0.170777  0.829225  1
  F  F12  1  0.497075  0.830587  0.502925  1
  F  F13  1  0.170775  0.500049  0.829225  1
  F  F14  1  0.500048  0.170779  0.499952  1
  F  F15  1  0.830589  0.497070  0.169411  1
  F  F16  1  0.499987  0.499985  0.828856  1
  F  F17  1  0.499984  0.499989  0.171172  1
  F  F18  1  0.171144  0.828827  0.500013  1
  F  F19  1  0.828828  0.171145  0.500016  1
  F  F20  1  0.110436  0.110435  0.110193  1
  F  F21  1  0.890931  0.890925  0.885993  1
  F  F22  1  0.110433  0.110436  0.668937  1
  F  F23  1  0.114007  0.667849  0.109069  1
  F  F24  1  0.890928  0.890931  0.332150  1
  F  F25  1  0.889807  0.331064  0.889564  1
  F  F26  1  0.667850  0.114009  0.109072  1
  F  F27  1  0.331063  0.889806  0.889567  1
