# generated using pymatgen
data_TbTi(NbS2)8
_symmetry_space_group_name_H-M   'P 1'
_cell_length_a   6.71569300
_cell_length_b   6.71569261
_cell_length_c   13.11387300
_cell_angle_alpha   90.00000000
_cell_angle_beta   90.00000000
_cell_angle_gamma   120.00000686
_symmetry_Int_Tables_number   1
_chemical_formula_structural   TbTi(NbS2)8
_chemical_formula_sum   'Tb1 Ti1 Nb8 S16'
_cell_volume   512.20429880
_cell_formula_units_Z   1
loop_
 _symmetry_equiv_pos_site_id
 _symmetry_equiv_pos_as_xyz
  1  'x, y, z'
loop_
 _atom_site_type_symbol
 _atom_site_label
 _atom_site_symmetry_multiplicity
 _atom_site_fract_x
 _atom_site_fract_y
 _atom_site_fract_z
 _atom_site_occupancy
  Tb  Tb0  1  0.000000  0.000000  0.500000  1
  Ti  Ti1  1  0.000000  0.000000  0.000000  1
  Nb  Nb2  1  0.000000  0.000000  0.236143  1
  Nb  Nb3  1  0.000000  0.000000  0.763857  1
  Nb  Nb4  1  0.504864  0.495136  0.234755  1
  Nb  Nb5  1  0.504864  0.009729  0.234755  1
  Nb  Nb6  1  0.990271  0.495136  0.234755  1
  Nb  Nb7  1  0.495136  0.504864  0.765245  1
  Nb  Nb8  1  0.495136  0.990271  0.765245  1
  Nb  Nb9  1  0.009729  0.504864  0.765245  1
  S  S10  1  0.333333  0.666667  0.886340  1
  S  S11  1  0.666667  0.333333  0.113660  1
  S  S12  1  0.666667  0.333333  0.357691  1
  S  S13  1  0.333333  0.666667  0.642309  1
  S  S14  1  0.169231  0.830769  0.355580  1
  S  S15  1  0.169231  0.338461  0.355580  1
  S  S16  1  0.661539  0.830769  0.355580  1
  S  S17  1  0.830769  0.169231  0.644420  1
  S  S18  1  0.830769  0.661539  0.644420  1
  S  S19  1  0.338461  0.169231  0.644420  1
  S  S20  1  0.833526  0.166474  0.885256  1
  S  S21  1  0.833526  0.667054  0.885256  1
  S  S22  1  0.332946  0.166474  0.885256  1
  S  S23  1  0.166474  0.833526  0.114744  1
  S  S24  1  0.166474  0.332946  0.114744  1
  S  S25  1  0.667054  0.833526  0.114744  1
