# generated using pymatgen
data_SmY2B6Ir7Os
_symmetry_space_group_name_H-M   'P 1'
_cell_length_a   10.01167533
_cell_length_b   9.18044799
_cell_length_c   5.60304013
_cell_angle_alpha   81.36773624
_cell_angle_beta   65.03782265
_cell_angle_gamma   33.59445395
_symmetry_Int_Tables_number   1
_chemical_formula_structural   SmY2B6Ir7Os
_chemical_formula_sum   'Sm1 Y2 B6 Ir7 Os1'
_cell_volume   236.58428534
_cell_formula_units_Z   1
loop_
 _symmetry_equiv_pos_site_id
 _symmetry_equiv_pos_as_xyz
  1  'x, y, z'
loop_
 _atom_site_type_symbol
 _atom_site_label
 _atom_site_symmetry_multiplicity
 _atom_site_fract_x
 _atom_site_fract_y
 _atom_site_fract_z
 _atom_site_occupancy
  Sm  Sm0  1  0.000000  0.000000  0.000000  1
  Y  Y1  1  0.180041  0.180041  0.819959  1
  Y  Y2  1  0.819959  0.819959  0.180041  1
  B  B3  1  0.821983  0.528275  0.483892  1
  B  B4  1  0.165849  0.483892  0.528275  1
  B  B5  1  0.483892  0.165849  0.821983  1
  B  B6  1  0.670045  0.329955  0.670045  1
  B  B7  1  0.528275  0.821983  0.165849  1
  B  B8  1  0.329955  0.670045  0.329955  1
  Ir  Ir9  1  0.413330  0.413330  0.586670  1
  Ir  Ir10  1  0.585969  0.585969  0.914031  1
  Ir  Ir11  1  0.086361  0.086361  0.413639  1
  Ir  Ir12  1  0.914031  0.914031  0.585969  1
  Ir  Ir13  1  0.586670  0.586670  0.413330  1
  Ir  Ir14  1  0.250000  0.250000  0.250000  1
  Ir  Ir15  1  0.413639  0.413639  0.086361  1
  Os  Os16  1  0.750000  0.750000  0.750000  1
