# generated using pymatgen
data_Zr24Fe3CoSe8
_symmetry_space_group_name_H-M   'P 1'
_cell_length_a   3.50952800
_cell_length_b   12.97414949
_cell_length_c   16.02622286
_cell_angle_alpha   90.05503920
_cell_angle_beta   90.00000000
_cell_angle_gamma   90.00000000
_symmetry_Int_Tables_number   1
_chemical_formula_structural   Zr24Fe3CoSe8
_chemical_formula_sum   'Zr24 Fe3 Co1 Se8'
_cell_volume   729.72392692
_cell_formula_units_Z   1
loop_
 _symmetry_equiv_pos_site_id
 _symmetry_equiv_pos_as_xyz
  1  'x, y, z'
loop_
 _atom_site_type_symbol
 _atom_site_label
 _atom_site_symmetry_multiplicity
 _atom_site_fract_x
 _atom_site_fract_y
 _atom_site_fract_z
 _atom_site_occupancy
  Zr  Zr0  1  0.000000  0.331763  0.488832  1
  Zr  Zr1  1  0.000000  0.668848  0.511258  1
  Zr  Zr2  1  0.500000  0.168097  0.989282  1
  Zr  Zr3  1  0.500000  0.831696  0.010782  1
  Zr  Zr4  1  0.000000  0.089625  0.579245  1
  Zr  Zr5  1  0.000000  0.910380  0.420949  1
  Zr  Zr6  1  0.500000  0.409498  0.078849  1
  Zr  Zr7  1  0.500000  0.589752  0.920741  1
  Zr  Zr8  1  0.000000  0.699930  0.301705  1
  Zr  Zr9  1  0.000000  0.300119  0.698245  1
  Zr  Zr10  1  0.500000  0.800664  0.801626  1
  Zr  Zr11  1  0.500000  0.199353  0.197969  1
  Zr  Zr12  1  0.000000  0.025499  0.104423  1
  Zr  Zr13  1  0.000000  0.974150  0.895894  1
  Zr  Zr14  1  0.500000  0.473743  0.604990  1
  Zr  Zr15  1  0.500000  0.526401  0.395841  1
  Zr  Zr16  1  0.000000  0.618604  0.078607  1
  Zr  Zr17  1  0.000000  0.381835  0.920189  1
  Zr  Zr18  1  0.500000  0.881247  0.578848  1
  Zr  Zr19  1  0.500000  0.118548  0.421033  1
  Zr  Zr20  1  0.000000  0.414481  0.246269  1
  Zr  Zr21  1  0.000000  0.586328  0.754205  1
  Zr  Zr22  1  0.500000  0.086241  0.745645  1
  Zr  Zr23  1  0.500000  0.913690  0.254563  1
  Fe  Fe24  1  0.000000  0.740056  0.911979  1
  Fe  Fe25  1  0.500000  0.239296  0.587771  1
  Fe  Fe26  1  0.500000  0.760115  0.412616  1
  Co  Co27  1  0.000000  0.259884  0.088162  1
  Se  Se28  1  0.000000  0.812344  0.151406  1
  Se  Se29  1  0.000000  0.187704  0.848972  1
  Se  Se30  1  0.500000  0.687708  0.651404  1
  Se  Se31  1  0.500000  0.311868  0.348514  1
  Se  Se32  1  0.000000  0.070582  0.289731  1
  Se  Se33  1  0.000000  0.929589  0.710052  1
  Se  Se34  1  0.500000  0.429492  0.789621  1
  Se  Se35  1  0.500000  0.570869  0.209781  1
