# generated using pymatgen
data_Yb3DyIr3Ru5
_symmetry_space_group_name_H-M   'P 1'
_cell_length_a   5.18229800
_cell_length_b   5.25777818
_cell_length_c   8.93218701
_cell_angle_alpha   89.99926318
_cell_angle_beta   89.99978803
_cell_angle_gamma   119.52495710
_symmetry_Int_Tables_number   1
_chemical_formula_structural   Yb3DyIr3Ru5
_chemical_formula_sum   'Yb3 Dy1 Ir3 Ru5'
_cell_volume   211.77375795
_cell_formula_units_Z   1
loop_
 _symmetry_equiv_pos_site_id
 _symmetry_equiv_pos_as_xyz
  1  'x, y, z'
loop_
 _atom_site_type_symbol
 _atom_site_label
 _atom_site_symmetry_multiplicity
 _atom_site_fract_x
 _atom_site_fract_y
 _atom_site_fract_z
 _atom_site_occupancy
  Yb  Yb0  1  0.333568  0.667065  0.429378  1
  Yb  Yb1  1  0.333341  0.666576  0.065300  1
  Yb  Yb2  1  0.666665  0.333315  0.937930  1
  Dy  Dy3  1  0.666569  0.333148  0.569482  1
  Ir  Ir4  1  0.998283  0.996482  0.499190  1
  Ir  Ir5  1  0.998568  0.997021  0.998806  1
  Ir  Ir6  1  0.170220  0.340512  0.749165  1
  Ru  Ru7  1  0.172907  0.831241  0.749834  1
  Ru  Ru8  1  0.658278  0.831247  0.749829  1
  Ru  Ru9  1  0.830231  0.660396  0.250115  1
  Ru  Ru10  1  0.828916  0.171549  0.250490  1
  Ru  Ru11  1  0.342453  0.171449  0.250480  1
