# generated using pymatgen
data_Tb(BePt)2
_symmetry_space_group_name_H-M   'P 1'
_cell_length_a   3.98096000
_cell_length_b   3.98189000
_cell_length_c   9.71422900
_cell_angle_alpha   90.00000000
_cell_angle_beta   90.00000000
_cell_angle_gamma   90.00000000
_symmetry_Int_Tables_number   1
_chemical_formula_structural   Tb(BePt)2
_chemical_formula_sum   'Tb2 Be4 Pt4'
_cell_volume   153.98747918
_cell_formula_units_Z   2
loop_
 _symmetry_equiv_pos_site_id
 _symmetry_equiv_pos_as_xyz
  1  'x, y, z'
loop_
 _atom_site_type_symbol
 _atom_site_label
 _atom_site_symmetry_multiplicity
 _atom_site_fract_x
 _atom_site_fract_y
 _atom_site_fract_z
 _atom_site_occupancy
  Tb  Tb0  1  0.248852  0.000000  0.747476  1
  Tb  Tb1  1  0.748852  0.500000  0.252524  1
  Be  Be2  1  0.244093  0.000000  0.126518  1
  Be  Be3  1  0.744093  0.500000  0.873482  1
  Be  Be4  1  0.254628  0.500000  0.500006  1
  Be  Be5  1  0.754628  0.000000  0.499994  1
  Pt  Pt6  1  0.253949  0.000000  0.372777  1
  Pt  Pt7  1  0.753949  0.500000  0.627223  1
  Pt  Pt8  1  0.242477  0.500000  0.999994  1
  Pt  Pt9  1  0.742477  0.000000  0.000006  1
