# generated using pymatgen
data_Pr2GdSi3(BO5)3
_symmetry_space_group_name_H-M   'P 1'
_cell_length_a   6.91085904
_cell_length_b   6.85815368
_cell_length_c   6.67398939
_cell_angle_alpha   89.77471787
_cell_angle_beta   90.04204397
_cell_angle_gamma   120.20900117
_symmetry_Int_Tables_number   1
_chemical_formula_structural   Pr2GdSi3(BO5)3
_chemical_formula_sum   'Pr2 Gd1 Si3 B3 O15'
_cell_volume   273.35881696
_cell_formula_units_Z   1
loop_
 _symmetry_equiv_pos_site_id
 _symmetry_equiv_pos_as_xyz
  1  'x, y, z'
loop_
 _atom_site_type_symbol
 _atom_site_label
 _atom_site_symmetry_multiplicity
 _atom_site_fract_x
 _atom_site_fract_y
 _atom_site_fract_z
 _atom_site_occupancy
  Pr  Pr0  1  0.334819  0.252121  0.332961  1
  Pr  Pr1  1  0.749535  0.082610  0.667176  1
  Gd  Gd2  1  0.915969  0.666328  0.001694  1
  Si  Si3  1  0.750839  0.087270  0.168763  1
  Si  Si4  1  0.916667  0.665520  0.503548  1
  Si  Si5  1  0.333315  0.247035  0.835797  1
  B  B6  1  0.316369  0.766998  0.303452  1
  B  B7  1  0.233636  0.550676  0.638282  1
  B  B8  1  0.448223  0.682114  0.971442  1
  O  O9  1  0.191472  0.048854  0.996624  1
  O  O10  1  0.684651  0.862612  0.024443  1
  O  O11  1  0.277117  0.679726  0.100384  1
  O  O12  1  0.525650  0.999110  0.316694  1
  O  O13  1  0.733653  0.523486  0.332008  1
  O  O14  1  0.942701  0.141198  0.332416  1
  O  O15  1  0.139652  0.824369  0.358648  1
  O  O16  1  0.319842  0.599945  0.434963  1
  O  O17  1  0.004316  0.528304  0.653586  1
  O  O18  1  0.481165  0.210085  0.668990  1
  O  O19  1  0.858075  0.797137  0.670965  1
  O  O20  1  0.177175  0.313926  0.691702  1
  O  O21  1  0.402082  0.720107  0.768130  1
  O  O22  1  0.470949  0.472062  0.986770  1
  O  O23  1  0.792128  0.278399  0.003555  1
