# generated using pymatgen
data_Lu2Co9Tc3As7
_symmetry_space_group_name_H-M   'P 1'
_cell_length_a   3.80867800
_cell_length_b   9.35062047
_cell_length_c   9.35062200
_cell_angle_alpha   119.99999835
_cell_angle_beta   90.00000000
_cell_angle_gamma   90.00000000
_symmetry_Int_Tables_number   1
_chemical_formula_structural   Lu2Co9Tc3As7
_chemical_formula_sum   'Lu2 Co9 Tc3 As7'
_cell_volume   288.39373851
_cell_formula_units_Z   1
loop_
 _symmetry_equiv_pos_site_id
 _symmetry_equiv_pos_as_xyz
  1  'x, y, z'
loop_
 _atom_site_type_symbol
 _atom_site_label
 _atom_site_symmetry_multiplicity
 _atom_site_fract_x
 _atom_site_fract_y
 _atom_site_fract_z
 _atom_site_occupancy
  Lu  Lu0  1  0.000000  0.666667  0.333333  1
  Lu  Lu1  1  0.500000  0.333333  0.666667  1
  Co  Co2  1  0.000000  0.567513  0.939508  1
  Co  Co3  1  0.000000  0.371996  0.432487  1
  Co  Co4  1  0.000000  0.060492  0.628004  1
  Co  Co5  1  0.000000  0.875131  0.158436  1
  Co  Co6  1  0.000000  0.283304  0.124869  1
  Co  Co7  1  0.000000  0.841564  0.716696  1
  Co  Co8  1  0.500000  0.945745  0.381145  1
  Co  Co9  1  0.500000  0.435399  0.054255  1
  Co  Co10  1  0.500000  0.618855  0.564601  1
  Tc  Tc11  1  0.500000  0.782080  0.900594  1
  Tc  Tc12  1  0.500000  0.118513  0.217920  1
  Tc  Tc13  1  0.500000  0.099406  0.881487  1
  As  As14  1  0.000000  0.000000  0.000000  1
  As  As15  1  0.500000  0.706721  0.118450  1
  As  As16  1  0.500000  0.411730  0.293279  1
  As  As17  1  0.500000  0.881550  0.588270  1
  As  As18  1  0.000000  0.586097  0.701795  1
  As  As19  1  0.000000  0.115698  0.413903  1
  As  As20  1  0.000000  0.298205  0.884302  1
