# generated using pymatgen
data_Eu6UO11F
_symmetry_space_group_name_H-M   'P 1'
_cell_length_a   6.88616347
_cell_length_b   6.85644187
_cell_length_c   6.90343600
_cell_angle_alpha   99.11065005
_cell_angle_beta   99.10509549
_cell_angle_gamma   98.88805042
_symmetry_Int_Tables_number   1
_chemical_formula_structural   Eu6UO11F
_chemical_formula_sum   'Eu6 U1 O11 F1'
_cell_volume   312.33960033
_cell_formula_units_Z   1
loop_
 _symmetry_equiv_pos_site_id
 _symmetry_equiv_pos_as_xyz
  1  'x, y, z'
loop_
 _atom_site_type_symbol
 _atom_site_label
 _atom_site_symmetry_multiplicity
 _atom_site_fract_x
 _atom_site_fract_y
 _atom_site_fract_z
 _atom_site_occupancy
  Eu  Eu0  1  0.311429  0.605451  0.144565  1
  Eu  Eu1  1  0.614985  0.137089  0.292202  1
  Eu  Eu2  1  0.392088  0.843004  0.692287  1
  Eu  Eu3  1  0.699022  0.403629  0.867755  1
  Eu  Eu4  1  0.857382  0.690953  0.398062  1
  Eu  Eu5  1  0.127101  0.315641  0.609583  1
  U  U6  1  0.002111  0.001303  0.999337  1
  O  O7  1  0.928478  0.703846  0.043747  1
  O  O8  1  0.174262  0.592287  0.435131  1
  O  O9  1  0.814762  0.404990  0.569786  1
  O  O10  1  0.569362  0.826219  0.407482  1
  O  O11  1  0.598777  0.432533  0.176176  1
  O  O12  1  0.405726  0.559730  0.824584  1
  O  O13  1  0.959392  0.076884  0.296438  1
  O  O14  1  0.048207  0.930309  0.702359  1
  O  O15  1  0.700572  0.046329  0.928208  1
  O  O16  1  0.069909  0.301045  0.956572  1
  O  O17  1  0.300354  0.954842  0.071933  1
  F  F18  1  0.426080  0.173918  0.583795  1
