# generated using pymatgen
data_Tb8Tm12SnPb15
_symmetry_space_group_name_H-M   'P 1'
_cell_length_a   8.19965900
_cell_length_b   8.27583266
_cell_length_c   15.62304900
_cell_angle_alpha   90.00000000
_cell_angle_beta   90.00000000
_cell_angle_gamma   89.82946589
_symmetry_Int_Tables_number   1
_chemical_formula_structural   Tb8Tm12SnPb15
_chemical_formula_sum   'Tb8 Tm12 Sn1 Pb15'
_cell_volume   1060.15987569
_cell_formula_units_Z   1
loop_
 _symmetry_equiv_pos_site_id
 _symmetry_equiv_pos_as_xyz
  1  'x, y, z'
loop_
 _atom_site_type_symbol
 _atom_site_label
 _atom_site_symmetry_multiplicity
 _atom_site_fract_x
 _atom_site_fract_y
 _atom_site_fract_z
 _atom_site_occupancy
  Tb  Tb0  1  0.534745  0.326314  0.899314  1
  Tb  Tb1  1  0.034576  0.176926  0.599996  1
  Tb  Tb2  1  0.465229  0.676843  0.400715  1
  Tb  Tb3  1  0.965635  0.823344  0.099247  1
  Tb  Tb4  1  0.465229  0.676843  0.099285  1
  Tb  Tb5  1  0.965635  0.823344  0.400753  1
  Tb  Tb6  1  0.534745  0.326314  0.600686  1
  Tb  Tb7  1  0.034576  0.176926  0.900004  1
  Tm  Tm8  1  0.378315  0.838888  0.876970  1
  Tm  Tm9  1  0.873663  0.658310  0.622172  1
  Tm  Tm10  1  0.623766  0.158594  0.378816  1
  Tm  Tm11  1  0.124275  0.341150  0.121245  1
  Tm  Tm12  1  0.623766  0.158594  0.121184  1
  Tm  Tm13  1  0.124275  0.341150  0.378755  1
  Tm  Tm14  1  0.378315  0.838888  0.623030  1
  Tm  Tm15  1  0.873663  0.658310  0.877828  1
  Tm  Tm16  1  0.210215  0.505864  0.750000  1
  Tm  Tm17  1  0.706822  0.992414  0.750000  1
  Tm  Tm18  1  0.792478  0.494797  0.250000  1
  Tm  Tm19  1  0.292314  0.005141  0.250000  1
  Sn  Sn20  1  0.571832  0.626345  0.750000  1
  Pb  Pb21  1  0.283718  0.034231  0.042214  1
  Pb  Pb22  1  0.783892  0.464858  0.457280  1
  Pb  Pb23  1  0.716120  0.965566  0.543030  1
  Pb  Pb24  1  0.215576  0.535416  0.957235  1
  Pb  Pb25  1  0.716120  0.965566  0.956970  1
  Pb  Pb26  1  0.215576  0.535416  0.542765  1
  Pb  Pb27  1  0.283718  0.034231  0.457786  1
  Pb  Pb28  1  0.783892  0.464858  0.042720  1
  Pb  Pb29  1  0.070684  0.873212  0.750000  1
  Pb  Pb30  1  0.429275  0.373636  0.250000  1
  Pb  Pb31  1  0.929518  0.126635  0.250000  1
  Pb  Pb32  1  0.345721  0.153169  0.750000  1
  Pb  Pb33  1  0.844493  0.347969  0.750000  1
  Pb  Pb34  1  0.653495  0.846724  0.250000  1
  Pb  Pb35  1  0.154130  0.653212  0.250000  1
