# generated using pymatgen
data_Dy20Ir5Ru5Au2
_symmetry_space_group_name_H-M   'P 1'
_cell_length_a   10.87859886
_cell_length_b   10.87859974
_cell_length_c   6.45604700
_cell_angle_alpha   89.97330763
_cell_angle_beta   89.97330761
_cell_angle_gamma   89.30932222
_symmetry_Int_Tables_number   1
_chemical_formula_structural   Dy20Ir5Ru5Au2
_chemical_formula_sum   'Dy20 Ir5 Ru5 Au2'
_cell_volume   763.97825235
_cell_formula_units_Z   1
loop_
 _symmetry_equiv_pos_site_id
 _symmetry_equiv_pos_as_xyz
  1  'x, y, z'
loop_
 _atom_site_type_symbol
 _atom_site_label
 _atom_site_symmetry_multiplicity
 _atom_site_fract_x
 _atom_site_fract_y
 _atom_site_fract_z
 _atom_site_occupancy
  Dy  Dy0  1  0.296238  0.093671  0.382961  1
  Dy  Dy1  1  0.297413  0.915649  0.866046  1
  Dy  Dy2  1  0.706165  0.079026  0.878723  1
  Dy  Dy3  1  0.708547  0.913007  0.379069  1
  Dy  Dy4  1  0.587119  0.792089  0.880015  1
  Dy  Dy5  1  0.585925  0.202713  0.365740  1
  Dy  Dy6  1  0.421652  0.794819  0.378908  1
  Dy  Dy7  1  0.406447  0.204247  0.882745  1
  Dy  Dy8  1  0.207911  0.412881  0.619985  1
  Dy  Dy9  1  0.205181  0.578348  0.121092  1
  Dy  Dy10  1  0.797287  0.414075  0.134260  1
  Dy  Dy11  1  0.795753  0.593553  0.617255  1
  Dy  Dy12  1  0.906329  0.703762  0.117039  1
  Dy  Dy13  1  0.920974  0.293835  0.621277  1
  Dy  Dy14  1  0.084351  0.702587  0.633954  1
  Dy  Dy15  1  0.086993  0.291453  0.120931  1
  Dy  Dy16  1  0.996119  0.004214  0.501292  1
  Dy  Dy17  1  0.995786  0.003881  0.998708  1
  Dy  Dy18  1  0.496525  0.503346  0.002040  1
  Dy  Dy19  1  0.496654  0.503475  0.497960  1
  Ir  Ir20  1  0.848553  0.848146  0.750209  1
  Ir  Ir21  1  0.151854  0.151447  0.749791  1
  Ir  Ir22  1  0.651048  0.650765  0.249991  1
  Ir  Ir23  1  0.349235  0.348952  0.250009  1
  Ir  Ir24  1  0.345536  0.654464  0.750000  1
  Ru  Ru25  1  0.845829  0.154171  0.250000  1
  Ru  Ru26  1  0.499501  0.000395  0.124548  1
  Ru  Ru27  1  0.499760  0.000824  0.624889  1
  Ru  Ru28  1  0.999176  0.500240  0.875111  1
  Ru  Ru29  1  0.999605  0.500499  0.375452  1
  Au  Au30  1  0.155542  0.844458  0.250000  1
  Au  Au31  1  0.654991  0.345009  0.750000  1
