# generated using pymatgen
data_Tb2Y6Hf12Si15Au
_symmetry_space_group_name_H-M   'P 1'
_cell_length_a   7.29220532
_cell_length_b   7.33125038
_cell_length_c   13.42924600
_cell_angle_alpha   89.93747210
_cell_angle_beta   89.96560489
_cell_angle_gamma   89.99316782
_symmetry_Int_Tables_number   1
_chemical_formula_structural   Tb2Y6Hf12Si15Au
_chemical_formula_sum   'Tb2 Y6 Hf12 Si15 Au1'
_cell_volume   717.94013092
_cell_formula_units_Z   1
loop_
 _symmetry_equiv_pos_site_id
 _symmetry_equiv_pos_as_xyz
  1  'x, y, z'
loop_
 _atom_site_type_symbol
 _atom_site_label
 _atom_site_symmetry_multiplicity
 _atom_site_fract_x
 _atom_site_fract_y
 _atom_site_fract_z
 _atom_site_occupancy
  Tb  Tb0  1  0.342999  0.997618  0.784898  1
  Tb  Tb1  1  0.662172  0.997243  0.283645  1
  Y  Y2  1  0.991676  0.346635  0.214052  1
  Y  Y3  1  0.004196  0.655462  0.715297  1
  Y  Y4  1  0.154717  0.498908  0.466973  1
  Y  Y5  1  0.504315  0.842796  0.033509  1
  Y  Y6  1  0.843894  0.502615  0.964889  1
  Y  Y7  1  0.497327  0.154289  0.537525  1
  Hf  Hf8  1  0.174967  0.176363  0.998894  1
  Hf  Hf9  1  0.826201  0.825155  0.500520  1
  Hf  Hf10  1  0.325395  0.680350  0.249216  1
  Hf  Hf11  1  0.675397  0.324598  0.750204  1
  Hf  Hf12  1  0.146876  0.996502  0.374769  1
  Hf  Hf13  1  0.850880  0.003945  0.874481  1
  Hf  Hf14  1  0.504841  0.650238  0.624895  1
  Hf  Hf15  1  0.350988  0.495197  0.874955  1
  Hf  Hf16  1  0.495053  0.350395  0.121849  1
  Hf  Hf17  1  0.652229  0.509901  0.379930  1
  Hf  Hf18  1  0.995724  0.148757  0.626476  1
  Hf  Hf19  1  0.001793  0.849364  0.123760  1
  Si  Si20  1  0.637254  0.705779  0.817944  1
  Si  Si21  1  0.204811  0.863349  0.567888  1
  Si  Si22  1  0.137363  0.795627  0.932292  1
  Si  Si23  1  0.795282  0.137094  0.066369  1
  Si  Si24  1  0.860882  0.201124  0.434961  1
  Si  Si25  1  0.295644  0.363273  0.682947  1
  Si  Si26  1  0.704527  0.638043  0.181842  1
  Si  Si27  1  0.292332  0.045139  0.181955  1
  Si  Si28  1  0.705456  0.950913  0.685754  1
  Si  Si29  1  0.448984  0.794666  0.435681  1
  Si  Si30  1  0.204919  0.549647  0.063830  1
  Si  Si31  1  0.548612  0.204857  0.934635  1
  Si  Si32  1  0.794558  0.450086  0.566541  1
  Si  Si33  1  0.047983  0.295404  0.814954  1
  Si  Si34  1  0.951681  0.704598  0.313559  1
  Au  Au35  1  0.368072  0.294072  0.318113  1
