# generated using pymatgen
data_La6Ho2Sc12Si15Hg
_symmetry_space_group_name_H-M   'P 1'
_cell_length_a   7.29086344
_cell_length_b   7.54597945
_cell_length_c   14.34098333
_cell_angle_alpha   89.74437405
_cell_angle_beta   89.72481214
_cell_angle_gamma   90.49042711
_symmetry_Int_Tables_number   1
_chemical_formula_structural   La6Ho2Sc12Si15Hg
_chemical_formula_sum   'La6 Ho2 Sc12 Si15 Hg1'
_cell_volume   788.94765724
_cell_formula_units_Z   1
loop_
 _symmetry_equiv_pos_site_id
 _symmetry_equiv_pos_as_xyz
  1  'x, y, z'
loop_
 _atom_site_type_symbol
 _atom_site_label
 _atom_site_symmetry_multiplicity
 _atom_site_fract_x
 _atom_site_fract_y
 _atom_site_fract_z
 _atom_site_occupancy
  La  La0  1  0.011199  0.171421  0.099359  1
  La  La1  1  0.988607  0.829674  0.901603  1
  La  La2  1  0.490202  0.671217  0.904078  1
  La  La3  1  0.988585  0.832564  0.596613  1
  La  La4  1  0.509851  0.328834  0.096240  1
  La  La5  1  0.007348  0.168558  0.400825  1
  Ho  Ho6  1  0.509777  0.322274  0.398568  1
  Ho  Ho7  1  0.499578  0.683012  0.600841  1
  Sc  Sc8  1  0.162728  0.501261  0.752744  1
  Sc  Sc9  1  0.837031  0.500313  0.252439  1
  Sc  Sc10  1  0.338598  0.995459  0.251258  1
  Sc  Sc11  1  0.664922  0.002848  0.749762  1
  Sc  Sc12  1  0.342977  0.169210  0.628470  1
  Sc  Sc13  1  0.662933  0.821499  0.373584  1
  Sc  Sc14  1  0.171215  0.673894  0.372689  1
  Sc  Sc15  1  0.668265  0.826169  0.127458  1
  Sc  Sc16  1  0.821030  0.329154  0.623342  1
  Sc  Sc17  1  0.330160  0.172322  0.872773  1
  Sc  Sc18  1  0.828188  0.326061  0.874366  1
  Sc  Sc19  1  0.170196  0.673919  0.127074  1
  Si  Si20  1  0.033252  0.134637  0.748877  1
  Si  Si21  1  0.964864  0.869885  0.250750  1
  Si  Si22  1  0.465706  0.620965  0.250740  1
  Si  Si23  1  0.533673  0.381107  0.749171  1
  Si  Si24  1  0.292708  0.877551  0.748250  1
  Si  Si25  1  0.704869  0.120754  0.251148  1
  Si  Si26  1  0.212759  0.379643  0.252126  1
  Si  Si27  1  0.788643  0.620500  0.748082  1
  Si  Si28  1  0.828763  0.537073  0.457921  1
  Si  Si29  1  0.349637  0.961810  0.460401  1
  Si  Si30  1  0.851532  0.538207  0.039819  1
  Si  Si31  1  0.648526  0.037903  0.536563  1
  Si  Si32  1  0.148056  0.461525  0.961305  1
  Si  Si33  1  0.649331  0.037865  0.960540  1
  Si  Si34  1  0.349195  0.961820  0.039750  1
  Hg  Hg35  1  0.175098  0.459088  0.540473  1
