# generated using pymatgen
data_MgSe23
_symmetry_space_group_name_H-M   'P 1'
_cell_length_a   5.25972534
_cell_length_b   10.23256028
_cell_length_c   16.54917797
_cell_angle_alpha   88.40510364
_cell_angle_beta   86.73611140
_cell_angle_gamma   91.73423725
_symmetry_Int_Tables_number   1
_chemical_formula_structural   MgSe23
_chemical_formula_sum   'Mg1 Se23'
_cell_volume   888.44230447
_cell_formula_units_Z   1
loop_
 _symmetry_equiv_pos_site_id
 _symmetry_equiv_pos_as_xyz
  1  'x, y, z'
loop_
 _atom_site_type_symbol
 _atom_site_label
 _atom_site_symmetry_multiplicity
 _atom_site_fract_x
 _atom_site_fract_y
 _atom_site_fract_z
 _atom_site_occupancy
  Mg  Mg0  1  0.498970  0.380921  0.455273  1
  Se  Se1  1  0.537502  0.795280  0.385292  1
  Se  Se2  1  0.007309  0.318306  0.118120  1
  Se  Se3  1  0.840289  0.222642  0.497878  1
  Se  Se4  1  0.257415  0.769910  0.499828  1
  Se  Se5  1  0.240245  0.274402  0.995974  1
  Se  Se6  1  0.746907  0.717693  0.007390  1
  Se  Se7  1  0.160710  0.359944  0.349960  1
  Se  Se8  1  0.738670  0.583192  0.361841  1
  Se  Se9  1  0.763272  0.127492  0.160927  1
  Se  Se10  1  0.246106  0.863151  0.136592  1
  Se  Se11  1  0.737861  0.632527  0.635511  1
  Se  Se12  1  0.253408  0.347084  0.608458  1
  Se  Se13  1  0.240895  0.871449  0.853975  1
  Se  Se14  1  0.753961  0.134698  0.858177  1
  Se  Se15  1  0.000417  0.670199  0.117251  1
  Se  Se16  1  0.497047  0.821201  0.612411  1
  Se  Se17  1  0.503077  0.155996  0.593589  1
  Se  Se18  1  0.992373  0.678871  0.886913  1
  Se  Se19  1  0.993797  0.326072  0.885066  1
  Se  Se20  1  0.490761  0.471130  0.267367  1
  Se  Se21  1  0.028493  0.990412  0.233621  1
  Se  Se22  1  0.466714  0.481111  0.708823  1
  Se  Se23  1  0.003799  0.006316  0.769765  1
