# generated using pymatgen
data_La3Nd(Al3Rh)6
_symmetry_space_group_name_H-M   'P 1'
_cell_length_a   7.66156916
_cell_length_b   7.65523108
_cell_length_c   9.68097300
_cell_angle_alpha   90.00000000
_cell_angle_beta   90.00000000
_cell_angle_gamma   119.16126301
_symmetry_Int_Tables_number   1
_chemical_formula_structural   La3Nd(Al3Rh)6
_chemical_formula_sum   'La3 Nd1 Al18 Rh6'
_cell_volume   495.83192580
_cell_formula_units_Z   1
loop_
 _symmetry_equiv_pos_site_id
 _symmetry_equiv_pos_as_xyz
  1  'x, y, z'
loop_
 _atom_site_type_symbol
 _atom_site_label
 _atom_site_symmetry_multiplicity
 _atom_site_fract_x
 _atom_site_fract_y
 _atom_site_fract_z
 _atom_site_occupancy
  La  La0  1  0.004632  0.327597  0.750000  1
  La  La1  1  0.671421  0.995423  0.250000  1
  La  La2  1  0.329051  0.005226  0.750000  1
  Nd  Nd3  1  0.995685  0.672280  0.250000  1
  Al  Al4  1  0.132742  0.131618  0.250000  1
  Al  Al5  1  0.866233  0.865390  0.750000  1
  Al  Al6  1  0.004029  0.337389  0.073657  1
  Al  Al7  1  0.996108  0.664284  0.929284  1
  Al  Al8  1  0.996108  0.664284  0.570716  1
  Al  Al9  1  0.334650  0.002972  0.426224  1
  Al  Al10  1  0.004029  0.337389  0.426343  1
  Al  Al11  1  0.664037  0.995057  0.572553  1
  Al  Al12  1  0.664037  0.995057  0.927447  1
  Al  Al13  1  0.334650  0.002972  0.073776  1
  Al  Al14  1  0.334976  0.334982  0.540592  1
  Al  Al15  1  0.666149  0.665092  0.455593  1
  Al  Al16  1  0.666149  0.665092  0.044407  1
  Al  Al17  1  0.334976  0.334982  0.959408  1
  Al  Al18  1  0.337691  0.546153  0.250000  1
  Al  Al19  1  0.660411  0.454948  0.750000  1
  Al  Al20  1  0.548284  0.342678  0.250000  1
  Al  Al21  1  0.454249  0.659393  0.750000  1
  Rh  Rh22  1  0.671235  0.329218  0.000117  1
  Rh  Rh23  1  0.329163  0.670901  0.000169  1
  Rh  Rh24  1  0.329163  0.670901  0.499831  1
  Rh  Rh25  1  0.671235  0.329218  0.499883  1
  Rh  Rh26  1  0.999455  0.999751  0.000281  1
  Rh  Rh27  1  0.999455  0.999751  0.499719  1
