# generated using pymatgen
data_Eu10InGeRh4
_symmetry_space_group_name_H-M   'P 1'
_cell_length_a   9.05331014
_cell_length_b   9.05330901
_cell_length_c   9.05330934
_cell_angle_alpha   127.96023560
_cell_angle_beta   127.96023713
_cell_angle_gamma   76.68945491
_symmetry_Int_Tables_number   1
_chemical_formula_structural   Eu10InGeRh4
_chemical_formula_sum   'Eu10 In1 Ge1 Rh4'
_cell_volume   447.98313807
_cell_formula_units_Z   1
loop_
 _symmetry_equiv_pos_site_id
 _symmetry_equiv_pos_as_xyz
  1  'x, y, z'
loop_
 _atom_site_type_symbol
 _atom_site_label
 _atom_site_symmetry_multiplicity
 _atom_site_fract_x
 _atom_site_fract_y
 _atom_site_fract_z
 _atom_site_occupancy
  Eu  Eu0  1  0.538494  0.026133  0.837279  1
  Eu  Eu1  1  0.188853  0.701214  0.162721  1
  Eu  Eu2  1  0.026133  0.188853  0.487639  1
  Eu  Eu3  1  0.701214  0.538494  0.512361  1
  Eu  Eu4  1  0.473867  0.961506  0.162721  1
  Eu  Eu5  1  0.798786  0.311147  0.837279  1
  Eu  Eu6  1  0.961506  0.798786  0.487639  1
  Eu  Eu7  1  0.311147  0.473867  0.512361  1
  Eu  Eu8  1  0.498684  0.498684  0.000000  1
  Eu  Eu9  1  0.001316  0.001316  0.000000  1
  In  In10  1  0.250000  0.250000  0.000000  1
  Ge  Ge11  1  0.750000  0.750000  0.000000  1
  Rh  Rh12  1  0.871545  0.371545  0.243090  1
  Rh  Rh13  1  0.128455  0.628455  0.756910  1
  Rh  Rh14  1  0.371545  0.128455  0.500000  1
  Rh  Rh15  1  0.628455  0.871545  0.500000  1
