# generated using pymatgen
data_Yb2Nb(AsPd)3
_symmetry_space_group_name_H-M   'P 1'
_cell_length_a   6.96598358
_cell_length_b   7.04925706
_cell_length_c   3.87616800
_cell_angle_alpha   90.00000000
_cell_angle_beta   90.00000000
_cell_angle_gamma   120.39623323
_symmetry_Int_Tables_number   1
_chemical_formula_structural   Yb2Nb(AsPd)3
_chemical_formula_sum   'Yb2 Nb1 As3 Pd3'
_cell_volume   164.17654905
_cell_formula_units_Z   1
loop_
 _symmetry_equiv_pos_site_id
 _symmetry_equiv_pos_as_xyz
  1  'x, y, z'
loop_
 _atom_site_type_symbol
 _atom_site_label
 _atom_site_symmetry_multiplicity
 _atom_site_fract_x
 _atom_site_fract_y
 _atom_site_fract_z
 _atom_site_occupancy
  Yb  Yb0  1  0.403520  0.410916  0.500000  1
  Yb  Yb1  1  0.596480  0.007396  0.500000  1
  Nb  Nb2  1  0.000000  0.599096  0.500000  1
  As  As3  1  0.701142  0.361556  0.000000  1
  As  As4  1  0.298858  0.660415  0.000000  1
  As  As5  1  0.000000  0.967986  0.500000  1
  Pd  Pd6  1  0.275063  0.016625  0.000000  1
  Pd  Pd7  1  0.724937  0.741562  0.000000  1
  Pd  Pd8  1  0.000000  0.234448  0.000000  1
