# generated using pymatgen
data_Be3PtRh2
_symmetry_space_group_name_H-M   'P 1'
_cell_length_a   3.97883800
_cell_length_b   4.86582277
_cell_length_c   6.90784700
_cell_angle_alpha   90.09557891
_cell_angle_beta   90.00000000
_cell_angle_gamma   90.00000000
_symmetry_Int_Tables_number   1
_chemical_formula_structural   Be3PtRh2
_chemical_formula_sum   'Be6 Pt2 Rh4'
_cell_volume   133.73794608
_cell_formula_units_Z   2
loop_
 _symmetry_equiv_pos_site_id
 _symmetry_equiv_pos_as_xyz
  1  'x, y, z'
loop_
 _atom_site_type_symbol
 _atom_site_label
 _atom_site_symmetry_multiplicity
 _atom_site_fract_x
 _atom_site_fract_y
 _atom_site_fract_z
 _atom_site_occupancy
  Be  Be0  1  0.750000  0.999652  0.750391  1
  Be  Be1  1  0.250000  0.000348  0.249609  1
  Be  Be2  1  0.250000  0.671756  0.583084  1
  Be  Be3  1  0.750000  0.328244  0.416916  1
  Be  Be4  1  0.750000  0.674051  0.083595  1
  Be  Be5  1  0.250000  0.325949  0.916405  1
  Pt  Pt6  1  0.250000  0.500471  0.250217  1
  Pt  Pt7  1  0.750000  0.499529  0.749783  1
  Rh  Rh8  1  0.250000  0.831798  0.916492  1
  Rh  Rh9  1  0.750000  0.168202  0.083508  1
  Rh  Rh10  1  0.750000  0.832967  0.416868  1
  Rh  Rh11  1  0.250000  0.167033  0.583132  1
