# generated using pymatgen
data_Ho4Tl2Hg3Rh
_symmetry_space_group_name_H-M   'P 1'
_cell_length_a   8.12701900
_cell_length_b   8.12701866
_cell_length_c   3.72605300
_cell_angle_alpha   90.00000000
_cell_angle_beta   90.00000000
_cell_angle_gamma   89.34647563
_symmetry_Int_Tables_number   1
_chemical_formula_structural   Ho4Tl2Hg3Rh
_chemical_formula_sum   'Ho4 Tl2 Hg3 Rh1'
_cell_volume   246.08396089
_cell_formula_units_Z   1
loop_
 _symmetry_equiv_pos_site_id
 _symmetry_equiv_pos_as_xyz
  1  'x, y, z'
loop_
 _atom_site_type_symbol
 _atom_site_label
 _atom_site_symmetry_multiplicity
 _atom_site_fract_x
 _atom_site_fract_y
 _atom_site_fract_z
 _atom_site_occupancy
  Ho  Ho0  1  0.136454  0.317996  0.500000  1
  Ho  Ho1  1  0.694332  0.194332  0.500000  1
  Ho  Ho2  1  0.817996  0.636454  0.500000  1
  Ho  Ho3  1  0.332487  0.832487  0.500000  1
  Tl  Tl4  1  0.998151  0.003948  0.000000  1
  Tl  Tl5  1  0.503948  0.498151  0.000000  1
  Hg  Hg6  1  0.125964  0.625964  0.000000  1
  Hg  Hg7  1  0.637298  0.878841  0.000000  1
  Hg  Hg8  1  0.378841  0.137298  0.000000  1
  Rh  Rh9  1  0.874530  0.374530  0.000000  1
