# generated using pymatgen
data_Tb4Fe3Co10P12Ru7
_symmetry_space_group_name_H-M   'P 1'
_cell_length_a   3.74471700
_cell_length_b   10.48681659
_cell_length_c   11.89575951
_cell_angle_alpha   90.26203383
_cell_angle_beta   90.00000000
_cell_angle_gamma   90.00000000
_symmetry_Int_Tables_number   1
_chemical_formula_structural   Tb4Fe3Co10P12Ru7
_chemical_formula_sum   'Tb4 Fe3 Co10 P12 Ru7'
_cell_volume   467.14349824
_cell_formula_units_Z   1
loop_
 _symmetry_equiv_pos_site_id
 _symmetry_equiv_pos_as_xyz
  1  'x, y, z'
loop_
 _atom_site_type_symbol
 _atom_site_label
 _atom_site_symmetry_multiplicity
 _atom_site_fract_x
 _atom_site_fract_y
 _atom_site_fract_z
 _atom_site_occupancy
  Tb  Tb0  1  0.250000  0.584768  0.708792  1
  Tb  Tb1  1  0.250000  0.915694  0.205224  1
  Tb  Tb2  1  0.750000  0.414692  0.291318  1
  Tb  Tb3  1  0.750000  0.083800  0.791830  1
  Fe  Fe4  1  0.250000  0.465411  0.934001  1
  Fe  Fe5  1  0.250000  0.036282  0.433038  1
  Fe  Fe6  1  0.750000  0.962281  0.566133  1
  Co  Co7  1  0.750000  0.902850  0.012318  1
  Co  Co8  1  0.250000  0.225401  0.177782  1
  Co  Co9  1  0.250000  0.272897  0.678865  1
  Co  Co10  1  0.750000  0.776705  0.825399  1
  Co  Co11  1  0.750000  0.727096  0.319603  1
  Co  Co12  1  0.250000  0.881516  0.700783  1
  Co  Co13  1  0.250000  0.616550  0.199533  1
  Co  Co14  1  0.750000  0.115497  0.298038  1
  Co  Co15  1  0.750000  0.382421  0.800472  1
  Co  Co16  1  0.750000  0.538765  0.067243  1
  P  P17  1  0.250000  0.423588  0.112108  1
  P  P18  1  0.250000  0.074105  0.612603  1
  P  P19  1  0.750000  0.575775  0.886853  1
  P  P20  1  0.750000  0.924452  0.386768  1
  P  P21  1  0.250000  0.273658  0.865878  1
  P  P22  1  0.250000  0.225826  0.364015  1
  P  P23  1  0.750000  0.730863  0.132607  1
  P  P24  1  0.750000  0.773758  0.636930  1
  P  P25  1  0.250000  0.601250  0.386553  1
  P  P26  1  0.250000  0.899096  0.887572  1
  P  P27  1  0.750000  0.397744  0.613081  1
  P  P28  1  0.750000  0.099445  0.111824  1
  Ru  Ru29  1  0.250000  0.714168  0.989395  1
  Ru  Ru30  1  0.250000  0.795324  0.483968  1
  Ru  Ru31  1  0.750000  0.292803  0.015583  1
  Ru  Ru32  1  0.750000  0.203663  0.515225  1
  Ru  Ru33  1  0.250000  0.401819  0.486846  1
  Ru  Ru34  1  0.250000  0.092183  0.988855  1
  Ru  Ru35  1  0.750000  0.597848  0.512964  1
