# generated using pymatgen
data_Er3In3BiIrRh
_symmetry_space_group_name_H-M   'P 1'
_cell_length_a   7.80680900
_cell_length_b   7.80680882
_cell_length_c   3.94432500
_cell_angle_alpha   90.00000000
_cell_angle_beta   90.00000000
_cell_angle_gamma   119.99999652
_symmetry_Int_Tables_number   1
_chemical_formula_structural   Er3In3BiIrRh
_chemical_formula_sum   'Er3 In3 Bi1 Ir1 Rh1'
_cell_volume   208.18548067
_cell_formula_units_Z   1
loop_
 _symmetry_equiv_pos_site_id
 _symmetry_equiv_pos_as_xyz
  1  'x, y, z'
loop_
 _atom_site_type_symbol
 _atom_site_label
 _atom_site_symmetry_multiplicity
 _atom_site_fract_x
 _atom_site_fract_y
 _atom_site_fract_z
 _atom_site_occupancy
  Er  Er0  1  0.033063  0.612142  0.500000  1
  Er  Er1  1  0.387858  0.420921  0.500000  1
  Er  Er2  1  0.579079  0.966937  0.500000  1
  In  In3  1  0.237804  0.980198  0.000000  1
  In  In4  1  0.742394  0.762196  0.000000  1
  In  In5  1  0.019802  0.257606  0.000000  1
  Bi  Bi6  1  0.666667  0.333333  0.000000  1
  Ir  Ir7  1  0.333333  0.666667  0.000000  1
  Rh  Rh8  1  0.000000  0.000000  0.500000  1
