# generated using pymatgen
data_Li4Tb3YbSi8
_symmetry_space_group_name_H-M   'P 1'
_cell_length_a   3.80142400
_cell_length_b   7.71869472
_cell_length_c   10.25371142
_cell_angle_alpha   89.63588306
_cell_angle_beta   90.00000000
_cell_angle_gamma   90.00000000
_symmetry_Int_Tables_number   1
_chemical_formula_structural   Li4Tb3YbSi8
_chemical_formula_sum   'Li4 Tb3 Yb1 Si8'
_cell_volume   300.85864661
_cell_formula_units_Z   1
loop_
 _symmetry_equiv_pos_site_id
 _symmetry_equiv_pos_as_xyz
  1  'x, y, z'
loop_
 _atom_site_type_symbol
 _atom_site_label
 _atom_site_symmetry_multiplicity
 _atom_site_fract_x
 _atom_site_fract_y
 _atom_site_fract_z
 _atom_site_occupancy
  Li  Li0  1  0.250000  0.994718  0.393271  1
  Li  Li1  1  0.250000  0.489048  0.109741  1
  Li  Li2  1  0.750000  0.010838  0.607809  1
  Li  Li3  1  0.750000  0.509406  0.892777  1
  Tb  Tb4  1  0.250000  0.133110  0.863714  1
  Tb  Tb5  1  0.250000  0.634525  0.634946  1
  Tb  Tb6  1  0.750000  0.865314  0.133576  1
  Yb  Yb7  1  0.750000  0.361665  0.364724  1
  Si  Si8  1  0.250000  0.236693  0.571086  1
  Si  Si9  1  0.250000  0.734088  0.932149  1
  Si  Si10  1  0.750000  0.771272  0.431698  1
  Si  Si11  1  0.750000  0.262130  0.064884  1
  Si  Si12  1  0.250000  0.660682  0.322072  1
  Si  Si13  1  0.250000  0.155214  0.176157  1
  Si  Si14  1  0.750000  0.341204  0.683511  1
  Si  Si15  1  0.750000  0.840091  0.817884  1
