# generated using pymatgen
data_Sr3Cd2(AgP2)2
_symmetry_space_group_name_H-M   'P 1'
_cell_length_a   4.41628500
_cell_length_b   4.41628388
_cell_length_c   15.69356100
_cell_angle_alpha   90.00000000
_cell_angle_beta   90.00000000
_cell_angle_gamma   120.00000087
_symmetry_Int_Tables_number   1
_chemical_formula_structural   Sr3Cd2(AgP2)2
_chemical_formula_sum   'Sr3 Cd2 Ag2 P4'
_cell_volume   265.07343291
_cell_formula_units_Z   1
loop_
 _symmetry_equiv_pos_site_id
 _symmetry_equiv_pos_as_xyz
  1  'x, y, z'
loop_
 _atom_site_type_symbol
 _atom_site_label
 _atom_site_symmetry_multiplicity
 _atom_site_fract_x
 _atom_site_fract_y
 _atom_site_fract_z
 _atom_site_occupancy
  Sr  Sr0  1  0.000000  0.000000  0.268107  1
  Sr  Sr1  1  0.000000  0.000000  0.000000  1
  Sr  Sr2  1  0.000000  0.000000  0.731893  1
  Cd  Cd3  1  0.333333  0.666667  0.563030  1
  Cd  Cd4  1  0.666667  0.333333  0.436970  1
  Ag  Ag5  1  0.333333  0.666667  0.136255  1
  Ag  Ag6  1  0.666667  0.333333  0.863745  1
  P  P7  1  0.333333  0.666667  0.865862  1
  P  P8  1  0.666667  0.333333  0.134138  1
  P  P9  1  0.333333  0.666667  0.385296  1
  P  P10  1  0.666667  0.333333  0.614704  1
