# generated using pymatgen
data_Dy2Ho10Tc3Ni
_symmetry_space_group_name_H-M   'P 1'
_cell_length_a   6.25377000
_cell_length_b   7.29418007
_cell_length_c   9.15596300
_cell_angle_alpha   90.00000000
_cell_angle_beta   90.00000000
_cell_angle_gamma   90.18991852
_symmetry_Int_Tables_number   1
_chemical_formula_structural   Dy2Ho10Tc3Ni
_chemical_formula_sum   'Dy2 Ho10 Tc3 Ni1'
_cell_volume   417.65725371
_cell_formula_units_Z   1
loop_
 _symmetry_equiv_pos_site_id
 _symmetry_equiv_pos_as_xyz
  1  'x, y, z'
loop_
 _atom_site_type_symbol
 _atom_site_label
 _atom_site_symmetry_multiplicity
 _atom_site_fract_x
 _atom_site_fract_y
 _atom_site_fract_z
 _atom_site_occupancy
  Dy  Dy0  1  0.140487  0.457092  0.750000  1
  Dy  Dy1  1  0.371895  0.956490  0.750000  1
  Ho  Ho2  1  0.327690  0.677878  0.066853  1
  Ho  Ho3  1  0.164619  0.176790  0.437432  1
  Ho  Ho4  1  0.667511  0.322964  0.562599  1
  Ho  Ho5  1  0.833235  0.823331  0.938492  1
  Ho  Ho6  1  0.667511  0.322964  0.937401  1
  Ho  Ho7  1  0.833235  0.823331  0.561508  1
  Ho  Ho8  1  0.327690  0.677878  0.433147  1
  Ho  Ho9  1  0.164619  0.176790  0.062568  1
  Ho  Ho10  1  0.871147  0.541203  0.250000  1
  Ho  Ho11  1  0.625094  0.040969  0.250000  1
  Tc  Tc12  1  0.037608  0.886917  0.250000  1
  Tc  Tc13  1  0.460629  0.389350  0.250000  1
  Tc  Tc14  1  0.960072  0.112231  0.750000  1
  Ni  Ni15  1  0.546957  0.613821  0.750000  1
