# generated using pymatgen
data_LiTb8Sc11Si15Ge
_symmetry_space_group_name_H-M   'P 1'
_cell_length_a   7.07264042
_cell_length_b   7.40834642
_cell_length_c   14.03796147
_cell_angle_alpha   90.01726205
_cell_angle_beta   89.93423092
_cell_angle_gamma   89.99801838
_symmetry_Int_Tables_number   1
_chemical_formula_structural   LiTb8Sc11Si15Ge
_chemical_formula_sum   'Li1 Tb8 Sc11 Si15 Ge1'
_cell_volume   735.54051762
_cell_formula_units_Z   1
loop_
 _symmetry_equiv_pos_site_id
 _symmetry_equiv_pos_as_xyz
  1  'x, y, z'
loop_
 _atom_site_type_symbol
 _atom_site_label
 _atom_site_symmetry_multiplicity
 _atom_site_fract_x
 _atom_site_fract_y
 _atom_site_fract_z
 _atom_site_occupancy
  Li  Li0  1  0.159122  0.503195  0.750282  1
  Tb  Tb1  1  0.011682  0.175198  0.096878  1
  Tb  Tb2  1  0.989330  0.816749  0.900577  1
  Tb  Tb3  1  0.482863  0.674363  0.901107  1
  Tb  Tb4  1  0.988683  0.817861  0.599520  1
  Tb  Tb5  1  0.511570  0.323978  0.096945  1
  Tb  Tb6  1  0.010983  0.174317  0.402644  1
  Tb  Tb7  1  0.512387  0.323425  0.402586  1
  Tb  Tb8  1  0.484380  0.675369  0.599101  1
  Sc  Sc9  1  0.838155  0.497338  0.249933  1
  Sc  Sc10  1  0.339544  0.002372  0.249952  1
  Sc  Sc11  1  0.659236  0.998188  0.750099  1
  Sc  Sc12  1  0.328635  0.180810  0.626572  1
  Sc  Sc13  1  0.670692  0.823605  0.375021  1
  Sc  Sc14  1  0.170270  0.679026  0.373768  1
  Sc  Sc15  1  0.670845  0.823409  0.124884  1
  Sc  Sc16  1  0.834323  0.326237  0.626678  1
  Sc  Sc17  1  0.327603  0.182245  0.873876  1
  Sc  Sc18  1  0.835511  0.326596  0.873502  1
  Sc  Sc19  1  0.170504  0.678218  0.125687  1
  Si  Si20  1  0.031315  0.106936  0.749985  1
  Si  Si21  1  0.968151  0.884536  0.249913  1
  Si  Si22  1  0.467243  0.617698  0.250005  1
  Si  Si23  1  0.536610  0.384675  0.749983  1
  Si  Si24  1  0.287407  0.884715  0.750018  1
  Si  Si25  1  0.713422  0.125624  0.249996  1
  Si  Si26  1  0.212711  0.373829  0.250057  1
  Si  Si27  1  0.778318  0.625622  0.749981  1
  Si  Si28  1  0.840160  0.536545  0.460845  1
  Si  Si29  1  0.344860  0.965096  0.462177  1
  Si  Si30  1  0.843935  0.535674  0.038353  1
  Si  Si31  1  0.657164  0.034856  0.540320  1
  Si  Si32  1  0.158396  0.461378  0.966362  1
  Si  Si33  1  0.657065  0.034686  0.959730  1
  Si  Si34  1  0.345055  0.965128  0.037829  1
  Ge  Ge35  1  0.161870  0.460502  0.534832  1
