# generated using pymatgen
data_Ho5Sn2GePb
_symmetry_space_group_name_H-M   'P 1'
_cell_length_a   9.20099900
_cell_length_b   9.20099874
_cell_length_c   6.45368600
_cell_angle_alpha   90.00000000
_cell_angle_beta   90.00000000
_cell_angle_gamma   120.17481517
_symmetry_Int_Tables_number   1
_chemical_formula_structural   Ho5Sn2GePb
_chemical_formula_sum   'Ho10 Sn4 Ge2 Pb2'
_cell_volume   472.32473155
_cell_formula_units_Z   2
loop_
 _symmetry_equiv_pos_site_id
 _symmetry_equiv_pos_as_xyz
  1  'x, y, z'
loop_
 _atom_site_type_symbol
 _atom_site_label
 _atom_site_symmetry_multiplicity
 _atom_site_fract_x
 _atom_site_fract_y
 _atom_site_fract_z
 _atom_site_occupancy
  Ho  Ho0  1  0.253053  0.997086  0.250000  1
  Ho  Ho1  1  0.746947  0.002914  0.750000  1
  Ho  Ho2  1  0.997086  0.253053  0.250000  1
  Ho  Ho3  1  0.002914  0.746947  0.750000  1
  Ho  Ho4  1  0.747537  0.747537  0.250000  1
  Ho  Ho5  1  0.252463  0.252463  0.750000  1
  Ho  Ho6  1  0.331105  0.668895  0.000000  1
  Ho  Ho7  1  0.668895  0.331105  0.000000  1
  Ho  Ho8  1  0.668895  0.331105  0.500000  1
  Ho  Ho9  1  0.331105  0.668895  0.500000  1
  Sn  Sn10  1  0.607235  0.999264  0.250000  1
  Sn  Sn11  1  0.392765  0.000736  0.750000  1
  Sn  Sn12  1  0.999264  0.607235  0.250000  1
  Sn  Sn13  1  0.000736  0.392765  0.750000  1
  Ge  Ge14  1  0.000000  0.000000  0.000000  1
  Ge  Ge15  1  0.000000  0.000000  0.500000  1
  Pb  Pb16  1  0.391749  0.391749  0.250000  1
  Pb  Pb17  1  0.608251  0.608251  0.750000  1
