# generated using pymatgen
data_Ba10CrPN10
_symmetry_space_group_name_H-M   'P 1'
_cell_length_a   7.94804653
_cell_length_b   7.94804681
_cell_length_c   9.45133587
_cell_angle_alpha   76.11380938
_cell_angle_beta   76.11381075
_cell_angle_gamma   95.73846139
_symmetry_Int_Tables_number   1
_chemical_formula_structural   Ba10CrPN10
_chemical_formula_sum   'Ba10 Cr1 P1 N10'
_cell_volume   554.74373602
_cell_formula_units_Z   1
loop_
 _symmetry_equiv_pos_site_id
 _symmetry_equiv_pos_as_xyz
  1  'x, y, z'
loop_
 _atom_site_type_symbol
 _atom_site_label
 _atom_site_symmetry_multiplicity
 _atom_site_fract_x
 _atom_site_fract_y
 _atom_site_fract_z
 _atom_site_occupancy
  Ba  Ba0  1  0.399512  0.388992  0.374767  1
  Ba  Ba1  1  0.611008  0.600488  0.625233  1
  Ba  Ba2  1  0.666678  0.669344  0.004897  1
  Ba  Ba3  1  0.330656  0.333322  0.995103  1
  Ba  Ba4  1  0.920682  0.927573  0.200934  1
  Ba  Ba5  1  0.072427  0.079318  0.799066  1
  Ba  Ba6  1  0.564487  0.093360  0.760772  1
  Ba  Ba7  1  0.906640  0.435513  0.239228  1
  Ba  Ba8  1  0.440690  0.911419  0.239487  1
  Ba  Ba9  1  0.088581  0.559310  0.760513  1
  Cr  Cr10  1  0.241944  0.758056  0.000000  1
  P  P11  1  0.757792  0.242208  0.000000  1
  N  N12  1  0.650318  0.651168  0.314561  1
  N  N13  1  0.348832  0.349682  0.685439  1
  N  N14  1  0.721569  0.030579  0.993951  1
  N  N15  1  0.969421  0.278431  0.006049  1
  N  N16  1  0.282144  0.976817  0.008050  1
  N  N17  1  0.023183  0.717856  0.991950  1
  N  N18  1  0.387160  0.731856  0.837060  1
  N  N19  1  0.268144  0.612840  0.162939  1
  N  N20  1  0.618913  0.270781  0.155225  1
  N  N21  1  0.729219  0.381087  0.844774  1
