# generated using pymatgen
data_HfP6PbO18
_symmetry_space_group_name_H-M   'P 1'
_cell_length_a   7.01713000
_cell_length_b   7.01712927
_cell_length_c   10.71070500
_cell_angle_alpha   90.00000000
_cell_angle_beta   90.00000000
_cell_angle_gamma   120.00000344
_symmetry_Int_Tables_number   1
_chemical_formula_structural   HfP6PbO18
_chemical_formula_sum   'Hf1 P6 Pb1 O18'
_cell_volume   456.73855568
_cell_formula_units_Z   1
loop_
 _symmetry_equiv_pos_site_id
 _symmetry_equiv_pos_as_xyz
  1  'x, y, z'
loop_
 _atom_site_type_symbol
 _atom_site_label
 _atom_site_symmetry_multiplicity
 _atom_site_fract_x
 _atom_site_fract_y
 _atom_site_fract_z
 _atom_site_occupancy
  Hf  Hf0  1  0.000000  0.000000  0.000000  1
  P  P1  1  0.731198  0.129509  0.776016  1
  P  P2  1  0.870491  0.268802  0.223984  1
  P  P3  1  0.731198  0.601689  0.223984  1
  P  P4  1  0.870491  0.601689  0.776016  1
  P  P5  1  0.398311  0.268802  0.776016  1
  P  P6  1  0.398311  0.129509  0.223984  1
  Pb  Pb7  1  0.000000  0.000000  0.500000  1
  O  O8  1  0.896395  0.506985  0.199647  1
  O  O9  1  0.896395  0.389410  0.800353  1
  O  O10  1  0.493015  0.103605  0.800353  1
  O  O11  1  0.610590  0.103605  0.199647  1
  O  O12  1  0.750811  0.059514  0.648554  1
  O  O13  1  0.769522  0.015834  0.886429  1
  O  O14  1  0.493015  0.389410  0.199647  1
  O  O15  1  0.750811  0.691298  0.351446  1
  O  O16  1  0.769522  0.753689  0.113571  1
  O  O17  1  0.610590  0.506985  0.800353  1
  O  O18  1  0.940486  0.249189  0.351446  1
  O  O19  1  0.984166  0.230478  0.113571  1
  O  O20  1  0.246311  0.230478  0.886429  1
  O  O21  1  0.308702  0.249189  0.648554  1
  O  O22  1  0.984166  0.753689  0.886429  1
  O  O23  1  0.940486  0.691298  0.648554  1
  O  O24  1  0.246311  0.015834  0.113571  1
  O  O25  1  0.308702  0.059514  0.351446  1
