# generated using pymatgen
data_NaSc3MnNi9As7
_symmetry_space_group_name_H-M   'P 1'
_cell_length_a   9.55574536
_cell_length_b   9.65840289
_cell_length_c   3.83319100
_cell_angle_alpha   90.00000000
_cell_angle_beta   90.00000000
_cell_angle_gamma   119.85409669
_symmetry_Int_Tables_number   1
_chemical_formula_structural   NaSc3MnNi9As7
_chemical_formula_sum   'Na1 Sc3 Mn1 Ni9 As7'
_cell_volume   306.82985094
_cell_formula_units_Z   1
loop_
 _symmetry_equiv_pos_site_id
 _symmetry_equiv_pos_as_xyz
  1  'x, y, z'
loop_
 _atom_site_type_symbol
 _atom_site_label
 _atom_site_symmetry_multiplicity
 _atom_site_fract_x
 _atom_site_fract_y
 _atom_site_fract_z
 _atom_site_occupancy
  Na  Na0  1  0.663286  0.333681  0.500000  1
  Sc  Sc1  1  0.879793  0.110748  0.500000  1
  Sc  Sc2  1  0.896314  0.772445  0.500000  1
  Sc  Sc3  1  0.333713  0.656424  0.000000  1
  Mn  Mn4  1  0.230734  0.122955  0.500000  1
  Ni  Ni5  1  0.123973  0.287988  0.000000  1
  Ni  Ni6  1  0.712796  0.839091  0.000000  1
  Ni  Ni7  1  0.164915  0.875038  0.000000  1
  Ni  Ni8  1  0.418609  0.360896  0.000000  1
  Ni  Ni9  1  0.629770  0.056768  0.000000  1
  Ni  Ni10  1  0.945600  0.580997  0.000000  1
  Ni  Ni11  1  0.056435  0.441125  0.500000  1
  Ni  Ni12  1  0.557253  0.615461  0.500000  1
  Ni  Ni13  1  0.387325  0.951052  0.500000  1
  As  As14  1  0.289077  0.410057  0.500000  1
  As  As15  1  0.575061  0.866864  0.500000  1
  As  As16  1  0.138680  0.709240  0.500000  1
  As  As17  1  0.418063  0.115370  0.000000  1
  As  As18  1  0.886424  0.315060  0.000000  1
  As  As19  1  0.684849  0.574403  0.000000  1
  As  As20  1  0.007328  0.004339  0.000000  1
