# generated using pymatgen
data_TbPr19(Bi2Te)4
_symmetry_space_group_name_H-M   'P 1'
_cell_length_a   8.48167596
_cell_length_b   9.87781208
_cell_length_c   12.45906701
_cell_angle_alpha   90.03302616
_cell_angle_beta   89.87454252
_cell_angle_gamma   89.87710126
_symmetry_Int_Tables_number   1
_chemical_formula_structural   TbPr19(Bi2Te)4
_chemical_formula_sum   'Tb1 Pr19 Bi8 Te4'
_cell_volume   1043.82055375
_cell_formula_units_Z   1
loop_
 _symmetry_equiv_pos_site_id
 _symmetry_equiv_pos_as_xyz
  1  'x, y, z'
loop_
 _atom_site_type_symbol
 _atom_site_label
 _atom_site_symmetry_multiplicity
 _atom_site_fract_x
 _atom_site_fract_y
 _atom_site_fract_z
 _atom_site_occupancy
  Tb  Tb0  1  0.193082  0.557849  0.442013  1
  Pr  Pr1  1  0.351896  0.748946  0.211526  1
  Pr  Pr2  1  0.855219  0.749649  0.290117  1
  Pr  Pr3  1  0.645491  0.249198  0.789539  1
  Pr  Pr4  1  0.145193  0.249093  0.709749  1
  Pr  Pr5  1  0.695050  0.553876  0.058856  1
  Pr  Pr6  1  0.193784  0.945912  0.442442  1
  Pr  Pr7  1  0.305529  0.053931  0.941744  1
  Pr  Pr8  1  0.804455  0.445322  0.557999  1
  Pr  Pr9  1  0.304772  0.445894  0.941835  1
  Pr  Pr10  1  0.808379  0.055124  0.557215  1
  Pr  Pr11  1  0.694495  0.945327  0.057929  1
  Pr  Pr12  1  0.478281  0.249657  0.486929  1
  Pr  Pr13  1  0.977510  0.249743  0.013991  1
  Pr  Pr14  1  0.522130  0.750303  0.512808  1
  Pr  Pr15  1  0.022599  0.749503  0.987080  1
  Pr  Pr16  1  0.320684  0.250355  0.222741  1
  Pr  Pr17  1  0.820605  0.249409  0.278254  1
  Pr  Pr18  1  0.679136  0.749591  0.777791  1
  Pr  Pr19  1  0.178467  0.749313  0.720836  1
  Bi  Bi20  1  0.569787  0.993770  0.324391  1
  Bi  Bi21  1  0.070523  0.505151  0.177143  1
  Bi  Bi22  1  0.428833  0.494297  0.673459  1
  Bi  Bi23  1  0.930666  0.005038  0.824540  1
  Bi  Bi24  1  0.430635  0.005136  0.675082  1
  Bi  Bi25  1  0.930314  0.493811  0.824568  1
  Bi  Bi26  1  0.567229  0.505777  0.325699  1
  Bi  Bi27  1  0.069736  0.994399  0.175736  1
  Te  Te28  1  0.417210  0.749609  0.960597  1
  Te  Te29  1  0.917813  0.747789  0.539497  1
  Te  Te30  1  0.583104  0.249868  0.040116  1
  Te  Te31  1  0.087394  0.257365  0.457777  1
