# generated using pymatgen
data_Pr4Mn3CrF28
_symmetry_space_group_name_H-M   'P 1'
_cell_length_a   5.57798814
_cell_length_b   9.06976590
_cell_length_c   12.10986369
_cell_angle_alpha   61.88867390
_cell_angle_beta   90.00136056
_cell_angle_gamma   89.97800215
_symmetry_Int_Tables_number   1
_chemical_formula_structural   Pr4Mn3CrF28
_chemical_formula_sum   'Pr4 Mn3 Cr1 F28'
_cell_volume   540.37851499
_cell_formula_units_Z   1
loop_
 _symmetry_equiv_pos_site_id
 _symmetry_equiv_pos_as_xyz
  1  'x, y, z'
loop_
 _atom_site_type_symbol
 _atom_site_label
 _atom_site_symmetry_multiplicity
 _atom_site_fract_x
 _atom_site_fract_y
 _atom_site_fract_z
 _atom_site_occupancy
  Pr  Pr0  1  0.760731  0.809735  0.763475  1
  Pr  Pr1  1  0.260161  0.192826  0.735258  1
  Pr  Pr2  1  0.239094  0.192038  0.236088  1
  Pr  Pr3  1  0.739754  0.806632  0.264960  1
  Mn  Mn4  1  0.256899  0.725733  0.542655  1
  Mn  Mn5  1  0.243374  0.725762  0.042279  1
  Mn  Mn6  1  0.742967  0.274270  0.457484  1
  Cr  Cr7  1  0.755467  0.274073  0.957824  1
  F  F8  1  0.427500  0.708907  0.922695  1
  F  F9  1  0.926267  0.290871  0.577229  1
  F  F10  1  0.569401  0.290673  0.078342  1
  F  F11  1  0.073631  0.709233  0.422747  1
  F  F12  1  0.464128  0.282962  0.537008  1
  F  F13  1  0.964925  0.717306  0.962166  1
  F  F14  1  0.535678  0.717285  0.462848  1
  F  F15  1  0.038133  0.281968  0.039278  1
  F  F16  1  0.767124  0.504937  0.865370  1
  F  F17  1  0.265980  0.495687  0.634241  1
  F  F18  1  0.233889  0.495790  0.134721  1
  F  F19  1  0.733923  0.504472  0.365547  1
  F  F20  1  0.760638  0.044676  0.046151  1
  F  F21  1  0.259995  0.954783  0.454230  1
  F  F22  1  0.239854  0.954958  0.953722  1
  F  F23  1  0.739835  0.045041  0.545928  1
  F  F24  1  0.983117  0.728830  0.626844  1
  F  F25  1  0.478694  0.270781  0.872512  1
  F  F26  1  0.016891  0.271144  0.373559  1
  F  F27  1  0.516920  0.729129  0.126557  1
  F  F28  1  0.061291  0.739539  0.165135  1
  F  F29  1  0.561944  0.261062  0.334399  1
  F  F30  1  0.939744  0.260314  0.833664  1
  F  F31  1  0.438890  0.738787  0.665784  1
  F  F32  1  0.397949  0.965898  0.225881  1
  F  F33  1  0.896135  0.033462  0.273590  1
  F  F34  1  0.604314  0.035025  0.773754  1
  F  F35  1  0.104764  0.965410  0.726073  1
