# generated using pymatgen
data_Y2Lu2VCoB12
_symmetry_space_group_name_H-M   'P 1'
_cell_length_a   3.52822800
_cell_length_b   9.09155224
_cell_length_c   11.49807415
_cell_angle_alpha   90.40946435
_cell_angle_beta   90.00000000
_cell_angle_gamma   90.00000000
_symmetry_Int_Tables_number   1
_chemical_formula_structural   Y2Lu2VCoB12
_chemical_formula_sum   'Y4 Lu4 V2 Co2 B24'
_cell_volume   368.81510165
_cell_formula_units_Z   2
loop_
 _symmetry_equiv_pos_site_id
 _symmetry_equiv_pos_as_xyz
  1  'x, y, z'
loop_
 _atom_site_type_symbol
 _atom_site_label
 _atom_site_symmetry_multiplicity
 _atom_site_fract_x
 _atom_site_fract_y
 _atom_site_fract_z
 _atom_site_occupancy
  Y  Y0  1  0.000000  0.823559  0.084525  1
  Y  Y1  1  0.000000  0.176441  0.915475  1
  Y  Y2  1  0.000000  0.322871  0.414624  1
  Y  Y3  1  0.000000  0.677129  0.585376  1
  Lu  Lu4  1  0.000000  0.444673  0.129847  1
  Lu  Lu5  1  0.000000  0.555327  0.870153  1
  Lu  Lu6  1  0.000000  0.942762  0.370591  1
  Lu  Lu7  1  0.000000  0.057238  0.629409  1
  V  V8  1  0.000000  0.141220  0.183134  1
  V  V9  1  0.000000  0.858780  0.816866  1
  Co  Co10  1  0.000000  0.640152  0.320050  1
  Co  Co11  1  0.000000  0.359848  0.679950  1
  B  B12  1  0.500000  0.053140  0.067492  1
  B  B13  1  0.500000  0.946860  0.932508  1
  B  B14  1  0.500000  0.555323  0.432253  1
  B  B15  1  0.500000  0.444677  0.567747  1
  B  B16  1  0.500000  0.251347  0.081466  1
  B  B17  1  0.500000  0.748653  0.918534  1
  B  B18  1  0.500000  0.748384  0.417171  1
  B  B19  1  0.500000  0.251616  0.582829  1
  B  B20  1  0.500000  0.296398  0.236620  1
  B  B21  1  0.500000  0.703602  0.763380  1
  B  B22  1  0.500000  0.790935  0.264817  1
  B  B23  1  0.500000  0.209065  0.735183  1
  B  B24  1  0.500000  0.131894  0.317483  1
  B  B25  1  0.500000  0.868106  0.682517  1
  B  B26  1  0.500000  0.631716  0.185318  1
  B  B27  1  0.500000  0.368284  0.814682  1
  B  B28  1  0.500000  0.486473  0.288482  1
  B  B29  1  0.500000  0.513527  0.711518  1
  B  B30  1  0.500000  0.980777  0.213622  1
  B  B31  1  0.500000  0.019223  0.786378  1
  B  B32  1  0.500000  0.102037  0.473378  1
  B  B33  1  0.500000  0.897963  0.526622  1
  B  B34  1  0.500000  0.601131  0.028033  1
  B  B35  1  0.500000  0.398869  0.971967  1
