# generated using pymatgen
data_Ho5Er5In8(IrPt)2
_symmetry_space_group_name_H-M   'P 1'
_cell_length_a   3.61312700
_cell_length_b   8.10386761
_cell_length_c   18.18926548
_cell_angle_alpha   89.93275715
_cell_angle_beta   90.00000000
_cell_angle_gamma   90.00000000
_symmetry_Int_Tables_number   1
_chemical_formula_structural   Ho5Er5In8(IrPt)2
_chemical_formula_sum   'Ho5 Er5 In8 Ir2 Pt2'
_cell_volume   532.58683514
_cell_formula_units_Z   1
loop_
 _symmetry_equiv_pos_site_id
 _symmetry_equiv_pos_as_xyz
  1  'x, y, z'
loop_
 _atom_site_type_symbol
 _atom_site_label
 _atom_site_symmetry_multiplicity
 _atom_site_fract_x
 _atom_site_fract_y
 _atom_site_fract_z
 _atom_site_occupancy
  Ho  Ho0  1  0.000000  0.763602  0.778120  1
  Ho  Ho1  1  0.000000  0.249023  0.720101  1
  Ho  Ho2  1  0.000000  0.751005  0.279886  1
  Ho  Ho3  1  0.000000  0.999966  0.000006  1
  Ho  Ho4  1  0.000000  0.499984  0.499989  1
  Er  Er5  1  0.000000  0.115089  0.411854  1
  Er  Er6  1  0.000000  0.884915  0.588070  1
  Er  Er7  1  0.000000  0.383276  0.913821  1
  Er  Er8  1  0.000000  0.616686  0.086197  1
  Er  Er9  1  0.000000  0.236490  0.222013  1
  In  In10  1  0.500000  0.423415  0.350986  1
  In  In11  1  0.500000  0.576506  0.648957  1
  In  In12  1  0.500000  0.074755  0.850738  1
  In  In13  1  0.500000  0.925356  0.149298  1
  In  In14  1  0.500000  0.292681  0.066574  1
  In  In15  1  0.500000  0.707317  0.933520  1
  In  In16  1  0.500000  0.206440  0.567266  1
  In  In17  1  0.500000  0.793582  0.432706  1
  Ir  Ir18  1  0.500000  0.022254  0.303849  1
  Ir  Ir19  1  0.500000  0.978105  0.696023  1
  Pt  Pt20  1  0.500000  0.476911  0.803659  1
  Pt  Pt21  1  0.500000  0.522643  0.196368  1
