# generated using pymatgen
data_RbTa8AlS16
_symmetry_space_group_name_H-M   'P 1'
_cell_length_a   6.65685103
_cell_length_b   6.65693722
_cell_length_c   14.45024000
_cell_angle_alpha   89.99948358
_cell_angle_beta   90.00507815
_cell_angle_gamma   120.00039141
_symmetry_Int_Tables_number   1
_chemical_formula_structural   RbTa8AlS16
_chemical_formula_sum   'Rb1 Ta8 Al1 S16'
_cell_volume   554.55838476
_cell_formula_units_Z   1
loop_
 _symmetry_equiv_pos_site_id
 _symmetry_equiv_pos_as_xyz
  1  'x, y, z'
loop_
 _atom_site_type_symbol
 _atom_site_label
 _atom_site_symmetry_multiplicity
 _atom_site_fract_x
 _atom_site_fract_y
 _atom_site_fract_z
 _atom_site_occupancy
  Rb  Rb0  1  0.000000  0.000000  0.500000  1
  Ta  Ta1  1  0.000112  0.000057  0.213559  1
  Ta  Ta2  1  0.999888  0.999943  0.786441  1
  Ta  Ta3  1  0.504068  0.007979  0.210650  1
  Ta  Ta4  1  0.992203  0.496104  0.210652  1
  Ta  Ta5  1  0.504070  0.496092  0.210649  1
  Ta  Ta6  1  0.495932  0.992021  0.789350  1
  Ta  Ta7  1  0.007797  0.503896  0.789348  1
  Ta  Ta8  1  0.495930  0.503908  0.789351  1
  Al  Al9  1  0.000000  0.000000  0.000000  1
  S  S10  1  0.333220  0.666607  0.897675  1
  S  S11  1  0.666780  0.333393  0.102325  1
  S  S12  1  0.666805  0.333401  0.320742  1
  S  S13  1  0.333195  0.666599  0.679258  1
  S  S14  1  0.168603  0.831611  0.317359  1
  S  S15  1  0.168604  0.336992  0.317361  1
  S  S16  1  0.663195  0.831597  0.317350  1
  S  S17  1  0.831397  0.168389  0.682641  1
  S  S18  1  0.831396  0.663008  0.682639  1
  S  S19  1  0.336805  0.168403  0.682650  1
  S  S20  1  0.832755  0.167116  0.897763  1
  S  S21  1  0.832754  0.665633  0.897765  1
  S  S22  1  0.334259  0.167127  0.897757  1
  S  S23  1  0.167245  0.832884  0.102237  1
  S  S24  1  0.167246  0.334367  0.102235  1
  S  S25  1  0.665741  0.832873  0.102243  1
