# generated using pymatgen
data_Al7V12CoN4
_symmetry_space_group_name_H-M   'P 1'
_cell_length_a   6.59916880
_cell_length_b   6.59916812
_cell_length_c   6.59916848
_cell_angle_alpha   89.98933541
_cell_angle_beta   90.01066584
_cell_angle_gamma   90.01066304
_symmetry_Int_Tables_number   1
_chemical_formula_structural   Al7V12CoN4
_chemical_formula_sum   'Al7 V12 Co1 N4'
_cell_volume   287.38733376
_cell_formula_units_Z   1
loop_
 _symmetry_equiv_pos_site_id
 _symmetry_equiv_pos_as_xyz
  1  'x, y, z'
loop_
 _atom_site_type_symbol
 _atom_site_label
 _atom_site_symmetry_multiplicity
 _atom_site_fract_x
 _atom_site_fract_y
 _atom_site_fract_z
 _atom_site_occupancy
  Al  Al0  1  0.319509  0.175055  0.820112  1
  Al  Al1  1  0.824945  0.320112  0.180491  1
  Al  Al2  1  0.679888  0.680491  0.675055  1
  Al  Al3  1  0.570365  0.429635  0.929635  1
  Al  Al4  1  0.416229  0.923842  0.555222  1
  Al  Al5  1  0.944778  0.583771  0.423842  1
  Al  Al6  1  0.076158  0.055222  0.083771  1
  V  V7  1  0.792276  0.958189  0.373988  1
  V  V8  1  0.710284  0.041929  0.876882  1
  V  V9  1  0.208052  0.461369  0.123881  1
  V  V10  1  0.292560  0.542668  0.629367  1
  V  V11  1  0.958071  0.376882  0.789716  1
  V  V12  1  0.041811  0.873988  0.707724  1
  V  V13  1  0.457332  0.129367  0.207440  1
  V  V14  1  0.538631  0.623881  0.291948  1
  V  V15  1  0.376119  0.791948  0.961369  1
  V  V16  1  0.870633  0.707440  0.042668  1
  V  V17  1  0.126012  0.207724  0.458189  1
  V  V18  1  0.623118  0.289716  0.541929  1
  Co  Co19  1  0.181986  0.818014  0.318014  1
  N  N20  1  0.875721  0.124279  0.624279  1
  N  N21  1  0.622243  0.877638  0.129081  1
  N  N22  1  0.122362  0.629081  0.877757  1
  N  N23  1  0.370919  0.377757  0.377638  1
