# generated using pymatgen
data_Ca6LaTb(Si3Pd)4
_symmetry_space_group_name_H-M   'P 1'
_cell_length_a   8.26933600
_cell_length_b   8.26933509
_cell_length_c   8.42674000
_cell_angle_alpha   90.00000000
_cell_angle_beta   90.00000000
_cell_angle_gamma   120.00000363
_symmetry_Int_Tables_number   1
_chemical_formula_structural   Ca6LaTb(Si3Pd)4
_chemical_formula_sum   'Ca6 La1 Tb1 Si12 Pd4'
_cell_volume   499.03549810
_cell_formula_units_Z   1
loop_
 _symmetry_equiv_pos_site_id
 _symmetry_equiv_pos_as_xyz
  1  'x, y, z'
loop_
 _atom_site_type_symbol
 _atom_site_label
 _atom_site_symmetry_multiplicity
 _atom_site_fract_x
 _atom_site_fract_y
 _atom_site_fract_z
 _atom_site_occupancy
  Ca  Ca0  1  0.501279  0.002555  0.250000  1
  Ca  Ca1  1  0.498593  0.997188  0.750000  1
  Ca  Ca2  1  0.997445  0.498721  0.250000  1
  Ca  Ca3  1  0.002812  0.501407  0.750000  1
  Ca  Ca4  1  0.501279  0.498721  0.250000  1
  Ca  Ca5  1  0.498593  0.501407  0.750000  1
  La  La6  1  0.000000  0.000000  0.250000  1
  Tb  Tb7  1  0.000000  0.000000  0.750000  1
  Si  Si8  1  0.165155  0.330308  0.997003  1
  Si  Si9  1  0.834866  0.669732  0.995459  1
  Si  Si10  1  0.669692  0.834845  0.997003  1
  Si  Si11  1  0.834866  0.669732  0.504541  1
  Si  Si12  1  0.330268  0.165134  0.995459  1
  Si  Si13  1  0.165155  0.330308  0.502997  1
  Si  Si14  1  0.165155  0.834845  0.997003  1
  Si  Si15  1  0.330268  0.165134  0.504541  1
  Si  Si16  1  0.834866  0.165134  0.995459  1
  Si  Si17  1  0.669692  0.834845  0.502997  1
  Si  Si18  1  0.834866  0.165134  0.504541  1
  Si  Si19  1  0.165155  0.834845  0.502997  1
  Pd  Pd20  1  0.333333  0.666667  0.002985  1
  Pd  Pd21  1  0.666667  0.333333  0.996593  1
  Pd  Pd22  1  0.666667  0.333333  0.503407  1
  Pd  Pd23  1  0.333333  0.666667  0.497015  1
