# generated using pymatgen
data_La3Pr3(BiO7)2
_symmetry_space_group_name_H-M   'P 1'
_cell_length_a   6.81675635
_cell_length_b   6.85429081
_cell_length_c   8.04263245
_cell_angle_alpha   106.90554860
_cell_angle_beta   89.89128928
_cell_angle_gamma   98.29077925
_symmetry_Int_Tables_number   1
_chemical_formula_structural   La3Pr3(BiO7)2
_chemical_formula_sum   'La3 Pr3 Bi2 O14'
_cell_volume   355.46903662
_cell_formula_units_Z   1
loop_
 _symmetry_equiv_pos_site_id
 _symmetry_equiv_pos_as_xyz
  1  'x, y, z'
loop_
 _atom_site_type_symbol
 _atom_site_label
 _atom_site_symmetry_multiplicity
 _atom_site_fract_x
 _atom_site_fract_y
 _atom_site_fract_z
 _atom_site_occupancy
  La  La0  1  0.733062  0.468587  0.118365  1
  La  La1  1  0.739669  0.484211  0.618605  1
  La  La2  1  0.259560  0.515810  0.382214  1
  Pr  Pr3  1  0.461419  0.003130  0.252684  1
  Pr  Pr4  1  0.538099  0.997140  0.747483  1
  Pr  Pr5  1  0.266411  0.535173  0.881894  1
  Bi  Bi6  1  0.000291  0.000726  0.500611  1
  Bi  Bi7  1  0.000469  0.000096  0.999577  1
  O  O8  1  0.439785  0.643008  0.165824  1
  O  O9  1  0.557475  0.357090  0.834204  1
  O  O10  1  0.294922  0.926170  0.954076  1
  O  O11  1  0.705256  0.069160  0.045490  1
  O  O12  1  0.291623  0.927925  0.511527  1
  O  O13  1  0.708570  0.072077  0.488464  1
  O  O14  1  0.546781  0.363999  0.345341  1
  O  O15  1  0.452623  0.636307  0.654815  1
  O  O16  1  0.925921  0.674999  0.952750  1
  O  O17  1  0.078075  0.323244  0.044131  1
  O  O18  1  0.075218  0.332908  0.615383  1
  O  O19  1  0.925236  0.667740  0.386511  1
  O  O20  1  0.889626  0.919713  0.729298  1
  O  O21  1  0.109910  0.080788  0.270752  1
