# generated using pymatgen
data_Ho12Mn(InTc)2
_symmetry_space_group_name_H-M   'P 1'
_cell_length_a   8.38892354
_cell_length_b   8.38892457
_cell_length_c   8.38892400
_cell_angle_alpha   108.72181200
_cell_angle_beta   108.72181439
_cell_angle_gamma   110.98066272
_symmetry_Int_Tables_number   1
_chemical_formula_structural   Ho12Mn(InTc)2
_chemical_formula_sum   'Ho12 Mn1 In2 Tc2'
_cell_volume   454.22401623
_cell_formula_units_Z   1
loop_
 _symmetry_equiv_pos_site_id
 _symmetry_equiv_pos_as_xyz
  1  'x, y, z'
loop_
 _atom_site_type_symbol
 _atom_site_label
 _atom_site_symmetry_multiplicity
 _atom_site_fract_x
 _atom_site_fract_y
 _atom_site_fract_z
 _atom_site_occupancy
  Ho  Ho0  1  0.304085  0.304085  0.610218  1
  Ho  Ho1  1  0.693866  0.693866  0.389782  1
  Ho  Ho2  1  0.693866  0.304085  0.000000  1
  Ho  Ho3  1  0.304085  0.693866  0.000000  1
  Ho  Ho4  1  0.190262  0.430921  0.240658  1
  Ho  Ho5  1  0.807556  0.568601  0.761046  1
  Ho  Ho6  1  0.190262  0.949603  0.759342  1
  Ho  Ho7  1  0.949603  0.190262  0.759342  1
  Ho  Ho8  1  0.807556  0.046511  0.238954  1
  Ho  Ho9  1  0.046511  0.807556  0.238954  1
  Ho  Ho10  1  0.430921  0.190262  0.240658  1
  Ho  Ho11  1  0.568601  0.807556  0.761046  1
  Mn  Mn12  1  0.629806  0.629806  0.000000  1
  In  In13  1  0.998375  0.498375  0.500000  1
  In  In14  1  0.498375  0.998375  0.500000  1
  Tc  Tc15  1  0.386042  0.386042  0.000000  1
  Tc  Tc16  1  0.000228  0.000228  0.000000  1
