# generated using pymatgen
data_Tm20Cd6RuPt
_symmetry_space_group_name_H-M   'P 1'
_cell_length_a   9.50477600
_cell_length_b   9.50477696
_cell_length_c   9.70097200
_cell_angle_alpha   90.00000000
_cell_angle_beta   90.00000000
_cell_angle_gamma   120.00000363
_symmetry_Int_Tables_number   1
_chemical_formula_structural   Tm20Cd6RuPt
_chemical_formula_sum   'Tm20 Cd6 Ru1 Pt1'
_cell_volume   758.97886615
_cell_formula_units_Z   1
loop_
 _symmetry_equiv_pos_site_id
 _symmetry_equiv_pos_as_xyz
  1  'x, y, z'
loop_
 _atom_site_type_symbol
 _atom_site_label
 _atom_site_symmetry_multiplicity
 _atom_site_fract_x
 _atom_site_fract_y
 _atom_site_fract_z
 _atom_site_occupancy
  Tm  Tm0  1  0.000000  0.000000  0.499613  1
  Tm  Tm1  1  0.000000  0.000000  0.000387  1
  Tm  Tm2  1  0.208133  0.791867  0.442579  1
  Tm  Tm3  1  0.208133  0.416266  0.442579  1
  Tm  Tm4  1  0.583734  0.791867  0.442579  1
  Tm  Tm5  1  0.790339  0.209661  0.559974  1
  Tm  Tm6  1  0.790339  0.580676  0.559974  1
  Tm  Tm7  1  0.419324  0.209661  0.559974  1
  Tm  Tm8  1  0.790339  0.209661  0.940026  1
  Tm  Tm9  1  0.790339  0.580676  0.940026  1
  Tm  Tm10  1  0.419324  0.209661  0.940026  1
  Tm  Tm11  1  0.208133  0.791867  0.057421  1
  Tm  Tm12  1  0.208133  0.416266  0.057421  1
  Tm  Tm13  1  0.583734  0.791867  0.057421  1
  Tm  Tm14  1  0.542558  0.457442  0.250000  1
  Tm  Tm15  1  0.542558  0.085114  0.250000  1
  Tm  Tm16  1  0.914886  0.457442  0.250000  1
  Tm  Tm17  1  0.458653  0.541347  0.750000  1
  Tm  Tm18  1  0.458653  0.917306  0.750000  1
  Tm  Tm19  1  0.082694  0.541347  0.750000  1
  Cd  Cd20  1  0.885264  0.114736  0.250000  1
  Cd  Cd21  1  0.885264  0.770529  0.250000  1
  Cd  Cd22  1  0.229471  0.114736  0.250000  1
  Cd  Cd23  1  0.114587  0.885413  0.750000  1
  Cd  Cd24  1  0.114587  0.229172  0.750000  1
  Cd  Cd25  1  0.770828  0.885413  0.750000  1
  Ru  Ru26  1  0.666667  0.333333  0.750000  1
  Pt  Pt27  1  0.333333  0.666667  0.250000  1
