# generated using pymatgen
data_TbBeBOs
_symmetry_space_group_name_H-M   'P 1'
_cell_length_a   5.49416400
_cell_length_b   6.12302400
_cell_length_c   6.42685400
_cell_angle_alpha   90.00000000
_cell_angle_beta   90.00000000
_cell_angle_gamma   90.00000000
_symmetry_Int_Tables_number   1
_chemical_formula_structural   TbBeBOs
_chemical_formula_sum   'Tb4 Be4 B4 Os4'
_cell_volume   216.20514008
_cell_formula_units_Z   4
loop_
 _symmetry_equiv_pos_site_id
 _symmetry_equiv_pos_as_xyz
  1  'x, y, z'
loop_
 _atom_site_type_symbol
 _atom_site_label
 _atom_site_symmetry_multiplicity
 _atom_site_fract_x
 _atom_site_fract_y
 _atom_site_fract_z
 _atom_site_occupancy
  Tb  Tb0  1  0.256541  0.999753  0.350479  1
  Tb  Tb1  1  0.243459  0.499753  0.149521  1
  Tb  Tb2  1  0.756541  0.000247  0.649521  1
  Tb  Tb3  1  0.743459  0.500247  0.850479  1
  Be  Be4  1  0.063991  0.365365  0.543010  1
  Be  Be5  1  0.436009  0.865365  0.956990  1
  Be  Be6  1  0.563991  0.634635  0.456990  1
  Be  Be7  1  0.936009  0.134635  0.043010  1
  B  B8  1  0.931158  0.640989  0.445214  1
  B  B9  1  0.568842  0.140989  0.054786  1
  B  B10  1  0.431158  0.359011  0.554786  1
  B  B11  1  0.068842  0.859011  0.945214  1
  Os  Os12  1  0.266224  0.174103  0.813335  1
  Os  Os13  1  0.233776  0.674103  0.686665  1
  Os  Os14  1  0.766224  0.825897  0.186665  1
  Os  Os15  1  0.733776  0.325897  0.313335  1
