# generated using pymatgen
data_TbGd7(ReCl4)2
_symmetry_space_group_name_H-M   'P 1'
_cell_length_a   8.70580438
_cell_length_b   8.68695605
_cell_length_c   6.40417100
_cell_angle_alpha   89.49596353
_cell_angle_beta   89.34355711
_cell_angle_gamma   89.36022427
_symmetry_Int_Tables_number   1
_chemical_formula_structural   TbGd7(ReCl4)2
_chemical_formula_sum   'Tb1 Gd7 Re2 Cl8'
_cell_volume   484.24767510
_cell_formula_units_Z   1
loop_
 _symmetry_equiv_pos_site_id
 _symmetry_equiv_pos_as_xyz
  1  'x, y, z'
loop_
 _atom_site_type_symbol
 _atom_site_label
 _atom_site_symmetry_multiplicity
 _atom_site_fract_x
 _atom_site_fract_y
 _atom_site_fract_z
 _atom_site_occupancy
  Tb  Tb0  1  0.259430  0.895091  0.012559  1
  Gd  Gd1  1  0.740015  0.105314  0.988380  1
  Gd  Gd2  1  0.105403  0.738395  0.488315  1
  Gd  Gd3  1  0.894002  0.261205  0.511304  1
  Gd  Gd4  1  0.738868  0.895488  0.507325  1
  Gd  Gd5  1  0.259622  0.103419  0.493045  1
  Gd  Gd6  1  0.104221  0.258903  0.992189  1
  Gd  Gd7  1  0.896506  0.740453  0.007202  1
  Re  Re8  1  0.994094  0.005163  0.250553  1
  Re  Re9  1  0.005215  0.994512  0.749340  1
  Cl  Cl10  1  0.418064  0.817816  0.410985  1
  Cl  Cl11  1  0.581163  0.183347  0.587557  1
  Cl  Cl12  1  0.185366  0.583502  0.086301  1
  Cl  Cl13  1  0.819365  0.418604  0.913452  1
  Cl  Cl14  1  0.414349  0.185691  0.088995  1
  Cl  Cl15  1  0.584042  0.813264  0.912076  1
  Cl  Cl16  1  0.812277  0.585273  0.411755  1
  Cl  Cl17  1  0.187998  0.414560  0.588670  1
