# generated using pymatgen
data_Hf18Be2CrRe7
_symmetry_space_group_name_H-M   'P 1'
_cell_length_a   8.50706701
_cell_length_b   8.50698028
_cell_length_c   8.56925501
_cell_angle_alpha   90.00163220
_cell_angle_beta   90.00365727
_cell_angle_gamma   119.99808085
_symmetry_Int_Tables_number   1
_chemical_formula_structural   Hf18Be2CrRe7
_chemical_formula_sum   'Hf18 Be2 Cr1 Re7'
_cell_volume   537.07801450
_cell_formula_units_Z   1
loop_
 _symmetry_equiv_pos_site_id
 _symmetry_equiv_pos_as_xyz
  1  'x, y, z'
loop_
 _atom_site_type_symbol
 _atom_site_label
 _atom_site_symmetry_multiplicity
 _atom_site_fract_x
 _atom_site_fract_y
 _atom_site_fract_z
 _atom_site_occupancy
  Hf  Hf0  1  0.196902  0.803088  0.446906  1
  Hf  Hf1  1  0.196893  0.393804  0.446857  1
  Hf  Hf2  1  0.606189  0.803096  0.446879  1
  Hf  Hf3  1  0.803098  0.196912  0.553094  1
  Hf  Hf4  1  0.803107  0.606196  0.553143  1
  Hf  Hf5  1  0.393811  0.196904  0.553121  1
  Hf  Hf6  1  0.802240  0.197774  0.946253  1
  Hf  Hf7  1  0.802240  0.604472  0.946266  1
  Hf  Hf8  1  0.395533  0.197767  0.946256  1
  Hf  Hf9  1  0.197760  0.802226  0.053747  1
  Hf  Hf10  1  0.197760  0.395528  0.053734  1
  Hf  Hf11  1  0.604467  0.802233  0.053744  1
  Hf  Hf12  1  0.539884  0.460113  0.250488  1
  Hf  Hf13  1  0.539875  0.079767  0.250503  1
  Hf  Hf14  1  0.920232  0.460130  0.250489  1
  Hf  Hf15  1  0.460116  0.539887  0.749512  1
  Hf  Hf16  1  0.460125  0.920233  0.749497  1
  Hf  Hf17  1  0.079768  0.539870  0.749511  1
  Be  Be18  1  0.333330  0.666659  0.249968  1
  Be  Be19  1  0.666670  0.333341  0.750032  1
  Cr  Cr20  1  0.000000  0.000000  0.500000  1
  Re  Re21  1  0.890636  0.109421  0.253952  1
  Re  Re22  1  0.890610  0.781212  0.254006  1
  Re  Re23  1  0.218787  0.109390  0.253994  1
  Re  Re24  1  0.109364  0.890579  0.746048  1
  Re  Re25  1  0.109390  0.218788  0.745994  1
  Re  Re26  1  0.781213  0.890610  0.746006  1
  Re  Re27  1  0.000000  0.000000  0.000000  1
