# generated using pymatgen
data_Er5Tm5(Bi3C)2
_symmetry_space_group_name_H-M   'P 1'
_cell_length_a   9.06810351
_cell_length_b   9.07337677
_cell_length_c   6.43032300
_cell_angle_alpha   90.00000000
_cell_angle_beta   90.00000000
_cell_angle_gamma   120.01923669
_symmetry_Int_Tables_number   1
_chemical_formula_structural   Er5Tm5(Bi3C)2
_chemical_formula_sum   'Er5 Tm5 Bi6 C2'
_cell_volume   458.10456245
_cell_formula_units_Z   1
loop_
 _symmetry_equiv_pos_site_id
 _symmetry_equiv_pos_as_xyz
  1  'x, y, z'
loop_
 _atom_site_type_symbol
 _atom_site_label
 _atom_site_symmetry_multiplicity
 _atom_site_fract_x
 _atom_site_fract_y
 _atom_site_fract_z
 _atom_site_occupancy
  Er  Er0  1  0.666690  0.333327  0.999866  1
  Er  Er1  1  0.333310  0.666638  0.999866  1
  Er  Er2  1  0.333310  0.666638  0.500134  1
  Er  Er3  1  0.666690  0.333327  0.500134  1
  Er  Er4  1  0.000000  0.793278  0.250000  1
  Tm  Tm5  1  0.794523  0.794694  0.750000  1
  Tm  Tm6  1  0.205477  0.000171  0.750000  1
  Tm  Tm7  1  0.000000  0.205455  0.750000  1
  Tm  Tm8  1  0.205509  0.205608  0.250000  1
  Tm  Tm9  1  0.794491  0.000099  0.250000  1
  Bi  Bi10  1  0.401053  0.401022  0.750000  1
  Bi  Bi11  1  0.598947  0.999969  0.750000  1
  Bi  Bi12  1  0.000000  0.598941  0.750000  1
  Bi  Bi13  1  0.598660  0.598865  0.250000  1
  Bi  Bi14  1  0.401340  0.000205  0.250000  1
  Bi  Bi15  1  0.000000  0.400859  0.250000  1
  C  C16  1  0.000000  0.000453  0.999525  1
  C  C17  1  0.000000  0.000453  0.500475  1
