# generated using pymatgen
data_LaThHgPt2
_symmetry_space_group_name_H-M   'P 1'
_cell_length_a   8.04062900
_cell_length_b   8.02515700
_cell_length_c   3.82634800
_cell_angle_alpha   90.00000000
_cell_angle_beta   90.00000000
_cell_angle_gamma   90.00000000
_symmetry_Int_Tables_number   1
_chemical_formula_structural   LaThHgPt2
_chemical_formula_sum   'La2 Th2 Hg2 Pt4'
_cell_volume   246.90394396
_cell_formula_units_Z   2
loop_
 _symmetry_equiv_pos_site_id
 _symmetry_equiv_pos_as_xyz
  1  'x, y, z'
loop_
 _atom_site_type_symbol
 _atom_site_label
 _atom_site_symmetry_multiplicity
 _atom_site_fract_x
 _atom_site_fract_y
 _atom_site_fract_z
 _atom_site_occupancy
  La  La0  1  0.826917  0.673183  0.500000  1
  La  La1  1  0.673083  0.173183  0.500000  1
  Th  Th2  1  0.169763  0.328796  0.500000  1
  Th  Th3  1  0.330237  0.828796  0.500000  1
  Hg  Hg4  1  0.501864  0.497475  0.000000  1
  Hg  Hg5  1  0.998136  0.997475  0.000000  1
  Pt  Pt6  1  0.615004  0.871577  0.000000  1
  Pt  Pt7  1  0.139984  0.628968  0.000000  1
  Pt  Pt8  1  0.884996  0.371577  0.000000  1
  Pt  Pt9  1  0.360016  0.128968  0.000000  1
