# generated using pymatgen
data_Ca5La9(Y3Sn8)2
_symmetry_space_group_name_H-M   'P 1'
_cell_length_a   8.10631255
_cell_length_b   8.54025557
_cell_length_c   16.14253700
_cell_angle_alpha   89.96899814
_cell_angle_beta   90.11578172
_cell_angle_gamma   90.01584196
_symmetry_Int_Tables_number   1
_chemical_formula_structural   Ca5La9(Y3Sn8)2
_chemical_formula_sum   'Ca5 La9 Y6 Sn16'
_cell_volume   1117.54504126
_cell_formula_units_Z   1
loop_
 _symmetry_equiv_pos_site_id
 _symmetry_equiv_pos_as_xyz
  1  'x, y, z'
loop_
 _atom_site_type_symbol
 _atom_site_label
 _atom_site_symmetry_multiplicity
 _atom_site_fract_x
 _atom_site_fract_y
 _atom_site_fract_z
 _atom_site_occupancy
  Ca  Ca0  1  0.330727  0.830726  0.622248  1
  Ca  Ca1  1  0.164417  0.498505  0.748856  1
  Ca  Ca2  1  0.662924  0.002212  0.748302  1
  Ca  Ca3  1  0.835981  0.502300  0.250377  1
  Ca  Ca4  1  0.335602  0.997346  0.250007  1
  La  La5  1  0.833939  0.673268  0.876984  1
  La  La6  1  0.492301  0.317437  0.904863  1
  La  La7  1  0.992753  0.182349  0.595478  1
  La  La8  1  0.507269  0.681959  0.403612  1
  La  La9  1  0.008654  0.818492  0.097472  1
  La  La10  1  0.507280  0.679953  0.096621  1
  La  La11  1  0.007451  0.818608  0.403951  1
  La  La12  1  0.491459  0.316958  0.594984  1
  La  La13  1  0.994003  0.182357  0.904598  1
  Y  Y14  1  0.333667  0.827974  0.876068  1
  Y  Y15  1  0.831885  0.671063  0.623678  1
  Y  Y16  1  0.667613  0.170364  0.374755  1
  Y  Y17  1  0.167123  0.329064  0.125731  1
  Y  Y18  1  0.666307  0.171378  0.126421  1
  Y  Y19  1  0.168598  0.328705  0.375018  1
  Sn  Sn20  1  0.325385  0.039436  0.037596  1
  Sn  Sn21  1  0.826750  0.460816  0.462243  1
  Sn  Sn22  1  0.676495  0.961575  0.535510  1
  Sn  Sn23  1  0.181081  0.538405  0.965092  1
  Sn  Sn24  1  0.668199  0.965794  0.964590  1
  Sn  Sn25  1  0.166514  0.534327  0.537063  1
  Sn  Sn26  1  0.330740  0.039821  0.459654  1
  Sn  Sn27  1  0.827358  0.456671  0.040355  1
  Sn  Sn28  1  0.530328  0.609839  0.747146  1
  Sn  Sn29  1  0.033292  0.890640  0.750086  1
  Sn  Sn30  1  0.468840  0.384337  0.250526  1
  Sn  Sn31  1  0.968850  0.116096  0.250439  1
  Sn  Sn32  1  0.291692  0.137570  0.750456  1
  Sn  Sn33  1  0.790551  0.363530  0.748714  1
  Sn  Sn34  1  0.707324  0.865641  0.250165  1
  Sn  Sn35  1  0.206645  0.634479  0.250341  1
