# generated using pymatgen
data_Eu3Er2(In2Pd)2
_symmetry_space_group_name_H-M   'P 1'
_cell_length_a   3.75387300
_cell_length_b   8.39020227
_cell_length_c   18.57180660
_cell_angle_alpha   90.02902569
_cell_angle_beta   90.00000000
_cell_angle_gamma   90.00000000
_symmetry_Int_Tables_number   1
_chemical_formula_structural   Eu3Er2(In2Pd)2
_chemical_formula_sum   'Eu6 Er4 In8 Pd4'
_cell_volume   584.93297241
_cell_formula_units_Z   2
loop_
 _symmetry_equiv_pos_site_id
 _symmetry_equiv_pos_as_xyz
  1  'x, y, z'
loop_
 _atom_site_type_symbol
 _atom_site_label
 _atom_site_symmetry_multiplicity
 _atom_site_fract_x
 _atom_site_fract_y
 _atom_site_fract_z
 _atom_site_occupancy
  Eu  Eu0  1  0.000000  0.500019  0.499987  1
  Eu  Eu1  1  0.000000  0.999848  0.000051  1
  Eu  Eu2  1  0.000000  0.734278  0.285176  1
  Eu  Eu3  1  0.000000  0.266122  0.714787  1
  Eu  Eu4  1  0.000000  0.765760  0.785201  1
  Eu  Eu5  1  0.000000  0.233897  0.214703  1
  Er  Er6  1  0.000000  0.622137  0.086851  1
  Er  Er7  1  0.000000  0.378013  0.913359  1
  Er  Er8  1  0.000000  0.877959  0.586794  1
  Er  Er9  1  0.000000  0.121933  0.413120  1
  In  In10  1  0.500000  0.691320  0.937058  1
  In  In11  1  0.500000  0.308699  0.062967  1
  In  In12  1  0.500000  0.808453  0.436842  1
  In  In13  1  0.500000  0.191575  0.562955  1
  In  In14  1  0.500000  0.586509  0.653557  1
  In  In15  1  0.500000  0.413594  0.346498  1
  In  In16  1  0.500000  0.913550  0.153584  1
  In  In17  1  0.500000  0.086607  0.846539  1
  Pd  Pd18  1  0.500000  0.521974  0.190093  1
  Pd  Pd19  1  0.500000  0.477924  0.810032  1
  Pd  Pd20  1  0.500000  0.978021  0.690004  1
  Pd  Pd21  1  0.500000  0.021807  0.309843  1
