# generated using pymatgen
data_Ho4Tm2InHg9
_symmetry_space_group_name_H-M   'P 1'
_cell_length_a   6.34410615
_cell_length_b   6.30649526
_cell_length_c   10.22759800
_cell_angle_alpha   90.00000000
_cell_angle_beta   90.00000000
_cell_angle_gamma   104.41870619
_symmetry_Int_Tables_number   1
_chemical_formula_structural   Ho4Tm2InHg9
_chemical_formula_sum   'Ho4 Tm2 In1 Hg9'
_cell_volume   396.30782634
_cell_formula_units_Z   1
loop_
 _symmetry_equiv_pos_site_id
 _symmetry_equiv_pos_as_xyz
  1  'x, y, z'
loop_
 _atom_site_type_symbol
 _atom_site_label
 _atom_site_symmetry_multiplicity
 _atom_site_fract_x
 _atom_site_fract_y
 _atom_site_fract_z
 _atom_site_occupancy
  Ho  Ho0  1  0.214188  0.791817  0.504523  1
  Ho  Ho1  1  0.214188  0.791817  0.995477  1
  Ho  Ho2  1  0.784840  0.210264  0.500060  1
  Ho  Ho3  1  0.784840  0.210264  0.999940  1
  Tm  Tm4  1  0.582267  0.582747  0.250000  1
  Tm  Tm5  1  0.417018  0.416525  0.750000  1
  In  In6  1  0.051227  0.487500  0.250000  1
  Hg  Hg7  1  0.982266  0.975400  0.250000  1
  Hg  Hg8  1  0.016457  0.016934  0.750000  1
  Hg  Hg9  1  0.296951  0.302360  0.031135  1
  Hg  Hg10  1  0.700988  0.699566  0.969479  1
  Hg  Hg11  1  0.296951  0.302360  0.468865  1
  Hg  Hg12  1  0.700988  0.699566  0.530521  1
  Hg  Hg13  1  0.486380  0.046839  0.250000  1
  Hg  Hg14  1  0.953830  0.509960  0.750000  1
  Hg  Hg15  1  0.516619  0.956081  0.750000  1
