# generated using pymatgen
data_Li2Yb3Pr(ZnSi3)2
_symmetry_space_group_name_H-M   'P 1'
_cell_length_a   9.39538965
_cell_length_b   9.39538932
_cell_length_c   6.80729339
_cell_angle_alpha   89.67773563
_cell_angle_beta   90.32226328
_cell_angle_gamma   153.39272488
_symmetry_Int_Tables_number   1
_chemical_formula_structural   Li2Yb3Pr(ZnSi3)2
_chemical_formula_sum   'Li2 Yb3 Pr1 Zn2 Si6'
_cell_volume   269.12330314
_cell_formula_units_Z   1
loop_
 _symmetry_equiv_pos_site_id
 _symmetry_equiv_pos_as_xyz
  1  'x, y, z'
loop_
 _atom_site_type_symbol
 _atom_site_label
 _atom_site_symmetry_multiplicity
 _atom_site_fract_x
 _atom_site_fract_y
 _atom_site_fract_z
 _atom_site_occupancy
  Li  Li0  1  0.812563  0.187437  0.939910  1
  Li  Li1  1  0.186874  0.813126  0.438330  1
  Yb  Yb2  1  0.553408  0.446592  0.255244  1
  Yb  Yb3  1  0.656767  0.343233  0.744907  1
  Yb  Yb4  1  0.342657  0.657343  0.245514  1
  Pr  Pr5  1  0.446817  0.553183  0.755109  1
  Zn  Zn6  1  0.192375  0.807625  0.053395  1
  Zn  Zn7  1  0.807685  0.192315  0.553090  1
  Si  Si8  1  0.278008  0.721992  0.747776  1
  Si  Si9  1  0.722493  0.277507  0.247526  1
  Si  Si10  1  0.940373  0.059627  0.428350  1
  Si  Si11  1  0.056059  0.943941  0.580973  1
  Si  Si12  1  0.944208  0.055792  0.080552  1
  Si  Si13  1  0.059715  0.940285  0.929328  1
