# generated using pymatgen
data_ErScCoB6
_symmetry_space_group_name_H-M   'P 1'
_cell_length_a   3.42224900
_cell_length_b   8.90698200
_cell_length_c   11.24602400
_cell_angle_alpha   90.00000000
_cell_angle_beta   90.00000000
_cell_angle_gamma   90.00000000
_symmetry_Int_Tables_number   1
_chemical_formula_structural   ErScCoB6
_chemical_formula_sum   'Er4 Sc4 Co4 B24'
_cell_volume   342.80029415
_cell_formula_units_Z   4
loop_
 _symmetry_equiv_pos_site_id
 _symmetry_equiv_pos_as_xyz
  1  'x, y, z'
loop_
 _atom_site_type_symbol
 _atom_site_label
 _atom_site_symmetry_multiplicity
 _atom_site_fract_x
 _atom_site_fract_y
 _atom_site_fract_z
 _atom_site_occupancy
  Er  Er0  1  0.000000  0.822454  0.085420  1
  Er  Er1  1  0.000000  0.177546  0.914580  1
  Er  Er2  1  0.000000  0.322454  0.414580  1
  Er  Er3  1  0.000000  0.677546  0.585420  1
  Sc  Sc4  1  0.000000  0.444197  0.128357  1
  Sc  Sc5  1  0.000000  0.555803  0.871643  1
  Sc  Sc6  1  0.000000  0.944197  0.371643  1
  Sc  Sc7  1  0.000000  0.055803  0.628357  1
  Co  Co8  1  0.000000  0.141850  0.182063  1
  Co  Co9  1  0.000000  0.858150  0.817937  1
  Co  Co10  1  0.000000  0.641850  0.317937  1
  Co  Co11  1  0.000000  0.358150  0.682063  1
  B  B12  1  0.500000  0.055305  0.067399  1
  B  B13  1  0.500000  0.944695  0.932601  1
  B  B14  1  0.500000  0.555305  0.432601  1
  B  B15  1  0.500000  0.444695  0.567399  1
  B  B16  1  0.500000  0.251475  0.082453  1
  B  B17  1  0.500000  0.748525  0.917547  1
  B  B18  1  0.500000  0.751475  0.417547  1
  B  B19  1  0.500000  0.248525  0.582453  1
  B  B20  1  0.500000  0.294275  0.235780  1
  B  B21  1  0.500000  0.705725  0.764220  1
  B  B22  1  0.500000  0.794275  0.264220  1
  B  B23  1  0.500000  0.205725  0.735780  1
  B  B24  1  0.500000  0.131286  0.317210  1
  B  B25  1  0.500000  0.868714  0.682790  1
  B  B26  1  0.500000  0.631286  0.182790  1
  B  B27  1  0.500000  0.368714  0.817210  1
  B  B28  1  0.500000  0.484592  0.286382  1
  B  B29  1  0.500000  0.515408  0.713618  1
  B  B30  1  0.500000  0.984592  0.213618  1
  B  B31  1  0.500000  0.015408  0.786382  1
  B  B32  1  0.500000  0.100193  0.473321  1
  B  B33  1  0.500000  0.899807  0.526679  1
  B  B34  1  0.500000  0.600193  0.026679  1
  B  B35  1  0.500000  0.399807  0.973321  1
