# generated using pymatgen
data_Dy2YIn3Pt2Au
_symmetry_space_group_name_H-M   'P 1'
_cell_length_a   7.81768972
_cell_length_b   7.81921618
_cell_length_c   3.79876100
_cell_angle_alpha   90.00000000
_cell_angle_beta   90.00000000
_cell_angle_gamma   119.99444377
_symmetry_Int_Tables_number   1
_chemical_formula_structural   Dy2YIn3Pt2Au
_chemical_formula_sum   'Dy2 Y1 In3 Pt2 Au1'
_cell_volume   201.11226866
_cell_formula_units_Z   1
loop_
 _symmetry_equiv_pos_site_id
 _symmetry_equiv_pos_as_xyz
  1  'x, y, z'
loop_
 _atom_site_type_symbol
 _atom_site_label
 _atom_site_symmetry_multiplicity
 _atom_site_fract_x
 _atom_site_fract_y
 _atom_site_fract_z
 _atom_site_occupancy
  Dy  Dy0  1  0.604511  0.013712  0.500000  1
  Dy  Dy1  1  0.409529  0.395690  0.500000  1
  Y  Y2  1  0.985971  0.590513  0.500000  1
  In  In3  1  0.736978  0.738141  0.000000  1
  In  In4  1  0.001428  0.263248  0.000000  1
  In  In5  1  0.261866  0.998589  0.000000  1
  Pt  Pt6  1  0.666069  0.332876  0.000000  1
  Pt  Pt7  1  0.000070  0.000440  0.500000  1
  Au  Au8  1  0.333577  0.666790  0.000000  1
