# generated using pymatgen
data_La4I5N
_symmetry_space_group_name_H-M   'P 1'
_cell_length_a   4.13364237
_cell_length_b   9.02317402
_cell_length_c   9.97318540
_cell_angle_alpha   103.14910299
_cell_angle_beta   101.96053894
_cell_angle_gamma   90.00000024
_symmetry_Int_Tables_number   1
_chemical_formula_structural   La4I5N
_chemical_formula_sum   'La4 I5 N1'
_cell_volume   353.93458628
_cell_formula_units_Z   1
loop_
 _symmetry_equiv_pos_site_id
 _symmetry_equiv_pos_as_xyz
  1  'x, y, z'
loop_
 _atom_site_type_symbol
 _atom_site_label
 _atom_site_symmetry_multiplicity
 _atom_site_fract_x
 _atom_site_fract_y
 _atom_site_fract_z
 _atom_site_occupancy
  La  La0  1  0.131477  0.066257  0.262954  1
  La  La1  1  0.868523  0.933743  0.737046  1
  La  La2  1  0.498836  0.192777  0.997671  1
  La  La3  1  0.501164  0.807223  0.002329  1
  I  I4  1  0.328928  0.180039  0.657856  1
  I  I5  1  0.671072  0.819961  0.342144  1
  I  I6  1  0.334050  0.652765  0.668102  1
  I  I7  1  0.665950  0.347235  0.331898  1
  I  I8  1  0.000000  0.500000  0.000000  1
  N  N9  1  0.000000  0.000000  0.000000  1
