# generated using pymatgen
data_Ho12Fe4AgSn
_symmetry_space_group_name_H-M   'P 1'
_cell_length_a   8.34673557
_cell_length_b   8.34673628
_cell_length_c   8.34673647
_cell_angle_alpha   111.05308957
_cell_angle_beta   110.67904117
_cell_angle_gamma   106.71639475
_symmetry_Int_Tables_number   1
_chemical_formula_structural   Ho12Fe4AgSn
_chemical_formula_sum   'Ho12 Fe4 Ag1 Sn1'
_cell_volume   446.86280175
_cell_formula_units_Z   1
loop_
 _symmetry_equiv_pos_site_id
 _symmetry_equiv_pos_as_xyz
  1  'x, y, z'
loop_
 _atom_site_type_symbol
 _atom_site_label
 _atom_site_symmetry_multiplicity
 _atom_site_fract_x
 _atom_site_fract_y
 _atom_site_fract_z
 _atom_site_occupancy
  Ho  Ho0  1  0.429003  0.221286  0.207717  1
  Ho  Ho1  1  0.570997  0.778714  0.792283  1
  Ho  Ho2  1  0.013568  0.221286  0.792283  1
  Ho  Ho3  1  0.986432  0.778714  0.207717  1
  Ho  Ho4  1  0.188760  0.291258  0.480019  1
  Ho  Ho5  1  0.811240  0.708742  0.519981  1
  Ho  Ho6  1  0.188760  0.708742  0.897501  1
  Ho  Ho7  1  0.811240  0.291258  0.102499  1
  Ho  Ho8  1  0.310951  0.611437  0.300486  1
  Ho  Ho9  1  0.689049  0.388563  0.699514  1
  Ho  Ho10  1  0.310951  0.010466  0.699514  1
  Ho  Ho11  1  0.689049  0.989534  0.300486  1
  Fe  Fe12  1  0.385288  0.000000  0.385288  1
  Fe  Fe13  1  0.614712  0.000000  0.614712  1
  Fe  Fe14  1  0.107921  0.607921  0.500000  1
  Fe  Fe15  1  0.892079  0.392079  0.500000  1
  Ag  Ag16  1  0.000000  0.000000  0.000000  1
  Sn  Sn17  1  0.500000  0.500000  0.000000  1
