# generated using pymatgen
data_RbNaP2Pd
_symmetry_space_group_name_H-M   'P 1'
_cell_length_a   7.04320644
_cell_length_b   7.04320678
_cell_length_c   6.03351200
_cell_angle_alpha   90.00000000
_cell_angle_beta   90.00000000
_cell_angle_gamma   124.53675527
_symmetry_Int_Tables_number   1
_chemical_formula_structural   RbNaP2Pd
_chemical_formula_sum   'Rb2 Na2 P4 Pd2'
_cell_volume   246.55462004
_cell_formula_units_Z   2
loop_
 _symmetry_equiv_pos_site_id
 _symmetry_equiv_pos_as_xyz
  1  'x, y, z'
loop_
 _atom_site_type_symbol
 _atom_site_label
 _atom_site_symmetry_multiplicity
 _atom_site_fract_x
 _atom_site_fract_y
 _atom_site_fract_z
 _atom_site_occupancy
  Rb  Rb0  1  0.401839  0.598161  0.250000  1
  Rb  Rb1  1  0.598161  0.401839  0.750000  1
  Na  Na2  1  0.788769  0.211231  0.250000  1
  Na  Na3  1  0.211231  0.788769  0.750000  1
  P  P4  1  0.957829  0.708948  0.250000  1
  P  P5  1  0.042171  0.291052  0.750000  1
  P  P6  1  0.291052  0.042171  0.250000  1
  P  P7  1  0.708948  0.957829  0.750000  1
  Pd  Pd8  1  0.000000  0.000000  0.000000  1
  Pd  Pd9  1  0.000000  0.000000  0.500000  1
