# generated using pymatgen
data_Nd3Ag3HgGe2
_symmetry_space_group_name_H-M   'P 1'
_cell_length_a   7.53733700
_cell_length_b   7.53733697
_cell_length_c   4.31702500
_cell_angle_alpha   90.00000000
_cell_angle_beta   90.00000000
_cell_angle_gamma   120.00000450
_symmetry_Int_Tables_number   1
_chemical_formula_structural   Nd3Ag3HgGe2
_chemical_formula_sum   'Nd3 Ag3 Hg1 Ge2'
_cell_volume   212.39830216
_cell_formula_units_Z   1
loop_
 _symmetry_equiv_pos_site_id
 _symmetry_equiv_pos_as_xyz
  1  'x, y, z'
loop_
 _atom_site_type_symbol
 _atom_site_label
 _atom_site_symmetry_multiplicity
 _atom_site_fract_x
 _atom_site_fract_y
 _atom_site_fract_z
 _atom_site_occupancy
  Nd  Nd0  1  0.416929  0.416929  0.500000  1
  Nd  Nd1  1  0.583071  0.000000  0.500000  1
  Nd  Nd2  1  0.000000  0.583071  0.500000  1
  Ag  Ag3  1  0.736200  0.736200  0.000000  1
  Ag  Ag4  1  0.263800  0.000000  0.000000  1
  Ag  Ag5  1  0.000000  0.263800  0.000000  1
  Hg  Hg6  1  0.000000  0.000000  0.500000  1
  Ge  Ge7  1  0.666667  0.333333  0.000000  1
  Ge  Ge8  1  0.333333  0.666667  0.000000  1
