# generated using pymatgen
data_Na7TlS24
_symmetry_space_group_name_H-M   'P 1'
_cell_length_a   11.17648502
_cell_length_b   6.08564087
_cell_length_c   13.08360497
_cell_angle_alpha   73.47727820
_cell_angle_beta   90.53920143
_cell_angle_gamma   90.09383113
_symmetry_Int_Tables_number   1
_chemical_formula_structural   Na7TlS24
_chemical_formula_sum   'Na7 Tl1 S24'
_cell_volume   853.11073660
_cell_formula_units_Z   1
loop_
 _symmetry_equiv_pos_site_id
 _symmetry_equiv_pos_as_xyz
  1  'x, y, z'
loop_
 _atom_site_type_symbol
 _atom_site_label
 _atom_site_symmetry_multiplicity
 _atom_site_fract_x
 _atom_site_fract_y
 _atom_site_fract_z
 _atom_site_occupancy
  Na  Na0  1  0.627269  0.187642  0.038945  1
  Na  Na1  1  0.869985  0.191308  0.529684  1
  Na  Na2  1  0.368550  0.805032  0.969829  1
  Na  Na3  1  0.130721  0.807189  0.462340  1
  Na  Na4  1  0.622676  0.724240  0.539177  1
  Na  Na5  1  0.874928  0.728992  0.054091  1
  Na  Na6  1  0.377179  0.270892  0.459799  1
  Tl  Tl7  1  0.105150  0.322021  0.915088  1
  S  S8  1  0.376730  0.269698  0.000125  1
  S  S9  1  0.126107  0.255300  0.507150  1
  S  S10  1  0.626065  0.741901  0.996160  1
  S  S11  1  0.875520  0.730063  0.498188  1
  S  S12  1  0.440668  0.452259  0.851913  1
  S  S13  1  0.068186  0.444625  0.356858  1
  S  S14  1  0.567441  0.553154  0.145154  1
  S  S15  1  0.931430  0.539593  0.648710  1
  S  S16  1  0.337775  0.401132  0.731559  1
  S  S17  1  0.175492  0.393167  0.242051  1
  S  S18  1  0.674565  0.604263  0.261950  1
  S  S19  1  0.824035  0.598976  0.762495  1
  S  S20  1  0.388491  0.066821  0.716647  1
  S  S21  1  0.117676  0.063246  0.220775  1
  S  S22  1  0.616001  0.934713  0.283038  1
  S  S23  1  0.884050  0.928549  0.778336  1
  S  S24  1  0.569140  0.061825  0.702681  1
  S  S25  1  0.936608  0.065451  0.214626  1
  S  S26  1  0.435712  0.929580  0.295023  1
  S  S27  1  0.064665  0.909670  0.798854  1
  S  S28  1  0.615508  0.222990  0.546172  1
  S  S29  1  0.877108  0.232773  0.062415  1
  S  S30  1  0.386221  0.770941  0.450933  1
  S  S31  1  0.108344  0.791994  0.959235  1
