# generated using pymatgen
data_Dy2(SeO3)3
_symmetry_space_group_name_H-M   'P 1'
_cell_length_a   7.11172490
_cell_length_b   8.16280638
_cell_length_c   9.10850441
_cell_angle_alpha   71.44166394
_cell_angle_beta   69.99530548
_cell_angle_gamma   66.06882008
_symmetry_Int_Tables_number   1
_chemical_formula_structural   Dy2(SeO3)3
_chemical_formula_sum   'Dy4 Se6 O18'
_cell_volume   444.11797085
_cell_formula_units_Z   2
loop_
 _symmetry_equiv_pos_site_id
 _symmetry_equiv_pos_as_xyz
  1  'x, y, z'
loop_
 _atom_site_type_symbol
 _atom_site_label
 _atom_site_symmetry_multiplicity
 _atom_site_fract_x
 _atom_site_fract_y
 _atom_site_fract_z
 _atom_site_occupancy
  Dy  Dy0  1  0.334626  0.726850  0.590412  1
  Dy  Dy1  1  0.665374  0.273150  0.409588  1
  Dy  Dy2  1  0.741741  0.735876  0.797675  1
  Dy  Dy3  1  0.258259  0.264124  0.202325  1
  Se  Se4  1  0.427698  0.775239  0.198423  1
  Se  Se5  1  0.572302  0.224761  0.801577  1
  Se  Se6  1  0.147933  0.749725  0.964801  1
  Se  Se7  1  0.852067  0.250275  0.035199  1
  Se  Se8  1  0.886392  0.760364  0.414756  1
  Se  Se9  1  0.113608  0.239636  0.585244  1
  O  O10  1  0.649215  0.791509  0.051126  1
  O  O11  1  0.350785  0.208491  0.948874  1
  O  O12  1  0.360772  0.943348  0.304462  1
  O  O13  1  0.639228  0.056652  0.695538  1
  O  O14  1  0.517506  0.594607  0.351367  1
  O  O15  1  0.482494  0.405393  0.648633  1
  O  O16  1  0.166781  0.566618  0.120219  1
  O  O17  1  0.833219  0.433382  0.879781  1
  O  O18  1  0.407838  0.710634  0.849092  1
  O  O19  1  0.592162  0.289366  0.150908  1
  O  O20  1  0.343727  0.252841  0.436422  1
  O  O21  1  0.656273  0.747159  0.563578  1
  O  O22  1  0.967397  0.292725  0.445432  1
  O  O23  1  0.032603  0.707275  0.554568  1
  O  O24  1  0.159508  0.012322  0.653431  1
  O  O25  1  0.840492  0.987678  0.346569  1
  O  O26  1  0.932634  0.306158  0.167915  1
  O  O27  1  0.067366  0.693842  0.832085  1
