# generated using pymatgen
data_RbNb2Cl11
_symmetry_space_group_name_H-M   'P 1'
_cell_length_a   7.24432534
_cell_length_b   7.30143470
_cell_length_c   18.03908665
_cell_angle_alpha   79.00587574
_cell_angle_beta   78.85748948
_cell_angle_gamma   88.13690639
_symmetry_Int_Tables_number   1
_chemical_formula_structural   RbNb2Cl11
_chemical_formula_sum   'Rb2 Nb4 Cl22'
_cell_volume   918.98140248
_cell_formula_units_Z   2
loop_
 _symmetry_equiv_pos_site_id
 _symmetry_equiv_pos_as_xyz
  1  'x, y, z'
loop_
 _atom_site_type_symbol
 _atom_site_label
 _atom_site_symmetry_multiplicity
 _atom_site_fract_x
 _atom_site_fract_y
 _atom_site_fract_z
 _atom_site_occupancy
  Rb  Rb0  1  0.747087  0.747245  0.503906  1
  Rb  Rb1  1  0.252913  0.252755  0.496094  1
  Nb  Nb2  1  0.324465  0.821931  0.338845  1
  Nb  Nb3  1  0.675535  0.178069  0.661155  1
  Nb  Nb4  1  0.830317  0.329559  0.087215  1
  Nb  Nb5  1  0.169683  0.670441  0.912785  1
  Cl  Cl6  1  0.253897  0.771023  0.483937  1
  Cl  Cl7  1  0.746103  0.228977  0.516063  1
  Cl  Cl8  1  0.570139  0.024158  0.344778  1
  Cl  Cl9  1  0.429861  0.975842  0.655222  1
  Cl  Cl10  1  0.536800  0.565162  0.351829  1
  Cl  Cl11  1  0.463200  0.434838  0.648171  1
  Cl  Cl12  1  0.385734  0.860576  0.207059  1
  Cl  Cl13  1  0.614266  0.139424  0.792941  1
  Cl  Cl14  1  0.071438  0.608449  0.352926  1
  Cl  Cl15  1  0.928562  0.391551  0.647074  1
  Cl  Cl16  1  0.109798  0.074266  0.340110  1
  Cl  Cl17  1  0.890202  0.925734  0.659890  1
  Cl  Cl18  1  0.898702  0.036755  0.146658  1
  Cl  Cl19  1  0.101298  0.963245  0.853342  1
  Cl  Cl20  1  0.532237  0.378583  0.149566  1
  Cl  Cl21  1  0.467763  0.621417  0.850434  1
  Cl  Cl22  1  0.724089  0.219937  0.989401  1
  Cl  Cl23  1  0.275911  0.780063  0.010599  1
  Cl  Cl24  1  0.969207  0.475075  0.167362  1
  Cl  Cl25  1  0.030793  0.524925  0.832638  1
  Cl  Cl26  1  0.162574  0.344618  0.999691  1
  Cl  Cl27  1  0.837426  0.655382  0.000309  1
