# generated using pymatgen
data_TmZrCo4P3
_symmetry_space_group_name_H-M   'P 1'
_cell_length_a   12.22422388
_cell_length_b   12.22422453
_cell_length_c   3.69012000
_cell_angle_alpha   90.00000000
_cell_angle_beta   90.00000000
_cell_angle_gamma   119.99291832
_symmetry_Int_Tables_number   1
_chemical_formula_structural   TmZrCo4P3
_chemical_formula_sum   'Tm4 Zr4 Co16 P12'
_cell_volume   477.57844960
_cell_formula_units_Z   4
loop_
 _symmetry_equiv_pos_site_id
 _symmetry_equiv_pos_as_xyz
  1  'x, y, z'
loop_
 _atom_site_type_symbol
 _atom_site_label
 _atom_site_symmetry_multiplicity
 _atom_site_fract_x
 _atom_site_fract_y
 _atom_site_fract_z
 _atom_site_occupancy
  Tm  Tm0  1  0.820052  0.999994  0.500000  1
  Tm  Tm1  1  0.999994  0.820052  0.500000  1
  Tm  Tm2  1  0.333315  0.667088  0.000000  1
  Tm  Tm3  1  0.667088  0.333315  0.000000  1
  Zr  Zr4  1  0.182791  0.182791  0.500000  1
  Zr  Zr5  1  0.443026  0.000619  0.000000  1
  Zr  Zr6  1  0.000619  0.443026  0.000000  1
  Zr  Zr7  1  0.556035  0.556035  0.000000  1
  Co  Co8  1  0.277463  0.002821  0.500000  1
  Co  Co9  1  0.002821  0.277463  0.500000  1
  Co  Co10  1  0.721258  0.721258  0.500000  1
  Co  Co11  1  0.627064  0.804925  0.000000  1
  Co  Co12  1  0.194197  0.823442  0.000000  1
  Co  Co13  1  0.177536  0.370040  0.000000  1
  Co  Co14  1  0.370040  0.177536  0.000000  1
  Co  Co15  1  0.804925  0.627064  0.000000  1
  Co  Co16  1  0.823442  0.194197  0.000000  1
  Co  Co17  1  0.520078  0.874798  0.500000  1
  Co  Co18  1  0.125839  0.646376  0.500000  1
  Co  Co19  1  0.352120  0.476649  0.500000  1
  Co  Co20  1  0.476649  0.352120  0.500000  1
  Co  Co21  1  0.874798  0.520078  0.500000  1
  Co  Co22  1  0.646376  0.125839  0.500000  1
  Co  Co23  1  0.001564  0.001564  0.000000  1
  P  P24  1  0.176615  0.001797  0.000000  1
  P  P25  1  0.001797  0.176615  0.000000  1
  P  P26  1  0.823739  0.823739  0.000000  1
  P  P27  1  0.519756  0.692273  0.500000  1
  P  P28  1  0.307125  0.828891  0.500000  1
  P  P29  1  0.172609  0.480149  0.500000  1
  P  P30  1  0.480149  0.172609  0.500000  1
  P  P31  1  0.692273  0.519756  0.500000  1
  P  P32  1  0.828891  0.307125  0.500000  1
  P  P33  1  0.651468  0.999650  0.000000  1
  P  P34  1  0.999650  0.651468  0.000000  1
  P  P35  1  0.346843  0.346843  0.000000  1
