# generated using pymatgen
data_Rb8Tb2Er4BBr20
_symmetry_space_group_name_H-M   'P 1'
_cell_length_a   12.19745074
_cell_length_b   12.26185038
_cell_length_c   12.26458551
_cell_angle_alpha   60.11282588
_cell_angle_beta   60.19706707
_cell_angle_gamma   60.15819797
_symmetry_Int_Tables_number   1
_chemical_formula_structural   Rb8Tb2Er4BBr20
_chemical_formula_sum   'Rb8 Tb2 Er4 B1 Br20'
_cell_volume   1301.65122078
_cell_formula_units_Z   1
loop_
 _symmetry_equiv_pos_site_id
 _symmetry_equiv_pos_as_xyz
  1  'x, y, z'
loop_
 _atom_site_type_symbol
 _atom_site_label
 _atom_site_symmetry_multiplicity
 _atom_site_fract_x
 _atom_site_fract_y
 _atom_site_fract_z
 _atom_site_occupancy
  Rb  Rb0  1  0.359787  0.359855  0.359092  1
  Rb  Rb1  1  0.640213  0.640145  0.640908  1
  Rb  Rb2  1  0.359534  0.360316  0.921398  1
  Rb  Rb3  1  0.358800  0.921405  0.360311  1
  Rb  Rb4  1  0.640466  0.639684  0.078602  1
  Rb  Rb5  1  0.641200  0.078595  0.639689  1
  Rb  Rb6  1  0.921251  0.359116  0.359878  1
  Rb  Rb7  1  0.078749  0.640884  0.640122  1
  Tb  Tb8  1  0.848751  0.151044  0.151364  1
  Tb  Tb9  1  0.151249  0.848956  0.848636  1
  Er  Er10  1  0.148619  0.848254  0.151852  1
  Er  Er11  1  0.851381  0.151746  0.848148  1
  Er  Er12  1  0.148821  0.151715  0.848083  1
  Er  Er13  1  0.851179  0.848285  0.151917  1
  B  B14  1  0.000000  0.000000  0.000000  1
  Br  Br15  1  0.326142  0.999982  0.000019  1
  Br  Br16  1  0.673858  0.000018  0.999981  1
  Br  Br17  1  0.999930  0.328648  0.671440  1
  Br  Br18  1  0.000070  0.671352  0.328560  1
  Br  Br19  1  0.002953  0.329203  0.997718  1
  Br  Br20  1  0.669904  0.997766  0.329336  1
  Br  Br21  1  0.997047  0.670797  0.002282  1
  Br  Br22  1  0.330096  0.002234  0.670664  1
  Br  Br23  1  0.003061  0.997732  0.329410  1
  Br  Br24  1  0.996939  0.002268  0.670590  1
  Br  Br25  1  0.669876  0.329405  0.997706  1
  Br  Br26  1  0.330124  0.670595  0.002294  1
  Br  Br27  1  0.679869  0.320108  0.320120  1
  Br  Br28  1  0.320131  0.679892  0.679880  1
  Br  Br29  1  0.316641  0.683020  0.316959  1
  Br  Br30  1  0.683359  0.316980  0.683041  1
  Br  Br31  1  0.316540  0.316868  0.683110  1
  Br  Br32  1  0.683460  0.683132  0.316890  1
  Br  Br33  1  0.250052  0.249967  0.249933  1
  Br  Br34  1  0.749948  0.750033  0.750067  1
