# generated using pymatgen
data_Ho3Al3SiPdPt
_symmetry_space_group_name_H-M   'P 1'
_cell_length_a   7.00625800
_cell_length_b   7.00625814
_cell_length_c   4.15487300
_cell_angle_alpha   90.00000000
_cell_angle_beta   90.00000000
_cell_angle_gamma   120.00000877
_symmetry_Int_Tables_number   1
_chemical_formula_structural   Ho3Al3SiPdPt
_chemical_formula_sum   'Ho3 Al3 Si1 Pd1 Pt1'
_cell_volume   176.62842943
_cell_formula_units_Z   1
loop_
 _symmetry_equiv_pos_site_id
 _symmetry_equiv_pos_as_xyz
  1  'x, y, z'
loop_
 _atom_site_type_symbol
 _atom_site_label
 _atom_site_symmetry_multiplicity
 _atom_site_fract_x
 _atom_site_fract_y
 _atom_site_fract_z
 _atom_site_occupancy
  Ho  Ho0  1  0.416759  0.420307  0.500000  1
  Ho  Ho1  1  0.579693  0.996452  0.500000  1
  Ho  Ho2  1  0.003548  0.583241  0.500000  1
  Al  Al3  1  0.009974  0.245800  0.000000  1
  Al  Al4  1  0.754200  0.764173  0.000000  1
  Al  Al5  1  0.235827  0.990026  0.000000  1
  Si  Si6  1  0.666667  0.333333  0.000000  1
  Pd  Pd7  1  0.000000  0.000000  0.500000  1
  Pt  Pt8  1  0.333333  0.666667  0.000000  1
