# generated using pymatgen
data_DyHo3(SiNi2)4
_symmetry_space_group_name_H-M   'P 1'
_cell_length_a   5.40169004
_cell_length_b   6.37790300
_cell_length_c   7.03340602
_cell_angle_alpha   90.00000000
_cell_angle_beta   89.99713028
_cell_angle_gamma   90.00000000
_symmetry_Int_Tables_number   1
_chemical_formula_structural   DyHo3(SiNi2)4
_chemical_formula_sum   'Dy1 Ho3 Si4 Ni8'
_cell_volume   242.31107145
_cell_formula_units_Z   1
loop_
 _symmetry_equiv_pos_site_id
 _symmetry_equiv_pos_as_xyz
  1  'x, y, z'
loop_
 _atom_site_type_symbol
 _atom_site_label
 _atom_site_symmetry_multiplicity
 _atom_site_fract_x
 _atom_site_fract_y
 _atom_site_fract_z
 _atom_site_occupancy
  Dy  Dy0  1  0.349752  0.750000  0.030924  1
  Ho  Ho1  1  0.150623  0.750000  0.530772  1
  Ho  Ho2  1  0.650649  0.250000  0.969168  1
  Ho  Ho3  1  0.849770  0.250000  0.469090  1
  Si  Si4  1  0.650099  0.750000  0.377122  1
  Si  Si5  1  0.850097  0.750000  0.876112  1
  Si  Si6  1  0.350269  0.250000  0.623669  1
  Si  Si7  1  0.150007  0.250000  0.123455  1
  Ni  Ni8  1  0.909302  0.556336  0.172446  1
  Ni  Ni9  1  0.590488  0.943744  0.671882  1
  Ni  Ni10  1  0.089599  0.056631  0.827413  1
  Ni  Ni11  1  0.409978  0.443403  0.328103  1
  Ni  Ni12  1  0.089599  0.443369  0.827413  1
  Ni  Ni13  1  0.409978  0.056597  0.328103  1
  Ni  Ni14  1  0.909302  0.943664  0.172446  1
  Ni  Ni15  1  0.590488  0.556256  0.671882  1
