# generated using pymatgen
data_YTh4Si4Ag
_symmetry_space_group_name_H-M   'P 1'
_cell_length_a   7.59559700
_cell_length_b   7.59559700
_cell_length_c   4.20567500
_cell_angle_alpha   90.00000000
_cell_angle_beta   90.00000000
_cell_angle_gamma   90.00000000
_symmetry_Int_Tables_number   1
_chemical_formula_structural   YTh4Si4Ag
_chemical_formula_sum   'Y1 Th4 Si4 Ag1'
_cell_volume   242.63840221
_cell_formula_units_Z   1
loop_
 _symmetry_equiv_pos_site_id
 _symmetry_equiv_pos_as_xyz
  1  'x, y, z'
loop_
 _atom_site_type_symbol
 _atom_site_label
 _atom_site_symmetry_multiplicity
 _atom_site_fract_x
 _atom_site_fract_y
 _atom_site_fract_z
 _atom_site_occupancy
  Y  Y0  1  0.000000  0.000000  0.000000  1
  Th  Th1  1  0.669167  0.193620  0.500000  1
  Th  Th2  1  0.330833  0.806380  0.500000  1
  Th  Th3  1  0.193620  0.330833  0.500000  1
  Th  Th4  1  0.806380  0.669167  0.500000  1
  Si  Si5  1  0.101030  0.623594  0.000000  1
  Si  Si6  1  0.898970  0.376406  0.000000  1
  Si  Si7  1  0.623594  0.898970  0.000000  1
  Si  Si8  1  0.376406  0.101030  0.000000  1
  Ag  Ag9  1  0.500000  0.500000  0.000000  1
