# generated using pymatgen
data_Tb2Dy6Re(TcB8)3
_symmetry_space_group_name_H-M   'P 1'
_cell_length_a   3.69164300
_cell_length_b   9.17357170
_cell_length_c   11.56132400
_cell_angle_alpha   90.02151252
_cell_angle_beta   90.00000000
_cell_angle_gamma   90.00000000
_symmetry_Int_Tables_number   1
_chemical_formula_structural   Tb2Dy6Re(TcB8)3
_chemical_formula_sum   'Tb2 Dy6 Re1 Tc3 B24'
_cell_volume   391.53058869
_cell_formula_units_Z   1
loop_
 _symmetry_equiv_pos_site_id
 _symmetry_equiv_pos_as_xyz
  1  'x, y, z'
loop_
 _atom_site_type_symbol
 _atom_site_label
 _atom_site_symmetry_multiplicity
 _atom_site_fract_x
 _atom_site_fract_y
 _atom_site_fract_z
 _atom_site_occupancy
  Tb  Tb0  1  0.000000  0.324155  0.414119  1
  Tb  Tb1  1  0.000000  0.676221  0.585928  1
  Dy  Dy2  1  0.000000  0.823965  0.085938  1
  Dy  Dy3  1  0.000000  0.176171  0.914298  1
  Dy  Dy4  1  0.000000  0.942441  0.368801  1
  Dy  Dy5  1  0.000000  0.058130  0.630222  1
  Dy  Dy6  1  0.000000  0.442417  0.131020  1
  Dy  Dy7  1  0.000000  0.556487  0.869531  1
  Re  Re8  1  0.000000  0.861554  0.820778  1
  Tc  Tc9  1  0.000000  0.638784  0.320402  1
  Tc  Tc10  1  0.000000  0.361268  0.679571  1
  Tc  Tc11  1  0.000000  0.138577  0.179367  1
  B  B12  1  0.500000  0.553743  0.432615  1
  B  B13  1  0.500000  0.446513  0.567468  1
  B  B14  1  0.500000  0.053500  0.067284  1
  B  B15  1  0.500000  0.946689  0.933000  1
  B  B16  1  0.500000  0.748718  0.418013  1
  B  B17  1  0.500000  0.251667  0.581878  1
  B  B18  1  0.500000  0.248486  0.081764  1
  B  B19  1  0.500000  0.751075  0.918432  1
  B  B20  1  0.500000  0.791515  0.265243  1
  B  B21  1  0.500000  0.208440  0.734554  1
  B  B22  1  0.500000  0.291424  0.234581  1
  B  B23  1  0.500000  0.708248  0.765611  1
  B  B24  1  0.500000  0.630764  0.185824  1
  B  B25  1  0.500000  0.368947  0.814196  1
  B  B26  1  0.500000  0.130687  0.314057  1
  B  B27  1  0.500000  0.869532  0.685812  1
  B  B28  1  0.500000  0.982530  0.211521  1
  B  B29  1  0.500000  0.017795  0.788208  1
  B  B30  1  0.500000  0.482746  0.288279  1
  B  B31  1  0.500000  0.517178  0.711904  1
  B  B32  1  0.500000  0.600142  0.028157  1
  B  B33  1  0.500000  0.399192  0.972106  1
  B  B34  1  0.500000  0.100120  0.471714  1
  B  B35  1  0.500000  0.900180  0.527804  1
