# generated using pymatgen
data_Ho4ZnPt11
_symmetry_space_group_name_H-M   'P 1'
_cell_length_a   4.15002600
_cell_length_b   5.79631887
_cell_length_c   11.59060290
_cell_angle_alpha   88.16312042
_cell_angle_beta   90.00000000
_cell_angle_gamma   90.00000000
_symmetry_Int_Tables_number   1
_chemical_formula_structural   Ho4ZnPt11
_chemical_formula_sum   'Ho4 Zn1 Pt11'
_cell_volume   278.66722165
_cell_formula_units_Z   1
loop_
 _symmetry_equiv_pos_site_id
 _symmetry_equiv_pos_as_xyz
  1  'x, y, z'
loop_
 _atom_site_type_symbol
 _atom_site_label
 _atom_site_symmetry_multiplicity
 _atom_site_fract_x
 _atom_site_fract_y
 _atom_site_fract_z
 _atom_site_occupancy
  Ho  Ho0  1  0.500000  0.753048  0.373532  1
  Ho  Ho1  1  0.500000  0.728899  0.868149  1
  Ho  Ho2  1  0.500000  0.271101  0.131851  1
  Ho  Ho3  1  0.500000  0.246952  0.626468  1
  Zn  Zn4  1  0.000000  0.000000  0.000000  1
  Pt  Pt5  1  0.000000  0.009433  0.245600  1
  Pt  Pt6  1  0.000000  0.990567  0.754400  1
  Pt  Pt7  1  0.000000  0.500000  0.000000  1
  Pt  Pt8  1  0.000000  0.500000  0.500000  1
  Pt  Pt9  1  0.000000  0.511999  0.248549  1
  Pt  Pt10  1  0.000000  0.488001  0.751451  1
  Pt  Pt11  1  0.500000  0.250679  0.376547  1
  Pt  Pt12  1  0.500000  0.228377  0.883612  1
  Pt  Pt13  1  0.500000  0.771623  0.116388  1
  Pt  Pt14  1  0.500000  0.749321  0.623453  1
  Pt  Pt15  1  0.000000  0.000000  0.500000  1
