# generated using pymatgen
data_TbTh3(InPt2)2
_symmetry_space_group_name_H-M   'P 1'
_cell_length_a   7.96745348
_cell_length_b   7.96745403
_cell_length_c   3.77330200
_cell_angle_alpha   90.00000000
_cell_angle_beta   90.00000000
_cell_angle_gamma   90.39226093
_symmetry_Int_Tables_number   1
_chemical_formula_structural   TbTh3(InPt2)2
_chemical_formula_sum   'Tb1 Th3 In2 Pt4'
_cell_volume   239.52480233
_cell_formula_units_Z   1
loop_
 _symmetry_equiv_pos_site_id
 _symmetry_equiv_pos_as_xyz
  1  'x, y, z'
loop_
 _atom_site_type_symbol
 _atom_site_label
 _atom_site_symmetry_multiplicity
 _atom_site_fract_x
 _atom_site_fract_y
 _atom_site_fract_z
 _atom_site_occupancy
  Tb  Tb0  1  0.826455  0.673545  0.500000  1
  Th  Th1  1  0.674782  0.170237  0.500000  1
  Th  Th2  1  0.329763  0.825218  0.500000  1
  Th  Th3  1  0.168901  0.331099  0.500000  1
  In  In4  1  0.507174  0.501918  0.000000  1
  In  In5  1  0.998082  0.992826  0.000000  1
  Pt  Pt6  1  0.131283  0.629641  0.000000  1
  Pt  Pt7  1  0.870359  0.368717  0.000000  1
  Pt  Pt8  1  0.626639  0.873361  0.000000  1
  Pt  Pt9  1  0.366563  0.133437  0.000000  1
