# generated using pymatgen
data_Gd7Tm(InAu2)4
_symmetry_space_group_name_H-M   'P 1'
_cell_length_a   8.04475100
_cell_length_b   8.04475173
_cell_length_c   7.36997100
_cell_angle_alpha   90.00000000
_cell_angle_beta   90.00000000
_cell_angle_gamma   89.81545101
_symmetry_Int_Tables_number   1
_chemical_formula_structural   Gd7Tm(InAu2)4
_chemical_formula_sum   'Gd7 Tm1 In4 Au8'
_cell_volume   476.96748977
_cell_formula_units_Z   1
loop_
 _symmetry_equiv_pos_site_id
 _symmetry_equiv_pos_as_xyz
  1  'x, y, z'
loop_
 _atom_site_type_symbol
 _atom_site_label
 _atom_site_symmetry_multiplicity
 _atom_site_fract_x
 _atom_site_fract_y
 _atom_site_fract_z
 _atom_site_occupancy
  Gd  Gd0  1  0.833838  0.166162  0.500000  1
  Gd  Gd1  1  0.162851  0.837149  0.500000  1
  Gd  Gd2  1  0.335394  0.334700  0.000000  1
  Gd  Gd3  1  0.665300  0.664606  0.000000  1
  Gd  Gd4  1  0.678597  0.673563  0.500000  1
  Gd  Gd5  1  0.326437  0.321403  0.500000  1
  Gd  Gd6  1  0.175787  0.824213  0.000000  1
  Tm  Tm7  1  0.825345  0.174655  0.000000  1
  In  In8  1  0.501280  0.000416  0.249835  1
  In  In9  1  0.999584  0.498720  0.750165  1
  In  In10  1  0.501280  0.000416  0.750165  1
  In  In11  1  0.999584  0.498720  0.249835  1
  Au  Au12  1  0.631064  0.368936  0.254619  1
  Au  Au13  1  0.372391  0.627609  0.263888  1
  Au  Au14  1  0.124669  0.130761  0.764519  1
  Au  Au15  1  0.869239  0.875331  0.764519  1
  Au  Au16  1  0.372391  0.627609  0.736112  1
  Au  Au17  1  0.631064  0.368936  0.745381  1
  Au  Au18  1  0.869239  0.875331  0.235481  1
  Au  Au19  1  0.124669  0.130761  0.235481  1
