# generated using pymatgen
data_Rb2TiFeSe4
_symmetry_space_group_name_H-M   'P 1'
_cell_length_a   7.40833230
_cell_length_b   7.40833220
_cell_length_c   5.73183558
_cell_angle_alpha   78.87760886
_cell_angle_beta   78.87761822
_cell_angle_gamma   116.60979616
_symmetry_Int_Tables_number   1
_chemical_formula_structural   Rb2TiFeSe4
_chemical_formula_sum   'Rb2 Ti1 Fe1 Se4'
_cell_volume   261.61735086
_cell_formula_units_Z   1
loop_
 _symmetry_equiv_pos_site_id
 _symmetry_equiv_pos_as_xyz
  1  'x, y, z'
loop_
 _atom_site_type_symbol
 _atom_site_label
 _atom_site_symmetry_multiplicity
 _atom_site_fract_x
 _atom_site_fract_y
 _atom_site_fract_z
 _atom_site_occupancy
  Rb  Rb0  1  0.141509  0.858491  0.250000  1
  Rb  Rb1  1  0.858552  0.141448  0.750000  1
  Ti  Ti2  1  0.501294  0.498706  0.250000  1
  Fe  Fe3  1  0.498463  0.501537  0.750000  1
  Se  Se4  1  0.198739  0.416273  0.099810  1
  Se  Se5  1  0.583727  0.801261  0.400190  1
  Se  Se6  1  0.800867  0.583151  0.901189  1
  Se  Se7  1  0.416849  0.199133  0.598811  1
