# generated using pymatgen
data_NaFePdO4
_symmetry_space_group_name_H-M   'P 1'
_cell_length_a   3.04581400
_cell_length_b   9.25331100
_cell_length_c   10.95873700
_cell_angle_alpha   90.00000000
_cell_angle_beta   90.00000000
_cell_angle_gamma   90.00000000
_symmetry_Int_Tables_number   1
_chemical_formula_structural   NaFePdO4
_chemical_formula_sum   'Na4 Fe4 Pd4 O16'
_cell_volume   308.85955530
_cell_formula_units_Z   4
loop_
 _symmetry_equiv_pos_site_id
 _symmetry_equiv_pos_as_xyz
  1  'x, y, z'
loop_
 _atom_site_type_symbol
 _atom_site_label
 _atom_site_symmetry_multiplicity
 _atom_site_fract_x
 _atom_site_fract_y
 _atom_site_fract_z
 _atom_site_occupancy
  Na  Na0  1  0.500000  0.258071  0.904034  1
  Na  Na1  1  0.500000  0.758071  0.095966  1
  Na  Na2  1  0.000000  0.738033  0.589524  1
  Na  Na3  1  0.000000  0.238033  0.410476  1
  Fe  Fe4  1  0.500000  0.415635  0.647082  1
  Fe  Fe5  1  0.500000  0.915635  0.352918  1
  Fe  Fe6  1  0.500000  0.435772  0.132902  1
  Fe  Fe7  1  0.500000  0.935772  0.867098  1
  Pd  Pd8  1  0.000000  0.585562  0.850816  1
  Pd  Pd9  1  0.000000  0.085562  0.149184  1
  Pd  Pd10  1  0.000000  0.555478  0.362443  1
  Pd  Pd11  1  0.000000  0.055478  0.637557  1
  O  O12  1  0.500000  0.532549  0.964872  1
  O  O13  1  0.500000  0.032549  0.035128  1
  O  O14  1  0.000000  0.478125  0.539904  1
  O  O15  1  0.000000  0.978125  0.460096  1
  O  O16  1  0.500000  0.198662  0.597461  1
  O  O17  1  0.500000  0.698662  0.402539  1
  O  O18  1  0.000000  0.799267  0.909110  1
  O  O19  1  0.000000  0.299267  0.090890  1
  O  O20  1  0.500000  0.620281  0.731687  1
  O  O21  1  0.500000  0.120281  0.268313  1
  O  O22  1  0.000000  0.386998  0.771495  1
  O  O23  1  0.000000  0.886998  0.228505  1
  O  O24  1  0.500000  0.417580  0.323201  1
  O  O25  1  0.500000  0.917580  0.676799  1
  O  O26  1  0.000000  0.577988  0.177495  1
  O  O27  1  0.000000  0.077988  0.822505  1
