# generated using pymatgen
data_Y15HoMgIn3Rh4
_symmetry_space_group_name_H-M   'P 1'
_cell_length_a   9.71644827
_cell_length_b   9.71644848
_cell_length_c   9.71644883
_cell_angle_alpha   59.90740482
_cell_angle_beta   59.90740438
_cell_angle_gamma   59.90741080
_symmetry_Int_Tables_number   1
_chemical_formula_structural   Y15HoMgIn3Rh4
_chemical_formula_sum   'Y15 Ho1 Mg1 In3 Rh4'
_cell_volume   647.28337376
_cell_formula_units_Z   1
loop_
 _symmetry_equiv_pos_site_id
 _symmetry_equiv_pos_as_xyz
  1  'x, y, z'
loop_
 _atom_site_type_symbol
 _atom_site_label
 _atom_site_symmetry_multiplicity
 _atom_site_fract_x
 _atom_site_fract_y
 _atom_site_fract_z
 _atom_site_occupancy
  Y  Y0  1  0.188689  0.188689  0.811696  1
  Y  Y1  1  0.600230  0.600230  0.201794  1
  Y  Y2  1  0.440695  0.058654  0.440695  1
  Y  Y3  1  0.440695  0.440695  0.058654  1
  Y  Y4  1  0.813657  0.187232  0.813657  1
  Y  Y5  1  0.188689  0.811696  0.188689  1
  Y  Y6  1  0.436834  0.062086  0.062086  1
  Y  Y7  1  0.187232  0.813657  0.813657  1
  Y  Y8  1  0.062086  0.436834  0.062086  1
  Y  Y9  1  0.813657  0.813657  0.187232  1
  Y  Y10  1  0.201794  0.600230  0.600230  1
  Y  Y11  1  0.058654  0.440695  0.440695  1
  Y  Y12  1  0.062086  0.062086  0.436834  1
  Y  Y13  1  0.811696  0.188689  0.188689  1
  Y  Y14  1  0.600230  0.201794  0.600230  1
  Ho  Ho15  1  0.597766  0.597766  0.597766  1
  Mg  Mg16  1  0.827308  0.827308  0.827308  1
  In  In17  1  0.832415  0.832415  0.501928  1
  In  In18  1  0.501928  0.832415  0.832415  1
  In  In19  1  0.832415  0.501928  0.832415  1
  Rh  Rh20  1  0.393080  0.822274  0.393080  1
  Rh  Rh21  1  0.392813  0.392813  0.392813  1
  Rh  Rh22  1  0.822274  0.393080  0.393080  1
  Rh  Rh23  1  0.393080  0.393080  0.822274  1
