# generated using pymatgen
data_KBaAs4Ru3Rh
_symmetry_space_group_name_H-M   'P 1'
_cell_length_a   7.09981235
_cell_length_b   7.08875590
_cell_length_c   5.83047200
_cell_angle_alpha   90.00000000
_cell_angle_beta   90.00000000
_cell_angle_gamma   131.45331045
_symmetry_Int_Tables_number   1
_chemical_formula_structural   KBaAs4Ru3Rh
_chemical_formula_sum   'K1 Ba1 As4 Ru3 Rh1'
_cell_volume   219.93259396
_cell_formula_units_Z   1
loop_
 _symmetry_equiv_pos_site_id
 _symmetry_equiv_pos_as_xyz
  1  'x, y, z'
loop_
 _atom_site_type_symbol
 _atom_site_label
 _atom_site_symmetry_multiplicity
 _atom_site_fract_x
 _atom_site_fract_y
 _atom_site_fract_z
 _atom_site_occupancy
  K  K0  1  0.000000  0.000000  0.001184  1
  Ba  Ba1  1  0.500000  0.500000  0.497961  1
  As  As2  1  0.652203  0.354582  0.996784  1
  As  As3  1  0.146235  0.848866  0.503496  1
  As  As4  1  0.853765  0.151134  0.503496  1
  As  As5  1  0.347797  0.645418  0.996784  1
  Ru  Ru6  1  0.500000  0.000000  0.750388  1
  Ru  Ru7  1  0.000000  0.500000  0.249341  1
  Ru  Ru8  1  0.000000  0.500000  0.750790  1
  Rh  Rh9  1  0.500000  0.000000  0.249774  1
