# generated using pymatgen
data_Sm5Zr3(Ni4P3)4
_symmetry_space_group_name_H-M   'P 1'
_cell_length_a   12.42939300
_cell_length_b   12.42939317
_cell_length_c   3.85113100
_cell_angle_alpha   90.00000000
_cell_angle_beta   90.00000000
_cell_angle_gamma   120.00000221
_symmetry_Int_Tables_number   1
_chemical_formula_structural   Sm5Zr3(Ni4P3)4
_chemical_formula_sum   'Sm5 Zr3 Ni16 P12'
_cell_volume   515.25090097
_cell_formula_units_Z   1
loop_
 _symmetry_equiv_pos_site_id
 _symmetry_equiv_pos_as_xyz
  1  'x, y, z'
loop_
 _atom_site_type_symbol
 _atom_site_label
 _atom_site_symmetry_multiplicity
 _atom_site_fract_x
 _atom_site_fract_y
 _atom_site_fract_z
 _atom_site_occupancy
  Sm  Sm0  1  0.186458  0.186458  0.500000  1
  Sm  Sm1  1  0.813542  0.000000  0.500000  1
  Sm  Sm2  1  0.000000  0.813542  0.500000  1
  Sm  Sm3  1  0.333333  0.666667  0.000000  1
  Sm  Sm4  1  0.666667  0.333333  0.000000  1
  Zr  Zr5  1  0.564469  0.564469  0.000000  1
  Zr  Zr6  1  0.435531  0.000000  0.000000  1
  Zr  Zr7  1  0.000000  0.435531  0.000000  1
  Ni  Ni8  1  0.726830  0.726830  0.500000  1
  Ni  Ni9  1  0.273170  0.000000  0.500000  1
  Ni  Ni10  1  0.000000  0.273170  0.500000  1
  Ni  Ni11  1  0.187613  0.378824  0.000000  1
  Ni  Ni12  1  0.621176  0.808789  0.000000  1
  Ni  Ni13  1  0.191211  0.812387  0.000000  1
  Ni  Ni14  1  0.808789  0.621176  0.000000  1
  Ni  Ni15  1  0.812387  0.191211  0.000000  1
  Ni  Ni16  1  0.378824  0.187613  0.000000  1
  Ni  Ni17  1  0.362775  0.485639  0.500000  1
  Ni  Ni18  1  0.514361  0.877137  0.500000  1
  Ni  Ni19  1  0.122863  0.637225  0.500000  1
  Ni  Ni20  1  0.877137  0.514361  0.500000  1
  Ni  Ni21  1  0.637225  0.122863  0.500000  1
  Ni  Ni22  1  0.485639  0.362775  0.500000  1
  Ni  Ni23  1  0.000000  0.000000  0.000000  1
  P  P24  1  0.820817  0.820817  0.000000  1
  P  P25  1  0.179183  0.000000  0.000000  1
  P  P26  1  0.000000  0.179183  0.000000  1
  P  P27  1  0.170428  0.473130  0.500000  1
  P  P28  1  0.526870  0.697297  0.500000  1
  P  P29  1  0.302703  0.829572  0.500000  1
  P  P30  1  0.697297  0.526870  0.500000  1
  P  P31  1  0.829572  0.302703  0.500000  1
  P  P32  1  0.473130  0.170428  0.500000  1
  P  P33  1  0.360240  0.360240  0.000000  1
  P  P34  1  0.639760  0.000000  0.000000  1
  P  P35  1  0.000000  0.639760  0.000000  1
