# generated using pymatgen
data_YTmGa4CuPd
_symmetry_space_group_name_H-M   'P 1'
_cell_length_a   5.51550400
_cell_length_b   5.51550381
_cell_length_c   6.57415500
_cell_angle_alpha   90.00000000
_cell_angle_beta   90.00000000
_cell_angle_gamma   133.25765366
_symmetry_Int_Tables_number   1
_chemical_formula_structural   YTmGa4CuPd
_chemical_formula_sum   'Y1 Tm1 Ga4 Cu1 Pd1'
_cell_volume   145.64929234
_cell_formula_units_Z   1
loop_
 _symmetry_equiv_pos_site_id
 _symmetry_equiv_pos_as_xyz
  1  'x, y, z'
loop_
 _atom_site_type_symbol
 _atom_site_label
 _atom_site_symmetry_multiplicity
 _atom_site_fract_x
 _atom_site_fract_y
 _atom_site_fract_z
 _atom_site_occupancy
  Y  Y0  1  0.586769  0.413231  0.250000  1
  Tm  Tm1  1  0.412637  0.587363  0.750000  1
  Ga  Ga2  1  0.872546  0.127454  0.446015  1
  Ga  Ga3  1  0.128559  0.871441  0.549590  1
  Ga  Ga4  1  0.872546  0.127454  0.053985  1
  Ga  Ga5  1  0.128559  0.871441  0.950410  1
  Cu  Cu6  1  0.297349  0.702651  0.250000  1
  Pd  Pd7  1  0.701036  0.298964  0.750000  1
