# generated using pymatgen
data_Pr2Ho(InIr6)3
_symmetry_space_group_name_H-M   'P 1'
_cell_length_a   8.95688897
_cell_length_b   8.95688897
_cell_length_c   5.22369100
_cell_angle_alpha   90.00000000
_cell_angle_beta   90.00000000
_cell_angle_gamma   89.77044287
_symmetry_Int_Tables_number   1
_chemical_formula_structural   Pr2Ho(InIr6)3
_chemical_formula_sum   'Pr2 Ho1 In3 Ir18'
_cell_volume   419.07173962
_cell_formula_units_Z   1
loop_
 _symmetry_equiv_pos_site_id
 _symmetry_equiv_pos_as_xyz
  1  'x, y, z'
loop_
 _atom_site_type_symbol
 _atom_site_label
 _atom_site_symmetry_multiplicity
 _atom_site_fract_x
 _atom_site_fract_y
 _atom_site_fract_z
 _atom_site_occupancy
  Pr  Pr0  1  0.504571  0.499327  0.000000  1
  Pr  Pr1  1  0.999327  0.004571  0.000000  1
  Ho  Ho2  1  0.118171  0.618171  0.000000  1
  In  In3  1  0.877926  0.377926  0.000000  1
  In  In4  1  0.379167  0.120300  0.000000  1
  In  In5  1  0.620300  0.879167  0.000000  1
  Ir  Ir6  1  0.998172  0.498172  0.500000  1
  Ir  Ir7  1  0.502104  0.002104  0.500000  1
  Ir  Ir8  1  0.555265  0.703784  0.500000  1
  Ir  Ir9  1  0.442171  0.296453  0.500000  1
  Ir  Ir10  1  0.943099  0.203412  0.500000  1
  Ir  Ir11  1  0.059041  0.793542  0.500000  1
  Ir  Ir12  1  0.703412  0.443099  0.500000  1
  Ir  Ir13  1  0.293542  0.559041  0.500000  1
  Ir  Ir14  1  0.203784  0.055265  0.500000  1
  Ir  Ir15  1  0.796453  0.942171  0.500000  1
  Ir  Ir16  1  0.322058  0.822058  0.755623  1
  Ir  Ir17  1  0.680602  0.180602  0.757328  1
  Ir  Ir18  1  0.180821  0.318266  0.755352  1
  Ir  Ir19  1  0.818266  0.680821  0.755352  1
  Ir  Ir20  1  0.680602  0.180602  0.242672  1
  Ir  Ir21  1  0.322058  0.822058  0.244377  1
  Ir  Ir22  1  0.818266  0.680821  0.244648  1
  Ir  Ir23  1  0.180821  0.318266  0.244648  1
