# generated using pymatgen
data_Pr6Sm2Sc12Si15Ru
_symmetry_space_group_name_H-M   'P 1'
_cell_length_a   7.22228281
_cell_length_b   7.57708484
_cell_length_c   14.15899233
_cell_angle_alpha   89.81258425
_cell_angle_beta   90.07872836
_cell_angle_gamma   90.18873087
_symmetry_Int_Tables_number   1
_chemical_formula_structural   Pr6Sm2Sc12Si15Ru
_chemical_formula_sum   'Pr6 Sm2 Sc12 Si15 Ru1'
_cell_volume   774.82549793
_cell_formula_units_Z   1
loop_
 _symmetry_equiv_pos_site_id
 _symmetry_equiv_pos_as_xyz
  1  'x, y, z'
loop_
 _atom_site_type_symbol
 _atom_site_label
 _atom_site_symmetry_multiplicity
 _atom_site_fract_x
 _atom_site_fract_y
 _atom_site_fract_z
 _atom_site_occupancy
  Pr  Pr0  1  0.010975  0.176538  0.096801  1
  Pr  Pr1  1  0.990864  0.828425  0.902581  1
  Pr  Pr2  1  0.488811  0.672766  0.903840  1
  Pr  Pr3  1  0.990718  0.828046  0.596839  1
  Pr  Pr4  1  0.510970  0.326729  0.096013  1
  Pr  Pr5  1  0.011449  0.176780  0.403587  1
  Sm  Sm6  1  0.510942  0.325057  0.403428  1
  Sm  Sm7  1  0.488500  0.674639  0.596962  1
  Sc  Sc8  1  0.154980  0.493288  0.749798  1
  Sc  Sc9  1  0.839830  0.498763  0.250280  1
  Sc  Sc10  1  0.339482  0.002264  0.250382  1
  Sc  Sc11  1  0.668226  0.003024  0.749736  1
  Sc  Sc12  1  0.317965  0.172036  0.628033  1
  Sc  Sc13  1  0.671104  0.825800  0.373734  1
  Sc  Sc14  1  0.172204  0.676602  0.374197  1
  Sc  Sc15  1  0.671598  0.826597  0.126712  1
  Sc  Sc16  1  0.836410  0.319278  0.627934  1
  Sc  Sc17  1  0.317665  0.171310  0.871420  1
  Sc  Sc18  1  0.836472  0.319409  0.871583  1
  Sc  Sc19  1  0.171851  0.676942  0.126356  1
  Si  Si20  1  0.967907  0.876322  0.250225  1
  Si  Si21  1  0.468650  0.620240  0.250847  1
  Si  Si22  1  0.529491  0.382923  0.749062  1
  Si  Si23  1  0.290091  0.876586  0.748971  1
  Si  Si24  1  0.709627  0.121898  0.250879  1
  Si  Si25  1  0.213768  0.379436  0.251050  1
  Si  Si26  1  0.780096  0.619248  0.748802  1
  Si  Si27  1  0.157067  0.467805  0.537958  1
  Si  Si28  1  0.846772  0.537194  0.461010  1
  Si  Si29  1  0.350931  0.963834  0.460069  1
  Si  Si30  1  0.850165  0.538391  0.038902  1
  Si  Si31  1  0.649772  0.035921  0.538727  1
  Si  Si32  1  0.153520  0.466774  0.962247  1
  Si  Si33  1  0.650862  0.036123  0.961113  1
  Si  Si34  1  0.349851  0.963556  0.040039  1
  Ru  Ru35  1  0.030416  0.119454  0.749885  1
