# generated using pymatgen
data_SrYCd2(Ir2O7)2
_symmetry_space_group_name_H-M   'P 1'
_cell_length_a   7.30958686
_cell_length_b   7.30958605
_cell_length_c   7.40857490
_cell_angle_alpha   59.43356970
_cell_angle_beta   59.43357883
_cell_angle_gamma   59.35036588
_symmetry_Int_Tables_number   1
_chemical_formula_structural   SrYCd2(Ir2O7)2
_chemical_formula_sum   'Sr1 Y1 Cd2 Ir4 O14'
_cell_volume   276.11673081
_cell_formula_units_Z   1
loop_
 _symmetry_equiv_pos_site_id
 _symmetry_equiv_pos_as_xyz
  1  'x, y, z'
loop_
 _atom_site_type_symbol
 _atom_site_label
 _atom_site_symmetry_multiplicity
 _atom_site_fract_x
 _atom_site_fract_y
 _atom_site_fract_z
 _atom_site_occupancy
  Sr  Sr0  1  0.125000  0.125000  0.625000  1
  Y  Y1  1  0.125000  0.125000  0.125000  1
  Cd  Cd2  1  0.625000  0.125000  0.125000  1
  Cd  Cd3  1  0.125000  0.625000  0.125000  1
  Ir  Ir4  1  0.125000  0.625000  0.625000  1
  Ir  Ir5  1  0.625000  0.125000  0.625000  1
  Ir  Ir6  1  0.625000  0.625000  0.125000  1
  Ir  Ir7  1  0.625000  0.625000  0.625000  1
  O  O8  1  0.694321  0.694321  0.303735  1
  O  O9  1  0.293171  0.293171  0.718852  1
  O  O10  1  0.692461  0.299213  0.705093  1
  O  O11  1  0.299928  0.711911  0.300796  1
  O  O12  1  0.299213  0.692461  0.705093  1
  O  O13  1  0.711911  0.299928  0.300796  1
  O  O14  1  0.555679  0.555679  0.946265  1
  O  O15  1  0.956829  0.956829  0.531148  1
  O  O16  1  0.557539  0.950787  0.544907  1
  O  O17  1  0.950072  0.538089  0.949204  1
  O  O18  1  0.950787  0.557539  0.544907  1
  O  O19  1  0.538089  0.950072  0.949204  1
  O  O20  1  0.261686  0.261686  0.219521  1
  O  O21  1  0.988314  0.988314  0.030479  1
