# generated using pymatgen
data_Eu5GeRh2
_symmetry_space_group_name_H-M   'P 1'
_cell_length_a   8.92346539
_cell_length_b   8.92346532
_cell_length_c   8.92346545
_cell_angle_alpha   127.60836501
_cell_angle_beta   127.60836667
_cell_angle_gamma   77.26032551
_symmetry_Int_Tables_number   1
_chemical_formula_structural   Eu5GeRh2
_chemical_formula_sum   'Eu10 Ge2 Rh4'
_cell_volume   432.67561289
_cell_formula_units_Z   2
loop_
 _symmetry_equiv_pos_site_id
 _symmetry_equiv_pos_as_xyz
  1  'x, y, z'
loop_
 _atom_site_type_symbol
 _atom_site_label
 _atom_site_symmetry_multiplicity
 _atom_site_fract_x
 _atom_site_fract_y
 _atom_site_fract_z
 _atom_site_occupancy
  Eu  Eu0  1  0.531704  0.031704  0.842577  1
  Eu  Eu1  1  0.189126  0.689126  0.157423  1
  Eu  Eu2  1  0.031704  0.189126  0.500000  1
  Eu  Eu3  1  0.689126  0.531704  0.500000  1
  Eu  Eu4  1  0.468296  0.968296  0.157423  1
  Eu  Eu5  1  0.810874  0.310874  0.842577  1
  Eu  Eu6  1  0.968296  0.810874  0.500000  1
  Eu  Eu7  1  0.310874  0.468296  0.500000  1
  Eu  Eu8  1  0.500000  0.500000  0.000000  1
  Eu  Eu9  1  0.000000  0.000000  0.000000  1
  Ge  Ge10  1  0.250000  0.250000  0.000000  1
  Ge  Ge11  1  0.750000  0.750000  0.000000  1
  Rh  Rh12  1  0.874082  0.374082  0.248164  1
  Rh  Rh13  1  0.125918  0.625918  0.751836  1
  Rh  Rh14  1  0.374082  0.125918  0.500000  1
  Rh  Rh15  1  0.625918  0.874082  0.500000  1
