# generated using pymatgen
data_Y2HoAgSn3Ir2
_symmetry_space_group_name_H-M   'P 1'
_cell_length_a   7.69471008
_cell_length_b   7.70309162
_cell_length_c   3.88052200
_cell_angle_alpha   90.00000000
_cell_angle_beta   90.00000000
_cell_angle_gamma   119.94723341
_symmetry_Int_Tables_number   1
_chemical_formula_structural   Y2HoAgSn3Ir2
_chemical_formula_sum   'Y2 Ho1 Ag1 Sn3 Ir2'
_cell_volume   199.30067982
_cell_formula_units_Z   1
loop_
 _symmetry_equiv_pos_site_id
 _symmetry_equiv_pos_as_xyz
  1  'x, y, z'
loop_
 _atom_site_type_symbol
 _atom_site_label
 _atom_site_symmetry_multiplicity
 _atom_site_fract_x
 _atom_site_fract_y
 _atom_site_fract_z
 _atom_site_occupancy
  Y  Y0  1  0.385332  0.409073  0.500000  1
  Y  Y1  1  0.590765  0.976307  0.500000  1
  Ho  Ho2  1  0.025159  0.615436  0.500000  1
  Ag  Ag3  1  0.667552  0.334038  0.000000  1
  Sn  Sn4  1  0.743183  0.738859  0.000000  1
  Sn  Sn5  1  0.260980  0.003941  0.000000  1
  Sn  Sn6  1  0.995885  0.257019  0.000000  1
  Ir  Ir7  1  0.331119  0.666275  0.000000  1
  Ir  Ir8  1  0.000024  0.999052  0.500000  1
