# generated using pymatgen
data_Dy9Er(IrRh)3
_symmetry_space_group_name_H-M   'P 1'
_cell_length_a   10.87593190
_cell_length_b   10.87527500
_cell_length_c   6.37478400
_cell_angle_alpha   90.00000000
_cell_angle_beta   89.97577550
_cell_angle_gamma   90.00000000
_symmetry_Int_Tables_number   1
_chemical_formula_structural   Dy9Er(IrRh)3
_chemical_formula_sum   'Dy18 Er2 Ir6 Rh6'
_cell_volume   754.00141766
_cell_formula_units_Z   2
loop_
 _symmetry_equiv_pos_site_id
 _symmetry_equiv_pos_as_xyz
  1  'x, y, z'
loop_
 _atom_site_type_symbol
 _atom_site_label
 _atom_site_symmetry_multiplicity
 _atom_site_fract_x
 _atom_site_fract_y
 _atom_site_fract_z
 _atom_site_occupancy
  Dy  Dy0  1  0.290113  0.088581  0.378967  1
  Dy  Dy1  1  0.290113  0.911419  0.878967  1
  Dy  Dy2  1  0.708391  0.090001  0.878336  1
  Dy  Dy3  1  0.708391  0.909999  0.378336  1
  Dy  Dy4  1  0.587078  0.789740  0.879133  1
  Dy  Dy5  1  0.587078  0.210260  0.379133  1
  Dy  Dy6  1  0.410802  0.790288  0.378977  1
  Dy  Dy7  1  0.410802  0.209712  0.878977  1
  Dy  Dy8  1  0.210112  0.411008  0.620785  1
  Dy  Dy9  1  0.210112  0.588992  0.120785  1
  Dy  Dy10  1  0.789984  0.412752  0.121503  1
  Dy  Dy11  1  0.789984  0.587248  0.621503  1
  Dy  Dy12  1  0.911953  0.709255  0.121589  1
  Dy  Dy13  1  0.911953  0.290745  0.621589  1
  Dy  Dy14  1  0.090460  0.708938  0.620873  1
  Dy  Dy15  1  0.090460  0.291062  0.120873  1
  Dy  Dy16  1  0.999999  0.999677  0.499823  1
  Dy  Dy17  1  0.999999  0.000323  0.999823  1
  Er  Er18  1  0.500243  0.499555  0.000109  1
  Er  Er19  1  0.500243  0.500445  0.500109  1
  Ir  Ir20  1  0.153218  0.154149  0.749781  1
  Ir  Ir21  1  0.153218  0.845851  0.249781  1
  Ir  Ir22  1  0.654494  0.346129  0.749708  1
  Ir  Ir23  1  0.654494  0.653871  0.249708  1
  Ir  Ir24  1  0.346888  0.346281  0.250478  1
  Ir  Ir25  1  0.346888  0.653719  0.750478  1
  Rh  Rh26  1  0.845632  0.153460  0.249916  1
  Rh  Rh27  1  0.845632  0.846540  0.749916  1
  Rh  Rh28  1  0.501061  0.000032  0.123928  1
  Rh  Rh29  1  0.501061  0.999968  0.623928  1
  Rh  Rh30  1  0.999570  0.500161  0.876094  1
  Rh  Rh31  1  0.999570  0.499839  0.376094  1
