# generated using pymatgen
data_Eu4Ga18(IrPd)3
_symmetry_space_group_name_H-M   'P 1'
_cell_length_a   7.65080075
_cell_length_b   7.65080070
_cell_length_c   9.69576911
_cell_angle_alpha   90.00888890
_cell_angle_beta   90.00888786
_cell_angle_gamma   119.62342720
_symmetry_Int_Tables_number   1
_chemical_formula_structural   Eu4Ga18(IrPd)3
_chemical_formula_sum   'Eu4 Ga18 Ir3 Pd3'
_cell_volume   493.35797674
_cell_formula_units_Z   1
loop_
 _symmetry_equiv_pos_site_id
 _symmetry_equiv_pos_as_xyz
  1  'x, y, z'
loop_
 _atom_site_type_symbol
 _atom_site_label
 _atom_site_symmetry_multiplicity
 _atom_site_fract_x
 _atom_site_fract_y
 _atom_site_fract_z
 _atom_site_occupancy
  Eu  Eu0  1  0.001630  0.329662  0.750050  1
  Eu  Eu1  1  0.997088  0.669037  0.249758  1
  Eu  Eu2  1  0.330963  0.002912  0.750242  1
  Eu  Eu3  1  0.670338  0.998370  0.249950  1
  Ga  Ga4  1  0.663001  0.665390  0.436725  1
  Ga  Ga5  1  0.336496  0.336885  0.939359  1
  Ga  Ga6  1  0.663115  0.663504  0.060641  1
  Ga  Ga7  1  0.334610  0.336999  0.563275  1
  Ga  Ga8  1  0.004347  0.336782  0.421224  1
  Ga  Ga9  1  0.999674  0.662500  0.923505  1
  Ga  Ga10  1  0.337500  0.000326  0.076495  1
  Ga  Ga11  1  0.663218  0.995653  0.578776  1
  Ga  Ga12  1  0.001310  0.665742  0.578135  1
  Ga  Ga13  1  0.000145  0.337112  0.077101  1
  Ga  Ga14  1  0.662888  0.999855  0.922899  1
  Ga  Ga15  1  0.334258  0.998690  0.421865  1
  Ga  Ga16  1  0.131480  0.130325  0.249846  1
  Ga  Ga17  1  0.869675  0.868520  0.750154  1
  Ga  Ga18  1  0.662300  0.456569  0.751911  1
  Ga  Ga19  1  0.338041  0.545611  0.249708  1
  Ga  Ga20  1  0.454389  0.661959  0.750292  1
  Ga  Ga21  1  0.543431  0.337700  0.248089  1
  Ir  Ir22  1  0.329706  0.670294  0.000000  1
  Ir  Ir23  1  0.330112  0.669888  0.500000  1
  Ir  Ir24  1  0.669959  0.330041  0.000000  1
  Pd  Pd25  1  0.000278  0.999722  0.500000  1
  Pd  Pd26  1  0.999771  0.000229  0.000000  1
  Pd  Pd27  1  0.670275  0.329725  0.500000  1
