# generated using pymatgen
data_Ho2Pa(SnIr)3
_symmetry_space_group_name_H-M   'P 1'
_cell_length_a   7.45744313
_cell_length_b   7.45744223
_cell_length_c   3.95987200
_cell_angle_alpha   90.00000000
_cell_angle_beta   90.00000000
_cell_angle_gamma   119.15837345
_symmetry_Int_Tables_number   1
_chemical_formula_structural   Ho2Pa(SnIr)3
_chemical_formula_sum   'Ho2 Pa1 Sn3 Ir3'
_cell_volume   192.31478050
_cell_formula_units_Z   1
loop_
 _symmetry_equiv_pos_site_id
 _symmetry_equiv_pos_as_xyz
  1  'x, y, z'
loop_
 _atom_site_type_symbol
 _atom_site_label
 _atom_site_symmetry_multiplicity
 _atom_site_fract_x
 _atom_site_fract_y
 _atom_site_fract_z
 _atom_site_occupancy
  Ho  Ho0  1  0.595760  0.000012  0.500000  1
  Ho  Ho1  1  0.000012  0.595760  0.500000  1
  Pa  Pa2  1  0.412198  0.412198  0.500000  1
  Sn  Sn3  1  0.754479  0.754479  0.000000  1
  Sn  Sn4  1  0.257126  0.987039  0.000000  1
  Sn  Sn5  1  0.987039  0.257126  0.000000  1
  Ir  Ir6  1  0.644135  0.336272  0.000000  1
  Ir  Ir7  1  0.336272  0.644135  0.000000  1
  Ir  Ir8  1  0.012979  0.012979  0.500000  1
