# generated using pymatgen
data_EuGa2Ir2Pt
_symmetry_space_group_name_H-M   'P 1'
_cell_length_a   5.68729529
_cell_length_b   5.68729684
_cell_length_c   3.92417300
_cell_angle_alpha   90.00000000
_cell_angle_beta   90.00000000
_cell_angle_gamma   119.39110391
_symmetry_Int_Tables_number   1
_chemical_formula_structural   EuGa2Ir2Pt
_chemical_formula_sum   'Eu1 Ga2 Ir2 Pt1'
_cell_volume   110.59170642
_cell_formula_units_Z   1
loop_
 _symmetry_equiv_pos_site_id
 _symmetry_equiv_pos_as_xyz
  1  'x, y, z'
loop_
 _atom_site_type_symbol
 _atom_site_label
 _atom_site_symmetry_multiplicity
 _atom_site_fract_x
 _atom_site_fract_y
 _atom_site_fract_z
 _atom_site_occupancy
  Eu  Eu0  1  0.000000  0.000000  0.000000  1
  Ga  Ga1  1  0.673317  0.326681  0.000000  1
  Ga  Ga2  1  0.326682  0.673318  0.000000  1
  Ir  Ir3  1  0.500000  0.000000  0.500000  1
  Ir  Ir4  1  0.000000  0.500000  0.500000  1
  Pt  Pt5  1  0.500000  0.500000  0.500000  1
