# generated using pymatgen
data_ZnGa(IrO3)4
_symmetry_space_group_name_H-M   'P 1'
_cell_length_a   4.55242993
_cell_length_b   4.55242993
_cell_length_c   9.46283000
_cell_angle_alpha   90.00000000
_cell_angle_beta   90.00000000
_cell_angle_gamma   90.27308603
_symmetry_Int_Tables_number   1
_chemical_formula_structural   ZnGa(IrO3)4
_chemical_formula_sum   'Zn1 Ga1 Ir4 O12'
_cell_volume   196.11131168
_cell_formula_units_Z   1
loop_
 _symmetry_equiv_pos_site_id
 _symmetry_equiv_pos_as_xyz
  1  'x, y, z'
loop_
 _atom_site_type_symbol
 _atom_site_label
 _atom_site_symmetry_multiplicity
 _atom_site_fract_x
 _atom_site_fract_y
 _atom_site_fract_z
 _atom_site_occupancy
  Zn  Zn0  1  0.500000  0.500000  0.500000  1
  Ga  Ga1  1  0.000000  0.000000  0.000000  1
  Ir  Ir2  1  0.500000  0.500000  0.832669  1
  Ir  Ir3  1  0.000000  0.000000  0.330784  1
  Ir  Ir4  1  0.500000  0.500000  0.167331  1
  Ir  Ir5  1  0.000000  0.000000  0.669216  1
  O  O6  1  0.698247  0.698247  0.672208  1
  O  O7  1  0.301753  0.301753  0.672208  1
  O  O8  1  0.698247  0.698247  0.327792  1
  O  O9  1  0.193933  0.806067  0.164918  1
  O  O10  1  0.806067  0.193933  0.164918  1
  O  O11  1  0.806067  0.193933  0.835082  1
  O  O12  1  0.308523  0.308523  0.000000  1
  O  O13  1  0.184439  0.815561  0.500000  1
  O  O14  1  0.815561  0.184439  0.500000  1
  O  O15  1  0.691477  0.691477  0.000000  1
  O  O16  1  0.301753  0.301753  0.327792  1
  O  O17  1  0.193933  0.806067  0.835082  1
