# generated using pymatgen
data_Pr3Dy3Al24Os7Au
_symmetry_space_group_name_H-M   'P 1'
_cell_length_a   8.91045893
_cell_length_b   8.89735407
_cell_length_c   9.66377942
_cell_angle_alpha   90.13681515
_cell_angle_beta   89.84114259
_cell_angle_gamma   119.83079586
_symmetry_Int_Tables_number   1
_chemical_formula_structural   Pr3Dy3Al24Os7Au
_chemical_formula_sum   'Pr3 Dy3 Al24 Os7 Au1'
_cell_volume   664.62179506
_cell_formula_units_Z   1
loop_
 _symmetry_equiv_pos_site_id
 _symmetry_equiv_pos_as_xyz
  1  'x, y, z'
loop_
 _atom_site_type_symbol
 _atom_site_label
 _atom_site_symmetry_multiplicity
 _atom_site_fract_x
 _atom_site_fract_y
 _atom_site_fract_z
 _atom_site_occupancy
  Pr  Pr0  1  0.188159  0.381789  0.249825  1
  Pr  Pr1  1  0.811218  0.618710  0.750440  1
  Pr  Pr2  1  0.617269  0.810571  0.249568  1
  Dy  Dy3  1  0.387989  0.190471  0.748920  1
  Dy  Dy4  1  0.194486  0.804902  0.253068  1
  Dy  Dy5  1  0.804860  0.194146  0.746682  1
  Al  Al6  1  0.327540  0.672065  0.019216  1
  Al  Al7  1  0.671058  0.327921  0.976951  1
  Al  Al8  1  0.666621  0.332261  0.520553  1
  Al  Al9  1  0.332390  0.667106  0.482739  1
  Al  Al10  1  0.163288  0.326597  0.575763  1
  Al  Al11  1  0.837691  0.671707  0.426233  1
  Al  Al12  1  0.671517  0.837255  0.575012  1
  Al  Al13  1  0.850959  0.677094  0.079194  1
  Al  Al14  1  0.327723  0.162138  0.428450  1
  Al  Al15  1  0.150065  0.322268  0.919345  1
  Al  Al16  1  0.164983  0.837428  0.574346  1
  Al  Al17  1  0.322719  0.149658  0.076833  1
  Al  Al18  1  0.835373  0.164329  0.427151  1
  Al  Al19  1  0.676889  0.851046  0.919679  1
  Al  Al20  1  0.834978  0.164895  0.072197  1
  Al  Al21  1  0.165355  0.837407  0.925824  1
  Al  Al22  1  0.559487  0.122888  0.249229  1
  Al  Al23  1  0.439308  0.878755  0.750442  1
  Al  Al24  1  0.876294  0.439214  0.249477  1
  Al  Al25  1  0.122997  0.560020  0.750676  1
  Al  Al26  1  0.565153  0.433195  0.256698  1
  Al  Al27  1  0.433519  0.563417  0.744438  1
  Al  Al28  1  0.001226  0.997888  0.250476  1
  Al  Al29  1  0.004693  0.005034  0.749794  1
  Os  Os30  1  0.499024  0.001052  0.998329  1
  Os  Os31  1  0.999446  0.499842  0.999676  1
  Os  Os32  1  0.498958  0.000782  0.501490  1
  Os  Os33  1  0.999737  0.499629  0.500484  1
  Os  Os34  1  0.499111  0.498201  0.501374  1
  Os  Os35  1  0.999622  0.000215  0.999721  1
  Os  Os36  1  0.999380  0.999834  0.500548  1
  Au  Au37  1  0.498916  0.498269  0.999159  1
