# generated using pymatgen
data_Er3Mg3CuAgIr
_symmetry_space_group_name_H-M   'P 1'
_cell_length_a   7.71630100
_cell_length_b   7.71630189
_cell_length_c   3.80283800
_cell_angle_alpha   90.00000000
_cell_angle_beta   90.00000000
_cell_angle_gamma   119.99999192
_symmetry_Int_Tables_number   1
_chemical_formula_structural   Er3Mg3CuAgIr
_chemical_formula_sum   'Er3 Mg3 Cu1 Ag1 Ir1'
_cell_volume   196.09063940
_cell_formula_units_Z   1
loop_
 _symmetry_equiv_pos_site_id
 _symmetry_equiv_pos_as_xyz
  1  'x, y, z'
loop_
 _atom_site_type_symbol
 _atom_site_label
 _atom_site_symmetry_multiplicity
 _atom_site_fract_x
 _atom_site_fract_y
 _atom_site_fract_z
 _atom_site_occupancy
  Er  Er0  1  0.424930  0.394127  0.500000  1
  Er  Er1  1  0.605873  0.030803  0.500000  1
  Er  Er2  1  0.969197  0.575070  0.500000  1
  Mg  Mg3  1  0.751130  0.752797  0.000000  1
  Mg  Mg4  1  0.247203  0.998333  0.000000  1
  Mg  Mg5  1  0.001667  0.248870  0.000000  1
  Cu  Cu6  1  0.000000  0.000000  0.500000  1
  Ag  Ag7  1  0.333333  0.666667  0.000000  1
  Ir  Ir8  1  0.666667  0.333333  0.000000  1
