# generated using pymatgen
data_Sr12Sn7Pd8Pb
_symmetry_space_group_name_H-M   'P 1'
_cell_length_a   6.18773949
_cell_length_b   9.00245918
_cell_length_c   14.43152100
_cell_angle_alpha   90.00000000
_cell_angle_beta   90.00000000
_cell_angle_gamma   90.07963566
_symmetry_Int_Tables_number   1
_chemical_formula_structural   Sr12Sn7Pd8Pb
_chemical_formula_sum   'Sr12 Sn7 Pd8 Pb1'
_cell_volume   803.90525610
_cell_formula_units_Z   1
loop_
 _symmetry_equiv_pos_site_id
 _symmetry_equiv_pos_as_xyz
  1  'x, y, z'
loop_
 _atom_site_type_symbol
 _atom_site_label
 _atom_site_symmetry_multiplicity
 _atom_site_fract_x
 _atom_site_fract_y
 _atom_site_fract_z
 _atom_site_occupancy
  Sr  Sr0  1  0.146712  0.395731  0.598579  1
  Sr  Sr1  1  0.853204  0.605490  0.099412  1
  Sr  Sr2  1  0.146460  0.105296  0.400546  1
  Sr  Sr3  1  0.852371  0.893594  0.901325  1
  Sr  Sr4  1  0.853204  0.605490  0.400588  1
  Sr  Sr5  1  0.146712  0.395731  0.901421  1
  Sr  Sr6  1  0.852371  0.893594  0.598675  1
  Sr  Sr7  1  0.146460  0.105296  0.099454  1
  Sr  Sr8  1  0.647392  0.253824  0.750000  1
  Sr  Sr9  1  0.351447  0.747364  0.250000  1
  Sr  Sr10  1  0.648694  0.246994  0.250000  1
  Sr  Sr11  1  0.352038  0.752210  0.750000  1
  Sn  Sn12  1  0.631776  0.250386  0.499893  1
  Sn  Sn13  1  0.369038  0.749661  0.000103  1
  Sn  Sn14  1  0.369038  0.749661  0.499897  1
  Sn  Sn15  1  0.631776  0.250386  0.000107  1
  Sn  Sn16  1  0.842116  0.898653  0.250000  1
  Sn  Sn17  1  0.158410  0.398801  0.250000  1
  Sn  Sn18  1  0.842248  0.601390  0.750000  1
  Pd  Pd19  1  0.384209  0.030228  0.585113  1
  Pd  Pd20  1  0.619336  0.968638  0.087675  1
  Pd  Pd21  1  0.380959  0.468739  0.412603  1
  Pd  Pd22  1  0.618847  0.531257  0.912592  1
  Pd  Pd23  1  0.619336  0.968638  0.412325  1
  Pd  Pd24  1  0.384209  0.030228  0.914887  1
  Pd  Pd25  1  0.618847  0.531257  0.587408  1
  Pd  Pd26  1  0.380959  0.468739  0.087397  1
  Pb  Pb27  1  0.151829  0.102727  0.750000  1
