# generated using pymatgen
data_TbYEr4(Al3Ru)8
_symmetry_space_group_name_H-M   'P 1'
_cell_length_a   8.79325709
_cell_length_b   8.79690589
_cell_length_c   9.57333800
_cell_angle_alpha   90.00000000
_cell_angle_beta   90.00000000
_cell_angle_gamma   120.04324917
_symmetry_Int_Tables_number   1
_chemical_formula_structural   TbYEr4(Al3Ru)8
_chemical_formula_sum   'Tb1 Y1 Er4 Al24 Ru8'
_cell_volume   641.03878582
_cell_formula_units_Z   1
loop_
 _symmetry_equiv_pos_site_id
 _symmetry_equiv_pos_as_xyz
  1  'x, y, z'
loop_
 _atom_site_type_symbol
 _atom_site_label
 _atom_site_symmetry_multiplicity
 _atom_site_fract_x
 _atom_site_fract_y
 _atom_site_fract_z
 _atom_site_occupancy
  Tb  Tb0  1  0.613865  0.807021  0.250000  1
  Y  Y1  1  0.192664  0.385464  0.250000  1
  Er  Er2  1  0.806204  0.612421  0.750000  1
  Er  Er3  1  0.387877  0.194096  0.750000  1
  Er  Er4  1  0.194325  0.805758  0.250000  1
  Er  Er5  1  0.806075  0.194271  0.750000  1
  Al  Al6  1  0.333076  0.666654  0.016090  1
  Al  Al7  1  0.666636  0.333564  0.981989  1
  Al  Al8  1  0.666636  0.333564  0.518011  1
  Al  Al9  1  0.333076  0.666654  0.483910  1
  Al  Al10  1  0.161893  0.323927  0.578611  1
  Al  Al11  1  0.838348  0.675805  0.422941  1
  Al  Al12  1  0.676113  0.838096  0.578505  1
  Al  Al13  1  0.838348  0.675805  0.077059  1
  Al  Al14  1  0.324178  0.161725  0.423068  1
  Al  Al15  1  0.161893  0.323927  0.921389  1
  Al  Al16  1  0.161768  0.838205  0.578056  1
  Al  Al17  1  0.324178  0.161725  0.076932  1
  Al  Al18  1  0.837826  0.162401  0.423175  1
  Al  Al19  1  0.676113  0.838096  0.921495  1
  Al  Al20  1  0.837826  0.162401  0.076825  1
  Al  Al21  1  0.161768  0.838205  0.921944  1
  Al  Al22  1  0.560940  0.122734  0.250000  1
  Al  Al23  1  0.438948  0.878353  0.750000  1
  Al  Al24  1  0.877785  0.439225  0.250000  1
  Al  Al25  1  0.121867  0.561303  0.750000  1
  Al  Al26  1  0.561443  0.438366  0.250000  1
  Al  Al27  1  0.439160  0.561080  0.750000  1
  Al  Al28  1  0.000630  0.998282  0.250000  1
  Al  Al29  1  0.999973  0.000284  0.750000  1
  Ru  Ru30  1  0.499854  0.000510  0.999456  1
  Ru  Ru31  1  0.999596  0.500082  0.999582  1
  Ru  Ru32  1  0.499854  0.000510  0.500544  1
  Ru  Ru33  1  0.499884  0.499578  0.999431  1
  Ru  Ru34  1  0.999596  0.500082  0.500418  1
  Ru  Ru35  1  0.499884  0.499578  0.500569  1
  Ru  Ru36  1  0.999952  0.000127  0.000010  1
  Ru  Ru37  1  0.999952  0.000127  0.499990  1
