# generated using pymatgen
data_Ca4Ga2IrPd3
_symmetry_space_group_name_H-M   'P 1'
_cell_length_a   5.72891130
_cell_length_b   5.77169202
_cell_length_c   7.86369142
_cell_angle_alpha   78.22019348
_cell_angle_beta   78.63909722
_cell_angle_gamma   59.43897593
_symmetry_Int_Tables_number   1
_chemical_formula_structural   Ca4Ga2IrPd3
_chemical_formula_sum   'Ca4 Ga2 Ir1 Pd3'
_cell_volume   217.83870430
_cell_formula_units_Z   1
loop_
 _symmetry_equiv_pos_site_id
 _symmetry_equiv_pos_as_xyz
  1  'x, y, z'
loop_
 _atom_site_type_symbol
 _atom_site_label
 _atom_site_symmetry_multiplicity
 _atom_site_fract_x
 _atom_site_fract_y
 _atom_site_fract_z
 _atom_site_occupancy
  Ca  Ca0  1  0.785068  0.520315  0.346334  1
  Ca  Ca1  1  0.490128  0.211850  0.144748  1
  Ca  Ca2  1  0.214710  0.488560  0.654590  1
  Ca  Ca3  1  0.510340  0.783395  0.855069  1
  Ga  Ga4  1  0.122534  0.868642  0.245045  1
  Ga  Ga5  1  0.881073  0.113091  0.756515  1
  Ir  Ir6  1  0.004977  0.736522  0.005070  1
  Pd  Pd7  1  0.258920  0.997072  0.490283  1
  Pd  Pd8  1  0.996909  0.273086  0.996657  1
  Pd  Pd9  1  0.735341  0.007467  0.505689  1
