# generated using pymatgen
data_Sc2Ga8SnPb3O20
_symmetry_space_group_name_H-M   'P 1'
_cell_length_a   10.03086519
_cell_length_b   10.03086612
_cell_length_c   5.35198663
_cell_angle_alpha   75.07359887
_cell_angle_beta   75.07359378
_cell_angle_gamma   74.06301146
_symmetry_Int_Tables_number   1
_chemical_formula_structural   Sc2Ga8SnPb3O20
_chemical_formula_sum   'Sc2 Ga8 Sn1 Pb3 O20'
_cell_volume   490.11520781
_cell_formula_units_Z   1
loop_
 _symmetry_equiv_pos_site_id
 _symmetry_equiv_pos_as_xyz
  1  'x, y, z'
loop_
 _atom_site_type_symbol
 _atom_site_label
 _atom_site_symmetry_multiplicity
 _atom_site_fract_x
 _atom_site_fract_y
 _atom_site_fract_z
 _atom_site_occupancy
  Sc  Sc0  1  0.641355  0.358645  0.500000  1
  Sc  Sc1  1  0.358645  0.641355  0.500000  1
  Ga  Ga2  1  0.279045  0.011354  0.370570  1
  Ga  Ga3  1  0.988646  0.720955  0.629430  1
  Ga  Ga4  1  0.720955  0.988646  0.629430  1
  Ga  Ga5  1  0.011354  0.279045  0.370570  1
  Ga  Ga6  1  0.580472  0.139994  0.111371  1
  Ga  Ga7  1  0.860006  0.419528  0.888629  1
  Ga  Ga8  1  0.419528  0.860006  0.888629  1
  Ga  Ga9  1  0.139994  0.580472  0.111371  1
  Sn  Sn10  1  0.500000  0.500000  0.000000  1
  Pb  Pb11  1  0.000000  0.000000  0.000000  1
  Pb  Pb12  1  0.724861  0.724861  0.199419  1
  Pb  Pb13  1  0.275139  0.275139  0.800581  1
  O  O14  1  0.569789  0.569789  0.264044  1
  O  O15  1  0.430211  0.430211  0.735956  1
  O  O16  1  0.099353  0.099353  0.300916  1
  O  O17  1  0.900647  0.900647  0.699084  1
  O  O18  1  0.397365  0.122422  0.132086  1
  O  O19  1  0.877578  0.602635  0.867914  1
  O  O20  1  0.602635  0.877578  0.867914  1
  O  O21  1  0.122422  0.397365  0.132086  1
  O  O22  1  0.335433  0.839751  0.251861  1
  O  O23  1  0.160249  0.664567  0.748139  1
  O  O24  1  0.664567  0.160249  0.748139  1
  O  O25  1  0.839751  0.335433  0.251861  1
  O  O26  1  0.993303  0.280754  0.724470  1
  O  O27  1  0.719246  0.006697  0.275530  1
  O  O28  1  0.006697  0.719246  0.275530  1
  O  O29  1  0.280754  0.993303  0.724470  1
  O  O30  1  0.697769  0.451133  0.754524  1
  O  O31  1  0.548867  0.302231  0.245476  1
  O  O32  1  0.302231  0.548867  0.245476  1
  O  O33  1  0.451133  0.697769  0.754524  1
