# generated using pymatgen
data_Rb2Ru(Cl2F)2
_symmetry_space_group_name_H-M   'P 1'
_cell_length_a   6.92897151
_cell_length_b   6.92897134
_cell_length_c   6.92897879
_cell_angle_alpha   117.79277102
_cell_angle_beta   117.79276554
_cell_angle_gamma   93.86748778
_symmetry_Int_Tables_number   1
_chemical_formula_structural   Rb2Ru(Cl2F)2
_chemical_formula_sum   'Rb2 Ru1 Cl4 F2'
_cell_volume   242.47981307
_cell_formula_units_Z   1
loop_
 _symmetry_equiv_pos_site_id
 _symmetry_equiv_pos_as_xyz
  1  'x, y, z'
loop_
 _atom_site_type_symbol
 _atom_site_label
 _atom_site_symmetry_multiplicity
 _atom_site_fract_x
 _atom_site_fract_y
 _atom_site_fract_z
 _atom_site_occupancy
  Rb  Rb0  1  0.750000  0.250000  0.500000  1
  Rb  Rb1  1  0.250000  0.750000  0.500000  1
  Ru  Ru2  1  0.000000  0.000000  0.000000  1
  Cl  Cl3  1  0.765499  0.234501  0.000000  1
  Cl  Cl4  1  0.234501  0.765499  0.000000  1
  Cl  Cl5  1  0.234500  0.234500  0.469001  1
  Cl  Cl6  1  0.765500  0.765500  0.530999  1
  F  F7  1  0.202604  0.202604  0.000000  1
  F  F8  1  0.797396  0.797396  0.000000  1
