# generated using pymatgen
data_Tb2Ga7CoNiAu
_symmetry_space_group_name_H-M   'P 1'
_cell_length_a   4.10426139
_cell_length_b   6.49748954
_cell_length_c   8.02978282
_cell_angle_alpha   90.78319791
_cell_angle_beta   104.80708694
_cell_angle_gamma   90.00000189
_symmetry_Int_Tables_number   1
_chemical_formula_structural   Tb2Ga7CoNiAu
_chemical_formula_sum   'Tb2 Ga7 Co1 Ni1 Au1'
_cell_volume   207.00171387
_cell_formula_units_Z   1
loop_
 _symmetry_equiv_pos_site_id
 _symmetry_equiv_pos_as_xyz
  1  'x, y, z'
loop_
 _atom_site_type_symbol
 _atom_site_label
 _atom_site_symmetry_multiplicity
 _atom_site_fract_x
 _atom_site_fract_y
 _atom_site_fract_z
 _atom_site_occupancy
  Tb  Tb0  1  0.878185  0.761392  0.756369  1
  Tb  Tb1  1  0.122273  0.237812  0.244547  1
  Ga  Ga2  1  0.499780  0.000443  0.999560  1
  Ga  Ga3  1  0.071127  0.737950  0.142255  1
  Ga  Ga4  1  0.929620  0.262698  0.859240  1
  Ga  Ga5  1  0.684589  0.546934  0.369176  1
  Ga  Ga6  1  0.315088  0.455587  0.630178  1
  Ga  Ga7  1  0.686892  0.946586  0.373784  1
  Ga  Ga8  1  0.312782  0.050886  0.625564  1
  Co  Co9  1  0.221754  0.748388  0.443507  1
  Ni  Ni10  1  0.778020  0.251773  0.556040  1
  Au  Au11  1  0.499890  0.499552  0.999780  1
