# generated using pymatgen
data_CaYb7Nb4O18
_symmetry_space_group_name_H-M   'P 1'
_cell_length_a   5.60804100
_cell_length_b   5.60804077
_cell_length_c   14.73468800
_cell_angle_alpha   90.00000000
_cell_angle_beta   90.00000000
_cell_angle_gamma   119.99999543
_symmetry_Int_Tables_number   1
_chemical_formula_structural   CaYb7Nb4O18
_chemical_formula_sum   'Ca1 Yb7 Nb4 O18'
_cell_volume   401.32289708
_cell_formula_units_Z   1
loop_
 _symmetry_equiv_pos_site_id
 _symmetry_equiv_pos_as_xyz
  1  'x, y, z'
loop_
 _atom_site_type_symbol
 _atom_site_label
 _atom_site_symmetry_multiplicity
 _atom_site_fract_x
 _atom_site_fract_y
 _atom_site_fract_z
 _atom_site_occupancy
  Ca  Ca0  1  0.666668  0.333334  0.975067  1
  Yb  Yb1  1  0.333334  0.666668  0.023584  1
  Yb  Yb2  1  0.666668  0.333334  0.194752  1
  Yb  Yb3  1  0.333334  0.666668  0.305482  1
  Yb  Yb4  1  0.666668  0.333334  0.475744  1
  Yb  Yb5  1  0.333334  0.666668  0.524017  1
  Yb  Yb6  1  0.666668  0.333334  0.693803  1
  Yb  Yb7  1  0.333334  0.666668  0.804591  1
  Nb  Nb8  1  0.000000  0.000000  0.146326  1
  Nb  Nb9  1  0.000000  0.000000  0.355823  1
  Nb  Nb10  1  0.000000  0.000000  0.644378  1
  Nb  Nb11  1  0.000000  0.000000  0.853764  1
  O  O12  1  0.710057  0.038402  0.088879  1
  O  O13  1  0.328346  0.289943  0.088879  1
  O  O14  1  0.961597  0.671654  0.088879  1
  O  O15  1  0.268674  0.002713  0.251109  1
  O  O16  1  0.997287  0.265962  0.251109  1
  O  O17  1  0.734038  0.731326  0.251109  1
  O  O18  1  0.286505  0.331480  0.412990  1
  O  O19  1  0.044976  0.713494  0.412990  1
  O  O20  1  0.668519  0.955022  0.412990  1
  O  O21  1  0.331164  0.044274  0.587299  1
  O  O22  1  0.955727  0.286891  0.587299  1
  O  O23  1  0.713109  0.668834  0.587299  1
  O  O24  1  0.732643  0.999916  0.749238  1
  O  O25  1  0.267271  0.267356  0.749238  1
  O  O26  1  0.000084  0.732728  0.749238  1
  O  O27  1  0.046710  0.331457  0.911375  1
  O  O28  1  0.668543  0.715252  0.911375  1
  O  O29  1  0.284747  0.953288  0.911375  1
