# generated using pymatgen
data_Pa3(SiPt)4
_symmetry_space_group_name_H-M   'P 1'
_cell_length_a   4.06366512
_cell_length_b   4.16046951
_cell_length_c   12.55460205
_cell_angle_alpha   99.53762937
_cell_angle_beta   99.31369098
_cell_angle_gamma   89.99999799
_symmetry_Int_Tables_number   1
_chemical_formula_structural   Pa3(SiPt)4
_chemical_formula_sum   'Pa3 Si4 Pt4'
_cell_volume   206.48560822
_cell_formula_units_Z   1
loop_
 _symmetry_equiv_pos_site_id
 _symmetry_equiv_pos_as_xyz
  1  'x, y, z'
loop_
 _atom_site_type_symbol
 _atom_site_label
 _atom_site_symmetry_multiplicity
 _atom_site_fract_x
 _atom_site_fract_y
 _atom_site_fract_z
 _atom_site_occupancy
  Pa  Pa0  1  0.856248  0.356248  0.712496  1
  Pa  Pa1  1  0.143752  0.643752  0.287504  1
  Pa  Pa2  1  0.000000  0.000000  0.000000  1
  Si  Si3  1  0.451973  0.451973  0.903945  1
  Si  Si4  1  0.548027  0.548027  0.096055  1
  Si  Si5  1  0.694008  0.194008  0.388016  1
  Si  Si6  1  0.305992  0.805992  0.611984  1
  Pt  Pt7  1  0.251003  0.251003  0.502007  1
  Pt  Pt8  1  0.748997  0.748997  0.497993  1
  Pt  Pt9  1  0.596327  0.096327  0.192655  1
  Pt  Pt10  1  0.403673  0.903673  0.807345  1
