# generated using pymatgen
data_Sr10SiGeBi4
_symmetry_space_group_name_H-M   'P 1'
_cell_length_a   8.67301800
_cell_length_b   10.09043500
_cell_length_c   13.77210300
_cell_angle_alpha   90.00000000
_cell_angle_beta   90.00000000
_cell_angle_gamma   90.00000000
_symmetry_Int_Tables_number   1
_chemical_formula_structural   Sr10SiGeBi4
_chemical_formula_sum   'Sr20 Si2 Ge2 Bi8'
_cell_volume   1205.25904380
_cell_formula_units_Z   2
loop_
 _symmetry_equiv_pos_site_id
 _symmetry_equiv_pos_as_xyz
  1  'x, y, z'
loop_
 _atom_site_type_symbol
 _atom_site_label
 _atom_site_symmetry_multiplicity
 _atom_site_fract_x
 _atom_site_fract_y
 _atom_site_fract_z
 _atom_site_occupancy
  Sr  Sr0  1  0.826674  0.528316  0.076974  1
  Sr  Sr1  1  0.673326  0.971684  0.576974  1
  Sr  Sr2  1  0.173526  0.027325  0.923015  1
  Sr  Sr3  1  0.326474  0.472675  0.423015  1
  Sr  Sr4  1  0.173526  0.472675  0.923015  1
  Sr  Sr5  1  0.326474  0.027325  0.423015  1
  Sr  Sr6  1  0.826674  0.971684  0.076974  1
  Sr  Sr7  1  0.673326  0.528316  0.576974  1
  Sr  Sr8  1  0.170165  0.750000  0.214492  1
  Sr  Sr9  1  0.329835  0.750000  0.714492  1
  Sr  Sr10  1  0.829697  0.250000  0.785112  1
  Sr  Sr11  1  0.670303  0.250000  0.285112  1
  Sr  Sr12  1  0.442581  0.750000  0.000332  1
  Sr  Sr13  1  0.057419  0.750000  0.500332  1
  Sr  Sr14  1  0.556802  0.250000  0.999659  1
  Sr  Sr15  1  0.943198  0.250000  0.499659  1
  Sr  Sr16  1  0.643955  0.750000  0.305593  1
  Sr  Sr17  1  0.856045  0.750000  0.805593  1
  Sr  Sr18  1  0.355583  0.250000  0.694856  1
  Sr  Sr19  1  0.144417  0.250000  0.194856  1
  Si  Si20  1  0.441095  0.750000  0.492503  1
  Si  Si21  1  0.058905  0.750000  0.992503  1
  Ge  Ge22  1  0.558847  0.250000  0.507481  1
  Ge  Ge23  1  0.941153  0.250000  0.007481  1
  Bi  Bi24  1  0.943699  0.506528  0.330866  1
  Bi  Bi25  1  0.556301  0.993472  0.830866  1
  Bi  Bi26  1  0.056317  0.006446  0.669131  1
  Bi  Bi27  1  0.443683  0.493554  0.169131  1
  Bi  Bi28  1  0.056317  0.493554  0.669131  1
  Bi  Bi29  1  0.443683  0.006446  0.169131  1
  Bi  Bi30  1  0.943699  0.993472  0.330866  1
  Bi  Bi31  1  0.556301  0.506528  0.830866  1
