# generated using pymatgen
data_Nd16Hg4Ru3Au
_symmetry_space_group_name_H-M   'P 1'
_cell_length_a   9.93454071
_cell_length_b   9.93454102
_cell_length_c   9.93454127
_cell_angle_alpha   60.23457242
_cell_angle_beta   60.23456277
_cell_angle_gamma   60.23457833
_symmetry_Int_Tables_number   1
_chemical_formula_structural   Nd16Hg4Ru3Au
_chemical_formula_sum   'Nd16 Hg4 Ru3 Au1'
_cell_volume   696.99328586
_cell_formula_units_Z   1
loop_
 _symmetry_equiv_pos_site_id
 _symmetry_equiv_pos_as_xyz
  1  'x, y, z'
loop_
 _atom_site_type_symbol
 _atom_site_label
 _atom_site_symmetry_multiplicity
 _atom_site_fract_x
 _atom_site_fract_y
 _atom_site_fract_z
 _atom_site_occupancy
  Nd  Nd0  1  0.345986  0.345986  0.345986  1
  Nd  Nd1  1  0.356842  0.356842  0.943156  1
  Nd  Nd2  1  0.356842  0.943156  0.356842  1
  Nd  Nd3  1  0.943156  0.356842  0.356842  1
  Nd  Nd4  1  0.796261  0.192503  0.192503  1
  Nd  Nd5  1  0.190050  0.809087  0.809087  1
  Nd  Nd6  1  0.192503  0.796261  0.192503  1
  Nd  Nd7  1  0.809087  0.190050  0.809087  1
  Nd  Nd8  1  0.192503  0.192503  0.796261  1
  Nd  Nd9  1  0.809087  0.809087  0.190050  1
  Nd  Nd10  1  0.941514  0.562409  0.562409  1
  Nd  Nd11  1  0.564105  0.940371  0.940371  1
  Nd  Nd12  1  0.562409  0.941514  0.562409  1
  Nd  Nd13  1  0.940371  0.564105  0.940371  1
  Nd  Nd14  1  0.562409  0.562409  0.941514  1
  Nd  Nd15  1  0.940371  0.940371  0.564105  1
  Hg  Hg16  1  0.583996  0.583996  0.583996  1
  Hg  Hg17  1  0.582619  0.582619  0.249394  1
  Hg  Hg18  1  0.582619  0.249394  0.582619  1
  Hg  Hg19  1  0.249394  0.582619  0.582619  1
  Ru  Ru20  1  0.138384  0.138384  0.578340  1
  Ru  Ru21  1  0.138384  0.578340  0.138384  1
  Ru  Ru22  1  0.578340  0.138384  0.138384  1
  Au  Au23  1  0.142769  0.142769  0.142769  1
