# generated using pymatgen
data_Er3NiSn(RhPb)2
_symmetry_space_group_name_H-M   'P 1'
_cell_length_a   7.60401500
_cell_length_b   7.62124931
_cell_length_c   3.78811500
_cell_angle_alpha   90.00000000
_cell_angle_beta   90.00000000
_cell_angle_gamma   119.92521028
_symmetry_Int_Tables_number   1
_chemical_formula_structural   Er3NiSn(RhPb)2
_chemical_formula_sum   'Er3 Ni1 Sn1 Rh2 Pb2'
_cell_volume   190.26097808
_cell_formula_units_Z   1
loop_
 _symmetry_equiv_pos_site_id
 _symmetry_equiv_pos_as_xyz
  1  'x, y, z'
loop_
 _atom_site_type_symbol
 _atom_site_label
 _atom_site_symmetry_multiplicity
 _atom_site_fract_x
 _atom_site_fract_y
 _atom_site_fract_z
 _atom_site_occupancy
  Er  Er0  1  0.406080  0.401862  0.000000  1
  Er  Er1  1  0.004218  0.598138  0.000000  1
  Er  Er2  1  0.590607  0.000000  0.000000  1
  Ni  Ni3  1  0.008503  0.000000  0.000000  1
  Sn  Sn4  1  0.257181  0.000000  0.500000  1
  Rh  Rh5  1  0.658627  0.326942  0.500000  1
  Rh  Rh6  1  0.331684  0.673058  0.500000  1
  Pb  Pb7  1  0.742441  0.741784  0.500000  1
  Pb  Pb8  1  0.000658  0.258216  0.500000  1
