# generated using pymatgen
data_Nd3Mg2ScGe2Pt
_symmetry_space_group_name_H-M   'P 1'
_cell_length_a   7.56801111
_cell_length_b   7.47442171
_cell_length_c   4.39823900
_cell_angle_alpha   90.00000000
_cell_angle_beta   90.00000000
_cell_angle_gamma   119.59175841
_symmetry_Int_Tables_number   1
_chemical_formula_structural   Nd3Mg2ScGe2Pt
_chemical_formula_sum   'Nd3 Mg2 Sc1 Ge2 Pt1'
_cell_volume   216.34193969
_cell_formula_units_Z   1
loop_
 _symmetry_equiv_pos_site_id
 _symmetry_equiv_pos_as_xyz
  1  'x, y, z'
loop_
 _atom_site_type_symbol
 _atom_site_label
 _atom_site_symmetry_multiplicity
 _atom_site_fract_x
 _atom_site_fract_y
 _atom_site_fract_z
 _atom_site_occupancy
  Nd  Nd0  1  0.414369  0.408928  0.000000  1
  Nd  Nd1  1  0.585631  0.994559  0.000000  1
  Nd  Nd2  1  0.000000  0.596185  0.000000  1
  Mg  Mg3  1  0.759509  0.758001  0.500000  1
  Mg  Mg4  1  0.240491  0.998492  0.500000  1
  Sc  Sc5  1  0.000000  0.234087  0.500000  1
  Ge  Ge6  1  0.672375  0.332878  0.500000  1
  Ge  Ge7  1  0.327625  0.660504  0.500000  1
  Pt  Pt8  1  0.000000  0.016366  0.000000  1
