# generated using pymatgen
data_NdSm7GaPd24
_symmetry_space_group_name_H-M   'P 1'
_cell_length_a   8.45453500
_cell_length_b   8.45453500
_cell_length_c   8.45453500
_cell_angle_alpha   89.99726209
_cell_angle_beta   89.99726209
_cell_angle_gamma   89.99726209
_symmetry_Int_Tables_number   1
_chemical_formula_structural   NdSm7GaPd24
_chemical_formula_sum   'Nd1 Sm7 Ga1 Pd24'
_cell_volume   604.32307642
_cell_formula_units_Z   1
loop_
 _symmetry_equiv_pos_site_id
 _symmetry_equiv_pos_as_xyz
  1  'x, y, z'
loop_
 _atom_site_type_symbol
 _atom_site_label
 _atom_site_symmetry_multiplicity
 _atom_site_fract_x
 _atom_site_fract_y
 _atom_site_fract_z
 _atom_site_occupancy
  Nd  Nd0  1  0.251997  0.251997  0.251997  1
  Sm  Sm1  1  0.747920  0.747920  0.747920  1
  Sm  Sm2  1  0.748050  0.748050  0.252041  1
  Sm  Sm3  1  0.748050  0.252041  0.748050  1
  Sm  Sm4  1  0.251965  0.251965  0.747985  1
  Sm  Sm5  1  0.251965  0.747985  0.251965  1
  Sm  Sm6  1  0.252041  0.748050  0.748050  1
  Sm  Sm7  1  0.747985  0.251965  0.251965  1
  Ga  Ga8  1  0.999915  0.999915  0.999915  1
  Pd  Pd9  1  0.260514  0.500822  0.999062  1
  Pd  Pd10  1  0.739459  0.499858  0.000161  1
  Pd  Pd11  1  0.999062  0.260514  0.500822  1
  Pd  Pd12  1  0.500822  0.260514  0.999062  1
  Pd  Pd13  1  0.000161  0.739459  0.499858  1
  Pd  Pd14  1  0.499858  0.739459  0.000161  1
  Pd  Pd15  1  0.500822  0.999062  0.260514  1
  Pd  Pd16  1  0.260514  0.999062  0.500822  1
  Pd  Pd17  1  0.499858  0.000161  0.739459  1
  Pd  Pd18  1  0.739459  0.000161  0.499858  1
  Pd  Pd19  1  0.999062  0.500822  0.260514  1
  Pd  Pd20  1  0.000161  0.499858  0.739459  1
  Pd  Pd21  1  0.253063  0.500962  0.500962  1
  Pd  Pd22  1  0.746949  0.499812  0.499812  1
  Pd  Pd23  1  0.500962  0.253063  0.500962  1
  Pd  Pd24  1  0.499812  0.746949  0.499812  1
  Pd  Pd25  1  0.500962  0.500962  0.253063  1
  Pd  Pd26  1  0.499812  0.499812  0.746949  1
  Pd  Pd27  1  0.292994  0.999229  0.999229  1
  Pd  Pd28  1  0.707134  0.000108  0.000108  1
  Pd  Pd29  1  0.999229  0.292994  0.999229  1
  Pd  Pd30  1  0.000108  0.707134  0.000108  1
  Pd  Pd31  1  0.999229  0.999229  0.292994  1
  Pd  Pd32  1  0.000108  0.000108  0.707134  1
