# generated using pymatgen
data_Ho10Hg3Pt
_symmetry_space_group_name_H-M   'P 1'
_cell_length_a   9.55596800
_cell_length_b   9.55598855
_cell_length_c   9.67372700
_cell_angle_alpha   90.00000000
_cell_angle_beta   90.00000000
_cell_angle_gamma   120.00066966
_symmetry_Int_Tables_number   1
_chemical_formula_structural   Ho10Hg3Pt
_chemical_formula_sum   'Ho20 Hg6 Pt2'
_cell_volume   765.01832063
_cell_formula_units_Z   2
loop_
 _symmetry_equiv_pos_site_id
 _symmetry_equiv_pos_as_xyz
  1  'x, y, z'
loop_
 _atom_site_type_symbol
 _atom_site_label
 _atom_site_symmetry_multiplicity
 _atom_site_fract_x
 _atom_site_fract_y
 _atom_site_fract_z
 _atom_site_occupancy
  Ho  Ho0  1  0.000000  0.000000  0.500000  1
  Ho  Ho1  1  0.000000  0.000000  0.000000  1
  Ho  Ho2  1  0.208094  0.791910  0.442217  1
  Ho  Ho3  1  0.208079  0.416170  0.442204  1
  Ho  Ho4  1  0.583817  0.791912  0.442210  1
  Ho  Ho5  1  0.791906  0.208090  0.557783  1
  Ho  Ho6  1  0.791921  0.583830  0.557796  1
  Ho  Ho7  1  0.416183  0.208088  0.557790  1
  Ho  Ho8  1  0.791906  0.208090  0.942217  1
  Ho  Ho9  1  0.791921  0.583830  0.942204  1
  Ho  Ho10  1  0.416183  0.208088  0.942210  1
  Ho  Ho11  1  0.208094  0.791910  0.057783  1
  Ho  Ho12  1  0.208079  0.416170  0.057796  1
  Ho  Ho13  1  0.583817  0.791912  0.057790  1
  Ho  Ho14  1  0.542061  0.457938  0.250000  1
  Ho  Ho15  1  0.542057  0.084122  0.250000  1
  Ho  Ho16  1  0.915879  0.457953  0.250000  1
  Ho  Ho17  1  0.457939  0.542062  0.750000  1
  Ho  Ho18  1  0.457943  0.915878  0.750000  1
  Ho  Ho19  1  0.084121  0.542047  0.750000  1
  Hg  Hg20  1  0.881077  0.118939  0.250000  1
  Hg  Hg21  1  0.881059  0.762138  0.250000  1
  Hg  Hg22  1  0.237860  0.118947  0.250000  1
  Hg  Hg23  1  0.118923  0.881061  0.750000  1
  Hg  Hg24  1  0.118941  0.237862  0.750000  1
  Hg  Hg25  1  0.762140  0.881053  0.750000  1
  Pt  Pt26  1  0.333310  0.666684  0.250000  1
  Pt  Pt27  1  0.666690  0.333316  0.750000  1
