# generated using pymatgen
data_Tm4ZnAs5Ir7
_symmetry_space_group_name_H-M   'P 1'
_cell_length_a   7.23129404
_cell_length_b   7.23129417
_cell_length_c   7.23129400
_cell_angle_alpha   109.83606732
_cell_angle_beta   108.74396483
_cell_angle_gamma   109.83606353
_symmetry_Int_Tables_number   1
_chemical_formula_structural   Tm4ZnAs5Ir7
_chemical_formula_sum   'Tm4 Zn1 As5 Ir7'
_cell_volume   291.05415490
_cell_formula_units_Z   1
loop_
 _symmetry_equiv_pos_site_id
 _symmetry_equiv_pos_as_xyz
  1  'x, y, z'
loop_
 _atom_site_type_symbol
 _atom_site_label
 _atom_site_symmetry_multiplicity
 _atom_site_fract_x
 _atom_site_fract_y
 _atom_site_fract_z
 _atom_site_occupancy
  Tm  Tm0  1  0.493748  0.497968  0.493748  1
  Tm  Tm1  1  0.995780  0.502032  0.995780  1
  Tm  Tm2  1  0.493748  0.000000  0.995780  1
  Tm  Tm3  1  0.995780  0.000000  0.493748  1
  Zn  Zn4  1  0.697137  0.000000  0.697137  1
  As  As5  1  0.680769  0.684979  0.995791  1
  As  As6  1  0.310812  0.315021  0.995791  1
  As  As7  1  0.995791  0.684979  0.680769  1
  As  As8  1  0.995791  0.315021  0.310812  1
  As  As9  1  0.330194  0.000000  0.330194  1
  Ir  Ir10  1  0.499372  0.748641  0.248012  1
  Ir  Ir11  1  0.750731  0.251359  0.499372  1
  Ir  Ir12  1  0.248012  0.748641  0.499372  1
  Ir  Ir13  1  0.247052  0.500000  0.747052  1
  Ir  Ir14  1  0.018859  0.000000  0.018859  1
  Ir  Ir15  1  0.499372  0.251359  0.750731  1
  Ir  Ir16  1  0.747052  0.500000  0.247052  1
