# generated using pymatgen
data_CaAlSbO5
_symmetry_space_group_name_H-M   'P 1'
_cell_length_a   9.06450900
_cell_length_b   6.74974190
_cell_length_c   7.65503047
_cell_angle_alpha   61.12489400
_cell_angle_beta   90.00000000
_cell_angle_gamma   90.00000000
_symmetry_Int_Tables_number   1
_chemical_formula_structural   CaAlSbO5
_chemical_formula_sum   'Ca4 Al4 Sb4 O20'
_cell_volume   410.12952861
_cell_formula_units_Z   4
loop_
 _symmetry_equiv_pos_site_id
 _symmetry_equiv_pos_as_xyz
  1  'x, y, z'
loop_
 _atom_site_type_symbol
 _atom_site_label
 _atom_site_symmetry_multiplicity
 _atom_site_fract_x
 _atom_site_fract_y
 _atom_site_fract_z
 _atom_site_occupancy
  Ca  Ca0  1  0.662429  0.710135  0.284799  1
  Ca  Ca1  1  0.837571  0.710135  0.784799  1
  Ca  Ca2  1  0.337571  0.289865  0.715201  1
  Ca  Ca3  1  0.162429  0.289865  0.215201  1
  Al  Al4  1  0.186765  0.759644  0.748001  1
  Al  Al5  1  0.686765  0.240356  0.751999  1
  Al  Al6  1  0.313235  0.759644  0.248001  1
  Al  Al7  1  0.813235  0.240356  0.251999  1
  Sb  Sb8  1  0.500000  0.000000  0.500000  1
  Sb  Sb9  1  0.500000  0.500000  0.000000  1
  Sb  Sb10  1  0.000000  0.500000  0.500000  1
  Sb  Sb11  1  0.000000  0.000000  0.000000  1
  O  O12  1  0.801447  0.000249  0.883113  1
  O  O13  1  0.563797  0.236288  0.571509  1
  O  O14  1  0.916709  0.756937  0.254279  1
  O  O15  1  0.436203  0.763712  0.428491  1
  O  O16  1  0.698553  0.000249  0.383113  1
  O  O17  1  0.202596  0.513089  0.386191  1
  O  O18  1  0.416709  0.243063  0.245721  1
  O  O19  1  0.702596  0.486911  0.113809  1
  O  O20  1  0.797404  0.486911  0.613809  1
  O  O21  1  0.555340  0.285071  0.900896  1
  O  O22  1  0.944660  0.285071  0.400896  1
  O  O23  1  0.063797  0.763712  0.928491  1
  O  O24  1  0.936203  0.236288  0.071509  1
  O  O25  1  0.583291  0.756937  0.754279  1
  O  O26  1  0.055340  0.714929  0.599104  1
  O  O27  1  0.444660  0.714929  0.099104  1
  O  O28  1  0.297404  0.513089  0.886191  1
  O  O29  1  0.301447  0.999751  0.616887  1
  O  O30  1  0.083291  0.243063  0.745721  1
  O  O31  1  0.198553  0.999751  0.116887  1
