# generated using pymatgen
data_Zr2(ScRe8)3
_symmetry_space_group_name_H-M   'P 1'
_cell_length_a   8.47345481
_cell_length_b   8.47101135
_cell_length_c   8.47345503
_cell_angle_alpha   109.47230185
_cell_angle_beta   109.48074364
_cell_angle_gamma   109.47229743
_symmetry_Int_Tables_number   1
_chemical_formula_structural   Zr2(ScRe8)3
_chemical_formula_sum   'Zr2 Sc3 Re24'
_cell_volume   468.13573460
_cell_formula_units_Z   1
loop_
 _symmetry_equiv_pos_site_id
 _symmetry_equiv_pos_as_xyz
  1  'x, y, z'
loop_
 _atom_site_type_symbol
 _atom_site_label
 _atom_site_symmetry_multiplicity
 _atom_site_fract_x
 _atom_site_fract_y
 _atom_site_fract_z
 _atom_site_occupancy
  Zr  Zr0  1  0.367514  0.367376  0.367514  1
  Zr  Zr1  1  0.000138  0.632624  0.000138  1
  Sc  Sc2  1  0.632431  0.000000  0.999991  1
  Sc  Sc3  1  0.999991  0.000000  0.632431  1
  Sc  Sc4  1  0.997931  0.000000  0.997931  1
  Re  Re5  1  0.999101  0.396550  0.676714  1
  Re  Re6  1  0.280165  0.603450  0.602551  1
  Re  Re7  1  0.720819  0.323558  0.322480  1
  Re  Re8  1  0.322971  0.720563  0.322971  1
  Re  Re9  1  0.677195  0.000000  0.397514  1
  Re  Re10  1  0.998923  0.676442  0.397263  1
  Re  Re11  1  0.602551  0.603450  0.280165  1
  Re  Re12  1  0.807099  0.808195  0.185302  1
  Re  Re13  1  0.377107  0.191805  0.998903  1
  Re  Re14  1  0.193413  0.377179  0.999202  1
  Re  Re15  1  0.623682  0.815460  0.623682  1
  Re  Re16  1  0.378939  0.000000  0.193765  1
  Re  Re17  1  0.999202  0.377179  0.193413  1
  Re  Re18  1  0.816233  0.622821  0.622023  1
  Re  Re19  1  0.185302  0.808195  0.807099  1
  Re  Re20  1  0.808222  0.184540  0.808222  1
  Re  Re21  1  0.193765  0.000000  0.378939  1
  Re  Re22  1  0.998903  0.191805  0.377107  1
  Re  Re23  1  0.622023  0.622821  0.816233  1
  Re  Re24  1  0.397514  0.000000  0.677195  1
  Re  Re25  1  0.602407  0.279437  0.602407  1
  Re  Re26  1  0.676714  0.396550  0.999101  1
  Re  Re27  1  0.397263  0.676442  0.998923  1
  Re  Re28  1  0.322480  0.323558  0.720819  1
