# generated using pymatgen
data_CaY6Co6Sn23
_symmetry_space_group_name_H-M   'P 1'
_cell_length_a   9.73754900
_cell_length_b   9.73755079
_cell_length_c   9.96467500
_cell_angle_alpha   90.00000000
_cell_angle_beta   90.00000000
_cell_angle_gamma   120.00000413
_symmetry_Int_Tables_number   1
_chemical_formula_structural   CaY6Co6Sn23
_chemical_formula_sum   'Ca1 Y6 Co6 Sn23'
_cell_volume   818.26343388
_cell_formula_units_Z   1
loop_
 _symmetry_equiv_pos_site_id
 _symmetry_equiv_pos_as_xyz
  1  'x, y, z'
loop_
 _atom_site_type_symbol
 _atom_site_label
 _atom_site_symmetry_multiplicity
 _atom_site_fract_x
 _atom_site_fract_y
 _atom_site_fract_z
 _atom_site_occupancy
  Ca  Ca0  1  0.000000  0.000000  0.000000  1
  Y  Y1  1  0.043339  0.521670  0.305998  1
  Y  Y2  1  0.478330  0.956661  0.305998  1
  Y  Y3  1  0.478330  0.521670  0.305998  1
  Y  Y4  1  0.956661  0.478330  0.694002  1
  Y  Y5  1  0.521670  0.043339  0.694002  1
  Y  Y6  1  0.521670  0.478330  0.694002  1
  Co  Co7  1  0.168050  0.831950  0.801893  1
  Co  Co8  1  0.663900  0.831950  0.801893  1
  Co  Co9  1  0.168050  0.336100  0.801893  1
  Co  Co10  1  0.831950  0.168050  0.198107  1
  Co  Co11  1  0.336100  0.168050  0.198107  1
  Co  Co12  1  0.831950  0.663900  0.198107  1
  Sn  Sn13  1  0.000000  0.000000  0.500000  1
  Sn  Sn14  1  0.117136  0.882864  0.274307  1
  Sn  Sn15  1  0.765727  0.882864  0.274307  1
  Sn  Sn16  1  0.117136  0.234273  0.274307  1
  Sn  Sn17  1  0.882864  0.117136  0.725693  1
  Sn  Sn18  1  0.234273  0.117136  0.725693  1
  Sn  Sn19  1  0.882864  0.765727  0.725693  1
  Sn  Sn20  1  0.345658  0.000000  0.000000  1
  Sn  Sn21  1  0.654342  0.654342  0.000000  1
  Sn  Sn22  1  0.000000  0.345658  0.000000  1
  Sn  Sn23  1  0.345658  0.345658  0.000000  1
  Sn  Sn24  1  0.000000  0.654342  0.000000  1
  Sn  Sn25  1  0.654342  0.000000  0.000000  1
  Sn  Sn26  1  0.781166  0.562332  0.451109  1
  Sn  Sn27  1  0.781166  0.218834  0.451109  1
  Sn  Sn28  1  0.437668  0.218834  0.451109  1
  Sn  Sn29  1  0.218834  0.437668  0.548891  1
  Sn  Sn30  1  0.218834  0.781166  0.548891  1
  Sn  Sn31  1  0.562332  0.781166  0.548891  1
  Sn  Sn32  1  0.666667  0.333333  0.183827  1
  Sn  Sn33  1  0.333333  0.666667  0.816173  1
  Sn  Sn34  1  0.666667  0.333333  0.883748  1
  Sn  Sn35  1  0.333333  0.666667  0.116252  1
