# generated using pymatgen
data_YHo4Tl3InPd2
_symmetry_space_group_name_H-M   'P 1'
_cell_length_a   3.61847600
_cell_length_b   8.21588683
_cell_length_c   18.36324311
_cell_angle_alpha   89.92344733
_cell_angle_beta   90.00000000
_cell_angle_gamma   90.00000000
_symmetry_Int_Tables_number   1
_chemical_formula_structural   YHo4Tl3InPd2
_chemical_formula_sum   'Y2 Ho8 Tl6 In2 Pd4'
_cell_volume   545.92017075
_cell_formula_units_Z   2
loop_
 _symmetry_equiv_pos_site_id
 _symmetry_equiv_pos_as_xyz
  1  'x, y, z'
loop_
 _atom_site_type_symbol
 _atom_site_label
 _atom_site_symmetry_multiplicity
 _atom_site_fract_x
 _atom_site_fract_y
 _atom_site_fract_z
 _atom_site_occupancy
  Y  Y0  1  0.000000  0.500000  0.500000  1
  Y  Y1  1  0.000000  0.000000  0.000000  1
  Ho  Ho2  1  0.000000  0.739740  0.281077  1
  Ho  Ho3  1  0.000000  0.260260  0.718923  1
  Ho  Ho4  1  0.000000  0.759977  0.781659  1
  Ho  Ho5  1  0.000000  0.240023  0.218341  1
  Ho  Ho6  1  0.000000  0.617437  0.085222  1
  Ho  Ho7  1  0.000000  0.382563  0.914778  1
  Ho  Ho8  1  0.000000  0.884311  0.586129  1
  Ho  Ho9  1  0.000000  0.115689  0.413871  1
  Tl  Tl10  1  0.500000  0.707316  0.933524  1
  Tl  Tl11  1  0.500000  0.292684  0.066476  1
  Tl  Tl12  1  0.500000  0.795051  0.434390  1
  Tl  Tl13  1  0.500000  0.204949  0.565610  1
  Tl  Tl14  1  0.500000  0.584881  0.650352  1
  Tl  Tl15  1  0.500000  0.415119  0.349648  1
  In  In16  1  0.500000  0.916001  0.151002  1
  In  In17  1  0.500000  0.083999  0.848998  1
  Pd  Pd18  1  0.500000  0.528570  0.196332  1
  Pd  Pd19  1  0.500000  0.471430  0.803668  1
  Pd  Pd20  1  0.500000  0.976187  0.698328  1
  Pd  Pd21  1  0.500000  0.023813  0.301672  1
