# generated using pymatgen
data_TbHo11(ThSn2)8
_symmetry_space_group_name_H-M   'P 1'
_cell_length_a   8.12273405
_cell_length_b   8.21839019
_cell_length_c   15.52541000
_cell_angle_alpha   89.99669544
_cell_angle_beta   89.99373627
_cell_angle_gamma   89.98822451
_symmetry_Int_Tables_number   1
_chemical_formula_structural   TbHo11(ThSn2)8
_chemical_formula_sum   'Tb1 Ho11 Th8 Sn16'
_cell_volume   1036.41110089
_cell_formula_units_Z   1
loop_
 _symmetry_equiv_pos_site_id
 _symmetry_equiv_pos_as_xyz
  1  'x, y, z'
loop_
 _atom_site_type_symbol
 _atom_site_label
 _atom_site_symmetry_multiplicity
 _atom_site_fract_x
 _atom_site_fract_y
 _atom_site_fract_z
 _atom_site_occupancy
  Tb  Tb0  1  0.362427  0.836357  0.876506  1
  Ho  Ho1  1  0.862430  0.663283  0.623611  1
  Ho  Ho2  1  0.637590  0.163383  0.376222  1
  Ho  Ho3  1  0.137495  0.336700  0.124038  1
  Ho  Ho4  1  0.637585  0.163316  0.123801  1
  Ho  Ho5  1  0.137577  0.336716  0.376209  1
  Ho  Ho6  1  0.362291  0.836650  0.623639  1
  Ho  Ho7  1  0.862322  0.663437  0.876168  1
  Ho  Ho8  1  0.190939  0.497865  0.749872  1
  Ho  Ho9  1  0.691288  0.002144  0.749878  1
  Ho  Ho10  1  0.808835  0.502041  0.250024  1
  Ho  Ho11  1  0.308843  0.998001  0.250082  1
  Th  Th12  1  0.519093  0.320608  0.903489  1
  Th  Th13  1  0.019137  0.179367  0.596437  1
  Th  Th14  1  0.480883  0.679371  0.403423  1
  Th  Th15  1  0.980941  0.820738  0.096592  1
  Th  Th16  1  0.480944  0.679336  0.096727  1
  Th  Th17  1  0.980844  0.820688  0.403465  1
  Th  Th18  1  0.519200  0.320598  0.596423  1
  Th  Th19  1  0.019144  0.179395  0.903489  1
  Sn  Sn20  1  0.297985  0.039884  0.042949  1
  Sn  Sn21  1  0.798156  0.460692  0.457628  1
  Sn  Sn22  1  0.701754  0.960667  0.542103  1
  Sn  Sn23  1  0.201207  0.538119  0.958116  1
  Sn  Sn24  1  0.703012  0.961156  0.958034  1
  Sn  Sn25  1  0.201909  0.539246  0.542068  1
  Sn  Sn26  1  0.298114  0.039339  0.457641  1
  Sn  Sn27  1  0.798141  0.460755  0.042368  1
  Sn  Sn28  1  0.558118  0.621457  0.749450  1
  Sn  Sn29  1  0.057269  0.877863  0.749597  1
  Sn  Sn30  1  0.442357  0.377828  0.250051  1
  Sn  Sn31  1  0.942317  0.122309  0.250098  1
  Sn  Sn32  1  0.324805  0.142783  0.749773  1
  Sn  Sn33  1  0.824853  0.357642  0.749975  1
  Sn  Sn34  1  0.675097  0.857688  0.250029  1
  Sn  Sn35  1  0.175099  0.642576  0.250021  1
