# generated using pymatgen
data_Pr5Y3(HoBi)12
_symmetry_space_group_name_H-M   'P 1'
_cell_length_a   8.36298644
_cell_length_b   9.55849900
_cell_length_c   12.26008763
_cell_angle_alpha   90.00000000
_cell_angle_beta   89.96299989
_cell_angle_gamma   90.00000000
_symmetry_Int_Tables_number   1
_chemical_formula_structural   Pr5Y3(HoBi)12
_chemical_formula_sum   'Pr5 Y3 Ho12 Bi12'
_cell_volume   980.04174648
_cell_formula_units_Z   1
loop_
 _symmetry_equiv_pos_site_id
 _symmetry_equiv_pos_as_xyz
  1  'x, y, z'
loop_
 _atom_site_type_symbol
 _atom_site_label
 _atom_site_symmetry_multiplicity
 _atom_site_fract_x
 _atom_site_fract_y
 _atom_site_fract_z
 _atom_site_occupancy
  Pr  Pr0  1  0.183438  0.750000  0.719984  1
  Pr  Pr1  1  0.684923  0.750000  0.778348  1
  Pr  Pr2  1  0.817348  0.250000  0.279569  1
  Pr  Pr3  1  0.316379  0.250000  0.220634  1
  Pr  Pr4  1  0.352853  0.750000  0.216216  1
  Y  Y5  1  0.852023  0.750000  0.283263  1
  Y  Y6  1  0.647559  0.250000  0.783285  1
  Y  Y7  1  0.146949  0.250000  0.716984  1
  Ho  Ho8  1  0.024881  0.750000  0.987905  1
  Ho  Ho9  1  0.525466  0.750000  0.513239  1
  Ho  Ho10  1  0.974650  0.250000  0.010998  1
  Ho  Ho11  1  0.475402  0.250000  0.489174  1
  Ho  Ho12  1  0.307236  0.436009  0.939661  1
  Ho  Ho13  1  0.807516  0.064238  0.560449  1
  Ho  Ho14  1  0.692452  0.935883  0.059351  1
  Ho  Ho15  1  0.192421  0.563706  0.441164  1
  Ho  Ho16  1  0.692452  0.564117  0.059351  1
  Ho  Ho17  1  0.192421  0.936294  0.441164  1
  Ho  Ho18  1  0.307236  0.063991  0.939661  1
  Ho  Ho19  1  0.807516  0.435762  0.560449  1
  Bi  Bi20  1  0.434522  0.008966  0.671096  1
  Bi  Bi21  1  0.934392  0.491257  0.828837  1
  Bi  Bi22  1  0.568396  0.505908  0.331892  1
  Bi  Bi23  1  0.062279  0.993186  0.170467  1
  Bi  Bi24  1  0.568396  0.994092  0.331892  1
  Bi  Bi25  1  0.062279  0.506814  0.170467  1
  Bi  Bi26  1  0.434522  0.491034  0.671096  1
  Bi  Bi27  1  0.934392  0.008743  0.828837  1
  Bi  Bi28  1  0.407015  0.750000  0.957722  1
  Bi  Bi29  1  0.906543  0.750000  0.536612  1
  Bi  Bi30  1  0.592806  0.250000  0.036795  1
  Bi  Bi31  1  0.093334  0.250000  0.463441  1
