# generated using pymatgen
data_Er4Hf3InPt4
_symmetry_space_group_name_H-M   'P 1'
_cell_length_a   4.58564700
_cell_length_b   7.07781832
_cell_length_c   8.23893924
_cell_angle_alpha   92.95558148
_cell_angle_beta   90.00000000
_cell_angle_gamma   90.00000000
_symmetry_Int_Tables_number   1
_chemical_formula_structural   Er4Hf3InPt4
_chemical_formula_sum   'Er4 Hf3 In1 Pt4'
_cell_volume   267.05041115
_cell_formula_units_Z   1
loop_
 _symmetry_equiv_pos_site_id
 _symmetry_equiv_pos_as_xyz
  1  'x, y, z'
loop_
 _atom_site_type_symbol
 _atom_site_label
 _atom_site_symmetry_multiplicity
 _atom_site_fract_x
 _atom_site_fract_y
 _atom_site_fract_z
 _atom_site_occupancy
  Er  Er0  1  0.750000  0.533839  0.832409  1
  Er  Er1  1  0.250000  0.488050  0.169445  1
  Er  Er2  1  0.750000  0.020010  0.678949  1
  Er  Er3  1  0.250000  0.968674  0.313146  1
  Hf  Hf4  1  0.750000  0.632666  0.429977  1
  Hf  Hf5  1  0.250000  0.352988  0.577277  1
  Hf  Hf6  1  0.750000  0.146196  0.065100  1
  In  In7  1  0.250000  0.854492  0.923793  1
  Pt  Pt8  1  0.750000  0.258969  0.396754  1
  Pt  Pt9  1  0.250000  0.727743  0.591182  1
  Pt  Pt10  1  0.750000  0.767190  0.130118  1
  Pt  Pt11  1  0.250000  0.249182  0.891850  1
