# generated using pymatgen
data_Y2Ir3Os
_symmetry_space_group_name_H-M   'P 1'
_cell_length_a   5.38925900
_cell_length_b   5.38925858
_cell_length_c   8.67648100
_cell_angle_alpha   90.00000000
_cell_angle_beta   90.00000000
_cell_angle_gamma   119.99999647
_symmetry_Int_Tables_number   1
_chemical_formula_structural   Y2Ir3Os
_chemical_formula_sum   'Y4 Ir6 Os2'
_cell_volume   218.23899064
_cell_formula_units_Z   2
loop_
 _symmetry_equiv_pos_site_id
 _symmetry_equiv_pos_as_xyz
  1  'x, y, z'
loop_
 _atom_site_type_symbol
 _atom_site_label
 _atom_site_symmetry_multiplicity
 _atom_site_fract_x
 _atom_site_fract_y
 _atom_site_fract_z
 _atom_site_occupancy
  Y  Y0  1  0.666667  0.333332  0.065430  1
  Y  Y1  1  0.666667  0.333332  0.434569  1
  Y  Y2  1  0.333334  0.666667  0.565430  1
  Y  Y3  1  0.333334  0.666667  0.934569  1
  Ir  Ir4  1  0.168968  0.337937  0.250000  1
  Ir  Ir5  1  0.168968  0.831032  0.250000  1
  Ir  Ir6  1  0.662064  0.831032  0.250000  1
  Ir  Ir7  1  0.337937  0.168969  0.750000  1
  Ir  Ir8  1  0.831033  0.168969  0.750000  1
  Ir  Ir9  1  0.831032  0.662063  0.750000  1
  Os  Os10  1  0.000000  0.000000  0.000000  1
  Os  Os11  1  0.000000  0.000000  0.500000  1
