# generated using pymatgen
data_Er2Tm3Lu3(CdPt)2
_symmetry_space_group_name_H-M   'P 1'
_cell_length_a   9.53147656
_cell_length_b   9.53147661
_cell_length_c   9.53147700
_cell_angle_alpha   60.00000212
_cell_angle_beta   60.00000195
_cell_angle_gamma   59.99999746
_symmetry_Int_Tables_number   1
_chemical_formula_structural   Er2Tm3Lu3(CdPt)2
_chemical_formula_sum   'Er4 Tm6 Lu6 Cd4 Pt4'
_cell_volume   612.30186481
_cell_formula_units_Z   2
loop_
 _symmetry_equiv_pos_site_id
 _symmetry_equiv_pos_as_xyz
  1  'x, y, z'
loop_
 _atom_site_type_symbol
 _atom_site_label
 _atom_site_symmetry_multiplicity
 _atom_site_fract_x
 _atom_site_fract_y
 _atom_site_fract_z
 _atom_site_occupancy
  Er  Er0  1  0.353176  0.353176  0.353176  1
  Er  Er1  1  0.353176  0.353176  0.940474  1
  Er  Er2  1  0.353176  0.940474  0.353176  1
  Er  Er3  1  0.940474  0.353176  0.353176  1
  Tm  Tm4  1  0.935125  0.564875  0.564875  1
  Tm  Tm5  1  0.564875  0.935125  0.935125  1
  Tm  Tm6  1  0.564875  0.935125  0.564875  1
  Tm  Tm7  1  0.935125  0.564875  0.935125  1
  Tm  Tm8  1  0.564875  0.564875  0.935125  1
  Tm  Tm9  1  0.935125  0.935125  0.564875  1
  Lu  Lu10  1  0.811434  0.188566  0.188566  1
  Lu  Lu11  1  0.188566  0.811434  0.811434  1
  Lu  Lu12  1  0.188566  0.811434  0.188566  1
  Lu  Lu13  1  0.811434  0.188566  0.811434  1
  Lu  Lu14  1  0.188566  0.188566  0.811434  1
  Lu  Lu15  1  0.811434  0.811434  0.188566  1
  Cd  Cd16  1  0.582280  0.582280  0.582280  1
  Cd  Cd17  1  0.582280  0.582280  0.253160  1
  Cd  Cd18  1  0.582280  0.253160  0.582280  1
  Cd  Cd19  1  0.253160  0.582280  0.582280  1
  Pt  Pt20  1  0.142621  0.142621  0.142621  1
  Pt  Pt21  1  0.142621  0.142621  0.572138  1
  Pt  Pt22  1  0.142621  0.572138  0.142621  1
  Pt  Pt23  1  0.572138  0.142621  0.142621  1
