# generated using pymatgen
data_YHo11Co4SnRu
_symmetry_space_group_name_H-M   'P 1'
_cell_length_a   8.25782394
_cell_length_b   8.25605905
_cell_length_c   8.25605849
_cell_angle_alpha   111.32324447
_cell_angle_beta   110.65117421
_cell_angle_gamma   106.47263248
_symmetry_Int_Tables_number   1
_chemical_formula_structural   YHo11Co4SnRu
_chemical_formula_sum   'Y1 Ho11 Co4 Sn1 Ru1'
_cell_volume   432.44645809
_cell_formula_units_Z   1
loop_
 _symmetry_equiv_pos_site_id
 _symmetry_equiv_pos_as_xyz
  1  'x, y, z'
loop_
 _atom_site_type_symbol
 _atom_site_label
 _atom_site_symmetry_multiplicity
 _atom_site_fract_x
 _atom_site_fract_y
 _atom_site_fract_z
 _atom_site_occupancy
  Y  Y0  1  0.410108  0.216712  0.193396  1
  Ho  Ho1  1  0.590339  0.784168  0.806170  1
  Ho  Ho2  1  0.021765  0.215676  0.806089  1
  Ho  Ho3  1  0.977722  0.784538  0.193184  1
  Ho  Ho4  1  0.183897  0.286002  0.470404  1
  Ho  Ho5  1  0.816542  0.715063  0.530926  1
  Ho  Ho6  1  0.183897  0.713493  0.897895  1
  Ho  Ho7  1  0.816542  0.285616  0.101480  1
  Ho  Ho8  1  0.312234  0.619739  0.306513  1
  Ho  Ho9  1  0.687846  0.380801  0.693567  1
  Ho  Ho10  1  0.312234  0.005720  0.692494  1
  Ho  Ho11  1  0.687846  0.994280  0.307046  1
  Co  Co12  1  0.378634  0.999281  0.379353  1
  Co  Co13  1  0.622906  0.000016  0.622890  1
  Co  Co14  1  0.111158  0.611263  0.499895  1
  Co  Co15  1  0.888580  0.388334  0.500246  1
  Sn  Sn16  1  0.499835  0.500184  0.999651  1
  Ru  Ru17  1  0.997915  0.999116  0.998800  1
