# generated using pymatgen
data_Er4MoI4
_symmetry_space_group_name_H-M   'P 1'
_cell_length_a   11.29744655
_cell_length_b   11.29744625
_cell_length_c   5.92861393
_cell_angle_alpha   90.37442564
_cell_angle_beta   90.37442045
_cell_angle_gamma   90.00027383
_symmetry_Int_Tables_number   1
_chemical_formula_structural   Er4MoI4
_chemical_formula_sum   'Er8 Mo2 I8'
_cell_volume   756.65028839
_cell_formula_units_Z   2
loop_
 _symmetry_equiv_pos_site_id
 _symmetry_equiv_pos_as_xyz
  1  'x, y, z'
loop_
 _atom_site_type_symbol
 _atom_site_label
 _atom_site_symmetry_multiplicity
 _atom_site_fract_x
 _atom_site_fract_y
 _atom_site_fract_z
 _atom_site_occupancy
  Er  Er0  1  0.205455  0.915858  0.003026  1
  Er  Er1  1  0.794545  0.084142  0.996974  1
  Er  Er2  1  0.084142  0.794545  0.496974  1
  Er  Er3  1  0.915858  0.205455  0.503026  1
  Er  Er4  1  0.794660  0.915865  0.496260  1
  Er  Er5  1  0.205340  0.084135  0.503740  1
  Er  Er6  1  0.084135  0.205340  0.003740  1
  Er  Er7  1  0.915865  0.794660  0.996260  1
  Mo  Mo8  1  0.999663  0.000337  0.250000  1
  Mo  Mo9  1  0.000337  0.999663  0.750000  1
  I  I10  1  0.360535  0.847831  0.494248  1
  I  I11  1  0.639465  0.152169  0.505752  1
  I  I12  1  0.152169  0.639465  0.005752  1
  I  I13  1  0.847831  0.360535  0.994248  1
  I  I14  1  0.360260  0.152526  0.014422  1
  I  I15  1  0.639740  0.847474  0.985578  1
  I  I16  1  0.847474  0.639740  0.485578  1
  I  I17  1  0.152526  0.360260  0.514422  1
