# generated using pymatgen
data_Hf4ZrSn3As
_symmetry_space_group_name_H-M   'P 1'
_cell_length_a   8.62335234
_cell_length_b   8.62335218
_cell_length_c   5.93028100
_cell_angle_alpha   90.00000000
_cell_angle_beta   90.00000000
_cell_angle_gamma   120.11500932
_symmetry_Int_Tables_number   1
_chemical_formula_structural   Hf4ZrSn3As
_chemical_formula_sum   'Hf8 Zr2 Sn6 As2'
_cell_volume   381.46410912
_cell_formula_units_Z   2
loop_
 _symmetry_equiv_pos_site_id
 _symmetry_equiv_pos_as_xyz
  1  'x, y, z'
loop_
 _atom_site_type_symbol
 _atom_site_label
 _atom_site_symmetry_multiplicity
 _atom_site_fract_x
 _atom_site_fract_y
 _atom_site_fract_z
 _atom_site_occupancy
  Hf  Hf0  1  0.666036  0.332946  0.999762  1
  Hf  Hf1  1  0.332946  0.666036  0.999762  1
  Hf  Hf2  1  0.332946  0.666036  0.500238  1
  Hf  Hf3  1  0.666036  0.332946  0.500238  1
  Hf  Hf4  1  0.736822  0.736822  0.750000  1
  Hf  Hf5  1  0.264824  0.000670  0.750000  1
  Hf  Hf6  1  0.000670  0.264824  0.750000  1
  Hf  Hf7  1  0.261708  0.261708  0.250000  1
  Zr  Zr8  1  0.737722  0.999210  0.250000  1
  Zr  Zr9  1  0.999210  0.737722  0.250000  1
  Sn  Sn10  1  0.395069  0.395069  0.750000  1
  Sn  Sn11  1  0.605397  0.999846  0.750000  1
  Sn  Sn12  1  0.999846  0.605397  0.750000  1
  Sn  Sn13  1  0.603214  0.603214  0.250000  1
  Sn  Sn14  1  0.394983  0.999960  0.250000  1
  Sn  Sn15  1  0.999960  0.394983  0.250000  1
  As  As16  1  0.001307  0.001307  0.996917  1
  As  As17  1  0.001307  0.001307  0.503083  1
