# generated using pymatgen
data_Ho4ErZr(SnIr)6
_symmetry_space_group_name_H-M   'P 1'
_cell_length_a   7.46001617
_cell_length_b   7.52287256
_cell_length_c   7.76561100
_cell_angle_alpha   90.00000000
_cell_angle_beta   90.00000000
_cell_angle_gamma   120.33682250
_symmetry_Int_Tables_number   1
_chemical_formula_structural   Ho4ErZr(SnIr)6
_chemical_formula_sum   'Ho4 Er1 Zr1 Sn6 Ir6'
_cell_volume   376.13668528
_cell_formula_units_Z   1
loop_
 _symmetry_equiv_pos_site_id
 _symmetry_equiv_pos_as_xyz
  1  'x, y, z'
loop_
 _atom_site_type_symbol
 _atom_site_label
 _atom_site_symmetry_multiplicity
 _atom_site_fract_x
 _atom_site_fract_y
 _atom_site_fract_z
 _atom_site_occupancy
  Ho  Ho0  1  0.406263  0.005495  0.250000  1
  Ho  Ho1  1  0.596952  0.593539  0.750000  1
  Ho  Ho2  1  0.001620  0.408982  0.750000  1
  Ho  Ho3  1  0.402691  0.995715  0.750000  1
  Er  Er4  1  0.595962  0.596323  0.250000  1
  Zr  Zr5  1  0.998925  0.398377  0.250000  1
  Sn  Sn6  1  0.264353  0.262315  0.501533  1
  Sn  Sn7  1  0.264353  0.262315  0.998467  1
  Sn  Sn8  1  0.735100  0.996913  0.998910  1
  Sn  Sn9  1  0.000410  0.742028  0.491842  1
  Sn  Sn10  1  0.735100  0.996913  0.501090  1
  Sn  Sn11  1  0.000410  0.742028  0.008158  1
  Ir  Ir12  1  0.677333  0.335648  0.492673  1
  Ir  Ir13  1  0.677333  0.335648  0.007327  1
  Ir  Ir14  1  0.321960  0.657857  0.014777  1
  Ir  Ir15  1  0.321960  0.657857  0.485223  1
  Ir  Ir16  1  0.999513  0.998732  0.750000  1
  Ir  Ir17  1  0.999762  0.013317  0.250000  1
