# generated using pymatgen
data_Dy3Sn2Rh3Pb
_symmetry_space_group_name_H-M   'P 1'
_cell_length_a   7.73567381
_cell_length_b   7.73567375
_cell_length_c   3.74446600
_cell_angle_alpha   90.00000000
_cell_angle_beta   90.00000000
_cell_angle_gamma   119.83718182
_symmetry_Int_Tables_number   1
_chemical_formula_structural   Dy3Sn2Rh3Pb
_chemical_formula_sum   'Dy3 Sn2 Rh3 Pb1'
_cell_volume   194.36900555
_cell_formula_units_Z   1
loop_
 _symmetry_equiv_pos_site_id
 _symmetry_equiv_pos_as_xyz
  1  'x, y, z'
loop_
 _atom_site_type_symbol
 _atom_site_label
 _atom_site_symmetry_multiplicity
 _atom_site_fract_x
 _atom_site_fract_y
 _atom_site_fract_z
 _atom_site_occupancy
  Dy  Dy0  1  0.400630  0.400630  0.500000  1
  Dy  Dy1  1  0.596612  0.003264  0.500000  1
  Dy  Dy2  1  0.003264  0.596612  0.500000  1
  Sn  Sn3  1  0.265833  0.999427  0.000000  1
  Sn  Sn4  1  0.999427  0.265833  0.000000  1
  Rh  Rh5  1  0.664195  0.324500  0.000000  1
  Rh  Rh6  1  0.324500  0.664195  0.000000  1
  Rh  Rh7  1  0.011521  0.011521  0.500000  1
  Pb  Pb8  1  0.734018  0.734018  0.000000  1
