# generated using pymatgen
data_Yb2Mn9Mo3P7
_symmetry_space_group_name_H-M   'P 1'
_cell_length_a   3.81489600
_cell_length_b   9.36282003
_cell_length_c   9.36281900
_cell_angle_alpha   119.99999991
_cell_angle_beta   90.00000000
_cell_angle_gamma   90.00000000
_symmetry_Int_Tables_number   1
_chemical_formula_structural   Yb2Mn9Mo3P7
_chemical_formula_sum   'Yb2 Mn9 Mo3 P7'
_cell_volume   289.61872554
_cell_formula_units_Z   1
loop_
 _symmetry_equiv_pos_site_id
 _symmetry_equiv_pos_as_xyz
  1  'x, y, z'
loop_
 _atom_site_type_symbol
 _atom_site_label
 _atom_site_symmetry_multiplicity
 _atom_site_fract_x
 _atom_site_fract_y
 _atom_site_fract_z
 _atom_site_occupancy
  Yb  Yb0  1  0.000000  0.666667  0.333333  1
  Yb  Yb1  1  0.500000  0.333333  0.666667  1
  Mn  Mn2  1  0.000000  0.572776  0.953715  1
  Mn  Mn3  1  0.000000  0.380939  0.427224  1
  Mn  Mn4  1  0.000000  0.046285  0.619061  1
  Mn  Mn5  1  0.000000  0.877275  0.162592  1
  Mn  Mn6  1  0.000000  0.285317  0.122725  1
  Mn  Mn7  1  0.000000  0.837408  0.714683  1
  Mn  Mn8  1  0.500000  0.955746  0.384425  1
  Mn  Mn9  1  0.500000  0.428679  0.044254  1
  Mn  Mn10  1  0.500000  0.615575  0.571321  1
  Mo  Mo11  1  0.500000  0.783279  0.909840  1
  Mo  Mo12  1  0.500000  0.126561  0.216721  1
  Mo  Mo13  1  0.500000  0.090160  0.873439  1
  P  P14  1  0.000000  0.000000  0.000000  1
  P  P15  1  0.500000  0.708709  0.127078  1
  P  P16  1  0.500000  0.418369  0.291291  1
  P  P17  1  0.500000  0.872922  0.581631  1
  P  P18  1  0.000000  0.586753  0.708393  1
  P  P19  1  0.000000  0.121642  0.413247  1
  P  P20  1  0.000000  0.291607  0.878358  1
