# generated using pymatgen
data_LuSc(Ga3Ir)3
_symmetry_space_group_name_H-M   'P 1'
_cell_length_a   7.52784752
_cell_length_b   7.53025219
_cell_length_c   9.42983607
_cell_angle_alpha   89.98913840
_cell_angle_beta   90.01246204
_cell_angle_gamma   119.92801536
_symmetry_Int_Tables_number   1
_chemical_formula_structural   LuSc(Ga3Ir)3
_chemical_formula_sum   'Lu2 Sc2 Ga18 Ir6'
_cell_volume   463.26518366
_cell_formula_units_Z   2
loop_
 _symmetry_equiv_pos_site_id
 _symmetry_equiv_pos_as_xyz
  1  'x, y, z'
loop_
 _atom_site_type_symbol
 _atom_site_label
 _atom_site_symmetry_multiplicity
 _atom_site_fract_x
 _atom_site_fract_y
 _atom_site_fract_z
 _atom_site_occupancy
  Lu  Lu0  1  0.997465  0.669334  0.249999  1
  Lu  Lu1  1  0.002535  0.330666  0.750001  1
  Sc  Sc2  1  0.670783  0.998478  0.250021  1
  Sc  Sc3  1  0.329217  0.001522  0.749979  1
  Ga  Ga4  1  0.127588  0.126979  0.250091  1
  Ga  Ga5  1  0.872413  0.873020  0.749909  1
  Ga  Ga6  1  0.996617  0.331588  0.084208  1
  Ga  Ga7  1  0.003383  0.668412  0.915792  1
  Ga  Ga8  1  0.003369  0.668423  0.584159  1
  Ga  Ga9  1  0.337439  0.998580  0.418593  1
  Ga  Ga10  1  0.996631  0.331577  0.415841  1
  Ga  Ga11  1  0.662561  0.001420  0.581407  1
  Ga  Ga12  1  0.662455  0.001390  0.918613  1
  Ga  Ga13  1  0.337545  0.998610  0.081387  1
  Ga  Ga14  1  0.331271  0.328411  0.569823  1
  Ga  Ga15  1  0.668729  0.671589  0.430177  1
  Ga  Ga16  1  0.668621  0.671531  0.069827  1
  Ga  Ga17  1  0.331379  0.328469  0.930173  1
  Ga  Ga18  1  0.341409  0.551361  0.249699  1
  Ga  Ga19  1  0.658591  0.448639  0.750301  1
  Ga  Ga20  1  0.547867  0.337967  0.250230  1
  Ga  Ga21  1  0.452133  0.662033  0.749770  1
  Ir  Ir22  1  0.673255  0.330137  0.000494  1
  Ir  Ir23  1  0.326745  0.669863  0.999506  1
  Ir  Ir24  1  0.326654  0.669760  0.500321  1
  Ir  Ir25  1  0.673346  0.330240  0.499679  1
  Ir  Ir26  1  0.000000  0.000000  0.000000  1
  Ir  Ir27  1  0.000000  0.000000  0.500000  1
