# generated using pymatgen
data_Ac7La(Y3Pb4)4
_symmetry_space_group_name_H-M   'P 1'
_cell_length_a   8.44756329
_cell_length_b   16.17553948
_cell_length_c   8.53896800
_cell_angle_alpha   89.94719045
_cell_angle_beta   89.79839592
_cell_angle_gamma   90.35942853
_symmetry_Int_Tables_number   1
_chemical_formula_structural   Ac7La(Y3Pb4)4
_chemical_formula_sum   'Ac7 La1 Y12 Pb16'
_cell_volume   1166.76713377
_cell_formula_units_Z   1
loop_
 _symmetry_equiv_pos_site_id
 _symmetry_equiv_pos_as_xyz
  1  'x, y, z'
loop_
 _atom_site_type_symbol
 _atom_site_label
 _atom_site_symmetry_multiplicity
 _atom_site_fract_x
 _atom_site_fract_y
 _atom_site_fract_z
 _atom_site_occupancy
  Ac  Ac0  1  0.981748  0.901327  0.822518  1
  Ac  Ac1  1  0.515623  0.094621  0.323681  1
  Ac  Ac2  1  0.017490  0.406830  0.178768  1
  Ac  Ac3  1  0.517230  0.406850  0.325722  1
  Ac  Ac4  1  0.018157  0.094834  0.177272  1
  Ac  Ac5  1  0.485195  0.904478  0.676490  1
  Ac  Ac6  1  0.981349  0.596006  0.821368  1
  La  La7  1  0.693176  0.250452  0.996722  1
  Y  Y8  1  0.643261  0.623698  0.156693  1
  Y  Y9  1  0.145540  0.874456  0.341722  1
  Y  Y10  1  0.355448  0.123685  0.841788  1
  Y  Y11  1  0.860568  0.379241  0.656762  1
  Y  Y12  1  0.358916  0.378695  0.840765  1
  Y  Y13  1  0.856523  0.123337  0.658540  1
  Y  Y14  1  0.643199  0.872760  0.155629  1
  Y  Y15  1  0.142888  0.622717  0.344438  1
  Y  Y16  1  0.475251  0.599759  0.678445  1
  Y  Y17  1  0.807920  0.747665  0.496330  1
  Y  Y18  1  0.308536  0.747525  0.003001  1
  Y  Y19  1  0.192547  0.251629  0.504727  1
  Pb  Pb20  1  0.691026  0.458772  0.951281  1
  Pb  Pb21  1  0.191580  0.044423  0.547099  1
  Pb  Pb22  1  0.307371  0.953528  0.045182  1
  Pb  Pb23  1  0.793503  0.547619  0.463571  1
  Pb  Pb24  1  0.308340  0.546384  0.039362  1
  Pb  Pb25  1  0.810148  0.954422  0.450661  1
  Pb  Pb26  1  0.692082  0.041564  0.953556  1
  Pb  Pb27  1  0.203143  0.460329  0.549859  1
  Pb  Pb28  1  0.448337  0.747383  0.369663  1
  Pb  Pb29  1  0.948758  0.748547  0.134157  1
  Pb  Pb30  1  0.551300  0.250405  0.628730  1
  Pb  Pb31  1  0.059652  0.251910  0.863243  1
  Pb  Pb32  1  0.665055  0.744867  0.847821  1
  Pb  Pb33  1  0.177374  0.748185  0.645913  1
  Pb  Pb34  1  0.322821  0.250582  0.147082  1
  Pb  Pb35  1  0.828943  0.250512  0.361438  1
