# generated using pymatgen
data_Ac2Si7Rh12
_symmetry_space_group_name_H-M   'P 1'
_cell_length_a   9.86145300
_cell_length_b   9.86145341
_cell_length_c   3.93235600
_cell_angle_alpha   90.00000000
_cell_angle_beta   90.00000000
_cell_angle_gamma   120.00000198
_symmetry_Int_Tables_number   1
_chemical_formula_structural   Ac2Si7Rh12
_chemical_formula_sum   'Ac2 Si7 Rh12'
_cell_volume   331.18090416
_cell_formula_units_Z   1
loop_
 _symmetry_equiv_pos_site_id
 _symmetry_equiv_pos_as_xyz
  1  'x, y, z'
loop_
 _atom_site_type_symbol
 _atom_site_label
 _atom_site_symmetry_multiplicity
 _atom_site_fract_x
 _atom_site_fract_y
 _atom_site_fract_z
 _atom_site_occupancy
  Ac  Ac0  1  0.333333  0.666667  0.250503  1
  Ac  Ac1  1  0.666667  0.333333  0.749497  1
  Si  Si2  1  0.000000  0.000000  0.500000  1
  Si  Si3  1  0.389971  0.099782  0.249238  1
  Si  Si4  1  0.709812  0.610029  0.249238  1
  Si  Si5  1  0.900218  0.290188  0.249238  1
  Si  Si6  1  0.610029  0.900218  0.750762  1
  Si  Si7  1  0.290188  0.389971  0.750762  1
  Si  Si8  1  0.099782  0.709812  0.750762  1
  Rh  Rh9  1  0.441871  0.380186  0.247427  1
  Rh  Rh10  1  0.938315  0.558129  0.247427  1
  Rh  Rh11  1  0.619814  0.061685  0.247427  1
  Rh  Rh12  1  0.558129  0.619814  0.752573  1
  Rh  Rh13  1  0.061685  0.441871  0.752573  1
  Rh  Rh14  1  0.380186  0.938315  0.752573  1
  Rh  Rh15  1  0.137607  0.879307  0.254097  1
  Rh  Rh16  1  0.741700  0.862393  0.254097  1
  Rh  Rh17  1  0.120693  0.258300  0.254097  1
  Rh  Rh18  1  0.862393  0.120693  0.745903  1
  Rh  Rh19  1  0.258300  0.137607  0.745903  1
  Rh  Rh20  1  0.879307  0.741700  0.745903  1
