# generated using pymatgen
data_Nd3Er3NiBr10
_symmetry_space_group_name_H-M   'P 1'
_cell_length_a   7.36319193
_cell_length_b   9.31876730
_cell_length_c   9.41434994
_cell_angle_alpha   108.40034810
_cell_angle_beta   95.58492970
_cell_angle_gamma   105.86636054
_symmetry_Int_Tables_number   1
_chemical_formula_structural   Nd3Er3NiBr10
_chemical_formula_sum   'Nd3 Er3 Ni1 Br10'
_cell_volume   577.54135385
_cell_formula_units_Z   1
loop_
 _symmetry_equiv_pos_site_id
 _symmetry_equiv_pos_as_xyz
  1  'x, y, z'
loop_
 _atom_site_type_symbol
 _atom_site_label
 _atom_site_symmetry_multiplicity
 _atom_site_fract_x
 _atom_site_fract_y
 _atom_site_fract_z
 _atom_site_occupancy
  Nd  Nd0  1  0.871883  0.953452  0.246841  1
  Nd  Nd1  1  0.131452  0.046560  0.753702  1
  Nd  Nd2  1  0.026639  0.699598  0.903406  1
  Er  Er3  1  0.971556  0.288770  0.092423  1
  Er  Er4  1  0.650103  0.873094  0.832089  1
  Er  Er5  1  0.349544  0.131928  0.168851  1
  Ni  Ni6  1  0.000373  0.999532  0.999809  1
  Br  Br7  1  0.632398  0.554283  0.728889  1
  Br  Br8  1  0.344561  0.445978  0.266527  1
  Br  Br9  1  0.741291  0.917423  0.554266  1
  Br  Br10  1  0.263213  0.085129  0.445857  1
  Br  Br11  1  0.913885  0.621379  0.174456  1
  Br  Br12  1  0.084875  0.367497  0.834656  1
  Br  Br13  1  0.557930  0.179197  0.921783  1
  Br  Br14  1  0.449956  0.829058  0.083940  1
  Br  Br15  1  0.239706  0.747397  0.656141  1
  Br  Br16  1  0.770636  0.259725  0.336364  1
