# generated using pymatgen
data_U4MnCo3B16
_symmetry_space_group_name_H-M   'P 1'
_cell_length_a   3.37326900
_cell_length_b   5.88587343
_cell_length_c   11.42058600
_cell_angle_alpha   90.02196093
_cell_angle_beta   90.00000000
_cell_angle_gamma   90.00000000
_symmetry_Int_Tables_number   1
_chemical_formula_structural   U4MnCo3B16
_chemical_formula_sum   'U4 Mn1 Co3 B16'
_cell_volume   226.75154286
_cell_formula_units_Z   1
loop_
 _symmetry_equiv_pos_site_id
 _symmetry_equiv_pos_as_xyz
  1  'x, y, z'
loop_
 _atom_site_type_symbol
 _atom_site_label
 _atom_site_symmetry_multiplicity
 _atom_site_fract_x
 _atom_site_fract_y
 _atom_site_fract_z
 _atom_site_occupancy
  U  U0  1  0.000000  0.627752  0.350070  1
  U  U1  1  0.000000  0.373434  0.649672  1
  U  U2  1  0.000000  0.126856  0.150758  1
  U  U3  1  0.000000  0.872969  0.848871  1
  Mn  Mn4  1  0.000000  0.867520  0.588056  1
  Co  Co5  1  0.000000  0.631617  0.086819  1
  Co  Co6  1  0.000000  0.368300  0.911816  1
  Co  Co7  1  0.000000  0.134807  0.411970  1
  B  B8  1  0.500000  0.783977  0.187245  1
  B  B9  1  0.500000  0.216621  0.813653  1
  B  B10  1  0.500000  0.283388  0.312837  1
  B  B11  1  0.500000  0.716703  0.686181  1
  B  B12  1  0.500000  0.865037  0.034074  1
  B  B13  1  0.500000  0.135035  0.966304  1
  B  B14  1  0.500000  0.364797  0.466069  1
  B  B15  1  0.500000  0.635414  0.533592  1
  B  B16  1  0.500000  0.885340  0.454750  1
  B  B17  1  0.500000  0.111934  0.547091  1
  B  B18  1  0.500000  0.386368  0.046485  1
  B  B19  1  0.500000  0.613321  0.954016  1
  B  B20  1  0.500000  0.973944  0.307517  1
  B  B21  1  0.500000  0.025766  0.691262  1
  B  B22  1  0.500000  0.474602  0.192408  1
  B  B23  1  0.500000  0.524497  0.808487  1
