# generated using pymatgen
data_Dy2U(GaIr)3
_symmetry_space_group_name_H-M   'P 1'
_cell_length_a   7.17041787
_cell_length_b   7.31702789
_cell_length_c   3.82908600
_cell_angle_alpha   90.00000000
_cell_angle_beta   90.00000000
_cell_angle_gamma   120.67873200
_symmetry_Int_Tables_number   1
_chemical_formula_structural   Dy2U(GaIr)3
_chemical_formula_sum   'Dy2 U1 Ga3 Ir3'
_cell_volume   172.78013866
_cell_formula_units_Z   1
loop_
 _symmetry_equiv_pos_site_id
 _symmetry_equiv_pos_as_xyz
  1  'x, y, z'
loop_
 _atom_site_type_symbol
 _atom_site_label
 _atom_site_symmetry_multiplicity
 _atom_site_fract_x
 _atom_site_fract_y
 _atom_site_fract_z
 _atom_site_occupancy
  Dy  Dy0  1  0.407174  0.410287  0.500000  1
  Dy  Dy1  1  0.592826  0.003114  0.500000  1
  U  U2  1  0.000000  0.584129  0.500000  1
  Ga  Ga3  1  0.738788  0.748703  0.000000  1
  Ga  Ga4  1  0.261212  0.009915  0.000000  1
  Ga  Ga5  1  0.000000  0.236701  0.000000  1
  Ir  Ir6  1  0.700550  0.362850  0.000000  1
  Ir  Ir7  1  0.299450  0.662303  0.000000  1
  Ir  Ir8  1  0.000000  0.981997  0.500000  1
