# generated using pymatgen
data_Dy8Si16Tc11Pt
_symmetry_space_group_name_H-M   'P 1'
_cell_length_a   6.78553738
_cell_length_b   6.79326589
_cell_length_c   12.74882200
_cell_angle_alpha   89.67248127
_cell_angle_beta   90.23356484
_cell_angle_gamma   89.97184938
_symmetry_Int_Tables_number   1
_chemical_formula_structural   Dy8Si16Tc11Pt
_chemical_formula_sum   'Dy8 Si16 Tc11 Pt1'
_cell_volume   587.65462212
_cell_formula_units_Z   1
loop_
 _symmetry_equiv_pos_site_id
 _symmetry_equiv_pos_as_xyz
  1  'x, y, z'
loop_
 _atom_site_type_symbol
 _atom_site_label
 _atom_site_symmetry_multiplicity
 _atom_site_fract_x
 _atom_site_fract_y
 _atom_site_fract_z
 _atom_site_occupancy
  Dy  Dy0  1  0.009232  0.658109  0.033201  1
  Dy  Dy1  1  0.993905  0.336716  0.529917  1
  Dy  Dy2  1  0.662537  0.004254  0.971139  1
  Dy  Dy3  1  0.160717  0.493033  0.779934  1
  Dy  Dy4  1  0.833864  0.509626  0.281709  1
  Dy  Dy5  1  0.491493  0.163059  0.218586  1
  Dy  Dy6  1  0.507886  0.837360  0.716129  1
  Dy  Dy7  1  0.334004  0.994397  0.468324  1
  Si  Si8  1  0.014333  0.730474  0.439668  1
  Si  Si9  1  0.999885  0.248905  0.939286  1
  Si  Si10  1  0.728264  0.016774  0.558662  1
  Si  Si11  1  0.223781  0.482263  0.192512  1
  Si  Si12  1  0.767052  0.513341  0.684484  1
  Si  Si13  1  0.481128  0.226593  0.810525  1
  Si  Si14  1  0.516143  0.775556  0.312929  1
  Si  Si15  1  0.265316  0.982238  0.061049  1
  Si  Si16  1  0.805617  0.889499  0.184895  1
  Si  Si17  1  0.302649  0.614397  0.564775  1
  Si  Si18  1  0.690034  0.390837  0.064595  1
  Si  Si19  1  0.612660  0.305651  0.435247  1
  Si  Si20  1  0.391287  0.689155  0.939603  1
  Si  Si21  1  0.112206  0.195406  0.314695  1
  Si  Si22  1  0.193283  0.111430  0.684850  1
  Si  Si23  1  0.892227  0.816841  0.813083  1
  Tc  Tc24  1  0.315618  0.481605  0.381970  1
  Tc  Tc25  1  0.812466  0.023004  0.368987  1
  Tc  Tc26  1  0.977058  0.192919  0.131046  1
  Tc  Tc27  1  0.017032  0.813454  0.632080  1
  Tc  Tc28  1  0.476439  0.315715  0.619280  1
  Tc  Tc29  1  0.199140  0.965750  0.867403  1
  Tc  Tc30  1  0.662589  0.665253  0.499648  1
  Tc  Tc31  1  0.838083  0.165972  0.753951  1
  Tc  Tc32  1  0.160604  0.836630  0.250314  1
  Tc  Tc33  1  0.340517  0.333189  0.994530  1
  Tc  Tc34  1  0.514279  0.684643  0.123988  1
  Pt  Pt35  1  0.696670  0.535955  0.877007  1
