# generated using pymatgen
data_Li3Yb2DyAu3
_symmetry_space_group_name_H-M   'P 1'
_cell_length_a   7.29267600
_cell_length_b   7.32694901
_cell_length_c   4.15313500
_cell_angle_alpha   90.00000000
_cell_angle_beta   90.00000000
_cell_angle_gamma   120.15556223
_symmetry_Int_Tables_number   1
_chemical_formula_structural   Li3Yb2DyAu3
_chemical_formula_sum   'Li3 Yb2 Dy1 Au3'
_cell_volume   191.88183116
_cell_formula_units_Z   1
loop_
 _symmetry_equiv_pos_site_id
 _symmetry_equiv_pos_as_xyz
  1  'x, y, z'
loop_
 _atom_site_type_symbol
 _atom_site_label
 _atom_site_symmetry_multiplicity
 _atom_site_fract_x
 _atom_site_fract_y
 _atom_site_fract_z
 _atom_site_occupancy
  Li  Li0  1  0.760370  0.762295  0.500000  1
  Li  Li1  1  0.239630  0.001925  0.500000  1
  Li  Li2  1  0.000000  0.232575  0.500000  1
  Yb  Yb3  1  0.411704  0.413675  0.000000  1
  Yb  Yb4  1  0.588296  0.001972  0.000000  1
  Dy  Dy5  1  0.000000  0.588502  0.000000  1
  Au  Au6  1  0.000000  0.992891  0.000000  1
  Au  Au7  1  0.674759  0.340461  0.500000  1
  Au  Au8  1  0.325241  0.665703  0.500000  1
