# generated using pymatgen
data_Zr4Ti5NbSi8
_symmetry_space_group_name_H-M   'P 1'
_cell_length_a   6.85362398
_cell_length_b   6.85479700
_cell_length_c   12.61787982
_cell_angle_alpha   90.00000000
_cell_angle_beta   90.06140549
_cell_angle_gamma   90.00000000
_symmetry_Int_Tables_number   1
_chemical_formula_structural   Zr4Ti5NbSi8
_chemical_formula_sum   'Zr8 Ti10 Nb2 Si16'
_cell_volume   592.79019088
_cell_formula_units_Z   2
loop_
 _symmetry_equiv_pos_site_id
 _symmetry_equiv_pos_as_xyz
  1  'x, y, z'
loop_
 _atom_site_type_symbol
 _atom_site_label
 _atom_site_symmetry_multiplicity
 _atom_site_fract_x
 _atom_site_fract_y
 _atom_site_fract_z
 _atom_site_occupancy
  Zr  Zr0  1  0.001733  0.657045  0.031492  1
  Zr  Zr1  1  0.998376  0.342475  0.532702  1
  Zr  Zr2  1  0.657820  0.001710  0.967747  1
  Zr  Zr3  1  0.157005  0.498225  0.781976  1
  Zr  Zr4  1  0.842180  0.501710  0.282253  1
  Zr  Zr5  1  0.498267  0.157045  0.218508  1
  Zr  Zr6  1  0.501624  0.842475  0.717298  1
  Zr  Zr7  1  0.342995  0.998225  0.468024  1
  Ti  Ti8  1  0.346920  0.504984  0.377194  1
  Ti  Ti9  1  0.847689  0.995461  0.373054  1
  Ti  Ti10  1  0.005082  0.152576  0.126880  1
  Ti  Ti11  1  0.995581  0.847290  0.627164  1
  Ti  Ti12  1  0.652311  0.495461  0.876946  1
  Ti  Ti13  1  0.504419  0.347290  0.622836  1
  Ti  Ti14  1  0.494918  0.652576  0.123120  1
  Ti  Ti15  1  0.153080  0.004984  0.872806  1
  Ti  Ti16  1  0.670990  0.671088  0.500343  1
  Ti  Ti17  1  0.829010  0.171088  0.749657  1
  Nb  Nb18  1  0.170956  0.829241  0.250402  1
  Nb  Nb19  1  0.329044  0.329241  0.999598  1
  Si  Si20  1  0.044004  0.705248  0.438480  1
  Si  Si21  1  0.952465  0.293185  0.935276  1
  Si  Si22  1  0.706378  0.045623  0.563842  1
  Si  Si23  1  0.205572  0.453787  0.187629  1
  Si  Si24  1  0.793622  0.545623  0.686158  1
  Si  Si25  1  0.455996  0.205248  0.811520  1
  Si  Si26  1  0.547535  0.793185  0.314724  1
  Si  Si27  1  0.294428  0.953787  0.062371  1
  Si  Si28  1  0.865358  0.794204  0.821830  1
  Si  Si29  1  0.134307  0.207636  0.323377  1
  Si  Si30  1  0.792204  0.865651  0.177036  1
  Si  Si31  1  0.294377  0.634571  0.572247  1
  Si  Si32  1  0.707796  0.365651  0.072964  1
  Si  Si33  1  0.634642  0.294204  0.428170  1
  Si  Si34  1  0.365693  0.707636  0.926623  1
  Si  Si35  1  0.205623  0.134571  0.677753  1
