# generated using pymatgen
data_LuAlCoO5
_symmetry_space_group_name_H-M   'P 1'
_cell_length_a   5.59844000
_cell_length_b   7.10008700
_cell_length_c   8.23584600
_cell_angle_alpha   90.00000000
_cell_angle_beta   90.00000000
_cell_angle_gamma   90.00000000
_symmetry_Int_Tables_number   1
_chemical_formula_structural   LuAlCoO5
_chemical_formula_sum   'Lu4 Al4 Co4 O20'
_cell_volume   327.37002812
_cell_formula_units_Z   4
loop_
 _symmetry_equiv_pos_site_id
 _symmetry_equiv_pos_as_xyz
  1  'x, y, z'
loop_
 _atom_site_type_symbol
 _atom_site_label
 _atom_site_symmetry_multiplicity
 _atom_site_fract_x
 _atom_site_fract_y
 _atom_site_fract_z
 _atom_site_occupancy
  Lu  Lu0  1  0.500000  0.364986  0.331249  1
  Lu  Lu1  1  0.500000  0.635014  0.668751  1
  Lu  Lu2  1  0.500000  0.135014  0.831249  1
  Lu  Lu3  1  0.500000  0.864986  0.168751  1
  Al  Al4  1  0.000000  0.107599  0.143948  1
  Al  Al5  1  0.000000  0.892401  0.856052  1
  Al  Al6  1  0.000000  0.392401  0.643948  1
  Al  Al7  1  0.000000  0.607599  0.356052  1
  Co  Co8  1  0.247386  0.000000  0.500000  1
  Co  Co9  1  0.752614  0.000000  0.500000  1
  Co  Co10  1  0.752614  0.500000  0.000000  1
  Co  Co11  1  0.247386  0.500000  0.000000  1
  O  O12  1  0.500000  0.337127  0.057280  1
  O  O13  1  0.500000  0.662873  0.942720  1
  O  O14  1  0.500000  0.162873  0.557280  1
  O  O15  1  0.500000  0.837127  0.442720  1
  O  O16  1  0.224850  0.000000  0.000000  1
  O  O17  1  0.775150  0.000000  0.000000  1
  O  O18  1  0.775150  0.500000  0.500000  1
  O  O19  1  0.224850  0.500000  0.500000  1
  O  O20  1  0.254130  0.107039  0.291236  1
  O  O21  1  0.745870  0.892961  0.708764  1
  O  O22  1  0.254130  0.892961  0.708764  1
  O  O23  1  0.745870  0.392961  0.791236  1
  O  O24  1  0.745870  0.107039  0.291236  1
  O  O25  1  0.254130  0.607039  0.208764  1
  O  O26  1  0.745870  0.607039  0.208764  1
  O  O27  1  0.254130  0.392961  0.791236  1
  O  O28  1  0.000000  0.346742  0.071950  1
  O  O29  1  0.000000  0.653258  0.928050  1
  O  O30  1  0.000000  0.153258  0.571950  1
  O  O31  1  0.000000  0.846742  0.428050  1
