# generated using pymatgen
data_Hf6Al16Ni6Os
_symmetry_space_group_name_H-M   'P 1'
_cell_length_a   8.51772455
_cell_length_b   8.51772464
_cell_length_c   8.51772600
_cell_angle_alpha   60.00000250
_cell_angle_beta   60.00000213
_cell_angle_gamma   59.99999730
_symmetry_Int_Tables_number   1
_chemical_formula_structural   Hf6Al16Ni6Os
_chemical_formula_sum   'Hf6 Al16 Ni6 Os1'
_cell_volume   436.97426621
_cell_formula_units_Z   1
loop_
 _symmetry_equiv_pos_site_id
 _symmetry_equiv_pos_as_xyz
  1  'x, y, z'
loop_
 _atom_site_type_symbol
 _atom_site_label
 _atom_site_symmetry_multiplicity
 _atom_site_fract_x
 _atom_site_fract_y
 _atom_site_fract_z
 _atom_site_occupancy
  Hf  Hf0  1  0.689620  0.689620  0.310380  1
  Hf  Hf1  1  0.310380  0.689620  0.310380  1
  Hf  Hf2  1  0.689620  0.310380  0.310380  1
  Hf  Hf3  1  0.310380  0.310380  0.689620  1
  Hf  Hf4  1  0.689620  0.310380  0.689620  1
  Hf  Hf5  1  0.310380  0.689620  0.689620  1
  Al  Al6  1  0.879725  0.879725  0.360823  1
  Al  Al7  1  0.879725  0.360823  0.879725  1
  Al  Al8  1  0.360823  0.879725  0.879725  1
  Al  Al9  1  0.879725  0.879725  0.879725  1
  Al  Al10  1  0.120275  0.120275  0.639177  1
  Al  Al11  1  0.120275  0.639177  0.120275  1
  Al  Al12  1  0.639177  0.120275  0.120275  1
  Al  Al13  1  0.120275  0.120275  0.120275  1
  Al  Al14  1  0.665218  0.665218  0.004345  1
  Al  Al15  1  0.665218  0.004345  0.665218  1
  Al  Al16  1  0.004345  0.665218  0.665218  1
  Al  Al17  1  0.665218  0.665218  0.665218  1
  Al  Al18  1  0.334782  0.334782  0.995655  1
  Al  Al19  1  0.334782  0.995655  0.334782  1
  Al  Al20  1  0.995655  0.334782  0.334782  1
  Al  Al21  1  0.334782  0.334782  0.334782  1
  Ni  Ni22  1  0.000000  0.000000  0.500000  1
  Ni  Ni23  1  0.500000  0.000000  0.500000  1
  Ni  Ni24  1  0.000000  0.500000  0.500000  1
  Ni  Ni25  1  0.500000  0.500000  0.000000  1
  Ni  Ni26  1  0.000000  0.500000  0.000000  1
  Ni  Ni27  1  0.500000  0.000000  0.000000  1
  Os  Os28  1  0.000000  0.000000  0.000000  1
