# generated using pymatgen
data_YbHo15(LuRh3)4
_symmetry_space_group_name_H-M   'P 1'
_cell_length_a   10.79994300
_cell_length_b   10.81515563
_cell_length_c   6.33438500
_cell_angle_alpha   89.92364379
_cell_angle_beta   90.13047072
_cell_angle_gamma   89.86517203
_symmetry_Int_Tables_number   1
_chemical_formula_structural   YbHo15(LuRh3)4
_chemical_formula_sum   'Yb1 Ho15 Lu4 Rh12'
_cell_volume   739.87094938
_cell_formula_units_Z   1
loop_
 _symmetry_equiv_pos_site_id
 _symmetry_equiv_pos_as_xyz
  1  'x, y, z'
loop_
 _atom_site_type_symbol
 _atom_site_label
 _atom_site_symmetry_multiplicity
 _atom_site_fract_x
 _atom_site_fract_y
 _atom_site_fract_z
 _atom_site_occupancy
  Yb  Yb0  1  0.289150  0.088217  0.376041  1
  Ho  Ho1  1  0.290175  0.911728  0.878939  1
  Ho  Ho2  1  0.709498  0.086553  0.878921  1
  Ho  Ho3  1  0.709941  0.912458  0.379218  1
  Ho  Ho4  1  0.588183  0.790840  0.878378  1
  Ho  Ho5  1  0.586288  0.209829  0.378556  1
  Ho  Ho6  1  0.411624  0.791560  0.378340  1
  Ho  Ho7  1  0.412761  0.209718  0.879340  1
  Ho  Ho8  1  0.210038  0.412570  0.623041  1
  Ho  Ho9  1  0.210769  0.587471  0.121426  1
  Ho  Ho10  1  0.789784  0.411918  0.121286  1
  Ho  Ho11  1  0.790179  0.587485  0.620992  1
  Ho  Ho12  1  0.912398  0.709970  0.121574  1
  Ho  Ho13  1  0.911833  0.289439  0.622324  1
  Ho  Ho14  1  0.087656  0.709742  0.621242  1
  Ho  Ho15  1  0.088432  0.290097  0.121061  1
  Lu  Lu16  1  0.001454  0.999946  0.500023  1
  Lu  Lu17  1  0.999218  0.000288  0.999482  1
  Lu  Lu18  1  0.500239  0.500467  0.999228  1
  Lu  Lu19  1  0.499801  0.500603  0.498908  1
  Rh  Rh20  1  0.848804  0.151877  0.250621  1
  Rh  Rh21  1  0.849303  0.848284  0.749231  1
  Rh  Rh22  1  0.150292  0.152304  0.756135  1
  Rh  Rh23  1  0.149269  0.844257  0.246697  1
  Rh  Rh24  1  0.651015  0.347925  0.749676  1
  Rh  Rh25  1  0.651291  0.652045  0.250540  1
  Rh  Rh26  1  0.349108  0.352230  0.247740  1
  Rh  Rh27  1  0.348202  0.652353  0.748878  1
  Rh  Rh28  1  0.501250  0.999652  0.122772  1
  Rh  Rh29  1  0.501941  0.999109  0.624464  1
  Rh  Rh30  1  0.000070  0.499687  0.877528  1
  Rh  Rh31  1  0.000030  0.499378  0.377397  1
