# generated using pymatgen
data_Nd2Cr2Ni10P7
_symmetry_space_group_name_H-M   'P 1'
_cell_length_a   9.15217143
_cell_length_b   9.15662770
_cell_length_c   3.71808800
_cell_angle_alpha   90.00000000
_cell_angle_beta   90.00000000
_cell_angle_gamma   120.00843830
_symmetry_Int_Tables_number   1
_chemical_formula_structural   Nd2Cr2Ni10P7
_chemical_formula_sum   'Nd2 Cr2 Ni10 P7'
_cell_volume   269.81933334
_cell_formula_units_Z   1
loop_
 _symmetry_equiv_pos_site_id
 _symmetry_equiv_pos_as_xyz
  1  'x, y, z'
loop_
 _atom_site_type_symbol
 _atom_site_label
 _atom_site_symmetry_multiplicity
 _atom_site_fract_x
 _atom_site_fract_y
 _atom_site_fract_z
 _atom_site_occupancy
  Nd  Nd0  1  0.667088  0.332232  0.500000  1
  Nd  Nd1  1  0.336002  0.668580  0.000000  1
  Cr  Cr2  1  0.213293  0.097419  0.500000  1
  Cr  Cr3  1  0.903056  0.114863  0.500000  1
  Ni  Ni4  1  0.727578  0.875124  0.000000  1
  Ni  Ni5  1  0.939659  0.372443  0.000000  1
  Ni  Ni6  1  0.153649  0.280970  0.000000  1
  Ni  Ni7  1  0.382795  0.433784  0.500000  1
  Ni  Ni8  1  0.121091  0.846454  0.000000  1
  Ni  Ni9  1  0.429779  0.060538  0.000000  1
  Ni  Ni10  1  0.049033  0.619203  0.500000  1
  Ni  Ni11  1  0.567369  0.951136  0.500000  1
  Ni  Ni12  1  0.627264  0.565867  0.000000  1
  Ni  Ni13  1  0.876643  0.774338  0.500000  1
  P  P14  1  0.402737  0.295698  0.000000  1
  P  P15  1  0.292923  0.893757  0.500000  1
  P  P16  1  0.705903  0.107051  0.000000  1
  P  P17  1  0.603020  0.709258  0.500000  1
  P  P18  1  0.890429  0.596756  0.000000  1
  P  P19  1  0.107583  0.400781  0.500000  1
  P  P20  1  0.003107  0.003744  0.000000  1
