# generated using pymatgen
data_Tb7In(IrO6)4
_symmetry_space_group_name_H-M   'P 1'
_cell_length_a   5.30246655
_cell_length_b   9.19511133
_cell_length_c   9.90810200
_cell_angle_alpha   90.00625604
_cell_angle_beta   89.94378980
_cell_angle_gamma   89.96982264
_symmetry_Int_Tables_number   1
_chemical_formula_structural   Tb7In(IrO6)4
_chemical_formula_sum   'Tb7 In1 Ir4 O24'
_cell_volume   483.08675064
_cell_formula_units_Z   1
loop_
 _symmetry_equiv_pos_site_id
 _symmetry_equiv_pos_as_xyz
  1  'x, y, z'
loop_
 _atom_site_type_symbol
 _atom_site_label
 _atom_site_symmetry_multiplicity
 _atom_site_fract_x
 _atom_site_fract_y
 _atom_site_fract_z
 _atom_site_occupancy
  Tb  Tb0  1  0.019220  0.399418  0.034708  1
  Tb  Tb1  1  0.039988  0.281424  0.629551  1
  Tb  Tb2  1  0.458347  0.718972  0.129900  1
  Tb  Tb3  1  0.481073  0.606606  0.534664  1
  Tb  Tb4  1  0.517056  0.101025  0.965728  1
  Tb  Tb5  1  0.537187  0.217967  0.369592  1
  Tb  Tb6  1  0.960135  0.781391  0.867854  1
  In  In7  1  0.989008  0.893792  0.462299  1
  Ir  Ir8  1  0.040815  0.003386  0.149078  1
  Ir  Ir9  1  0.460518  0.996554  0.646578  1
  Ir  Ir10  1  0.542883  0.496306  0.852061  1
  Ir  Ir11  1  0.954447  0.504338  0.352455  1
  O  O12  1  0.079480  0.658667  0.471867  1
  O  O13  1  0.161156  0.556102  0.201975  1
  O  O14  1  0.186623  0.857816  0.266217  1
  O  O15  1  0.185450  0.857772  0.673849  1
  O  O16  1  0.232488  0.386626  0.431673  1
  O  O17  1  0.242050  0.080013  0.500342  1
  O  O18  1  0.247193  0.909929  0.003902  1
  O  O19  1  0.265949  0.614682  0.930191  1
  O  O20  1  0.328146  0.133437  0.181824  1
  O  O21  1  0.303027  0.138240  0.764428  1
  O  O22  1  0.336590  0.445229  0.702077  1
  O  O23  1  0.420066  0.344954  0.973903  1
  O  O24  1  0.611784  0.848699  0.527348  1
  O  O25  1  0.667126  0.946886  0.797424  1
  O  O26  1  0.686564  0.643422  0.736356  1
  O  O27  1  0.667084  0.630810  0.317012  1
  O  O28  1  0.714180  0.127728  0.573346  1
  O  O29  1  0.749956  0.414140  0.498247  1
  O  O30  1  0.748906  0.590199  0.996803  1
  O  O31  1  0.765146  0.885809  0.069206  1
  O  O32  1  0.828627  0.366446  0.818145  1
  O  O33  1  0.815673  0.354680  0.237477  1
  O  O34  1  0.839109  0.050961  0.302607  1
  O  O35  1  0.916950  0.155574  0.029318  1
