# generated using pymatgen
data_Tm2Zn14Cu3
_symmetry_space_group_name_H-M   'P 1'
_cell_length_a   6.69332319
_cell_length_b   6.69332407
_cell_length_c   6.69332163
_cell_angle_alpha   82.63428382
_cell_angle_beta   82.63428422
_cell_angle_gamma   82.63428612
_symmetry_Int_Tables_number   1
_chemical_formula_structural   Tm2Zn14Cu3
_chemical_formula_sum   'Tm2 Zn14 Cu3'
_cell_volume   293.02578581
_cell_formula_units_Z   1
loop_
 _symmetry_equiv_pos_site_id
 _symmetry_equiv_pos_as_xyz
  1  'x, y, z'
loop_
 _atom_site_type_symbol
 _atom_site_label
 _atom_site_symmetry_multiplicity
 _atom_site_fract_x
 _atom_site_fract_y
 _atom_site_fract_z
 _atom_site_occupancy
  Tm  Tm0  1  0.663626  0.663626  0.663626  1
  Tm  Tm1  1  0.336374  0.336374  0.336374  1
  Zn  Zn2  1  0.351254  0.845552  0.351253  1
  Zn  Zn3  1  0.351253  0.351253  0.845553  1
  Zn  Zn4  1  0.845552  0.351254  0.351253  1
  Zn  Zn5  1  0.154448  0.648746  0.648747  1
  Zn  Zn6  1  0.648748  0.648748  0.154448  1
  Zn  Zn7  1  0.648746  0.154448  0.648747  1
  Zn  Zn8  1  0.895567  0.895567  0.895567  1
  Zn  Zn9  1  0.104433  0.104433  0.104433  1
  Zn  Zn10  1  0.702210  0.999999  0.297790  1
  Zn  Zn11  1  0.999999  0.297789  0.702210  1
  Zn  Zn12  1  0.297790  0.702211  0.000000  1
  Zn  Zn13  1  0.297789  0.999999  0.702210  1
  Zn  Zn14  1  0.999999  0.702210  0.297790  1
  Zn  Zn15  1  0.702211  0.297790  0.000000  1
  Cu  Cu16  1  0.000001  0.500000  0.000001  1
  Cu  Cu17  1  0.500000  0.000001  0.000001  1
  Cu  Cu18  1  0.000000  0.000000  0.500001  1
