# generated using pymatgen
data_Er7Lu4Sc(Si3Rh)4
_symmetry_space_group_name_H-M   'P 1'
_cell_length_a   4.17398900
_cell_length_b   10.57019932
_cell_length_c   12.11752803
_cell_angle_alpha   89.89166563
_cell_angle_beta   90.00000000
_cell_angle_gamma   90.00000000
_symmetry_Int_Tables_number   1
_chemical_formula_structural   Er7Lu4Sc(Si3Rh)4
_chemical_formula_sum   'Er7 Lu4 Sc1 Si12 Rh4'
_cell_volume   534.62311680
_cell_formula_units_Z   1
loop_
 _symmetry_equiv_pos_site_id
 _symmetry_equiv_pos_as_xyz
  1  'x, y, z'
loop_
 _atom_site_type_symbol
 _atom_site_label
 _atom_site_symmetry_multiplicity
 _atom_site_fract_x
 _atom_site_fract_y
 _atom_site_fract_z
 _atom_site_occupancy
  Er  Er0  1  0.250000  0.921445  0.604015  1
  Er  Er1  1  0.250000  0.579944  0.103574  1
  Er  Er2  1  0.750000  0.079482  0.398440  1
  Er  Er3  1  0.750000  0.419133  0.895150  1
  Er  Er4  1  0.250000  0.660325  0.800650  1
  Er  Er5  1  0.250000  0.840780  0.300908  1
  Er  Er6  1  0.750000  0.338148  0.199378  1
  Lu  Lu7  1  0.250000  0.880848  0.019506  1
  Lu  Lu8  1  0.250000  0.619862  0.520004  1
  Lu  Lu9  1  0.750000  0.120332  0.976874  1
  Lu  Lu10  1  0.750000  0.377661  0.481671  1
  Sc  Sc11  1  0.750000  0.161120  0.701452  1
  Si  Si12  1  0.250000  0.016498  0.821331  1
  Si  Si13  1  0.250000  0.484569  0.323325  1
  Si  Si14  1  0.750000  0.986801  0.176637  1
  Si  Si15  1  0.750000  0.515143  0.676714  1
  Si  Si16  1  0.250000  0.246608  0.837009  1
  Si  Si17  1  0.250000  0.251010  0.344253  1
  Si  Si18  1  0.750000  0.752676  0.158350  1
  Si  Si19  1  0.750000  0.747990  0.657875  1
  Si  Si20  1  0.250000  0.198151  0.549613  1
  Si  Si21  1  0.250000  0.299381  0.040609  1
  Si  Si22  1  0.750000  0.799678  0.457779  1
  Si  Si23  1  0.750000  0.700818  0.957162  1
  Rh  Rh24  1  0.250000  0.390626  0.679283  1
  Rh  Rh25  1  0.250000  0.108814  0.180269  1
  Rh  Rh26  1  0.750000  0.608563  0.319985  1
  Rh  Rh27  1  0.750000  0.893590  0.818183  1
