# generated using pymatgen
data_La9Nd(Sn5Ir2)4
_symmetry_space_group_name_H-M   'P 1'
_cell_length_a   14.26063000
_cell_length_b   14.26063000
_cell_length_c   4.73400600
_cell_angle_alpha   90.00000000
_cell_angle_beta   90.00000000
_cell_angle_gamma   90.00112497
_symmetry_Int_Tables_number   1
_chemical_formula_structural   La9Nd(Sn5Ir2)4
_chemical_formula_sum   'La9 Nd1 Sn20 Ir8'
_cell_volume   962.73381900
_cell_formula_units_Z   1
loop_
 _symmetry_equiv_pos_site_id
 _symmetry_equiv_pos_as_xyz
  1  'x, y, z'
loop_
 _atom_site_type_symbol
 _atom_site_label
 _atom_site_symmetry_multiplicity
 _atom_site_fract_x
 _atom_site_fract_y
 _atom_site_fract_z
 _atom_site_occupancy
  La  La0  1  0.500063  0.500046  0.000000  1
  La  La1  1  0.000046  0.000063  0.000000  1
  La  La2  1  0.323306  0.823306  0.500000  1
  La  La3  1  0.176734  0.323293  0.500000  1
  La  La4  1  0.823293  0.676734  0.500000  1
  La  La5  1  0.887384  0.387384  0.500000  1
  La  La6  1  0.112482  0.612482  0.500000  1
  La  La7  1  0.387591  0.112479  0.500000  1
  La  La8  1  0.612479  0.887591  0.500000  1
  Nd  Nd9  1  0.676516  0.176516  0.500000  1
  Sn  Sn10  1  0.569929  0.069929  0.000000  1
  Sn  Sn11  1  0.430782  0.930782  0.000000  1
  Sn  Sn12  1  0.069344  0.430695  0.000000  1
  Sn  Sn13  1  0.930695  0.569344  0.000000  1
  Sn  Sn14  1  0.654356  0.698206  0.000000  1
  Sn  Sn15  1  0.345702  0.301789  0.000000  1
  Sn  Sn16  1  0.154376  0.801809  0.000000  1
  Sn  Sn17  1  0.845039  0.198002  0.000000  1
  Sn  Sn18  1  0.301809  0.654376  0.000000  1
  Sn  Sn19  1  0.698002  0.345039  0.000000  1
  Sn  Sn20  1  0.198206  0.154356  0.000000  1
  Sn  Sn21  1  0.801789  0.845702  0.000000  1
  Sn  Sn22  1  0.663615  0.504803  0.500000  1
  Sn  Sn23  1  0.336184  0.495328  0.500000  1
  Sn  Sn24  1  0.163660  0.995318  0.500000  1
  Sn  Sn25  1  0.835993  0.005239  0.500000  1
  Sn  Sn26  1  0.495318  0.663660  0.500000  1
  Sn  Sn27  1  0.505239  0.335993  0.500000  1
  Sn  Sn28  1  0.004803  0.163615  0.500000  1
  Sn  Sn29  1  0.995328  0.836184  0.500000  1
  Ir  Ir30  1  0.746230  0.527897  0.000000  1
  Ir  Ir31  1  0.253824  0.471899  0.000000  1
  Ir  Ir32  1  0.246231  0.971978  0.000000  1
  Ir  Ir33  1  0.753640  0.028242  0.000000  1
  Ir  Ir34  1  0.471978  0.746231  0.000000  1
  Ir  Ir35  1  0.528242  0.253640  0.000000  1
  Ir  Ir36  1  0.027897  0.246230  0.000000  1
  Ir  Ir37  1  0.971899  0.753824  0.000000  1
