# generated using pymatgen
data_La2Tb4Ir7Rh11
_symmetry_space_group_name_H-M   'P 1'
_cell_length_a   5.33959100
_cell_length_b   5.33303659
_cell_length_c   17.55048331
_cell_angle_alpha   90.05079427
_cell_angle_beta   90.00000000
_cell_angle_gamma   120.04064539
_symmetry_Int_Tables_number   1
_chemical_formula_structural   La2Tb4Ir7Rh11
_chemical_formula_sum   'La2 Tb4 Ir7 Rh11'
_cell_volume   432.63736079
_cell_formula_units_Z   1
loop_
 _symmetry_equiv_pos_site_id
 _symmetry_equiv_pos_as_xyz
  1  'x, y, z'
loop_
 _atom_site_type_symbol
 _atom_site_label
 _atom_site_symmetry_multiplicity
 _atom_site_fract_x
 _atom_site_fract_y
 _atom_site_fract_z
 _atom_site_occupancy
  La  La0  1  0.333616  0.667234  0.749472  1
  La  La1  1  0.666400  0.332801  0.249342  1
  Tb  Tb2  1  0.333511  0.667023  0.541354  1
  Tb  Tb3  1  0.666029  0.332058  0.041179  1
  Tb  Tb4  1  0.667025  0.334049  0.459003  1
  Tb  Tb5  1  0.332537  0.665076  0.959036  1
  Ir  Ir6  1  0.166892  0.333782  0.125371  1
  Ir  Ir7  1  0.832133  0.664266  0.624055  1
  Ir  Ir8  1  0.664636  0.831563  0.125193  1
  Ir  Ir9  1  0.166927  0.831563  0.125193  1
  Ir  Ir10  1  0.832756  0.167407  0.625513  1
  Ir  Ir11  1  0.334651  0.167407  0.625513  1
  Ir  Ir12  1  0.833841  0.667680  0.874987  1
  Rh  Rh13  1  0.833896  0.170379  0.875168  1
  Rh  Rh14  1  0.336483  0.170379  0.875168  1
  Rh  Rh15  1  0.665379  0.832703  0.375441  1
  Rh  Rh16  1  0.167324  0.832703  0.375441  1
  Rh  Rh17  1  0.167592  0.335183  0.375282  1
  Rh  Rh18  1  0.000059  0.000119  0.249921  1
  Rh  Rh19  1  0.996855  0.993712  0.749860  1
  Rh  Rh20  1  0.333271  0.666543  0.249900  1
  Rh  Rh21  1  0.669427  0.338853  0.749702  1
  Rh  Rh22  1  0.997962  0.995925  0.999342  1
  Rh  Rh23  1  0.000798  0.001597  0.499564  1
