# generated using pymatgen
data_Sm5YZn4Pd13
_symmetry_space_group_name_H-M   'P 1'
_cell_length_a   8.33115909
_cell_length_b   8.33115866
_cell_length_c   8.33115801
_cell_angle_alpha   109.46576367
_cell_angle_beta   109.47394628
_cell_angle_gamma   109.47395161
_symmetry_Int_Tables_number   1
_chemical_formula_structural   Sm5YZn4Pd13
_chemical_formula_sum   'Sm5 Y1 Zn4 Pd13'
_cell_volume   445.13763409
_cell_formula_units_Z   1
loop_
 _symmetry_equiv_pos_site_id
 _symmetry_equiv_pos_as_xyz
  1  'x, y, z'
loop_
 _atom_site_type_symbol
 _atom_site_label
 _atom_site_symmetry_multiplicity
 _atom_site_fract_x
 _atom_site_fract_y
 _atom_site_fract_z
 _atom_site_occupancy
  Sm  Sm0  1  0.698910  0.698742  0.999832  1
  Sm  Sm1  1  0.301090  0.999832  0.300922  1
  Sm  Sm2  1  0.000000  0.301645  0.301645  1
  Sm  Sm3  1  0.301090  0.300922  0.999832  1
  Sm  Sm4  1  0.698910  0.999832  0.698742  1
  Y  Y5  1  0.000000  0.697854  0.697854  1
  Zn  Zn6  1  0.000000  0.999820  0.500184  1
  Zn  Zn7  1  0.000000  0.500184  0.999820  1
  Zn  Zn8  1  0.499636  0.999820  0.999820  1
  Zn  Zn9  1  0.500364  0.500184  0.500184  1
  Pd  Pd10  1  0.333074  0.333117  0.666193  1
  Pd  Pd11  1  0.666926  0.000043  0.333117  1
  Pd  Pd12  1  0.000000  0.666939  0.333962  1
  Pd  Pd13  1  0.666926  0.333117  0.000043  1
  Pd  Pd14  1  0.333074  0.666193  0.333117  1
  Pd  Pd15  1  0.000000  0.333962  0.666939  1
  Pd  Pd16  1  0.332548  0.667034  0.999581  1
  Pd  Pd17  1  0.332548  0.999581  0.667034  1
  Pd  Pd18  1  0.667025  0.333962  0.333962  1
  Pd  Pd19  1  0.667452  0.667034  0.334484  1
  Pd  Pd20  1  0.667452  0.334484  0.667034  1
  Pd  Pd21  1  0.332975  0.666939  0.666939  1
  Pd  Pd22  1  0.000000  0.998759  0.998759  1
