# generated using pymatgen
data_La2Ga5Ir2Pt
_symmetry_space_group_name_H-M   'P 1'
_cell_length_a   8.73571918
_cell_length_b   8.73577699
_cell_length_c   8.73574944
_cell_angle_alpha   140.50165105
_cell_angle_beta   107.74442536
_cell_angle_gamma   85.61724905
_symmetry_Int_Tables_number   1
_chemical_formula_structural   La2Ga5Ir2Pt
_chemical_formula_sum   'La4 Ga10 Ir4 Pt2'
_cell_volume   389.74182001
_cell_formula_units_Z   2
loop_
 _symmetry_equiv_pos_site_id
 _symmetry_equiv_pos_as_xyz
  1  'x, y, z'
loop_
 _atom_site_type_symbol
 _atom_site_label
 _atom_site_symmetry_multiplicity
 _atom_site_fract_x
 _atom_site_fract_y
 _atom_site_fract_z
 _atom_site_occupancy
  La  La0  1  0.093793  0.865795  0.228059  1
  La  La1  1  0.634557  0.363991  0.270558  1
  La  La2  1  0.906557  0.135987  0.770563  1
  La  La3  1  0.362275  0.634243  0.728036  1
  Ga  Ga4  1  0.291720  0.042211  0.753455  1
  Ga  Ga5  1  0.291716  0.538261  0.249503  1
  Ga  Ga6  1  0.003122  0.250000  0.253121  1
  Ga  Ga7  1  0.241803  0.406880  0.834930  1
  Ga  Ga8  1  0.754909  0.593025  0.161870  1
  Ga  Ga9  1  0.711245  0.457788  0.749505  1
  Ga  Ga10  1  0.568846  0.906970  0.661877  1
  Ga  Ga11  1  0.711243  0.961735  0.253450  1
  Ga  Ga12  1  0.428051  0.093119  0.334921  1
  Ga  Ga13  1  0.003127  0.749998  0.753124  1
  Ir  Ir14  1  0.953349  0.353921  0.599429  1
  Ir  Ir15  1  0.245507  0.146078  0.099427  1
  Ir  Ir16  1  0.500117  0.750000  0.250116  1
  Ir  Ir17  1  0.500113  0.249998  0.750111  1
  Pt  Pt18  1  0.044562  0.645586  0.398974  1
  Pt  Pt19  1  0.753388  0.854413  0.898972  1
