# generated using pymatgen
data_Hf8Ti2Cr9Si16Mo
_symmetry_space_group_name_H-M   'P 1'
_cell_length_a   6.49854260
_cell_length_b   6.56823031
_cell_length_c   12.29973700
_cell_angle_alpha   90.00000000
_cell_angle_beta   90.00000000
_cell_angle_gamma   90.13552269
_symmetry_Int_Tables_number   1
_chemical_formula_structural   Hf8Ti2Cr9Si16Mo
_chemical_formula_sum   'Hf8 Ti2 Cr9 Si16 Mo1'
_cell_volume   524.99957616
_cell_formula_units_Z   1
loop_
 _symmetry_equiv_pos_site_id
 _symmetry_equiv_pos_as_xyz
  1  'x, y, z'
loop_
 _atom_site_type_symbol
 _atom_site_label
 _atom_site_symmetry_multiplicity
 _atom_site_fract_x
 _atom_site_fract_y
 _atom_site_fract_z
 _atom_site_occupancy
  Hf  Hf0  1  0.992566  0.170436  0.094150  1
  Hf  Hf1  1  0.004269  0.833239  0.904564  1
  Hf  Hf2  1  0.507510  0.669425  0.904276  1
  Hf  Hf3  1  0.004269  0.833239  0.595436  1
  Hf  Hf4  1  0.494414  0.334262  0.092851  1
  Hf  Hf5  1  0.992566  0.170436  0.405850  1
  Hf  Hf6  1  0.494414  0.334262  0.407149  1
  Hf  Hf7  1  0.507510  0.669425  0.595724  1
  Ti  Ti8  1  0.829556  0.501354  0.250000  1
  Ti  Ti9  1  0.670584  0.001594  0.750000  1
  Cr  Cr10  1  0.170738  0.505619  0.750000  1
  Cr  Cr11  1  0.343838  0.159070  0.623016  1
  Cr  Cr12  1  0.669602  0.834969  0.376247  1
  Cr  Cr13  1  0.159343  0.658018  0.378636  1
  Cr  Cr14  1  0.669602  0.834969  0.123753  1
  Cr  Cr15  1  0.828765  0.334932  0.624932  1
  Cr  Cr16  1  0.343838  0.159070  0.876984  1
  Cr  Cr17  1  0.828765  0.334932  0.875068  1
  Cr  Cr18  1  0.159343  0.658018  0.121364  1
  Si  Si19  1  0.047899  0.144716  0.750000  1
  Si  Si20  1  0.963246  0.868487  0.250000  1
  Si  Si21  1  0.456485  0.637199  0.250000  1
  Si  Si22  1  0.530113  0.371868  0.750000  1
  Si  Si23  1  0.298827  0.867989  0.750000  1
  Si  Si24  1  0.696511  0.129030  0.250000  1
  Si  Si25  1  0.198369  0.371950  0.250000  1
  Si  Si26  1  0.808992  0.623896  0.750000  1
  Si  Si27  1  0.165977  0.450806  0.548168  1
  Si  Si28  1  0.832826  0.544815  0.461153  1
  Si  Si29  1  0.332714  0.951452  0.457416  1
  Si  Si30  1  0.832826  0.544815  0.038847  1
  Si  Si31  1  0.667985  0.044620  0.539890  1
  Si  Si32  1  0.165977  0.450806  0.951832  1
  Si  Si33  1  0.667985  0.044620  0.960110  1
  Si  Si34  1  0.332714  0.951452  0.042584  1
  Mo  Mo35  1  0.329062  0.004207  0.250000  1
