# generated using pymatgen
data_Ho5Co16Ge3(MoP3)3
_symmetry_space_group_name_H-M   'P 1'
_cell_length_a   12.20598400
_cell_length_b   12.20598431
_cell_length_c   3.72336200
_cell_angle_alpha   90.00000000
_cell_angle_beta   90.00000000
_cell_angle_gamma   120.00000459
_symmetry_Int_Tables_number   1
_chemical_formula_structural   Ho5Co16Ge3(MoP3)3
_chemical_formula_sum   'Ho5 Co16 Ge3 Mo3 P9'
_cell_volume   480.40937880
_cell_formula_units_Z   1
loop_
 _symmetry_equiv_pos_site_id
 _symmetry_equiv_pos_as_xyz
  1  'x, y, z'
loop_
 _atom_site_type_symbol
 _atom_site_label
 _atom_site_symmetry_multiplicity
 _atom_site_fract_x
 _atom_site_fract_y
 _atom_site_fract_z
 _atom_site_occupancy
  Ho  Ho0  1  0.666667  0.333333  0.000000  1
  Ho  Ho1  1  0.333333  0.666667  0.000000  1
  Ho  Ho2  1  0.816493  0.815631  0.500000  1
  Ho  Ho3  1  0.184369  0.000863  0.500000  1
  Ho  Ho4  1  0.999137  0.183507  0.500000  1
  Co  Co5  1  0.886297  0.353746  0.500000  1
  Co  Co6  1  0.646254  0.532551  0.500000  1
  Co  Co7  1  0.467449  0.113703  0.500000  1
  Co  Co8  1  0.353336  0.868573  0.500000  1
  Co  Co9  1  0.515237  0.646664  0.500000  1
  Co  Co10  1  0.131427  0.484763  0.500000  1
  Co  Co11  1  0.808670  0.174575  0.000000  1
  Co  Co12  1  0.825425  0.634095  0.000000  1
  Co  Co13  1  0.365905  0.191330  0.000000  1
  Co  Co14  1  0.179959  0.804618  0.000000  1
  Co  Co15  1  0.624657  0.820041  0.000000  1
  Co  Co16  1  0.195382  0.375343  0.000000  1
  Co  Co17  1  0.272362  0.279758  0.500000  1
  Co  Co18  1  0.720242  0.992604  0.500000  1
  Co  Co19  1  0.007396  0.727638  0.500000  1
  Co  Co20  1  0.000000  0.000000  0.000000  1
  Ge  Ge21  1  0.683871  0.165234  0.500000  1
  Ge  Ge22  1  0.834766  0.518638  0.500000  1
  Ge  Ge23  1  0.481362  0.316129  0.500000  1
  Mo  Mo24  1  0.442050  0.449158  0.000000  1
  Mo  Mo25  1  0.550842  0.992892  0.000000  1
  Mo  Mo26  1  0.007108  0.557950  0.000000  1
  P  P27  1  0.166648  0.686972  0.500000  1
  P  P28  1  0.520323  0.833352  0.500000  1
  P  P29  1  0.313028  0.479677  0.500000  1
  P  P30  1  0.177768  0.180206  0.000000  1
  P  P31  1  0.819794  0.997562  0.000000  1
  P  P32  1  0.002438  0.822232  0.000000  1
  P  P33  1  0.639107  0.640361  0.000000  1
  P  P34  1  0.359639  0.998746  0.000000  1
  P  P35  1  0.001254  0.360893  0.000000  1
