# generated using pymatgen
data_YbHo3Ni13Pt
_symmetry_space_group_name_H-M   'P 1'
_cell_length_a   4.90356026
_cell_length_b   4.90355916
_cell_length_c   12.51371118
_cell_angle_alpha   78.60966021
_cell_angle_beta   78.60966259
_cell_angle_gamma   60.08438417
_symmetry_Int_Tables_number   1
_chemical_formula_structural   YbHo3Ni13Pt
_chemical_formula_sum   'Yb1 Ho3 Ni13 Pt1'
_cell_volume   253.92264362
_cell_formula_units_Z   1
loop_
 _symmetry_equiv_pos_site_id
 _symmetry_equiv_pos_as_xyz
  1  'x, y, z'
loop_
 _atom_site_type_symbol
 _atom_site_label
 _atom_site_symmetry_multiplicity
 _atom_site_fract_x
 _atom_site_fract_y
 _atom_site_fract_z
 _atom_site_occupancy
  Yb  Yb0  1  0.144815  0.144815  0.565262  1
  Ho  Ho1  1  0.949746  0.949746  0.150819  1
  Ho  Ho2  1  0.050779  0.050779  0.847760  1
  Ho  Ho3  1  0.852803  0.852803  0.442115  1
  Ni  Ni4  1  0.720512  0.720512  0.837504  1
  Ni  Ni5  1  0.279667  0.279667  0.161889  1
  Ni  Ni6  1  0.612414  0.612414  0.161135  1
  Ni  Ni7  1  0.387803  0.387803  0.837691  1
  Ni  Ni8  1  0.999749  0.500482  0.999526  1
  Ni  Ni9  1  0.500482  0.999749  0.999526  1
  Ni  Ni10  1  0.500422  0.500422  0.999496  1
  Ni  Ni11  1  0.390796  0.390796  0.322581  1
  Ni  Ni12  1  0.895557  0.391265  0.322048  1
  Ni  Ni13  1  0.391265  0.895557  0.322048  1
  Ni  Ni14  1  0.609505  0.609505  0.676377  1
  Ni  Ni15  1  0.104903  0.608997  0.676868  1
  Ni  Ni16  1  0.608997  0.104903  0.676868  1
  Pt  Pt17  1  0.499785  0.499785  0.500488  1
