# generated using pymatgen
data_YTm(Co3Si2)2
_symmetry_space_group_name_H-M   'P 1'
_cell_length_a   6.25011663
_cell_length_b   6.25011523
_cell_length_c   6.25011647
_cell_angle_alpha   130.59826822
_cell_angle_beta   113.03916430
_cell_angle_gamma   87.58648533
_symmetry_Int_Tables_number   1
_chemical_formula_structural   YTm(Co3Si2)2
_chemical_formula_sum   'Y1 Tm1 Co6 Si4'
_cell_volume   162.51142114
_cell_formula_units_Z   1
loop_
 _symmetry_equiv_pos_site_id
 _symmetry_equiv_pos_as_xyz
  1  'x, y, z'
loop_
 _atom_site_type_symbol
 _atom_site_label
 _atom_site_symmetry_multiplicity
 _atom_site_fract_x
 _atom_site_fract_y
 _atom_site_fract_z
 _atom_site_occupancy
  Y  Y0  1  0.750000  0.469773  0.719773  1
  Tm  Tm1  1  0.250000  0.532327  0.282327  1
  Co  Co2  1  0.000393  0.999430  0.499824  1
  Co  Co3  1  0.499607  0.999430  0.999038  1
  Co  Co4  1  0.723282  0.998909  0.723282  1
  Co  Co5  1  0.224372  0.499999  0.723282  1
  Co  Co6  1  0.275628  0.998909  0.275627  1
  Co  Co7  1  0.776718  0.499999  0.275627  1
  Si  Si8  1  0.081807  0.875692  0.793885  1
  Si  Si9  1  0.919524  0.126250  0.206726  1
  Si  Si10  1  0.580476  0.787203  0.206726  1
  Si  Si11  1  0.418193  0.212076  0.793885  1
