# generated using pymatgen
data_Y7ErTi11NbSi16
_symmetry_space_group_name_H-M   'P 1'
_cell_length_a   7.05929160
_cell_length_b   7.05727215
_cell_length_c   12.97283365
_cell_angle_alpha   89.97279834
_cell_angle_beta   90.02820964
_cell_angle_gamma   90.00326055
_symmetry_Int_Tables_number   1
_chemical_formula_structural   Y7ErTi11NbSi16
_chemical_formula_sum   'Y7 Er1 Ti11 Nb1 Si16'
_cell_volume   646.29788453
_cell_formula_units_Z   1
loop_
 _symmetry_equiv_pos_site_id
 _symmetry_equiv_pos_as_xyz
  1  'x, y, z'
loop_
 _atom_site_type_symbol
 _atom_site_label
 _atom_site_symmetry_multiplicity
 _atom_site_fract_x
 _atom_site_fract_y
 _atom_site_fract_z
 _atom_site_occupancy
  Y  Y0  1  0.340613  0.002614  0.466519  1
  Y  Y1  1  0.497689  0.840116  0.716852  1
  Y  Y2  1  0.501773  0.158906  0.216001  1
  Y  Y3  1  0.840153  0.497645  0.283086  1
  Y  Y4  1  0.158883  0.501792  0.783905  1
  Y  Y5  1  0.658720  0.998080  0.966805  1
  Y  Y6  1  0.002610  0.340541  0.533321  1
  Er  Er7  1  0.998978  0.657942  0.033308  1
  Ti  Ti8  1  0.173446  0.826346  0.249900  1
  Ti  Ti9  1  0.826683  0.173708  0.750016  1
  Ti  Ti10  1  0.673211  0.673069  0.500012  1
  Ti  Ti11  1  0.152848  0.009815  0.877012  1
  Ti  Ti12  1  0.491376  0.650629  0.125151  1
  Ti  Ti13  1  0.508723  0.348654  0.626036  1
  Ti  Ti14  1  0.650880  0.491987  0.875116  1
  Ti  Ti15  1  0.348491  0.508565  0.373854  1
  Ti  Ti16  1  0.847616  0.991376  0.375889  1
  Ti  Ti17  1  0.009600  0.153203  0.123284  1
  Ti  Ti18  1  0.991671  0.847506  0.623967  1
  Nb  Nb19  1  0.326371  0.327004  0.000039  1
  Si  Si20  1  0.202066  0.129773  0.684744  1
  Si  Si21  1  0.368775  0.703224  0.934612  1
  Si  Si22  1  0.630180  0.297671  0.434659  1
  Si  Si23  1  0.704147  0.370785  0.065780  1
  Si  Si24  1  0.297794  0.630264  0.565180  1
  Si  Si25  1  0.798696  0.869288  0.184085  1
  Si  Si26  1  0.129780  0.202039  0.315239  1
  Si  Si27  1  0.870272  0.797702  0.815745  1
  Si  Si28  1  0.289875  0.950582  0.065045  1
  Si  Si29  1  0.547269  0.790744  0.314408  1
  Si  Si30  1  0.453902  0.208656  0.813275  1
  Si  Si31  1  0.790883  0.547181  0.685500  1
  Si  Si32  1  0.207882  0.454435  0.186506  1
  Si  Si33  1  0.709568  0.047068  0.564527  1
  Si  Si34  1  0.951415  0.291665  0.935279  1
  Si  Si35  1  0.047165  0.709427  0.435342  1
