# generated using pymatgen
data_Tb3Ho7Cd3Fe
_symmetry_space_group_name_H-M   'P 1'
_cell_length_a   9.56292500
_cell_length_b   9.56292563
_cell_length_c   9.74632400
_cell_angle_alpha   90.00000000
_cell_angle_beta   90.00000000
_cell_angle_gamma   119.99999436
_symmetry_Int_Tables_number   1
_chemical_formula_structural   Tb3Ho7Cd3Fe
_chemical_formula_sum   'Tb6 Ho14 Cd6 Fe2'
_cell_volume   771.88576007
_cell_formula_units_Z   2
loop_
 _symmetry_equiv_pos_site_id
 _symmetry_equiv_pos_as_xyz
  1  'x, y, z'
loop_
 _atom_site_type_symbol
 _atom_site_label
 _atom_site_symmetry_multiplicity
 _atom_site_fract_x
 _atom_site_fract_y
 _atom_site_fract_z
 _atom_site_occupancy
  Tb  Tb0  1  0.541672  0.458328  0.250000  1
  Tb  Tb1  1  0.541672  0.083343  0.250000  1
  Tb  Tb2  1  0.916657  0.458328  0.250000  1
  Tb  Tb3  1  0.458328  0.541672  0.750000  1
  Tb  Tb4  1  0.458328  0.916657  0.750000  1
  Tb  Tb5  1  0.083343  0.541672  0.750000  1
  Ho  Ho6  1  0.000000  0.000000  0.500000  1
  Ho  Ho7  1  0.000000  0.000000  0.000000  1
  Ho  Ho8  1  0.212037  0.787963  0.435980  1
  Ho  Ho9  1  0.212037  0.424074  0.435980  1
  Ho  Ho10  1  0.575926  0.787963  0.435980  1
  Ho  Ho11  1  0.787963  0.212037  0.564020  1
  Ho  Ho12  1  0.787963  0.575926  0.564020  1
  Ho  Ho13  1  0.424074  0.212037  0.564020  1
  Ho  Ho14  1  0.787963  0.212037  0.935980  1
  Ho  Ho15  1  0.787963  0.575926  0.935980  1
  Ho  Ho16  1  0.424074  0.212037  0.935980  1
  Ho  Ho17  1  0.212037  0.787963  0.064020  1
  Ho  Ho18  1  0.212037  0.424074  0.064020  1
  Ho  Ho19  1  0.575926  0.787963  0.064020  1
  Cd  Cd20  1  0.885653  0.114347  0.250000  1
  Cd  Cd21  1  0.885653  0.771305  0.250000  1
  Cd  Cd22  1  0.228695  0.114347  0.250000  1
  Cd  Cd23  1  0.114347  0.885653  0.750000  1
  Cd  Cd24  1  0.114347  0.228695  0.750000  1
  Cd  Cd25  1  0.771305  0.885653  0.750000  1
  Fe  Fe26  1  0.333333  0.666667  0.250000  1
  Fe  Fe27  1  0.666667  0.333333  0.750000  1
