# generated using pymatgen
data_Hf8Ta2Si5Sn
_symmetry_space_group_name_H-M   'P 1'
_cell_length_a   7.99269435
_cell_length_b   7.99269398
_cell_length_c   7.99269381
_cell_angle_alpha   129.39535205
_cell_angle_beta   129.39534935
_cell_angle_gamma   74.37526141
_symmetry_Int_Tables_number   1
_chemical_formula_structural   Hf8Ta2Si5Sn
_chemical_formula_sum   'Hf8 Ta2 Si5 Sn1'
_cell_volume   297.21501706
_cell_formula_units_Z   1
loop_
 _symmetry_equiv_pos_site_id
 _symmetry_equiv_pos_as_xyz
  1  'x, y, z'
loop_
 _atom_site_type_symbol
 _atom_site_label
 _atom_site_symmetry_multiplicity
 _atom_site_fract_x
 _atom_site_fract_y
 _atom_site_fract_z
 _atom_site_occupancy
  Hf  Hf0  1  0.032027  0.200264  0.519660  1
  Hf  Hf1  1  0.680604  0.512368  0.480340  1
  Hf  Hf2  1  0.512368  0.032027  0.831763  1
  Hf  Hf3  1  0.200264  0.680604  0.168237  1
  Hf  Hf4  1  0.987632  0.819396  0.519660  1
  Hf  Hf5  1  0.299736  0.467973  0.480340  1
  Hf  Hf6  1  0.467973  0.987632  0.168237  1
  Hf  Hf7  1  0.819396  0.299736  0.831763  1
  Ta  Ta8  1  0.997792  0.997792  0.000000  1
  Ta  Ta9  1  0.502208  0.502208  0.000000  1
  Si  Si10  1  0.250000  0.250000  0.000000  1
  Si  Si11  1  0.368294  0.131706  0.500000  1
  Si  Si12  1  0.631706  0.868294  0.500000  1
  Si  Si13  1  0.868294  0.368294  0.236588  1
  Si  Si14  1  0.131706  0.631706  0.763412  1
  Sn  Sn15  1  0.750000  0.750000  0.000000  1
