# generated using pymatgen
data_Y15Lu5(Al2Ga)4
_symmetry_space_group_name_H-M   'P 1'
_cell_length_a   7.69761346
_cell_length_b   7.69676964
_cell_length_c   14.21641046
_cell_angle_alpha   89.97408804
_cell_angle_beta   89.96410492
_cell_angle_gamma   90.04163263
_symmetry_Int_Tables_number   1
_chemical_formula_structural   Y15Lu5(Al2Ga)4
_chemical_formula_sum   'Y15 Lu5 Al8 Ga4'
_cell_volume   842.27575006
_cell_formula_units_Z   1
loop_
 _symmetry_equiv_pos_site_id
 _symmetry_equiv_pos_as_xyz
  1  'x, y, z'
loop_
 _atom_site_type_symbol
 _atom_site_label
 _atom_site_symmetry_multiplicity
 _atom_site_fract_x
 _atom_site_fract_y
 _atom_site_fract_z
 _atom_site_occupancy
  Y  Y0  1  0.168978  0.165258  0.605781  1
  Y  Y1  1  0.833330  0.169285  0.396950  1
  Y  Y2  1  0.165294  0.829617  0.396881  1
  Y  Y3  1  0.327185  0.330810  0.399077  1
  Y  Y4  1  0.829793  0.164585  0.102648  1
  Y  Y5  1  0.325880  0.671140  0.895985  1
  Y  Y6  1  0.168724  0.833587  0.102600  1
  Y  Y7  1  0.330330  0.674576  0.604806  1
  Y  Y8  1  0.671748  0.675336  0.102060  1
  Y  Y9  1  0.671209  0.326511  0.604636  1
  Y  Y10  1  0.828966  0.832700  0.606782  1
  Y  Y11  1  0.674498  0.330333  0.895855  1
  Y  Y12  1  0.164307  0.167970  0.895164  1
  Y  Y13  1  0.674511  0.671028  0.396886  1
  Y  Y14  1  0.331200  0.327516  0.100322  1
  Lu  Lu15  1  0.833781  0.829703  0.892105  1
  Lu  Lu16  1  0.501669  0.995833  0.754418  1
  Lu  Lu17  1  0.999077  0.503949  0.246729  1
  Lu  Lu18  1  0.995860  0.501477  0.748161  1
  Lu  Lu19  1  0.504039  0.999085  0.253108  1
  Al  Al20  1  0.621505  0.377887  0.249571  1
  Al  Al21  1  0.377844  0.621484  0.249588  1
  Al  Al22  1  0.997879  0.501719  0.999774  1
  Al  Al23  1  0.501809  0.998040  0.996105  1
  Al  Al24  1  0.122555  0.122558  0.249719  1
  Al  Al25  1  0.378917  0.378925  0.750513  1
  Al  Al26  1  0.500615  0.999263  0.499130  1
  Al  Al27  1  0.999305  0.500715  0.502851  1
  Ga  Ga28  1  0.123664  0.875437  0.750666  1
  Ga  Ga29  1  0.876520  0.876428  0.249788  1
  Ga  Ga30  1  0.623583  0.623615  0.750635  1
  Ga  Ga31  1  0.875423  0.123635  0.750704  1
