# generated using pymatgen
data_Nb6Ga4NiRhC2
_symmetry_space_group_name_H-M   'P 1'
_cell_length_a   8.30297164
_cell_length_b   8.32129787
_cell_length_c   8.30326609
_cell_angle_alpha   59.92847969
_cell_angle_beta   59.93648009
_cell_angle_gamma   59.92717422
_symmetry_Int_Tables_number   1
_chemical_formula_structural   Nb6Ga4NiRhC2
_chemical_formula_sum   'Nb12 Ga8 Ni2 Rh2 C4'
_cell_volume   405.01908337
_cell_formula_units_Z   2
loop_
 _symmetry_equiv_pos_site_id
 _symmetry_equiv_pos_as_xyz
  1  'x, y, z'
loop_
 _atom_site_type_symbol
 _atom_site_label
 _atom_site_symmetry_multiplicity
 _atom_site_fract_x
 _atom_site_fract_y
 _atom_site_fract_z
 _atom_site_occupancy
  Nb  Nb0  1  0.813001  0.814407  0.188732  1
  Nb  Nb1  1  0.188712  0.183870  0.813001  1
  Nb  Nb2  1  0.813272  0.186732  0.813281  1
  Nb  Nb3  1  0.185180  0.814808  0.185194  1
  Nb  Nb4  1  0.188727  0.814401  0.813000  1
  Nb  Nb5  1  0.813001  0.183863  0.188718  1
  Nb  Nb6  1  0.436999  0.435593  0.061268  1
  Nb  Nb7  1  0.061288  0.066130  0.436999  1
  Nb  Nb8  1  0.436728  0.063268  0.436719  1
  Nb  Nb9  1  0.064820  0.435192  0.064806  1
  Nb  Nb10  1  0.061273  0.435599  0.437000  1
  Nb  Nb11  1  0.436999  0.066137  0.061282  1
  Ga  Ga12  1  0.751057  0.420149  0.408642  1
  Ga  Ga13  1  0.411638  0.754959  0.411650  1
  Ga  Ga14  1  0.408645  0.420158  0.751034  1
  Ga  Ga15  1  0.411638  0.421743  0.411648  1
  Ga  Ga16  1  0.498943  0.829851  0.841358  1
  Ga  Ga17  1  0.838362  0.495041  0.838350  1
  Ga  Ga18  1  0.841355  0.829842  0.498966  1
  Ga  Ga19  1  0.838362  0.828257  0.838352  1
  Ni  Ni20  1  0.125000  0.625000  0.625000  1
  Ni  Ni21  1  0.625000  0.625000  0.125000  1
  Rh  Rh22  1  0.625000  0.125000  0.625000  1
  Rh  Rh23  1  0.625000  0.625000  0.625000  1
  C  C24  1  0.625000  0.125000  0.125000  1
  C  C25  1  0.125000  0.625000  0.125000  1
  C  C26  1  0.125000  0.125000  0.625000  1
  C  C27  1  0.125000  0.125000  0.125000  1
