# generated using pymatgen
data_Sc4ZnFe(Co5B2)2
_symmetry_space_group_name_H-M   'P 1'
_cell_length_a   8.72908100
_cell_length_b   8.72908100
_cell_length_c   2.94953700
_cell_angle_alpha   90.00000000
_cell_angle_beta   90.00000000
_cell_angle_gamma   90.00000000
_symmetry_Int_Tables_number   1
_chemical_formula_structural   Sc4ZnFe(Co5B2)2
_chemical_formula_sum   'Sc4 Zn1 Fe1 Co10 B4'
_cell_volume   224.74544341
_cell_formula_units_Z   1
loop_
 _symmetry_equiv_pos_site_id
 _symmetry_equiv_pos_as_xyz
  1  'x, y, z'
loop_
 _atom_site_type_symbol
 _atom_site_label
 _atom_site_symmetry_multiplicity
 _atom_site_fract_x
 _atom_site_fract_y
 _atom_site_fract_z
 _atom_site_occupancy
  Sc  Sc0  1  0.175525  0.676095  0.000000  1
  Sc  Sc1  1  0.824475  0.323905  0.000000  1
  Sc  Sc2  1  0.323905  0.175525  0.000000  1
  Sc  Sc3  1  0.676095  0.824475  0.000000  1
  Zn  Zn4  1  0.000000  0.000000  0.000000  1
  Fe  Fe5  1  0.500000  0.500000  0.000000  1
  Co  Co6  1  0.500000  0.000000  0.500000  1
  Co  Co7  1  0.718132  0.567102  0.500000  1
  Co  Co8  1  0.567102  0.281868  0.500000  1
  Co  Co9  1  0.432898  0.718132  0.500000  1
  Co  Co10  1  0.281868  0.432898  0.500000  1
  Co  Co11  1  0.000000  0.500000  0.500000  1
  Co  Co12  1  0.929601  0.776200  0.500000  1
  Co  Co13  1  0.776200  0.070399  0.500000  1
  Co  Co14  1  0.223800  0.929601  0.500000  1
  Co  Co15  1  0.070399  0.223800  0.500000  1
  B  B16  1  0.378638  0.880086  0.000000  1
  B  B17  1  0.880086  0.621362  0.000000  1
  B  B18  1  0.119914  0.378638  0.000000  1
  B  B19  1  0.621362  0.119914  0.000000  1
