# generated using pymatgen
data_Cd2IrRh3(PbO7)2
_symmetry_space_group_name_H-M   'P 1'
_cell_length_a   7.26008727
_cell_length_b   7.31928293
_cell_length_c   7.26008822
_cell_angle_alpha   59.86697586
_cell_angle_beta   59.60769968
_cell_angle_gamma   59.86697892
_symmetry_Int_Tables_number   1
_chemical_formula_structural   Cd2IrRh3(PbO7)2
_chemical_formula_sum   'Cd2 Ir1 Rh3 Pb2 O14'
_cell_volume   271.43268187
_cell_formula_units_Z   1
loop_
 _symmetry_equiv_pos_site_id
 _symmetry_equiv_pos_as_xyz
  1  'x, y, z'
loop_
 _atom_site_type_symbol
 _atom_site_label
 _atom_site_symmetry_multiplicity
 _atom_site_fract_x
 _atom_site_fract_y
 _atom_site_fract_z
 _atom_site_occupancy
  Cd  Cd0  1  0.625000  0.125000  0.125000  1
  Cd  Cd1  1  0.125000  0.125000  0.625000  1
  Ir  Ir2  1  0.625000  0.125000  0.625000  1
  Rh  Rh3  1  0.125000  0.625000  0.625000  1
  Rh  Rh4  1  0.625000  0.625000  0.125000  1
  Rh  Rh5  1  0.625000  0.625000  0.625000  1
  Pb  Pb6  1  0.125000  0.625000  0.125000  1
  Pb  Pb7  1  0.125000  0.125000  0.125000  1
  O  O8  1  0.709202  0.704970  0.291314  1
  O  O9  1  0.300652  0.298996  0.711706  1
  O  O10  1  0.692738  0.302797  0.692738  1
  O  O11  1  0.291399  0.712013  0.291399  1
  O  O12  1  0.291314  0.704970  0.709202  1
  O  O13  1  0.711706  0.298996  0.300652  1
  O  O14  1  0.540798  0.545030  0.958686  1
  O  O15  1  0.949348  0.951004  0.538294  1
  O  O16  1  0.557262  0.947203  0.557262  1
  O  O17  1  0.958601  0.537987  0.958601  1
  O  O18  1  0.958686  0.545030  0.540798  1
  O  O19  1  0.538294  0.951004  0.949348  1
  O  O20  1  0.258649  0.237821  0.258649  1
  O  O21  1  0.991351  0.012179  0.991351  1
