# generated using pymatgen
data_TmMn(SnRu2)2
_symmetry_space_group_name_H-M   'P 1'
_cell_length_a   4.51658100
_cell_length_b   6.41649200
_cell_length_c   13.55677200
_cell_angle_alpha   90.00000000
_cell_angle_beta   90.00009709
_cell_angle_gamma   90.00000000
_symmetry_Int_Tables_number   1
_chemical_formula_structural   TmMn(SnRu2)2
_chemical_formula_sum   'Tm3 Mn3 Sn6 Ru12'
_cell_volume   392.88346599
_cell_formula_units_Z   3
loop_
 _symmetry_equiv_pos_site_id
 _symmetry_equiv_pos_as_xyz
  1  'x, y, z'
loop_
 _atom_site_type_symbol
 _atom_site_label
 _atom_site_symmetry_multiplicity
 _atom_site_fract_x
 _atom_site_fract_y
 _atom_site_fract_z
 _atom_site_occupancy
  Tm  Tm0  1  0.000008  0.500001  0.995357  1
  Tm  Tm1  1  0.499963  0.000000  0.166654  1
  Tm  Tm2  1  0.999941  0.500001  0.337974  1
  Mn  Mn3  1  0.499992  0.000000  0.504314  1
  Mn  Mn4  1  0.000068  0.500001  0.666680  1
  Mn  Mn5  1  0.500068  0.000000  0.829020  1
  Sn  Sn6  1  0.999980  0.000000  0.996335  1
  Sn  Sn7  1  0.499974  0.500001  0.166656  1
  Sn  Sn8  1  0.999928  0.000000  0.337018  1
  Sn  Sn9  1  0.499992  0.500001  0.506225  1
  Sn  Sn10  1  0.000043  0.000000  0.666651  1
  Sn  Sn11  1  0.500078  0.500001  0.827140  1
  Ru  Ru12  1  0.499998  0.237914  0.986611  1
  Ru  Ru13  1  0.499998  0.762087  0.986611  1
  Ru  Ru14  1  0.999963  0.252221  0.166661  1
  Ru  Ru15  1  0.999963  0.747780  0.166661  1
  Ru  Ru16  1  0.499921  0.237875  0.346735  1
  Ru  Ru17  1  0.499921  0.762123  0.346735  1
  Ru  Ru18  1  0.999996  0.240001  0.509221  1
  Ru  Ru19  1  0.999996  0.759997  0.509221  1
  Ru  Ru20  1  0.500036  0.246978  0.666653  1
  Ru  Ru21  1  0.500036  0.753020  0.666653  1
  Ru  Ru22  1  0.000072  0.240032  0.824108  1
  Ru  Ru23  1  0.000072  0.759969  0.824108  1
