# generated using pymatgen
data_Li3DyTm4(P3Ir4)4
_symmetry_space_group_name_H-M   'P 1'
_cell_length_a   12.68513600
_cell_length_b   12.68333852
_cell_length_c   3.96581000
_cell_angle_alpha   90.00000000
_cell_angle_beta   90.00000000
_cell_angle_gamma   120.00468296
_symmetry_Int_Tables_number   1
_chemical_formula_structural   Li3DyTm4(P3Ir4)4
_chemical_formula_sum   'Li3 Dy1 Tm4 P12 Ir16'
_cell_volume   552.54894137
_cell_formula_units_Z   1
loop_
 _symmetry_equiv_pos_site_id
 _symmetry_equiv_pos_as_xyz
  1  'x, y, z'
loop_
 _atom_site_type_symbol
 _atom_site_label
 _atom_site_symmetry_multiplicity
 _atom_site_fract_x
 _atom_site_fract_y
 _atom_site_fract_z
 _atom_site_occupancy
  Li  Li0  1  0.000031  0.441982  0.500000  1
  Li  Li1  1  0.558048  0.558018  0.500000  1
  Li  Li2  1  0.441738  0.000000  0.500000  1
  Dy  Dy3  1  0.809223  0.000000  0.000000  1
  Tm  Tm4  1  0.333356  0.666705  0.500000  1
  Tm  Tm5  1  0.666652  0.333295  0.500000  1
  Tm  Tm6  1  0.000019  0.809078  0.000000  1
  Tm  Tm7  1  0.190941  0.190922  0.000000  1
  P  P8  1  0.999964  0.630504  0.500000  1
  P  P9  1  0.369460  0.369496  0.500000  1
  P  P10  1  0.629942  0.000000  0.500000  1
  P  P11  1  0.516002  0.687310  0.000000  1
  P  P12  1  0.312582  0.828616  0.000000  1
  P  P13  1  0.171524  0.484224  0.000000  1
  P  P14  1  0.483966  0.171384  0.000000  1
  P  P15  1  0.687299  0.515776  0.000000  1
  P  P16  1  0.828692  0.312690  0.000000  1
  P  P17  1  0.000347  0.179330  0.500000  1
  P  P18  1  0.821017  0.820670  0.500000  1
  P  P19  1  0.179226  0.000000  0.500000  1
  Ir  Ir20  1  0.508943  0.867850  0.000000  1
  Ir  Ir21  1  0.132100  0.641274  0.000000  1
  Ir  Ir22  1  0.358702  0.490845  0.000000  1
  Ir  Ir23  1  0.490827  0.358726  0.000000  1
  Ir  Ir24  1  0.867858  0.509155  0.000000  1
  Ir  Ir25  1  0.641094  0.132150  0.000000  1
  Ir  Ir26  1  0.000458  0.280243  0.000000  1
  Ir  Ir27  1  0.720215  0.719757  0.000000  1
  Ir  Ir28  1  0.279728  0.000000  0.000000  1
  Ir  Ir29  1  0.626596  0.806834  0.500000  1
  Ir  Ir30  1  0.191856  0.819525  0.500000  1
  Ir  Ir31  1  0.180595  0.372385  0.500000  1
  Ir  Ir32  1  0.372331  0.180475  0.500000  1
  Ir  Ir33  1  0.808211  0.627615  0.500000  1
  Ir  Ir34  1  0.819761  0.193166  0.500000  1
  Ir  Ir35  1  0.000696  0.000000  0.500000  1
