# generated using pymatgen
data_Li2Tb2LuAgSn3
_symmetry_space_group_name_H-M   'P 1'
_cell_length_a   7.32674731
_cell_length_b   7.25787276
_cell_length_c   4.58769000
_cell_angle_alpha   90.00000000
_cell_angle_beta   90.00000000
_cell_angle_gamma   120.26881079
_symmetry_Int_Tables_number   1
_chemical_formula_structural   Li2Tb2LuAgSn3
_chemical_formula_sum   'Li2 Tb2 Lu1 Ag1 Sn3'
_cell_volume   210.69900995
_cell_formula_units_Z   1
loop_
 _symmetry_equiv_pos_site_id
 _symmetry_equiv_pos_as_xyz
  1  'x, y, z'
loop_
 _atom_site_type_symbol
 _atom_site_label
 _atom_site_symmetry_multiplicity
 _atom_site_fract_x
 _atom_site_fract_y
 _atom_site_fract_z
 _atom_site_occupancy
  Li  Li0  1  0.232357  0.228367  0.500000  1
  Li  Li1  1  0.767645  0.996317  0.500000  1
  Tb  Tb2  1  0.999982  0.447253  0.000000  1
  Tb  Tb3  1  0.565603  0.563847  0.000000  1
  Lu  Lu4  1  0.432857  0.998208  0.000000  1
  Ag  Ag5  1  0.999921  0.764387  0.500000  1
  Sn  Sn6  1  0.339709  0.669358  0.500000  1
  Sn  Sn7  1  0.003656  0.009936  0.000000  1
  Sn  Sn8  1  0.658268  0.322328  0.500000  1
