# generated using pymatgen
data_Y4Tm2Lu6Co5Bi
_symmetry_space_group_name_H-M   'P 1'
_cell_length_a   8.20175844
_cell_length_b   8.20217485
_cell_length_c   8.20175790
_cell_angle_alpha   110.99900397
_cell_angle_beta   110.52306258
_cell_angle_gamma   106.91968132
_symmetry_Int_Tables_number   1
_chemical_formula_structural   Y4Tm2Lu6Co5Bi
_chemical_formula_sum   'Y4 Tm2 Lu6 Co5 Bi1'
_cell_volume   424.11291018
_cell_formula_units_Z   1
loop_
 _symmetry_equiv_pos_site_id
 _symmetry_equiv_pos_as_xyz
  1  'x, y, z'
loop_
 _atom_site_type_symbol
 _atom_site_label
 _atom_site_symmetry_multiplicity
 _atom_site_fract_x
 _atom_site_fract_y
 _atom_site_fract_z
 _atom_site_occupancy
  Y  Y0  1  0.286275  0.186127  0.471432  1
  Y  Y1  1  0.713725  0.813873  0.528568  1
  Y  Y2  1  0.285304  0.813873  0.100147  1
  Y  Y3  1  0.714696  0.186127  0.899853  1
  Tm  Tm4  1  0.209625  0.014988  0.805363  1
  Tm  Tm5  1  0.790375  0.985012  0.194637  1
  Lu  Lu6  1  0.623190  0.312397  0.311919  1
  Lu  Lu7  1  0.376810  0.687603  0.688081  1
  Lu  Lu8  1  0.000478  0.312397  0.689207  1
  Lu  Lu9  1  0.999522  0.687603  0.310793  1
  Lu  Lu10  1  0.209542  0.404765  0.195224  1
  Lu  Lu11  1  0.790458  0.595235  0.804776  1
  Co  Co12  1  0.000464  0.375457  0.374993  1
  Co  Co13  1  0.999536  0.624543  0.625007  1
  Co  Co14  1  0.387163  0.886393  0.499231  1
  Co  Co15  1  0.612837  0.113607  0.500769  1
  Co  Co16  1  0.000000  0.000000  0.000000  1
  Bi  Bi17  1  0.500000  0.500000  0.000000  1
