# generated using pymatgen
data_Li4Ca(ThSi2)2
_symmetry_space_group_name_H-M   'P 1'
_cell_length_a   4.38407986
_cell_length_b   6.80911409
_cell_length_c   8.32377013
_cell_angle_alpha   114.14305000
_cell_angle_beta   105.26874397
_cell_angle_gamma   89.99999750
_symmetry_Int_Tables_number   1
_chemical_formula_structural   Li4Ca(ThSi2)2
_chemical_formula_sum   'Li4 Ca1 Th2 Si4'
_cell_volume   217.09618613
_cell_formula_units_Z   1
loop_
 _symmetry_equiv_pos_site_id
 _symmetry_equiv_pos_as_xyz
  1  'x, y, z'
loop_
 _atom_site_type_symbol
 _atom_site_label
 _atom_site_symmetry_multiplicity
 _atom_site_fract_x
 _atom_site_fract_y
 _atom_site_fract_z
 _atom_site_occupancy
  Li  Li0  1  0.672787  0.987532  0.345573  1
  Li  Li1  1  0.330228  0.026043  0.660455  1
  Li  Li2  1  0.330228  0.634413  0.660455  1
  Li  Li3  1  0.672787  0.358041  0.345573  1
  Ca  Ca4  1  0.867118  0.367118  0.734236  1
  Th  Th5  1  0.998465  0.998465  0.996929  1
  Th  Th6  1  0.130037  0.630037  0.260073  1
  Si  Si7  1  0.503964  0.683980  0.007929  1
  Si  Si8  1  0.503964  0.323949  0.007929  1
  Si  Si9  1  0.783115  0.783115  0.566231  1
  Si  Si10  1  0.207307  0.207307  0.414616  1
