# generated using pymatgen
data_CeTh9(Sn3Au)2
_symmetry_space_group_name_H-M   'P 1'
_cell_length_a   9.60081400
_cell_length_b   9.60081552
_cell_length_c   6.56579300
_cell_angle_alpha   90.00000000
_cell_angle_beta   90.00000000
_cell_angle_gamma   120.00000165
_symmetry_Int_Tables_number   1
_chemical_formula_structural   CeTh9(Sn3Au)2
_chemical_formula_sum   'Ce1 Th9 Sn6 Au2'
_cell_volume   524.12393378
_cell_formula_units_Z   1
loop_
 _symmetry_equiv_pos_site_id
 _symmetry_equiv_pos_as_xyz
  1  'x, y, z'
loop_
 _atom_site_type_symbol
 _atom_site_label
 _atom_site_symmetry_multiplicity
 _atom_site_fract_x
 _atom_site_fract_y
 _atom_site_fract_z
 _atom_site_occupancy
  Ce  Ce0  1  0.333333  0.666667  0.000000  1
  Th  Th1  1  0.275853  0.000347  0.749965  1
  Th  Th2  1  0.724494  0.000347  0.250035  1
  Th  Th3  1  0.999653  0.275506  0.749965  1
  Th  Th4  1  0.999653  0.724147  0.250035  1
  Th  Th5  1  0.724494  0.724147  0.749965  1
  Th  Th6  1  0.275853  0.275506  0.250035  1
  Th  Th7  1  0.333333  0.666667  0.500000  1
  Th  Th8  1  0.666667  0.333333  0.500000  1
  Th  Th9  1  0.666667  0.333333  0.000000  1
  Sn  Sn10  1  0.621207  0.999128  0.750686  1
  Sn  Sn11  1  0.377921  0.999128  0.249314  1
  Sn  Sn12  1  0.000872  0.622079  0.750686  1
  Sn  Sn13  1  0.000872  0.378793  0.249314  1
  Sn  Sn14  1  0.377921  0.378793  0.750686  1
  Sn  Sn15  1  0.621207  0.622079  0.249314  1
  Au  Au16  1  0.000000  0.000000  0.500000  1
  Au  Au17  1  0.000000  0.000000  0.000000  1
