# generated using pymatgen
data_BaDy(NbSe2)6
_symmetry_space_group_name_H-M   'P 1'
_cell_length_a   6.14383900
_cell_length_b   6.14383955
_cell_length_c   15.60142300
_cell_angle_alpha   90.00000000
_cell_angle_beta   90.00000000
_cell_angle_gamma   120.00000241
_symmetry_Int_Tables_number   1
_chemical_formula_structural   BaDy(NbSe2)6
_chemical_formula_sum   'Ba1 Dy1 Nb6 Se12'
_cell_volume   510.00510711
_cell_formula_units_Z   1
loop_
 _symmetry_equiv_pos_site_id
 _symmetry_equiv_pos_as_xyz
  1  'x, y, z'
loop_
 _atom_site_type_symbol
 _atom_site_label
 _atom_site_symmetry_multiplicity
 _atom_site_fract_x
 _atom_site_fract_y
 _atom_site_fract_z
 _atom_site_occupancy
  Ba  Ba0  1  0.000000  0.000000  0.500000  1
  Dy  Dy1  1  0.000000  0.000000  0.000000  1
  Nb  Nb2  1  0.000000  0.000000  0.768247  1
  Nb  Nb3  1  0.000000  0.000000  0.231753  1
  Nb  Nb4  1  0.333333  0.666667  0.231098  1
  Nb  Nb5  1  0.666667  0.333333  0.768902  1
  Nb  Nb6  1  0.666667  0.333333  0.231098  1
  Nb  Nb7  1  0.333333  0.666667  0.768902  1
  Se  Se8  1  0.337258  0.000000  0.124640  1
  Se  Se9  1  0.000000  0.337258  0.124640  1
  Se  Se10  1  0.662742  0.662742  0.124640  1
  Se  Se11  1  0.338313  0.338313  0.662321  1
  Se  Se12  1  0.661687  0.661687  0.337679  1
  Se  Se13  1  0.661687  0.000000  0.662321  1
  Se  Se14  1  0.000000  0.661687  0.662321  1
  Se  Se15  1  0.000000  0.662742  0.875360  1
  Se  Se16  1  0.337258  0.337258  0.875360  1
  Se  Se17  1  0.000000  0.338313  0.337679  1
  Se  Se18  1  0.338313  0.000000  0.337679  1
  Se  Se19  1  0.662742  0.000000  0.875360  1
