# generated using pymatgen
data_SrSm6NiI12
_symmetry_space_group_name_H-M   'P 1'
_cell_length_a   9.92032327
_cell_length_b   9.92032426
_cell_length_c   9.92032585
_cell_angle_alpha   106.27359215
_cell_angle_beta   106.27359364
_cell_angle_gamma   106.27359397
_symmetry_Int_Tables_number   1
_chemical_formula_structural   SrSm6NiI12
_chemical_formula_sum   'Sr1 Sm6 Ni1 I12'
_cell_volume   828.64500548
_cell_formula_units_Z   1
loop_
 _symmetry_equiv_pos_site_id
 _symmetry_equiv_pos_as_xyz
  1  'x, y, z'
loop_
 _atom_site_type_symbol
 _atom_site_label
 _atom_site_symmetry_multiplicity
 _atom_site_fract_x
 _atom_site_fract_y
 _atom_site_fract_z
 _atom_site_occupancy
  Sr  Sr0  1  0.500000  0.500000  0.500000  1
  Sm  Sm1  1  0.905703  0.979224  0.704922  1
  Sm  Sm2  1  0.704922  0.905703  0.979224  1
  Sm  Sm3  1  0.979224  0.704922  0.905703  1
  Sm  Sm4  1  0.094297  0.020776  0.295078  1
  Sm  Sm5  1  0.295078  0.094297  0.020776  1
  Sm  Sm6  1  0.020776  0.295078  0.094297  1
  Ni  Ni7  1  0.000000  0.000000  0.000000  1
  I  I8  1  0.925987  0.322710  0.776486  1
  I  I9  1  0.776486  0.925987  0.322710  1
  I  I10  1  0.322710  0.776486  0.925987  1
  I  I11  1  0.074013  0.677290  0.223514  1
  I  I12  1  0.223514  0.074013  0.677290  1
  I  I13  1  0.677290  0.223514  0.074013  1
  I  I14  1  0.549968  0.861280  0.629659  1
  I  I15  1  0.629659  0.549968  0.861280  1
  I  I16  1  0.861280  0.629659  0.549968  1
  I  I17  1  0.450032  0.138720  0.370341  1
  I  I18  1  0.370341  0.450032  0.138720  1
  I  I19  1  0.138720  0.370341  0.450032  1
