# generated using pymatgen
data_Ca7DyBi6
_symmetry_space_group_name_H-M   'P 1'
_cell_length_a   8.31592133
_cell_length_b   8.39703033
_cell_length_c   8.39703177
_cell_angle_alpha   109.66606303
_cell_angle_beta   109.27567011
_cell_angle_gamma   109.27566558
_symmetry_Int_Tables_number   1
_chemical_formula_structural   Ca7DyBi6
_chemical_formula_sum   'Ca7 Dy1 Bi6'
_cell_volume   452.46233718
_cell_formula_units_Z   1
loop_
 _symmetry_equiv_pos_site_id
 _symmetry_equiv_pos_as_xyz
  1  'x, y, z'
loop_
 _atom_site_type_symbol
 _atom_site_label
 _atom_site_symmetry_multiplicity
 _atom_site_fract_x
 _atom_site_fract_y
 _atom_site_fract_z
 _atom_site_occupancy
  Ca  Ca0  1  0.501771  0.005347  0.361920  1
  Ca  Ca1  1  0.502396  0.001072  0.852735  1
  Ca  Ca2  1  0.649661  0.647265  0.648336  1
  Ca  Ca3  1  0.996423  0.356573  0.494653  1
  Ca  Ca4  1  0.139850  0.138080  0.143427  1
  Ca  Ca5  1  0.853006  0.500000  0.000000  1
  Ca  Ca6  1  0.001324  0.851664  0.498928  1
  Dy  Dy7  1  0.353897  0.500000  0.000000  1
  Bi  Bi8  1  0.131523  0.745067  0.877577  1
  Bi  Bi9  1  0.886456  0.132510  0.754933  1
  Bi  Bi10  1  0.615817  0.373823  0.243882  1
  Bi  Bi11  1  0.371935  0.256118  0.629942  1
  Bi  Bi12  1  0.741993  0.870058  0.126177  1
  Bi  Bi13  1  0.253946  0.622423  0.367490  1
