# generated using pymatgen
data_Mg2Zn3GaPd10
_symmetry_space_group_name_H-M   'P 1'
_cell_length_a   4.17915900
_cell_length_b   5.46693764
_cell_length_c   10.62136963
_cell_angle_alpha   89.73671497
_cell_angle_beta   90.00000000
_cell_angle_gamma   90.00000000
_symmetry_Int_Tables_number   1
_chemical_formula_structural   Mg2Zn3GaPd10
_chemical_formula_sum   'Mg2 Zn3 Ga1 Pd10'
_cell_volume   242.66601163
_cell_formula_units_Z   1
loop_
 _symmetry_equiv_pos_site_id
 _symmetry_equiv_pos_as_xyz
  1  'x, y, z'
loop_
 _atom_site_type_symbol
 _atom_site_label
 _atom_site_symmetry_multiplicity
 _atom_site_fract_x
 _atom_site_fract_y
 _atom_site_fract_z
 _atom_site_occupancy
  Mg  Mg0  1  0.000000  0.834543  0.636635  1
  Mg  Mg1  1  0.000000  0.340846  0.860955  1
  Zn  Zn2  1  0.500000  0.510580  0.501106  1
  Zn  Zn3  1  0.000000  0.163092  0.363553  1
  Zn  Zn4  1  0.000000  0.653520  0.139793  1
  Ga  Ga5  1  0.500000  0.011840  0.998754  1
  Pd  Pd6  1  0.000000  0.827363  0.896171  1
  Pd  Pd7  1  0.000000  0.679240  0.386058  1
  Pd  Pd8  1  0.000000  0.322535  0.605315  1
  Pd  Pd9  1  0.500000  0.888407  0.232736  1
  Pd  Pd10  1  0.500000  0.386858  0.265050  1
  Pd  Pd11  1  0.500000  0.595565  0.742183  1
  Pd  Pd12  1  0.500000  0.093180  0.759372  1
  Pd  Pd13  1  0.500000  0.508981  0.006767  1
  Pd  Pd14  1  0.500000  0.009224  0.492867  1
  Pd  Pd15  1  0.000000  0.174224  0.112685  1
