# generated using pymatgen
data_Eu10AgIr3
_symmetry_space_group_name_H-M   'P 1'
_cell_length_a   8.94001280
_cell_length_b   8.97145645
_cell_length_c   7.94374300
_cell_angle_alpha   83.00594219
_cell_angle_beta   82.46464465
_cell_angle_gamma   44.21549838
_symmetry_Int_Tables_number   1
_chemical_formula_structural   Eu10AgIr3
_chemical_formula_sum   'Eu10 Ag1 Ir3'
_cell_volume   440.11387584
_cell_formula_units_Z   1
loop_
 _symmetry_equiv_pos_site_id
 _symmetry_equiv_pos_as_xyz
  1  'x, y, z'
loop_
 _atom_site_type_symbol
 _atom_site_label
 _atom_site_symmetry_multiplicity
 _atom_site_fract_x
 _atom_site_fract_y
 _atom_site_fract_z
 _atom_site_occupancy
  Eu  Eu0  1  0.020608  0.808256  0.934991  1
  Eu  Eu1  1  0.199233  0.987735  0.583299  1
  Eu  Eu2  1  0.984892  0.196553  0.085610  1
  Eu  Eu3  1  0.777883  0.050126  0.412819  1
  Eu  Eu4  1  0.374274  0.184089  0.833640  1
  Eu  Eu5  1  0.787611  0.634539  0.676254  1
  Eu  Eu6  1  0.641602  0.791981  0.177641  1
  Eu  Eu7  1  0.198771  0.356036  0.306996  1
  Eu  Eu8  1  0.587497  0.416852  0.761942  1
  Eu  Eu9  1  0.432515  0.577535  0.232892  1
  Ag  Ag10  1  0.184499  0.596547  0.577245  1
  Ir  Ir11  1  0.395067  0.823278  0.914368  1
  Ir  Ir12  1  0.820161  0.395722  0.417590  1
  Ir  Ir13  1  0.595384  0.180751  0.084712  1
