# generated using pymatgen
data_Nd8Nb11Si16Ag
_symmetry_space_group_name_H-M   'P 1'
_cell_length_a   7.19692473
_cell_length_b   7.19692473
_cell_length_c   13.27595233
_cell_angle_alpha   89.82785716
_cell_angle_beta   90.17214284
_cell_angle_gamma   89.60100409
_symmetry_Int_Tables_number   1
_chemical_formula_structural   Nd8Nb11Si16Ag
_chemical_formula_sum   'Nd8 Nb11 Si16 Ag1'
_cell_volume   687.61466023
_cell_formula_units_Z   1
loop_
 _symmetry_equiv_pos_site_id
 _symmetry_equiv_pos_as_xyz
  1  'x, y, z'
loop_
 _atom_site_type_symbol
 _atom_site_label
 _atom_site_symmetry_multiplicity
 _atom_site_fract_x
 _atom_site_fract_y
 _atom_site_fract_z
 _atom_site_occupancy
  Nd  Nd0  1  0.996416  0.339114  0.215603  1
  Nd  Nd1  1  0.005083  0.661407  0.716887  1
  Nd  Nd2  1  0.160204  0.496205  0.467136  1
  Nd  Nd3  1  0.499863  0.843545  0.032577  1
  Nd  Nd4  1  0.843545  0.499863  0.967423  1
  Nd  Nd5  1  0.496205  0.160204  0.532864  1
  Nd  Nd6  1  0.339114  0.996416  0.784397  1
  Nd  Nd7  1  0.661407  0.005083  0.283113  1
  Nb  Nb8  1  0.828946  0.828946  0.500000  1
  Nb  Nb9  1  0.328945  0.671862  0.250045  1
  Nb  Nb10  1  0.671862  0.328945  0.749955  1
  Nb  Nb11  1  0.153293  0.992157  0.376126  1
  Nb  Nb12  1  0.845386  0.006270  0.876037  1
  Nb  Nb13  1  0.510604  0.655750  0.625731  1
  Nb  Nb14  1  0.346088  0.489265  0.876556  1
  Nb  Nb15  1  0.489265  0.346088  0.123444  1
  Nb  Nb16  1  0.655750  0.510604  0.374269  1
  Nb  Nb17  1  0.992157  0.153293  0.623874  1
  Nb  Nb18  1  0.006270  0.845386  0.123963  1
  Si  Si19  1  0.290451  0.042263  0.191225  1
  Si  Si20  1  0.709733  0.956285  0.687546  1
  Si  Si21  1  0.454759  0.790167  0.436741  1
  Si  Si22  1  0.214542  0.558493  0.064866  1
  Si  Si23  1  0.558493  0.214542  0.935134  1
  Si  Si24  1  0.790167  0.454759  0.563259  1
  Si  Si25  1  0.042263  0.290451  0.808775  1
  Si  Si26  1  0.956285  0.709733  0.312454  1
  Si  Si27  1  0.369476  0.300197  0.313502  1
  Si  Si28  1  0.629447  0.701740  0.815515  1
  Si  Si29  1  0.204625  0.869757  0.564748  1
  Si  Si30  1  0.125392  0.783315  0.933189  1
  Si  Si31  1  0.783315  0.125392  0.066811  1
  Si  Si32  1  0.869757  0.204625  0.435252  1
  Si  Si33  1  0.300197  0.369476  0.686498  1
  Si  Si34  1  0.701740  0.629447  0.184485  1
  Ag  Ag35  1  0.168954  0.168954  0.000000  1
