# generated using pymatgen
data_Y4MnOs6Ru
_symmetry_space_group_name_H-M   'P 1'
_cell_length_a   5.32840900
_cell_length_b   5.32840963
_cell_length_c   8.83953100
_cell_angle_alpha   90.00000000
_cell_angle_beta   90.00000000
_cell_angle_gamma   120.00000227
_symmetry_Int_Tables_number   1
_chemical_formula_structural   Y4MnOs6Ru
_chemical_formula_sum   'Y4 Mn1 Os6 Ru1'
_cell_volume   217.34767712
_cell_formula_units_Z   1
loop_
 _symmetry_equiv_pos_site_id
 _symmetry_equiv_pos_as_xyz
  1  'x, y, z'
loop_
 _atom_site_type_symbol
 _atom_site_label
 _atom_site_symmetry_multiplicity
 _atom_site_fract_x
 _atom_site_fract_y
 _atom_site_fract_z
 _atom_site_occupancy
  Y  Y0  1  0.333333  0.666667  0.434738  1
  Y  Y1  1  0.666667  0.333333  0.565262  1
  Y  Y2  1  0.666667  0.333333  0.931047  1
  Y  Y3  1  0.333333  0.666667  0.068953  1
  Mn  Mn4  1  0.000000  0.000000  0.000000  1
  Os  Os5  1  0.170448  0.340897  0.753097  1
  Os  Os6  1  0.170448  0.829552  0.753097  1
  Os  Os7  1  0.340897  0.170448  0.246903  1
  Os  Os8  1  0.829552  0.659103  0.246903  1
  Os  Os9  1  0.659103  0.829552  0.753097  1
  Os  Os10  1  0.829552  0.170448  0.246903  1
  Ru  Ru11  1  0.000000  0.000000  0.500000  1
