# generated using pymatgen
data_Pr10In8Ir3Pt
_symmetry_space_group_name_H-M   'P 1'
_cell_length_a   3.83835300
_cell_length_b   8.32896901
_cell_length_c   18.75807586
_cell_angle_alpha   89.96118884
_cell_angle_beta   90.00000000
_cell_angle_gamma   90.00000000
_symmetry_Int_Tables_number   1
_chemical_formula_structural   Pr10In8Ir3Pt
_chemical_formula_sum   'Pr10 In8 Ir3 Pt1'
_cell_volume   599.68660321
_cell_formula_units_Z   1
loop_
 _symmetry_equiv_pos_site_id
 _symmetry_equiv_pos_as_xyz
  1  'x, y, z'
loop_
 _atom_site_type_symbol
 _atom_site_label
 _atom_site_symmetry_multiplicity
 _atom_site_fract_x
 _atom_site_fract_y
 _atom_site_fract_z
 _atom_site_occupancy
  Pr  Pr0  1  0.000000  0.114001  0.412624  1
  Pr  Pr1  1  0.000000  0.884790  0.589685  1
  Pr  Pr2  1  0.000000  0.384294  0.910344  1
  Pr  Pr3  1  0.000000  0.616115  0.086047  1
  Pr  Pr4  1  0.000000  0.235560  0.221796  1
  Pr  Pr5  1  0.000000  0.757253  0.778548  1
  Pr  Pr6  1  0.000000  0.256785  0.722185  1
  Pr  Pr7  1  0.000000  0.750452  0.279032  1
  Pr  Pr8  1  0.000000  0.999095  0.999282  1
  Pr  Pr9  1  0.000000  0.500645  0.500539  1
  In  In10  1  0.500000  0.431013  0.351103  1
  In  In11  1  0.500000  0.565724  0.650147  1
  In  In12  1  0.500000  0.065238  0.849787  1
  In  In13  1  0.500000  0.932005  0.149177  1
  In  In14  1  0.500000  0.289631  0.068459  1
  In  In15  1  0.500000  0.707487  0.929823  1
  In  In16  1  0.500000  0.208908  0.570355  1
  In  In17  1  0.500000  0.791285  0.430256  1
  Ir  Ir18  1  0.500000  0.013987  0.303922  1
  Ir  Ir19  1  0.500000  0.990395  0.695931  1
  Ir  Ir20  1  0.500000  0.488884  0.803382  1
  Pt  Pt21  1  0.500000  0.516452  0.197574  1
