# generated using pymatgen
data_Ac2YbSn2
_symmetry_space_group_name_H-M   'P 1'
_cell_length_a   8.45220700
_cell_length_b   8.45220700
_cell_length_c   4.95347000
_cell_angle_alpha   90.00000000
_cell_angle_beta   90.00000000
_cell_angle_gamma   90.00000000
_symmetry_Int_Tables_number   1
_chemical_formula_structural   Ac2YbSn2
_chemical_formula_sum   'Ac4 Yb2 Sn4'
_cell_volume   353.87492181
_cell_formula_units_Z   2
loop_
 _symmetry_equiv_pos_site_id
 _symmetry_equiv_pos_as_xyz
  1  'x, y, z'
loop_
 _atom_site_type_symbol
 _atom_site_label
 _atom_site_symmetry_multiplicity
 _atom_site_fract_x
 _atom_site_fract_y
 _atom_site_fract_z
 _atom_site_occupancy
  Ac  Ac0  1  0.675971  0.175969  0.500001  1
  Ac  Ac1  1  0.175969  0.324030  0.500001  1
  Ac  Ac2  1  0.824030  0.675971  0.500001  1
  Ac  Ac3  1  0.324030  0.824030  0.500001  1
  Yb  Yb4  1  0.000000  0.000000  0.000000  1
  Yb  Yb5  1  0.500000  0.500000  0.000000  1
  Sn  Sn6  1  0.377020  0.122980  0.000000  1
  Sn  Sn7  1  0.877020  0.377020  0.000000  1
  Sn  Sn8  1  0.122980  0.622980  0.000000  1
  Sn  Sn9  1  0.622980  0.877020  0.000000  1
