# generated using pymatgen
data_Dy3YAs3Se
_symmetry_space_group_name_H-M   'P 1'
_cell_length_a   7.08189655
_cell_length_b   7.08189555
_cell_length_c   7.07566900
_cell_angle_alpha   80.27405567
_cell_angle_beta   80.27405706
_cell_angle_gamma   33.58349927
_symmetry_Int_Tables_number   1
_chemical_formula_structural   Dy3YAs3Se
_chemical_formula_sum   'Dy3 Y1 As3 Se1'
_cell_volume   193.21541396
_cell_formula_units_Z   1
loop_
 _symmetry_equiv_pos_site_id
 _symmetry_equiv_pos_as_xyz
  1  'x, y, z'
loop_
 _atom_site_type_symbol
 _atom_site_label
 _atom_site_symmetry_multiplicity
 _atom_site_fract_x
 _atom_site_fract_y
 _atom_site_fract_z
 _atom_site_occupancy
  Dy  Dy0  1  0.249060  0.249060  0.255469  1
  Dy  Dy1  1  0.501077  0.501077  0.494449  1
  Dy  Dy2  1  0.745969  0.745969  0.745305  1
  Y  Y3  1  0.003847  0.003847  0.004695  1
  As  As4  1  0.626545  0.626545  0.123286  1
  As  As5  1  0.874948  0.874948  0.375339  1
  As  As6  1  0.123830  0.123830  0.626745  1
  Se  Se7  1  0.374726  0.374726  0.874713  1
