# generated using pymatgen
data_GaBr2
_symmetry_space_group_name_H-M   'P 1'
_cell_length_a   7.73996900
_cell_length_b   7.89894000
_cell_length_c   14.20835200
_cell_angle_alpha   90.00000000
_cell_angle_beta   90.00000000
_cell_angle_gamma   90.00000000
_symmetry_Int_Tables_number   1
_chemical_formula_structural   GaBr2
_chemical_formula_sum   'Ga8 Br16'
_cell_volume   868.66384123
_cell_formula_units_Z   8
loop_
 _symmetry_equiv_pos_site_id
 _symmetry_equiv_pos_as_xyz
  1  'x, y, z'
loop_
 _atom_site_type_symbol
 _atom_site_label
 _atom_site_symmetry_multiplicity
 _atom_site_fract_x
 _atom_site_fract_y
 _atom_site_fract_z
 _atom_site_occupancy
  Ga  Ga0  1  0.250000  0.051003  0.653024  1
  Ga  Ga1  1  0.750000  0.551003  0.846976  1
  Ga  Ga2  1  0.750000  0.948997  0.346976  1
  Ga  Ga3  1  0.250000  0.448997  0.153024  1
  Ga  Ga4  1  0.250000  0.201671  0.397926  1
  Ga  Ga5  1  0.750000  0.701671  0.102074  1
  Ga  Ga6  1  0.750000  0.798329  0.602074  1
  Ga  Ga7  1  0.250000  0.298329  0.897926  1
  Br  Br8  1  0.250000  0.376628  0.531499  1
  Br  Br9  1  0.750000  0.876628  0.968501  1
  Br  Br10  1  0.750000  0.623372  0.468501  1
  Br  Br11  1  0.250000  0.123372  0.031499  1
  Br  Br12  1  0.250000  0.912491  0.440916  1
  Br  Br13  1  0.750000  0.412491  0.059084  1
  Br  Br14  1  0.750000  0.087509  0.559084  1
  Br  Br15  1  0.250000  0.587509  0.940916  1
  Br  Br16  1  0.004634  0.237099  0.802921  1
  Br  Br17  1  0.995366  0.737099  0.697079  1
  Br  Br18  1  0.504634  0.762901  0.197079  1
  Br  Br19  1  0.495366  0.262901  0.302921  1
  Br  Br20  1  0.995366  0.762901  0.197079  1
  Br  Br21  1  0.004634  0.262901  0.302921  1
  Br  Br22  1  0.495366  0.237099  0.802921  1
  Br  Br23  1  0.504634  0.737099  0.697079  1
