# generated using pymatgen
data_Eu3PBr3
_symmetry_space_group_name_H-M   'P 1'
_cell_length_a   10.67077486
_cell_length_b   10.67077577
_cell_length_c   10.67077600
_cell_angle_alpha   109.47121917
_cell_angle_beta   109.47122090
_cell_angle_gamma   109.47122132
_symmetry_Int_Tables_number   1
_chemical_formula_structural   Eu3PBr3
_chemical_formula_sum   'Eu12 P4 Br12'
_cell_volume   935.33258834
_cell_formula_units_Z   4
loop_
 _symmetry_equiv_pos_site_id
 _symmetry_equiv_pos_as_xyz
  1  'x, y, z'
loop_
 _atom_site_type_symbol
 _atom_site_label
 _atom_site_symmetry_multiplicity
 _atom_site_fract_x
 _atom_site_fract_y
 _atom_site_fract_z
 _atom_site_occupancy
  Eu  Eu0  1  0.479999  0.490000  0.240000  1
  Eu  Eu1  1  0.750000  0.240000  0.260000  1
  Eu  Eu2  1  0.750000  0.010000  0.490000  1
  Eu  Eu3  1  0.240000  0.479999  0.490000  1
  Eu  Eu4  1  0.260000  0.750000  0.240000  1
  Eu  Eu5  1  0.020001  0.260000  0.010000  1
  Eu  Eu6  1  0.010000  0.020001  0.260000  1
  Eu  Eu7  1  0.490000  0.750000  0.010000  1
  Eu  Eu8  1  0.490000  0.240000  0.479999  1
  Eu  Eu9  1  0.010000  0.490000  0.750000  1
  Eu  Eu10  1  0.260000  0.010000  0.020001  1
  Eu  Eu11  1  0.240000  0.260000  0.750000  1
  P  P12  1  0.250000  0.250000  0.250000  1
  P  P13  1  0.500000  0.000000  0.250000  1
  P  P14  1  0.000000  0.250000  0.500000  1
  P  P15  1  0.250000  0.500000  0.000000  1
  Br  Br16  1  0.250000  0.749837  0.750163  1
  Br  Br17  1  0.499674  0.499837  0.749837  1
  Br  Br18  1  0.000326  0.750163  0.000163  1
  Br  Br19  1  0.750163  0.250000  0.749837  1
  Br  Br20  1  0.000163  0.000326  0.750163  1
  Br  Br21  1  0.250000  0.000163  0.499837  1
  Br  Br22  1  0.749837  0.499674  0.499837  1
  Br  Br23  1  0.499837  0.250000  0.000163  1
  Br  Br24  1  0.749837  0.750163  0.250000  1
  Br  Br25  1  0.750163  0.000163  0.000326  1
  Br  Br26  1  0.000163  0.499837  0.250000  1
  Br  Br27  1  0.499837  0.749837  0.499674  1
