# generated using pymatgen
data_SmTm2Mg(Co4P3)2
_symmetry_space_group_name_H-M   'P 1'
_cell_length_a   3.72356200
_cell_length_b   10.60932500
_cell_length_c   12.26107800
_cell_angle_alpha   90.00000000
_cell_angle_beta   90.00000000
_cell_angle_gamma   90.00000000
_symmetry_Int_Tables_number   1
_chemical_formula_structural   SmTm2Mg(Co4P3)2
_chemical_formula_sum   'Sm2 Tm4 Mg2 Co16 P12'
_cell_volume   484.36750346
_cell_formula_units_Z   2
loop_
 _symmetry_equiv_pos_site_id
 _symmetry_equiv_pos_as_xyz
  1  'x, y, z'
loop_
 _atom_site_type_symbol
 _atom_site_label
 _atom_site_symmetry_multiplicity
 _atom_site_fract_x
 _atom_site_fract_y
 _atom_site_fract_z
 _atom_site_occupancy
  Sm  Sm0  1  0.000000  0.500000  0.526627  1
  Sm  Sm1  1  0.500000  0.000000  0.473373  1
  Tm  Tm2  1  0.500000  0.822589  0.205397  1
  Tm  Tm3  1  0.500000  0.177411  0.205397  1
  Tm  Tm4  1  0.000000  0.677411  0.794603  1
  Tm  Tm5  1  0.000000  0.322589  0.794603  1
  Mg  Mg6  1  0.500000  0.500000  0.154874  1
  Mg  Mg7  1  0.000000  0.000000  0.845126  1
  Co  Co8  1  0.500000  0.500000  0.708726  1
  Co  Co9  1  0.000000  0.000000  0.291274  1
  Co  Co10  1  0.000000  0.500000  0.988721  1
  Co  Co11  1  0.500000  0.000000  0.011279  1
  Co  Co12  1  0.500000  0.332421  0.996865  1
  Co  Co13  1  0.500000  0.667579  0.996865  1
  Co  Co14  1  0.000000  0.167579  0.003135  1
  Co  Co15  1  0.000000  0.832421  0.003135  1
  Co  Co16  1  0.500000  0.296292  0.430988  1
  Co  Co17  1  0.500000  0.703708  0.430988  1
  Co  Co18  1  0.000000  0.203708  0.569012  1
  Co  Co19  1  0.000000  0.796292  0.569012  1
  Co  Co20  1  0.500000  0.877487  0.708497  1
  Co  Co21  1  0.500000  0.122513  0.708497  1
  Co  Co22  1  0.000000  0.622513  0.291503  1
  Co  Co23  1  0.000000  0.377487  0.291503  1
  P  P24  1  0.500000  0.500000  0.885899  1
  P  P25  1  0.000000  0.000000  0.114101  1
  P  P26  1  0.500000  0.500000  0.353005  1
  P  P27  1  0.000000  0.000000  0.646995  1
  P  P28  1  0.500000  0.307958  0.617440  1
  P  P29  1  0.500000  0.692042  0.617440  1
  P  P30  1  0.000000  0.192042  0.382560  1
  P  P31  1  0.000000  0.807958  0.382560  1
  P  P32  1  0.500000  0.837950  0.892728  1
  P  P33  1  0.500000  0.162050  0.892728  1
  P  P34  1  0.000000  0.662050  0.107272  1
  P  P35  1  0.000000  0.337950  0.107272  1
