# generated using pymatgen
data_Nd3Tm5TiPd24
_symmetry_space_group_name_H-M   'P 1'
_cell_length_a   8.34497309
_cell_length_b   8.34497383
_cell_length_c   8.34537300
_cell_angle_alpha   90.00839013
_cell_angle_beta   90.00839013
_cell_angle_gamma   90.02411182
_symmetry_Int_Tables_number   1
_chemical_formula_structural   Nd3Tm5TiPd24
_chemical_formula_sum   'Nd3 Tm5 Ti1 Pd24'
_cell_volume   581.15987831
_cell_formula_units_Z   1
loop_
 _symmetry_equiv_pos_site_id
 _symmetry_equiv_pos_as_xyz
  1  'x, y, z'
loop_
 _atom_site_type_symbol
 _atom_site_label
 _atom_site_symmetry_multiplicity
 _atom_site_fract_x
 _atom_site_fract_y
 _atom_site_fract_z
 _atom_site_occupancy
  Nd  Nd0  1  0.252997  0.252997  0.253075  1
  Nd  Nd1  1  0.747111  0.747111  0.746878  1
  Nd  Nd2  1  0.747247  0.747247  0.253075  1
  Tm  Tm3  1  0.747016  0.253161  0.747197  1
  Tm  Tm4  1  0.252901  0.252901  0.746782  1
  Tm  Tm5  1  0.252954  0.746916  0.252775  1
  Tm  Tm6  1  0.253161  0.747016  0.747197  1
  Tm  Tm7  1  0.746916  0.252954  0.252775  1
  Ti  Ti8  1  0.000544  0.000544  0.999485  1
  Pd  Pd9  1  0.261525  0.500385  0.996143  1
  Pd  Pd10  1  0.738396  0.495838  0.999660  1
  Pd  Pd11  1  0.997055  0.261503  0.502338  1
  Pd  Pd12  1  0.500385  0.261525  0.996143  1
  Pd  Pd13  1  0.007403  0.738693  0.500873  1
  Pd  Pd14  1  0.495838  0.738396  0.999660  1
  Pd  Pd15  1  0.499147  0.000306  0.261498  1
  Pd  Pd16  1  0.261503  0.997055  0.502338  1
  Pd  Pd17  1  0.497719  0.003799  0.738483  1
  Pd  Pd18  1  0.738693  0.007403  0.500873  1
  Pd  Pd19  1  0.000306  0.499147  0.261498  1
  Pd  Pd20  1  0.003799  0.497719  0.738483  1
  Pd  Pd21  1  0.253355  0.501896  0.503261  1
  Pd  Pd22  1  0.746767  0.493845  0.500447  1
  Pd  Pd23  1  0.501896  0.253355  0.503261  1
  Pd  Pd24  1  0.493845  0.746767  0.500447  1
  Pd  Pd25  1  0.499551  0.499551  0.253235  1
  Pd  Pd26  1  0.496795  0.496795  0.746596  1
  Pd  Pd27  1  0.294233  0.997219  0.997007  1
  Pd  Pd28  1  0.704627  0.005991  0.000053  1
  Pd  Pd29  1  0.997219  0.294233  0.997007  1
  Pd  Pd30  1  0.005991  0.704627  0.000053  1
  Pd  Pd31  1  0.000056  0.000056  0.295735  1
  Pd  Pd32  1  0.003052  0.003052  0.705670  1
