# generated using pymatgen
data_Pr2As4Rh7
_symmetry_space_group_name_H-M   'P 1'
_cell_length_a   4.06209200
_cell_length_b   9.95835600
_cell_length_c   11.29932700
_cell_angle_alpha   90.00000000
_cell_angle_beta   90.00000000
_cell_angle_gamma   90.00000000
_symmetry_Int_Tables_number   1
_chemical_formula_structural   Pr2As4Rh7
_chemical_formula_sum   'Pr4 As8 Rh14'
_cell_volume   457.07764409
_cell_formula_units_Z   2
loop_
 _symmetry_equiv_pos_site_id
 _symmetry_equiv_pos_as_xyz
  1  'x, y, z'
loop_
 _atom_site_type_symbol
 _atom_site_label
 _atom_site_symmetry_multiplicity
 _atom_site_fract_x
 _atom_site_fract_y
 _atom_site_fract_z
 _atom_site_occupancy
  Pr  Pr0  1  0.500000  0.454948  0.507836  1
  Pr  Pr1  1  0.500000  0.058972  0.282996  1
  Pr  Pr2  1  0.000000  0.941028  0.782996  1
  Pr  Pr3  1  0.000000  0.545052  0.007836  1
  As  As4  1  0.000000  0.820624  0.283542  1
  As  As5  1  0.000000  0.192537  0.460661  1
  As  As6  1  0.500000  0.179376  0.783542  1
  As  As7  1  0.000000  0.148007  0.094511  1
  As  As8  1  0.500000  0.472438  0.230234  1
  As  As9  1  0.500000  0.807463  0.960661  1
  As  As10  1  0.500000  0.851993  0.594511  1
  As  As11  1  0.000000  0.527562  0.730234  1
  Rh  Rh12  1  0.500000  0.314959  0.071494  1
  Rh  Rh13  1  0.500000  0.754331  0.404285  1
  Rh  Rh14  1  0.500000  0.415901  0.810445  1
  Rh  Rh15  1  0.500000  0.058456  0.977648  1
  Rh  Rh16  1  0.500000  0.694802  0.763611  1
  Rh  Rh17  1  0.000000  0.282056  0.663009  1
  Rh  Rh18  1  0.000000  0.245669  0.904285  1
  Rh  Rh19  1  0.000000  0.685041  0.571494  1
  Rh  Rh20  1  0.500000  0.104667  0.577425  1
  Rh  Rh21  1  0.000000  0.305198  0.263611  1
  Rh  Rh22  1  0.000000  0.584099  0.310445  1
  Rh  Rh23  1  0.000000  0.895333  0.077425  1
  Rh  Rh24  1  0.000000  0.941544  0.477648  1
  Rh  Rh25  1  0.500000  0.717944  0.163009  1
