# generated using pymatgen
data_TmU(B4Ru)2
_symmetry_space_group_name_H-M   'P 1'
_cell_length_a   3.53982600
_cell_length_b   5.94972872
_cell_length_c   11.51495912
_cell_angle_alpha   90.14427067
_cell_angle_beta   90.00000000
_cell_angle_gamma   90.00000000
_symmetry_Int_Tables_number   1
_chemical_formula_structural   TmU(B4Ru)2
_chemical_formula_sum   'Tm2 U2 B16 Ru4'
_cell_volume   242.51583600
_cell_formula_units_Z   2
loop_
 _symmetry_equiv_pos_site_id
 _symmetry_equiv_pos_as_xyz
  1  'x, y, z'
loop_
 _atom_site_type_symbol
 _atom_site_label
 _atom_site_symmetry_multiplicity
 _atom_site_fract_x
 _atom_site_fract_y
 _atom_site_fract_z
 _atom_site_occupancy
  Tm  Tm0  1  0.500000  0.629453  0.351650  1
  Tm  Tm1  1  0.500000  0.370547  0.648350  1
  U  U2  1  0.500000  0.128682  0.150962  1
  U  U3  1  0.500000  0.871318  0.849038  1
  B  B4  1  0.000000  0.475981  0.193047  1
  B  B5  1  0.000000  0.524019  0.806953  1
  B  B6  1  0.000000  0.974262  0.308025  1
  B  B7  1  0.000000  0.025738  0.691975  1
  B  B8  1  0.000000  0.290415  0.313031  1
  B  B9  1  0.000000  0.709585  0.686969  1
  B  B10  1  0.000000  0.791409  0.187233  1
  B  B11  1  0.000000  0.208591  0.812767  1
  B  B12  1  0.000000  0.364551  0.469516  1
  B  B13  1  0.000000  0.635449  0.530484  1
  B  B14  1  0.000000  0.867670  0.032475  1
  B  B15  1  0.000000  0.132330  0.967525  1
  B  B16  1  0.000000  0.386075  0.047362  1
  B  B17  1  0.000000  0.613925  0.952638  1
  B  B18  1  0.000000  0.886313  0.453491  1
  B  B19  1  0.000000  0.113687  0.546509  1
  Ru  Ru20  1  0.500000  0.139673  0.405389  1
  Ru  Ru21  1  0.500000  0.860327  0.594611  1
  Ru  Ru22  1  0.500000  0.641054  0.093620  1
  Ru  Ru23  1  0.500000  0.358946  0.906380  1
