# generated using pymatgen
data_HoErNi7P4
_symmetry_space_group_name_H-M   'P 1'
_cell_length_a   3.68618400
_cell_length_b   9.13481600
_cell_length_c   10.23879300
_cell_angle_alpha   90.00000000
_cell_angle_beta   90.00000000
_cell_angle_gamma   90.00000000
_symmetry_Int_Tables_number   1
_chemical_formula_structural   HoErNi7P4
_chemical_formula_sum   'Ho2 Er2 Ni14 P8'
_cell_volume   344.76691000
_cell_formula_units_Z   2
loop_
 _symmetry_equiv_pos_site_id
 _symmetry_equiv_pos_as_xyz
  1  'x, y, z'
loop_
 _atom_site_type_symbol
 _atom_site_label
 _atom_site_symmetry_multiplicity
 _atom_site_fract_x
 _atom_site_fract_y
 _atom_site_fract_z
 _atom_site_occupancy
  Ho  Ho0  1  0.000000  0.436226  0.178309  1
  Ho  Ho1  1  0.500000  0.563774  0.678309  1
  Er  Er2  1  0.000000  0.057507  0.395650  1
  Er  Er3  1  0.500000  0.942493  0.895650  1
  Ni  Ni4  1  0.000000  0.055776  0.699492  1
  Ni  Ni5  1  0.500000  0.944224  0.199492  1
  Ni  Ni6  1  0.000000  0.724286  0.510324  1
  Ni  Ni7  1  0.500000  0.275714  0.010324  1
  Ni  Ni8  1  0.000000  0.098091  0.093743  1
  Ni  Ni9  1  0.500000  0.901909  0.593743  1
  Ni  Ni10  1  0.000000  0.745215  0.273389  1
  Ni  Ni11  1  0.500000  0.254785  0.773389  1
  Ni  Ni12  1  0.000000  0.306344  0.603481  1
  Ni  Ni13  1  0.500000  0.693656  0.103481  1
  Ni  Ni14  1  0.000000  0.687499  0.912069  1
  Ni  Ni15  1  0.500000  0.312501  0.412069  1
  Ni  Ni16  1  0.000000  0.418698  0.868889  1
  Ni  Ni17  1  0.500000  0.581302  0.368889  1
  P  P18  1  0.000000  0.180072  0.889210  1
  P  P19  1  0.500000  0.819928  0.389210  1
  P  P20  1  0.000000  0.847052  0.083354  1
  P  P21  1  0.500000  0.152948  0.583354  1
  P  P22  1  0.000000  0.808860  0.715193  1
  P  P23  1  0.500000  0.191140  0.215193  1
  P  P24  1  0.000000  0.479336  0.460995  1
  P  P25  1  0.500000  0.520664  0.960995  1
