# generated using pymatgen
data_Mg2Ni9MoP7W2
_symmetry_space_group_name_H-M   'P 1'
_cell_length_a   3.62310000
_cell_length_b   9.20979452
_cell_length_c   9.19347640
_cell_angle_alpha   120.17043003
_cell_angle_beta   90.00000000
_cell_angle_gamma   90.00000000
_symmetry_Int_Tables_number   1
_chemical_formula_structural   Mg2Ni9MoP7W2
_chemical_formula_sum   'Mg2 Ni9 Mo1 P7 W2'
_cell_volume   265.21143888
_cell_formula_units_Z   1
loop_
 _symmetry_equiv_pos_site_id
 _symmetry_equiv_pos_as_xyz
  1  'x, y, z'
loop_
 _atom_site_type_symbol
 _atom_site_label
 _atom_site_symmetry_multiplicity
 _atom_site_fract_x
 _atom_site_fract_y
 _atom_site_fract_z
 _atom_site_occupancy
  Mg  Mg0  1  0.000000  0.666582  0.333295  1
  Mg  Mg1  1  0.500000  0.333236  0.667238  1
  Ni  Ni2  1  0.000000  0.560609  0.929490  1
  Ni  Ni3  1  0.000000  0.368733  0.439730  1
  Ni  Ni4  1  0.000000  0.070217  0.630164  1
  Ni  Ni5  1  0.500000  0.937894  0.386044  1
  Ni  Ni6  1  0.500000  0.447121  0.060695  1
  Ni  Ni7  1  0.500000  0.615677  0.552584  1
  Ni  Ni8  1  0.000000  0.871237  0.158976  1
  Ni  Ni9  1  0.000000  0.288600  0.129226  1
  Ni  Ni10  1  0.000000  0.839244  0.711199  1
  Mo  Mo11  1  0.500000  0.101475  0.880041  1
  P  P12  1  0.500000  0.708758  0.121777  1
  P  P13  1  0.500000  0.411905  0.290798  1
  P  P14  1  0.500000  0.880186  0.589141  1
  P  P15  1  0.000000  0.000528  0.999786  1
  P  P16  1  0.000000  0.584778  0.700270  1
  P  P17  1  0.000000  0.115570  0.415130  1
  P  P18  1  0.000000  0.299864  0.885277  1
  W  W19  1  0.500000  0.778809  0.899857  1
  W  W20  1  0.500000  0.118982  0.219281  1
