# generated using pymatgen
data_TbHo9(IrPb3)2
_symmetry_space_group_name_H-M   'P 1'
_cell_length_a   9.19185700
_cell_length_b   9.19185704
_cell_length_c   6.84696200
_cell_angle_alpha   90.00000000
_cell_angle_beta   90.00000000
_cell_angle_gamma   119.99999627
_symmetry_Int_Tables_number   1
_chemical_formula_structural   TbHo9(IrPb3)2
_chemical_formula_sum   'Tb1 Ho9 Ir2 Pb6'
_cell_volume   500.99695455
_cell_formula_units_Z   1
loop_
 _symmetry_equiv_pos_site_id
 _symmetry_equiv_pos_as_xyz
  1  'x, y, z'
loop_
 _atom_site_type_symbol
 _atom_site_label
 _atom_site_symmetry_multiplicity
 _atom_site_fract_x
 _atom_site_fract_y
 _atom_site_fract_z
 _atom_site_occupancy
  Tb  Tb0  1  0.333333  0.666667  0.500000  1
  Ho  Ho1  1  0.999930  0.764265  0.750085  1
  Ho  Ho2  1  0.764335  0.764265  0.249915  1
  Ho  Ho3  1  0.764335  0.000070  0.750085  1
  Ho  Ho4  1  0.235735  0.000070  0.249915  1
  Ho  Ho5  1  0.666667  0.333333  0.500000  1
  Ho  Ho6  1  0.235735  0.235665  0.750085  1
  Ho  Ho7  1  0.333333  0.666667  0.000000  1
  Ho  Ho8  1  0.999930  0.235665  0.249915  1
  Ho  Ho9  1  0.666667  0.333333  0.000000  1
  Ir  Ir10  1  0.000000  0.000000  0.000000  1
  Ir  Ir11  1  0.000000  0.000000  0.500000  1
  Pb  Pb12  1  0.405405  0.405103  0.249766  1
  Pb  Pb13  1  0.594897  0.594595  0.750234  1
  Pb  Pb14  1  0.594897  0.000302  0.249766  1
  Pb  Pb15  1  0.405405  0.000302  0.750234  1
  Pb  Pb16  1  0.999698  0.594595  0.249766  1
  Pb  Pb17  1  0.999698  0.405103  0.750234  1
