# generated using pymatgen
data_Ho7Th(NiHg)2
_symmetry_space_group_name_H-M   'P 1'
_cell_length_a   9.52698148
_cell_length_b   9.52698109
_cell_length_c   9.53057200
_cell_angle_alpha   59.98753079
_cell_angle_beta   59.98753215
_cell_angle_gamma   59.99125503
_symmetry_Int_Tables_number   1
_chemical_formula_structural   Ho7Th(NiHg)2
_chemical_formula_sum   'Ho14 Th2 Ni4 Hg4'
_cell_volume   611.51064171
_cell_formula_units_Z   2
loop_
 _symmetry_equiv_pos_site_id
 _symmetry_equiv_pos_as_xyz
  1  'x, y, z'
loop_
 _atom_site_type_symbol
 _atom_site_label
 _atom_site_symmetry_multiplicity
 _atom_site_fract_x
 _atom_site_fract_y
 _atom_site_fract_z
 _atom_site_occupancy
  Ho  Ho0  1  0.350706  0.944912  0.352190  1
  Ho  Ho1  1  0.944912  0.350706  0.352190  1
  Ho  Ho2  1  0.812609  0.189510  0.187411  1
  Ho  Ho3  1  0.189510  0.812609  0.810468  1
  Ho  Ho4  1  0.189510  0.812609  0.187411  1
  Ho  Ho5  1  0.812609  0.189510  0.810468  1
  Ho  Ho6  1  0.187931  0.187931  0.812069  1
  Ho  Ho7  1  0.811467  0.811467  0.188533  1
  Ho  Ho8  1  0.936650  0.564061  0.565314  1
  Ho  Ho9  1  0.564061  0.936650  0.933974  1
  Ho  Ho10  1  0.564061  0.936650  0.565314  1
  Ho  Ho11  1  0.936650  0.564061  0.933974  1
  Ho  Ho12  1  0.564461  0.564461  0.935539  1
  Ho  Ho13  1  0.936240  0.936240  0.563760  1
  Th  Th14  1  0.345637  0.345637  0.351655  1
  Th  Th15  1  0.345637  0.345637  0.957071  1
  Ni  Ni16  1  0.143103  0.143103  0.142761  1
  Ni  Ni17  1  0.143103  0.143103  0.571032  1
  Ni  Ni18  1  0.145725  0.570217  0.142029  1
  Ni  Ni19  1  0.570217  0.145725  0.142029  1
  Hg  Hg20  1  0.587504  0.587504  0.583659  1
  Hg  Hg21  1  0.587504  0.587504  0.241336  1
  Hg  Hg22  1  0.589019  0.241174  0.584904  1
  Hg  Hg23  1  0.241174  0.589019  0.584904  1
