# generated using pymatgen
data_Li3Gd2DyPt3
_symmetry_space_group_name_H-M   'P 1'
_cell_length_a   7.09502400
_cell_length_b   7.09589684
_cell_length_c   4.08479000
_cell_angle_alpha   90.00000000
_cell_angle_beta   90.00000000
_cell_angle_gamma   120.00405195
_symmetry_Int_Tables_number   1
_chemical_formula_structural   Li3Gd2DyPt3
_chemical_formula_sum   'Li3 Gd2 Dy1 Pt3'
_cell_volume   178.09174700
_cell_formula_units_Z   1
loop_
 _symmetry_equiv_pos_site_id
 _symmetry_equiv_pos_as_xyz
  1  'x, y, z'
loop_
 _atom_site_type_symbol
 _atom_site_label
 _atom_site_symmetry_multiplicity
 _atom_site_fract_x
 _atom_site_fract_y
 _atom_site_fract_z
 _atom_site_occupancy
  Li  Li0  1  0.767976  0.767457  0.500000  1
  Li  Li1  1  0.232024  0.999482  0.500000  1
  Li  Li2  1  0.000000  0.232325  0.500000  1
  Gd  Gd3  1  0.410367  0.410285  0.000000  1
  Gd  Gd4  1  0.589633  0.999918  0.000000  1
  Dy  Dy5  1  0.000000  0.590886  0.000000  1
  Pt  Pt6  1  0.000000  0.998514  0.000000  1
  Pt  Pt7  1  0.669502  0.335316  0.500000  1
  Pt  Pt8  1  0.330498  0.665816  0.500000  1
