# generated using pymatgen
data_CaThSc2(ReB6)2
_symmetry_space_group_name_H-M   'P 1'
_cell_length_a   3.64310600
_cell_length_b   9.07664155
_cell_length_c   11.49052371
_cell_angle_alpha   90.04011440
_cell_angle_beta   90.00000000
_cell_angle_gamma   90.00000000
_symmetry_Int_Tables_number   1
_chemical_formula_structural   CaThSc2(ReB6)2
_chemical_formula_sum   'Ca2 Th2 Sc4 Re4 B24'
_cell_volume   379.95897671
_cell_formula_units_Z   2
loop_
 _symmetry_equiv_pos_site_id
 _symmetry_equiv_pos_as_xyz
  1  'x, y, z'
loop_
 _atom_site_type_symbol
 _atom_site_label
 _atom_site_symmetry_multiplicity
 _atom_site_fract_x
 _atom_site_fract_y
 _atom_site_fract_z
 _atom_site_occupancy
  Ca  Ca0  1  0.000000  0.324081  0.415680  1
  Ca  Ca1  1  0.000000  0.675919  0.584320  1
  Th  Th2  1  0.000000  0.820293  0.086102  1
  Th  Th3  1  0.000000  0.179707  0.913898  1
  Sc  Sc4  1  0.000000  0.943128  0.370037  1
  Sc  Sc5  1  0.000000  0.056872  0.629963  1
  Sc  Sc6  1  0.000000  0.444688  0.133444  1
  Sc  Sc7  1  0.000000  0.555312  0.866556  1
  Re  Re8  1  0.000000  0.643819  0.317953  1
  Re  Re9  1  0.000000  0.356181  0.682047  1
  Re  Re10  1  0.000000  0.140879  0.184035  1
  Re  Re11  1  0.000000  0.859121  0.815965  1
  B  B12  1  0.500000  0.554471  0.432248  1
  B  B13  1  0.500000  0.445529  0.567752  1
  B  B14  1  0.500000  0.057485  0.071273  1
  B  B15  1  0.500000  0.942515  0.928727  1
  B  B16  1  0.500000  0.754382  0.418648  1
  B  B17  1  0.500000  0.245618  0.581352  1
  B  B18  1  0.500000  0.254946  0.085955  1
  B  B19  1  0.500000  0.745054  0.914045  1
  B  B20  1  0.500000  0.794542  0.266702  1
  B  B21  1  0.500000  0.205458  0.733298  1
  B  B22  1  0.500000  0.295436  0.236886  1
  B  B23  1  0.500000  0.704564  0.763114  1
  B  B24  1  0.500000  0.627842  0.185297  1
  B  B25  1  0.500000  0.372158  0.814703  1
  B  B26  1  0.500000  0.129916  0.319133  1
  B  B27  1  0.500000  0.870084  0.680867  1
  B  B28  1  0.500000  0.983870  0.216744  1
  B  B29  1  0.500000  0.016130  0.783256  1
  B  B30  1  0.500000  0.482716  0.287583  1
  B  B31  1  0.500000  0.517284  0.712417  1
  B  B32  1  0.500000  0.593832  0.025322  1
  B  B33  1  0.500000  0.406168  0.974678  1
  B  B34  1  0.500000  0.092775  0.475259  1
  B  B35  1  0.500000  0.907225  0.524741  1
