# generated using pymatgen
data_Nd5SmSBr10
_symmetry_space_group_name_H-M   'P 1'
_cell_length_a   7.46524070
_cell_length_b   9.28035764
_cell_length_c   9.30234400
_cell_angle_alpha   108.33094098
_cell_angle_beta   96.62644371
_cell_angle_gamma   105.88425780
_symmetry_Int_Tables_number   1
_chemical_formula_structural   Nd5SmSBr10
_chemical_formula_sum   'Nd5 Sm1 S1 Br10'
_cell_volume   573.90000490
_cell_formula_units_Z   1
loop_
 _symmetry_equiv_pos_site_id
 _symmetry_equiv_pos_as_xyz
  1  'x, y, z'
loop_
 _atom_site_type_symbol
 _atom_site_label
 _atom_site_symmetry_multiplicity
 _atom_site_fract_x
 _atom_site_fract_y
 _atom_site_fract_z
 _atom_site_occupancy
  Nd  Nd0  1  0.126803  0.045217  0.753678  1
  Nd  Nd1  1  0.872706  0.954348  0.247183  1
  Nd  Nd2  1  0.967029  0.295927  0.092167  1
  Nd  Nd3  1  0.032809  0.704224  0.908131  1
  Nd  Nd4  1  0.360247  0.131601  0.174050  1
  Sm  Sm5  1  0.640592  0.869407  0.826913  1
  S  S6  1  0.997379  0.999216  0.999492  1
  Br  Br7  1  0.548777  0.182510  0.912040  1
  Br  Br8  1  0.453299  0.814419  0.083214  1
  Br  Br9  1  0.352789  0.456974  0.274510  1
  Br  Br10  1  0.646543  0.548355  0.724230  1
  Br  Br11  1  0.253319  0.085020  0.456214  1
  Br  Br12  1  0.744412  0.912507  0.546521  1
  Br  Br13  1  0.789043  0.262094  0.357047  1
  Br  Br14  1  0.216799  0.739478  0.646041  1
  Br  Br15  1  0.090720  0.370104  0.823176  1
  Br  Br16  1  0.906732  0.628600  0.175393  1
