# generated using pymatgen
data_Ce2Dy2Si3Rh4
_symmetry_space_group_name_H-M   'P 1'
_cell_length_a   10.71804079
_cell_length_b   10.71804109
_cell_length_c   7.84248632
_cell_angle_alpha   71.11052283
_cell_angle_beta   71.11052346
_cell_angle_gamma   29.77494957
_symmetry_Int_Tables_number   1
_chemical_formula_structural   Ce2Dy2Si3Rh4
_chemical_formula_sum   'Ce4 Dy4 Si6 Rh8'
_cell_volume   421.54103722
_cell_formula_units_Z   2
loop_
 _symmetry_equiv_pos_site_id
 _symmetry_equiv_pos_as_xyz
  1  'x, y, z'
loop_
 _atom_site_type_symbol
 _atom_site_label
 _atom_site_symmetry_multiplicity
 _atom_site_fract_x
 _atom_site_fract_y
 _atom_site_fract_z
 _atom_site_occupancy
  Ce  Ce0  1  0.789961  0.079424  0.170039  1
  Ce  Ce1  1  0.920576  0.210039  0.329961  1
  Ce  Ce2  1  0.210039  0.920576  0.829961  1
  Ce  Ce3  1  0.079424  0.789961  0.670039  1
  Dy  Dy4  1  0.794741  0.546545  0.600440  1
  Dy  Dy5  1  0.453455  0.205259  0.899560  1
  Dy  Dy6  1  0.205259  0.453455  0.399560  1
  Dy  Dy7  1  0.546545  0.794741  0.100440  1
  Si  Si8  1  0.951890  0.702962  0.057357  1
  Si  Si9  1  0.297038  0.048110  0.442643  1
  Si  Si10  1  0.048110  0.297038  0.942643  1
  Si  Si11  1  0.702962  0.951890  0.557357  1
  Si  Si12  1  0.653374  0.346626  0.750000  1
  Si  Si13  1  0.346626  0.653374  0.250000  1
  Rh  Rh14  1  0.568174  0.303346  0.517499  1
  Rh  Rh15  1  0.696654  0.431826  0.982501  1
  Rh  Rh16  1  0.431826  0.696654  0.482501  1
  Rh  Rh17  1  0.303346  0.568174  0.017499  1
  Rh  Rh18  1  0.634359  0.925283  0.312295  1
  Rh  Rh19  1  0.074717  0.365641  0.187705  1
  Rh  Rh20  1  0.365641  0.074717  0.687705  1
  Rh  Rh21  1  0.925283  0.634359  0.812295  1
