# generated using pymatgen
data_Tb5HgSe4
_symmetry_space_group_name_H-M   'P 1'
_cell_length_a   7.19234295
_cell_length_b   7.19231014
_cell_length_c   7.19232282
_cell_angle_alpha   99.72150939
_cell_angle_beta   99.72101126
_cell_angle_gamma   131.47421824
_symmetry_Int_Tables_number   1
_chemical_formula_structural   Tb5HgSe4
_chemical_formula_sum   'Tb5 Hg1 Se4'
_cell_volume   254.14184366
_cell_formula_units_Z   1
loop_
 _symmetry_equiv_pos_site_id
 _symmetry_equiv_pos_as_xyz
  1  'x, y, z'
loop_
 _atom_site_type_symbol
 _atom_site_label
 _atom_site_symmetry_multiplicity
 _atom_site_fract_x
 _atom_site_fract_y
 _atom_site_fract_z
 _atom_site_occupancy
  Tb  Tb0  1  0.399210  0.802582  0.201793  1
  Tb  Tb1  1  0.000000  0.000000  0.000000  1
  Tb  Tb2  1  0.600790  0.197418  0.798207  1
  Tb  Tb3  1  0.197419  0.399209  0.596627  1
  Tb  Tb4  1  0.802581  0.600791  0.403373  1
  Hg  Hg5  1  0.500000  0.500000  0.000000  1
  Se  Se6  1  0.099283  0.698125  0.797408  1
  Se  Se7  1  0.698126  0.900717  0.598844  1
  Se  Se8  1  0.301874  0.099283  0.401156  1
  Se  Se9  1  0.900717  0.301875  0.202592  1
