# generated using pymatgen
data_Er2Tm3IrOs
_symmetry_space_group_name_H-M   'P 1'
_cell_length_a   6.35496078
_cell_length_b   7.27963430
_cell_length_c   8.31435741
_cell_angle_alpha   96.70813950
_cell_angle_beta   112.46802331
_cell_angle_gamma   89.99999845
_symmetry_Int_Tables_number   1
_chemical_formula_structural   Er2Tm3IrOs
_chemical_formula_sum   'Er4 Tm6 Ir2 Os2'
_cell_volume   352.58922279
_cell_formula_units_Z   2
loop_
 _symmetry_equiv_pos_site_id
 _symmetry_equiv_pos_as_xyz
  1  'x, y, z'
loop_
 _atom_site_type_symbol
 _atom_site_label
 _atom_site_symmetry_multiplicity
 _atom_site_fract_x
 _atom_site_fract_y
 _atom_site_fract_z
 _atom_site_occupancy
  Er  Er0  1  0.969293  0.916193  0.179179  1
  Er  Er1  1  0.790112  0.583807  0.820821  1
  Er  Er2  1  0.026449  0.081985  0.816421  1
  Er  Er3  1  0.210030  0.418015  0.183579  1
  Tm  Tm4  1  0.652607  0.817999  0.440147  1
  Tm  Tm5  1  0.212460  0.682001  0.559853  1
  Tm  Tm6  1  0.350505  0.178650  0.561695  1
  Tm  Tm7  1  0.788810  0.321350  0.438305  1
  Tm  Tm8  1  0.422793  0.750000  0.000000  1
  Tm  Tm9  1  0.578385  0.250000  0.000000  1
  Ir  Ir10  1  0.174008  0.423309  0.779898  1
  Ir  Ir11  1  0.394109  0.076691  0.220102  1
  Os  Os12  1  0.823897  0.575013  0.217355  1
  Os  Os13  1  0.606542  0.924987  0.782645  1
