# generated using pymatgen
data_Y14Ho2Cd4Ir3Ru
_symmetry_space_group_name_H-M   'P 1'
_cell_length_a   9.69097992
_cell_length_b   9.69097918
_cell_length_c   9.69679763
_cell_angle_alpha   59.67363474
_cell_angle_beta   59.67363697
_cell_angle_gamma   59.64268892
_symmetry_Int_Tables_number   1
_chemical_formula_structural   Y14Ho2Cd4Ir3Ru
_chemical_formula_sum   'Y14 Ho2 Cd4 Ir3 Ru1'
_cell_volume   639.01897156
_cell_formula_units_Z   1
loop_
 _symmetry_equiv_pos_site_id
 _symmetry_equiv_pos_as_xyz
  1  'x, y, z'
loop_
 _atom_site_type_symbol
 _atom_site_label
 _atom_site_symmetry_multiplicity
 _atom_site_fract_x
 _atom_site_fract_y
 _atom_site_fract_z
 _atom_site_occupancy
  Y  Y0  1  0.348486  0.956466  0.348527  1
  Y  Y1  1  0.956466  0.348486  0.348527  1
  Y  Y2  1  0.811430  0.189362  0.189361  1
  Y  Y3  1  0.188184  0.809146  0.809368  1
  Y  Y4  1  0.189362  0.811430  0.189361  1
  Y  Y5  1  0.809146  0.188184  0.809368  1
  Y  Y6  1  0.189466  0.189466  0.811505  1
  Y  Y7  1  0.809398  0.809398  0.188041  1
  Y  Y8  1  0.939246  0.560990  0.561113  1
  Y  Y9  1  0.559548  0.938190  0.937814  1
  Y  Y10  1  0.560990  0.939246  0.561113  1
  Y  Y11  1  0.938190  0.559548  0.937814  1
  Y  Y12  1  0.560774  0.560774  0.939382  1
  Y  Y13  1  0.937720  0.937720  0.559847  1
  Ho  Ho14  1  0.349031  0.349031  0.349130  1
  Ho  Ho15  1  0.348022  0.348022  0.958171  1
  Cd  Cd16  1  0.579467  0.579467  0.579621  1
  Cd  Cd17  1  0.580525  0.580525  0.257141  1
  Cd  Cd18  1  0.580452  0.257210  0.580585  1
  Cd  Cd19  1  0.257210  0.580452  0.580585  1
  Ir  Ir20  1  0.144345  0.144345  0.576319  1
  Ir  Ir21  1  0.145323  0.575261  0.143477  1
  Ir  Ir22  1  0.575261  0.145323  0.143477  1
  Ru  Ru23  1  0.141964  0.141964  0.140357  1
