# generated using pymatgen
data_Y2Er(ThIr6)3
_symmetry_space_group_name_H-M   'P 1'
_cell_length_a   5.33478809
_cell_length_b   5.33478933
_cell_length_c   17.87619900
_cell_angle_alpha   98.58144187
_cell_angle_beta   98.58143301
_cell_angle_gamma   60.00000354
_symmetry_Int_Tables_number   1
_chemical_formula_structural   Y2Er(ThIr6)3
_chemical_formula_sum   'Y2 Er1 Th3 Ir18'
_cell_volume   434.00650523
_cell_formula_units_Z   1
loop_
 _symmetry_equiv_pos_site_id
 _symmetry_equiv_pos_as_xyz
  1  'x, y, z'
loop_
 _atom_site_type_symbol
 _atom_site_label
 _atom_site_symmetry_multiplicity
 _atom_site_fract_x
 _atom_site_fract_y
 _atom_site_fract_z
 _atom_site_occupancy
  Y  Y0  1  0.931333  0.931333  0.794000  1
  Y  Y1  1  0.070478  0.070478  0.211433  1
  Er  Er2  1  0.429144  0.429144  0.287434  1
  Th  Th3  1  0.570030  0.570030  0.710087  1
  Th  Th4  1  0.000934  0.000934  0.002802  1
  Th  Th5  1  0.498241  0.498241  0.494722  1
  Ir  Ir6  1  0.457761  0.958325  0.374411  1
  Ir  Ir7  1  0.960054  0.458898  0.877849  1
  Ir  Ir8  1  0.958325  0.958325  0.374411  1
  Ir  Ir9  1  0.458898  0.458898  0.877849  1
  Ir  Ir10  1  0.958325  0.457761  0.374411  1
  Ir  Ir11  1  0.458898  0.960054  0.877849  1
  Ir  Ir12  1  0.041570  0.541708  0.124986  1
  Ir  Ir13  1  0.540580  0.040844  0.622269  1
  Ir  Ir14  1  0.541708  0.541708  0.124986  1
  Ir  Ir15  1  0.040844  0.040844  0.622269  1
  Ir  Ir16  1  0.541708  0.041570  0.124986  1
  Ir  Ir17  1  0.040844  0.540580  0.622269  1
  Ir  Ir18  1  0.333968  0.333968  0.001905  1
  Ir  Ir19  1  0.833092  0.833092  0.499276  1
  Ir  Ir20  1  0.166108  0.166108  0.498325  1
  Ir  Ir21  1  0.666830  0.666830  0.000486  1
  Ir  Ir22  1  0.750011  0.750011  0.250034  1
  Ir  Ir23  1  0.250317  0.250317  0.750951  1
