# generated using pymatgen
data_Y4Ga20Ni11
_symmetry_space_group_name_H-M   'P 1'
_cell_length_a   4.08830334
_cell_length_b   10.59144489
_cell_length_c   13.00791732
_cell_angle_alpha   80.56301729
_cell_angle_beta   80.81513961
_cell_angle_gamma   78.69048777
_symmetry_Int_Tables_number   1
_chemical_formula_structural   Y4Ga20Ni11
_chemical_formula_sum   'Y4 Ga20 Ni11'
_cell_volume   540.09319712
_cell_formula_units_Z   1
loop_
 _symmetry_equiv_pos_site_id
 _symmetry_equiv_pos_as_xyz
  1  'x, y, z'
loop_
 _atom_site_type_symbol
 _atom_site_label
 _atom_site_symmetry_multiplicity
 _atom_site_fract_x
 _atom_site_fract_y
 _atom_site_fract_z
 _atom_site_occupancy
  Y  Y0  1  0.121191  0.095890  0.665380  1
  Y  Y1  1  0.230577  0.366311  0.178096  1
  Y  Y2  1  0.774385  0.633729  0.821133  1
  Y  Y3  1  0.884062  0.903755  0.334111  1
  Ga  Ga4  1  0.068585  0.666400  0.202627  1
  Ga  Ga5  1  0.299664  0.902307  0.502546  1
  Ga  Ga6  1  0.607957  0.793183  0.002838  1
  Ga  Ga7  1  0.250750  0.796932  0.703913  1
  Ga  Ga8  1  0.890894  0.670401  0.548179  1
  Ga  Ga9  1  0.753959  0.202931  0.295495  1
  Ga  Ga10  1  0.633166  0.940597  0.802381  1
  Ga  Ga11  1  0.704744  0.097535  0.496874  1
  Ga  Ga12  1  0.398542  0.207267  0.996478  1
  Ga  Ga13  1  0.936051  0.334113  0.796173  1
  Ga  Ga14  1  0.462729  0.703269  0.377185  1
  Ga  Ga15  1  0.996431  0.921674  0.090114  1
  Ga  Ga16  1  0.803217  0.398490  0.002887  1
  Ga  Ga17  1  0.542361  0.296373  0.621992  1
  Ga  Ga18  1  0.009153  0.079028  0.909132  1
  Ga  Ga19  1  0.201786  0.601800  0.996326  1
  Ga  Ga20  1  0.111465  0.329678  0.450719  1
  Ga  Ga21  1  0.372949  0.059564  0.197310  1
  Ga  Ga22  1  0.613793  0.471621  0.307260  1
  Ga  Ga23  1  0.391182  0.528489  0.691415  1
  Ni  Ni24  1  0.138742  0.839935  0.894800  1
  Ni  Ni25  1  0.503996  0.183458  0.812244  1
  Ni  Ni26  1  0.868177  0.160364  0.104521  1
  Ni  Ni27  1  0.975872  0.436896  0.612302  1
  Ni  Ni28  1  0.503043  0.499502  0.499197  1
  Ni  Ni29  1  0.654637  0.580229  0.113857  1
  Ni  Ni30  1  0.029564  0.563198  0.386341  1
  Ni  Ni31  1  0.349917  0.420141  0.885202  1
  Ni  Ni32  1  0.249799  0.119744  0.386595  1
  Ni  Ni33  1  0.500742  0.816960  0.187100  1
  Ni  Ni34  1  0.754724  0.880162  0.612917  1
