# generated using pymatgen
data_Tb3Ho2Bi2Ir
_symmetry_space_group_name_H-M   'P 1'
_cell_length_a   8.01002200
_cell_length_b   9.02675700
_cell_length_c   12.54595700
_cell_angle_alpha   90.00000000
_cell_angle_beta   90.00000000
_cell_angle_gamma   90.00000000
_symmetry_Int_Tables_number   1
_chemical_formula_structural   Tb3Ho2Bi2Ir
_chemical_formula_sum   'Tb12 Ho8 Bi8 Ir4'
_cell_volume   907.12942591
_cell_formula_units_Z   4
loop_
 _symmetry_equiv_pos_site_id
 _symmetry_equiv_pos_as_xyz
  1  'x, y, z'
loop_
 _atom_site_type_symbol
 _atom_site_label
 _atom_site_symmetry_multiplicity
 _atom_site_fract_x
 _atom_site_fract_y
 _atom_site_fract_z
 _atom_site_occupancy
  Tb  Tb0  1  0.843415  0.750000  0.794918  1
  Tb  Tb1  1  0.156585  0.250000  0.205082  1
  Tb  Tb2  1  0.343415  0.250000  0.705082  1
  Tb  Tb3  1  0.656585  0.750000  0.294918  1
  Tb  Tb4  1  0.374964  0.750000  0.693485  1
  Tb  Tb5  1  0.625036  0.250000  0.306515  1
  Tb  Tb6  1  0.874964  0.250000  0.806515  1
  Tb  Tb7  1  0.125036  0.750000  0.193485  1
  Tb  Tb8  1  0.949214  0.750000  0.501809  1
  Tb  Tb9  1  0.050786  0.250000  0.498191  1
  Tb  Tb10  1  0.449214  0.250000  0.998191  1
  Tb  Tb11  1  0.550786  0.750000  0.001809  1
  Ho  Ho12  1  0.676193  0.039179  0.565210  1
  Ho  Ho13  1  0.323807  0.960821  0.434790  1
  Ho  Ho14  1  0.176193  0.960821  0.934790  1
  Ho  Ho15  1  0.323807  0.539179  0.434790  1
  Ho  Ho16  1  0.823807  0.039179  0.065210  1
  Ho  Ho17  1  0.676193  0.460821  0.565210  1
  Ho  Ho18  1  0.823807  0.460821  0.065210  1
  Ho  Ho19  1  0.176193  0.539179  0.934790  1
  Bi  Bi20  1  0.568484  0.492034  0.826835  1
  Bi  Bi21  1  0.431516  0.507966  0.173165  1
  Bi  Bi22  1  0.068484  0.507966  0.673165  1
  Bi  Bi23  1  0.431516  0.992034  0.173165  1
  Bi  Bi24  1  0.931516  0.492034  0.326835  1
  Bi  Bi25  1  0.568484  0.007966  0.826835  1
  Bi  Bi26  1  0.931516  0.007966  0.326835  1
  Bi  Bi27  1  0.068484  0.992034  0.673165  1
  Ir  Ir28  1  0.565195  0.750000  0.508703  1
  Ir  Ir29  1  0.434805  0.250000  0.491297  1
  Ir  Ir30  1  0.065195  0.250000  0.991297  1
  Ir  Ir31  1  0.934805  0.750000  0.008703  1
