# generated using pymatgen
data_Hf2Co9B6Ru
_symmetry_space_group_name_H-M   'P 1'
_cell_length_a   5.66835566
_cell_length_b   5.66835571
_cell_length_c   5.66835462
_cell_angle_alpha   95.61960417
_cell_angle_beta   95.61960299
_cell_angle_gamma   95.61960485
_symmetry_Int_Tables_number   1
_chemical_formula_structural   Hf2Co9B6Ru
_chemical_formula_sum   'Hf2 Co9 B6 Ru1'
_cell_volume   179.31335524
_cell_formula_units_Z   1
loop_
 _symmetry_equiv_pos_site_id
 _symmetry_equiv_pos_as_xyz
  1  'x, y, z'
loop_
 _atom_site_type_symbol
 _atom_site_label
 _atom_site_symmetry_multiplicity
 _atom_site_fract_x
 _atom_site_fract_y
 _atom_site_fract_z
 _atom_site_occupancy
  Hf  Hf0  1  0.686345  0.686345  0.686345  1
  Hf  Hf1  1  0.313655  0.313655  0.313655  1
  Co  Co2  1  0.500000  0.000000  0.000000  1
  Co  Co3  1  0.000000  0.500000  0.000000  1
  Co  Co4  1  0.000000  0.000000  0.500000  1
  Co  Co5  1  0.702816  0.202263  0.702816  1
  Co  Co6  1  0.702816  0.702816  0.202263  1
  Co  Co7  1  0.202263  0.702816  0.702816  1
  Co  Co8  1  0.297184  0.797737  0.297184  1
  Co  Co9  1  0.297184  0.297184  0.797737  1
  Co  Co10  1  0.797737  0.297184  0.297184  1
  B  B11  1  0.384456  0.000000  0.615544  1
  B  B12  1  0.615544  0.384456  0.000000  1
  B  B13  1  0.000000  0.615544  0.384456  1
  B  B14  1  0.615544  0.000000  0.384456  1
  B  B15  1  0.384456  0.615544  0.000000  1
  B  B16  1  0.000000  0.384456  0.615544  1
  Ru  Ru17  1  0.000000  0.000000  0.000000  1
