# generated using pymatgen
data_Sr3Ac7(Sn3Cl)2
_symmetry_space_group_name_H-M   'P 1'
_cell_length_a   9.88829900
_cell_length_b   9.89741185
_cell_length_c   7.46093500
_cell_angle_alpha   90.00000000
_cell_angle_beta   90.00000000
_cell_angle_gamma   119.96953712
_symmetry_Int_Tables_number   1
_chemical_formula_structural   Sr3Ac7(Sn3Cl)2
_chemical_formula_sum   'Sr3 Ac7 Sn6 Cl2'
_cell_volume   632.55799864
_cell_formula_units_Z   1
loop_
 _symmetry_equiv_pos_site_id
 _symmetry_equiv_pos_as_xyz
  1  'x, y, z'
loop_
 _atom_site_type_symbol
 _atom_site_label
 _atom_site_symmetry_multiplicity
 _atom_site_fract_x
 _atom_site_fract_y
 _atom_site_fract_z
 _atom_site_occupancy
  Sr  Sr0  1  0.741896  0.000000  0.750000  1
  Sr  Sr1  1  0.742147  0.743397  0.250000  1
  Sr  Sr2  1  0.998750  0.256603  0.250000  1
  Ac  Ac3  1  0.669503  0.333637  0.001818  1
  Ac  Ac4  1  0.335865  0.666363  0.498182  1
  Ac  Ac5  1  0.669503  0.333637  0.498182  1
  Ac  Ac6  1  0.335865  0.666363  0.001818  1
  Ac  Ac7  1  0.998911  0.739928  0.750000  1
  Ac  Ac8  1  0.258983  0.260072  0.750000  1
  Ac  Ac9  1  0.258454  0.000000  0.250000  1
  Sn  Sn10  1  0.607719  0.606682  0.750000  1
  Sn  Sn11  1  0.000041  0.610442  0.250000  1
  Sn  Sn12  1  0.604841  0.000000  0.250000  1
  Sn  Sn13  1  0.387936  0.000000  0.750000  1
  Sn  Sn14  1  0.001038  0.393318  0.750000  1
  Sn  Sn15  1  0.389599  0.389558  0.250000  1
  Cl  Cl16  1  0.999473  0.000000  0.500845  1
  Cl  Cl17  1  0.999473  0.000000  0.999155  1
