# generated using pymatgen
data_Eu3(CdSb2)2
_symmetry_space_group_name_H-M   'P 1'
_cell_length_a   8.73445262
_cell_length_b   8.73445328
_cell_length_c   7.37019709
_cell_angle_alpha   68.71554645
_cell_angle_beta   111.28445283
_cell_angle_gamma   148.33795272
_symmetry_Int_Tables_number   1
_chemical_formula_structural   Eu3(CdSb2)2
_chemical_formula_sum   'Eu3 Cd2 Sb4'
_cell_volume   273.32889850
_cell_formula_units_Z   1
loop_
 _symmetry_equiv_pos_site_id
 _symmetry_equiv_pos_as_xyz
  1  'x, y, z'
loop_
 _atom_site_type_symbol
 _atom_site_label
 _atom_site_symmetry_multiplicity
 _atom_site_fract_x
 _atom_site_fract_y
 _atom_site_fract_z
 _atom_site_occupancy
  Eu  Eu0  1  0.000000  0.000000  0.000000  1
  Eu  Eu1  1  0.136587  0.863415  0.596427  1
  Eu  Eu2  1  0.863415  0.136587  0.403574  1
  Cd  Cd3  1  0.334530  0.665472  0.017779  1
  Cd  Cd4  1  0.665472  0.334530  0.982221  1
  Sb  Sb5  1  0.510171  0.489830  0.308694  1
  Sb  Sb6  1  0.489830  0.510171  0.691306  1
  Sb  Sb7  1  0.211989  0.788012  0.233305  1
  Sb  Sb8  1  0.788013  0.211989  0.766696  1
