# generated using pymatgen
data_Hf8Tc4Os3Pd
_symmetry_space_group_name_H-M   'P 1'
_cell_length_a   6.51311600
_cell_length_b   6.51201400
_cell_length_c   6.55575500
_cell_angle_alpha   90.00007015
_cell_angle_beta   89.99894779
_cell_angle_gamma   90.00005279
_symmetry_Int_Tables_number   1
_chemical_formula_structural   Hf8Tc4Os3Pd
_chemical_formula_sum   'Hf8 Tc4 Os3 Pd1'
_cell_volume   278.05253155
_cell_formula_units_Z   1
loop_
 _symmetry_equiv_pos_site_id
 _symmetry_equiv_pos_as_xyz
  1  'x, y, z'
loop_
 _atom_site_type_symbol
 _atom_site_label
 _atom_site_symmetry_multiplicity
 _atom_site_fract_x
 _atom_site_fract_y
 _atom_site_fract_z
 _atom_site_occupancy
  Hf  Hf0  1  0.501547  0.998228  0.252845  1
  Hf  Hf1  1  0.501548  0.501739  0.252847  1
  Hf  Hf2  1  0.998031  0.998272  0.252817  1
  Hf  Hf3  1  0.998032  0.501758  0.252817  1
  Hf  Hf4  1  0.998454  0.998236  0.747165  1
  Hf  Hf5  1  0.998456  0.501732  0.747165  1
  Hf  Hf6  1  0.501960  0.998280  0.747160  1
  Hf  Hf7  1  0.501962  0.501750  0.747160  1
  Tc  Tc8  1  0.250056  0.750000  0.000084  1
  Tc  Tc9  1  0.750055  0.250000  0.499911  1
  Tc  Tc10  1  0.249945  0.750001  0.500080  1
  Tc  Tc11  1  0.749941  0.250001  0.999916  1
  Os  Os12  1  0.749994  0.750001  0.499856  1
  Os  Os13  1  0.250012  0.250001  0.500118  1
  Os  Os14  1  0.750010  0.750000  0.999874  1
  Pd  Pd15  1  0.250000  0.250000  0.000186  1
