# generated using pymatgen
data_TbDyP7Ru12
_symmetry_space_group_name_H-M   'P 1'
_cell_length_a   9.40990400
_cell_length_b   9.40990184
_cell_length_c   3.96694400
_cell_angle_alpha   90.00000000
_cell_angle_beta   90.00000000
_cell_angle_gamma   120.00000055
_symmetry_Int_Tables_number   1
_chemical_formula_structural   TbDyP7Ru12
_chemical_formula_sum   'Tb1 Dy1 P7 Ru12'
_cell_volume   304.19844179
_cell_formula_units_Z   1
loop_
 _symmetry_equiv_pos_site_id
 _symmetry_equiv_pos_as_xyz
  1  'x, y, z'
loop_
 _atom_site_type_symbol
 _atom_site_label
 _atom_site_symmetry_multiplicity
 _atom_site_fract_x
 _atom_site_fract_y
 _atom_site_fract_z
 _atom_site_occupancy
  Tb  Tb0  1  0.333333  0.666667  0.000000  1
  Dy  Dy1  1  0.666667  0.333333  0.500000  1
  P  P2  1  0.601148  0.718365  0.500000  1
  P  P3  1  0.000000  0.000000  0.000000  1
  P  P4  1  0.281635  0.882785  0.500000  1
  P  P5  1  0.117215  0.398852  0.500000  1
  P  P6  1  0.885430  0.573509  0.000000  1
  P  P7  1  0.426491  0.311921  0.000000  1
  P  P8  1  0.688079  0.114570  0.000000  1
  Ru  Ru9  1  0.556707  0.950033  0.500000  1
  Ru  Ru10  1  0.393327  0.443293  0.500000  1
  Ru  Ru11  1  0.914664  0.121416  0.500000  1
  Ru  Ru12  1  0.206752  0.085336  0.500000  1
  Ru  Ru13  1  0.878584  0.793248  0.500000  1
  Ru  Ru14  1  0.728137  0.892414  0.000000  1
  Ru  Ru15  1  0.107586  0.835722  0.000000  1
  Ru  Ru16  1  0.164278  0.271863  0.000000  1
  Ru  Ru17  1  0.423353  0.066645  0.000000  1
  Ru  Ru18  1  0.933355  0.356709  0.000000  1
  Ru  Ru19  1  0.643291  0.576647  0.000000  1
  Ru  Ru20  1  0.049967  0.606673  0.500000  1
