# generated using pymatgen
data_Y3Er5Ga12CoNi3
_symmetry_space_group_name_H-M   'P 1'
_cell_length_a   6.97229200
_cell_length_b   8.71605440
_cell_length_c   8.71605447
_cell_angle_alpha   120.03760909
_cell_angle_beta   89.99748033
_cell_angle_gamma   90.00251729
_symmetry_Int_Tables_number   1
_chemical_formula_structural   Y3Er5Ga12CoNi3
_chemical_formula_sum   'Y3 Er5 Ga12 Co1 Ni3'
_cell_volume   458.54435872
_cell_formula_units_Z   1
loop_
 _symmetry_equiv_pos_site_id
 _symmetry_equiv_pos_as_xyz
  1  'x, y, z'
loop_
 _atom_site_type_symbol
 _atom_site_label
 _atom_site_symmetry_multiplicity
 _atom_site_fract_x
 _atom_site_fract_y
 _atom_site_fract_z
 _atom_site_occupancy
  Y  Y0  1  0.748290  0.999994  0.000006  1
  Y  Y1  1  0.249824  0.000007  0.999993  1
  Y  Y2  1  0.750240  0.478336  0.521664  1
  Er  Er3  1  0.252988  0.525034  0.474966  1
  Er  Er4  1  0.750228  0.043370  0.521758  1
  Er  Er5  1  0.253021  0.950058  0.475031  1
  Er  Er6  1  0.750228  0.478242  0.956630  1
  Er  Er7  1  0.253021  0.524969  0.049942  1
  Ga  Ga8  1  0.954635  0.828565  0.171435  1
  Ga  Ga9  1  0.046905  0.172071  0.827929  1
  Ga  Ga10  1  0.954910  0.342763  0.171054  1
  Ga  Ga11  1  0.454661  0.171681  0.828319  1
  Ga  Ga12  1  0.047211  0.655907  0.828113  1
  Ga  Ga13  1  0.545386  0.827082  0.172918  1
  Ga  Ga14  1  0.954910  0.828946  0.657237  1
  Ga  Ga15  1  0.454356  0.656687  0.828504  1
  Ga  Ga16  1  0.047211  0.171887  0.344093  1
  Ga  Ga17  1  0.545094  0.345735  0.172533  1
  Ga  Ga18  1  0.454356  0.171496  0.343313  1
  Ga  Ga19  1  0.545094  0.827467  0.654265  1
  Co  Co20  1  0.516790  0.666783  0.333217  1
  Ni  Ni21  1  0.969823  0.666818  0.333182  1
  Ni  Ni22  1  0.028807  0.333053  0.666947  1
  Ni  Ni23  1  0.472009  0.333051  0.666949  1
