# generated using pymatgen
data_DyEr3B12IrRu
_symmetry_space_group_name_H-M   'P 1'
_cell_length_a   3.63700800
_cell_length_b   9.14381426
_cell_length_c   11.47094800
_cell_angle_alpha   90.06116302
_cell_angle_beta   90.00000000
_cell_angle_gamma   90.00000000
_symmetry_Int_Tables_number   1
_chemical_formula_structural   DyEr3B12IrRu
_chemical_formula_sum   'Dy2 Er6 B24 Ir2 Ru2'
_cell_volume   381.47907044
_cell_formula_units_Z   2
loop_
 _symmetry_equiv_pos_site_id
 _symmetry_equiv_pos_as_xyz
  1  'x, y, z'
loop_
 _atom_site_type_symbol
 _atom_site_label
 _atom_site_symmetry_multiplicity
 _atom_site_fract_x
 _atom_site_fract_y
 _atom_site_fract_z
 _atom_site_occupancy
  Dy  Dy0  1  0.000000  0.319127  0.411935  1
  Dy  Dy1  1  0.000000  0.680873  0.588065  1
  Er  Er2  1  0.000000  0.823068  0.085036  1
  Er  Er3  1  0.000000  0.176932  0.914964  1
  Er  Er4  1  0.000000  0.945909  0.372728  1
  Er  Er5  1  0.000000  0.054091  0.627272  1
  Er  Er6  1  0.000000  0.442475  0.125515  1
  Er  Er7  1  0.000000  0.557525  0.874485  1
  B  B8  1  0.500000  0.553148  0.433484  1
  B  B9  1  0.500000  0.446852  0.566516  1
  B  B10  1  0.500000  0.053904  0.066531  1
  B  B11  1  0.500000  0.946096  0.933469  1
  B  B12  1  0.500000  0.750783  0.420103  1
  B  B13  1  0.500000  0.249217  0.579897  1
  B  B14  1  0.500000  0.248012  0.079605  1
  B  B15  1  0.500000  0.751988  0.920395  1
  B  B16  1  0.500000  0.793185  0.265533  1
  B  B17  1  0.500000  0.206815  0.734467  1
  B  B18  1  0.500000  0.291857  0.233803  1
  B  B19  1  0.500000  0.708143  0.766197  1
  B  B20  1  0.500000  0.631935  0.183935  1
  B  B21  1  0.500000  0.368065  0.816065  1
  B  B22  1  0.500000  0.131897  0.314628  1
  B  B23  1  0.500000  0.868103  0.685372  1
  B  B24  1  0.500000  0.983245  0.212680  1
  B  B25  1  0.500000  0.016755  0.787320  1
  B  B26  1  0.500000  0.481948  0.286121  1
  B  B27  1  0.500000  0.518052  0.713879  1
  B  B28  1  0.500000  0.610546  0.030626  1
  B  B29  1  0.500000  0.389454  0.969374  1
  B  B30  1  0.500000  0.108917  0.470388  1
  B  B31  1  0.500000  0.891083  0.529612  1
  Ir  Ir32  1  0.000000  0.638020  0.321610  1
  Ir  Ir33  1  0.000000  0.361980  0.678390  1
  Ru  Ru34  1  0.000000  0.137836  0.178646  1
  Ru  Ru35  1  0.000000  0.862164  0.821354  1
