# generated using pymatgen
data_Yb6AlGa3Pt4
_symmetry_space_group_name_H-M   'P 1'
_cell_length_a   5.73129300
_cell_length_b   7.80162100
_cell_length_c   13.85540600
_cell_angle_alpha   90.00000000
_cell_angle_beta   90.00000000
_cell_angle_gamma   90.00000000
_symmetry_Int_Tables_number   1
_chemical_formula_structural   Yb6AlGa3Pt4
_chemical_formula_sum   'Yb12 Al2 Ga6 Pt8'
_cell_volume   619.52197570
_cell_formula_units_Z   2
loop_
 _symmetry_equiv_pos_site_id
 _symmetry_equiv_pos_as_xyz
  1  'x, y, z'
loop_
 _atom_site_type_symbol
 _atom_site_label
 _atom_site_symmetry_multiplicity
 _atom_site_fract_x
 _atom_site_fract_y
 _atom_site_fract_z
 _atom_site_occupancy
  Yb  Yb0  1  0.147556  0.606345  0.096150  1
  Yb  Yb1  1  0.147556  0.893655  0.903850  1
  Yb  Yb2  1  0.852444  0.106345  0.403850  1
  Yb  Yb3  1  0.852444  0.393655  0.596150  1
  Yb  Yb4  1  0.852811  0.396174  0.903323  1
  Yb  Yb5  1  0.852811  0.103826  0.096677  1
  Yb  Yb6  1  0.147189  0.896174  0.596677  1
  Yb  Yb7  1  0.147189  0.603826  0.403323  1
  Yb  Yb8  1  0.375138  0.252616  0.250156  1
  Yb  Yb9  1  0.375138  0.247384  0.749844  1
  Yb  Yb10  1  0.624862  0.752616  0.249844  1
  Yb  Yb11  1  0.624862  0.747384  0.750156  1
  Al  Al12  1  0.380947  0.250000  0.000000  1
  Al  Al13  1  0.619053  0.750000  0.500000  1
  Ga  Ga14  1  0.628032  0.750000  0.000000  1
  Ga  Ga15  1  0.371968  0.250000  0.500000  1
  Ga  Ga16  1  0.871315  0.404189  0.249807  1
  Ga  Ga17  1  0.871315  0.095811  0.750193  1
  Ga  Ga18  1  0.128685  0.904189  0.250193  1
  Ga  Ga19  1  0.128685  0.595811  0.749807  1
  Pt  Pt20  1  0.638990  0.464091  0.094967  1
  Pt  Pt21  1  0.638990  0.035909  0.905033  1
  Pt  Pt22  1  0.361010  0.964091  0.405033  1
  Pt  Pt23  1  0.361010  0.535909  0.594967  1
  Pt  Pt24  1  0.356551  0.529826  0.905420  1
  Pt  Pt25  1  0.356551  0.970174  0.094580  1
  Pt  Pt26  1  0.643449  0.029826  0.594580  1
  Pt  Pt27  1  0.643449  0.470174  0.405420  1
