# generated using pymatgen
data_Tm2Mn3Ni9P7
_symmetry_space_group_name_H-M   'P 1'
_cell_length_a   9.09320900
_cell_length_b   9.09320925
_cell_length_c   3.64653700
_cell_angle_alpha   90.00000000
_cell_angle_beta   90.00000000
_cell_angle_gamma   120.00000272
_symmetry_Int_Tables_number   1
_chemical_formula_structural   Tm2Mn3Ni9P7
_chemical_formula_sum   'Tm2 Mn3 Ni9 P7'
_cell_volume   261.12328622
_cell_formula_units_Z   1
loop_
 _symmetry_equiv_pos_site_id
 _symmetry_equiv_pos_as_xyz
  1  'x, y, z'
loop_
 _atom_site_type_symbol
 _atom_site_label
 _atom_site_symmetry_multiplicity
 _atom_site_fract_x
 _atom_site_fract_y
 _atom_site_fract_z
 _atom_site_occupancy
  Tm  Tm0  1  0.000000  0.000000  0.000000  1
  Tm  Tm1  1  0.666667  0.333333  0.500000  1
  Mn  Mn2  1  0.456479  0.568724  0.500000  1
  Mn  Mn3  1  0.431276  0.887756  0.500000  1
  Mn  Mn4  1  0.112244  0.543521  0.500000  1
  Ni  Ni5  1  0.706219  0.605061  0.000000  1
  Ni  Ni6  1  0.394939  0.101158  0.000000  1
  Ni  Ni7  1  0.898842  0.293781  0.000000  1
  Ni  Ni8  1  0.210522  0.388440  0.000000  1
  Ni  Ni9  1  0.611560  0.822082  0.000000  1
  Ni  Ni10  1  0.177918  0.789478  0.000000  1
  Ni  Ni11  1  0.280873  0.229932  0.500000  1
  Ni  Ni12  1  0.770068  0.050940  0.500000  1
  Ni  Ni13  1  0.949060  0.719127  0.500000  1
  P  P14  1  0.448466  0.372842  0.000000  1
  P  P15  1  0.627158  0.075625  0.000000  1
  P  P16  1  0.924375  0.551534  0.000000  1
  P  P17  1  0.041846  0.260001  0.500000  1
  P  P18  1  0.739999  0.781846  0.500000  1
  P  P19  1  0.218154  0.958154  0.500000  1
  P  P20  1  0.333333  0.666667  0.000000  1
