# generated using pymatgen
data_Na2Mn3(AsO4)3
_symmetry_space_group_name_H-M   'P 1'
_cell_length_a   8.94325565
_cell_length_b   8.94325565
_cell_length_c   6.92205638
_cell_angle_alpha   74.15083734
_cell_angle_beta   74.15083734
_cell_angle_gamma   93.67212881
_symmetry_Int_Tables_number   1
_chemical_formula_structural   Na2Mn3(AsO4)3
_chemical_formula_sum   'Na4 Mn6 As6 O24'
_cell_volume   506.56286235
_cell_formula_units_Z   2
loop_
 _symmetry_equiv_pos_site_id
 _symmetry_equiv_pos_as_xyz
  1  'x, y, z'
loop_
 _atom_site_type_symbol
 _atom_site_label
 _atom_site_symmetry_multiplicity
 _atom_site_fract_x
 _atom_site_fract_y
 _atom_site_fract_z
 _atom_site_occupancy
  Na  Na0  1  0.008998  0.991002  0.250000  1
  Na  Na1  1  0.991002  0.008998  0.750000  1
  Na  Na2  1  0.500000  0.500000  0.500000  1
  Na  Na3  1  0.500000  0.500000  0.000000  1
  Mn  Mn4  1  0.938952  0.624626  0.629109  1
  Mn  Mn5  1  0.375374  0.061048  0.870891  1
  Mn  Mn6  1  0.061048  0.375374  0.370891  1
  Mn  Mn7  1  0.624626  0.938952  0.129109  1
  Mn  Mn8  1  0.732739  0.267261  0.250000  1
  Mn  Mn9  1  0.267261  0.732739  0.750000  1
  As  As10  1  0.122096  0.345241  0.875827  1
  As  As11  1  0.654759  0.877904  0.624173  1
  As  As12  1  0.877904  0.654759  0.124173  1
  As  As13  1  0.345241  0.122096  0.375827  1
  As  As14  1  0.715575  0.284425  0.750000  1
  As  As15  1  0.284425  0.715575  0.250000  1
  O  O16  1  0.988973  0.327953  0.117884  1
  O  O17  1  0.672047  0.011027  0.382116  1
  O  O18  1  0.011027  0.672047  0.882116  1
  O  O19  1  0.327953  0.988973  0.617884  1
  O  O20  1  0.163184  0.157321  0.889539  1
  O  O21  1  0.842679  0.836816  0.610461  1
  O  O22  1  0.836816  0.842679  0.110461  1
  O  O23  1  0.157321  0.163184  0.389539  1
  O  O24  1  0.831441  0.249222  0.525469  1
  O  O25  1  0.750778  0.168559  0.974531  1
  O  O26  1  0.168559  0.750778  0.474531  1
  O  O27  1  0.249222  0.831441  0.025469  1
  O  O28  1  0.283409  0.481052  0.817170  1
  O  O29  1  0.518948  0.716591  0.682830  1
  O  O30  1  0.716591  0.518948  0.182830  1
  O  O31  1  0.481052  0.283409  0.317170  1
  O  O32  1  0.033127  0.404405  0.679131  1
  O  O33  1  0.595595  0.966873  0.820869  1
  O  O34  1  0.966873  0.595595  0.320869  1
  O  O35  1  0.404405  0.033127  0.179131  1
  O  O36  1  0.520877  0.265650  0.755532  1
  O  O37  1  0.734350  0.479123  0.744468  1
  O  O38  1  0.479123  0.734350  0.244468  1
  O  O39  1  0.265650  0.520877  0.255532  1
