# generated using pymatgen
data_Tb3DyReB12Os
_symmetry_space_group_name_H-M   'P 1'
_cell_length_a   3.68571900
_cell_length_b   9.19574953
_cell_length_c   11.58849604
_cell_angle_alpha   90.14769764
_cell_angle_beta   90.00000000
_cell_angle_gamma   90.00000000
_symmetry_Int_Tables_number   1
_chemical_formula_structural   Tb3DyReB12Os
_chemical_formula_sum   'Tb6 Dy2 Re2 B24 Os2'
_cell_volume   392.76699749
_cell_formula_units_Z   2
loop_
 _symmetry_equiv_pos_site_id
 _symmetry_equiv_pos_as_xyz
  1  'x, y, z'
loop_
 _atom_site_type_symbol
 _atom_site_label
 _atom_site_symmetry_multiplicity
 _atom_site_fract_x
 _atom_site_fract_y
 _atom_site_fract_z
 _atom_site_occupancy
  Tb  Tb0  1  0.000000  0.321291  0.412416  1
  Tb  Tb1  1  0.000000  0.678709  0.587584  1
  Tb  Tb2  1  0.000000  0.824813  0.084850  1
  Tb  Tb3  1  0.000000  0.175187  0.915150  1
  Tb  Tb4  1  0.000000  0.943347  0.370569  1
  Tb  Tb5  1  0.000000  0.056653  0.629431  1
  Dy  Dy6  1  0.000000  0.442520  0.128933  1
  Dy  Dy7  1  0.000000  0.557480  0.871067  1
  Re  Re8  1  0.000000  0.138598  0.179389  1
  Re  Re9  1  0.000000  0.861402  0.820611  1
  B  B10  1  0.500000  0.553878  0.432676  1
  B  B11  1  0.500000  0.446122  0.567324  1
  B  B12  1  0.500000  0.053316  0.067132  1
  B  B13  1  0.500000  0.946684  0.932868  1
  B  B14  1  0.500000  0.747991  0.418519  1
  B  B15  1  0.500000  0.252009  0.581481  1
  B  B16  1  0.500000  0.248354  0.081275  1
  B  B17  1  0.500000  0.751646  0.918725  1
  B  B18  1  0.500000  0.790112  0.266196  1
  B  B19  1  0.500000  0.209888  0.733804  1
  B  B20  1  0.500000  0.291322  0.234212  1
  B  B21  1  0.500000  0.708678  0.765788  1
  B  B22  1  0.500000  0.630978  0.186473  1
  B  B23  1  0.500000  0.369022  0.813527  1
  B  B24  1  0.500000  0.131756  0.314240  1
  B  B25  1  0.500000  0.868244  0.685760  1
  B  B26  1  0.500000  0.983584  0.212330  1
  B  B27  1  0.500000  0.016416  0.787670  1
  B  B28  1  0.500000  0.483616  0.287939  1
  B  B29  1  0.500000  0.516384  0.712061  1
  B  B30  1  0.500000  0.603578  0.028972  1
  B  B31  1  0.500000  0.396422  0.971028  1
  B  B32  1  0.500000  0.104675  0.471118  1
  B  B33  1  0.500000  0.895325  0.528882  1
  Os  Os34  1  0.000000  0.637223  0.321791  1
  Os  Os35  1  0.000000  0.362777  0.678209  1
