# generated using pymatgen
data_TbEr3U4(ReB6)4
_symmetry_space_group_name_H-M   'P 1'
_cell_length_a   3.63106100
_cell_length_b   9.28946205
_cell_length_c   11.40622706
_cell_angle_alpha   89.98801722
_cell_angle_beta   90.00000000
_cell_angle_gamma   90.00000000
_symmetry_Int_Tables_number   1
_chemical_formula_structural   TbEr3U4(ReB6)4
_chemical_formula_sum   'Tb1 Er3 U4 Re4 B24'
_cell_volume   384.73891250
_cell_formula_units_Z   1
loop_
 _symmetry_equiv_pos_site_id
 _symmetry_equiv_pos_as_xyz
  1  'x, y, z'
loop_
 _atom_site_type_symbol
 _atom_site_label
 _atom_site_symmetry_multiplicity
 _atom_site_fract_x
 _atom_site_fract_y
 _atom_site_fract_z
 _atom_site_occupancy
  Tb  Tb0  1  0.000000  0.163237  0.907661  1
  Er  Er1  1  0.000000  0.336666  0.407812  1
  Er  Er2  1  0.000000  0.663388  0.592079  1
  Er  Er3  1  0.000000  0.836726  0.092496  1
  U  U4  1  0.000000  0.956376  0.396456  1
  U  U5  1  0.000000  0.043537  0.603496  1
  U  U6  1  0.000000  0.456626  0.104203  1
  U  U7  1  0.000000  0.544041  0.896232  1
  Re  Re8  1  0.000000  0.645333  0.318827  1
  Re  Re9  1  0.000000  0.355217  0.680625  1
  Re  Re10  1  0.000000  0.145048  0.182006  1
  Re  Re11  1  0.000000  0.853732  0.818341  1
  B  B12  1  0.500000  0.551288  0.431320  1
  B  B13  1  0.500000  0.448881  0.568473  1
  B  B14  1  0.500000  0.051075  0.069205  1
  B  B15  1  0.500000  0.947718  0.931218  1
  B  B16  1  0.500000  0.742673  0.423197  1
  B  B17  1  0.500000  0.257382  0.576546  1
  B  B18  1  0.500000  0.242999  0.077342  1
  B  B19  1  0.500000  0.757055  0.923236  1
  B  B20  1  0.500000  0.802047  0.274950  1
  B  B21  1  0.500000  0.198219  0.724587  1
  B  B22  1  0.500000  0.302096  0.225317  1
  B  B23  1  0.500000  0.697829  0.774755  1
  B  B24  1  0.500000  0.644327  0.188589  1
  B  B25  1  0.500000  0.356327  0.811162  1
  B  B26  1  0.500000  0.144188  0.311636  1
  B  B27  1  0.500000  0.855528  0.688263  1
  B  B28  1  0.500000  0.988367  0.219430  1
  B  B29  1  0.500000  0.010656  0.780265  1
  B  B30  1  0.500000  0.488540  0.280841  1
  B  B31  1  0.500000  0.511651  0.719079  1
  B  B32  1  0.500000  0.640721  0.039057  1
  B  B33  1  0.500000  0.360585  0.961410  1
  B  B34  1  0.500000  0.140625  0.461025  1
  B  B35  1  0.500000  0.859297  0.538862  1
