# generated using pymatgen
data_Tb6Er(LuSn2)3
_symmetry_space_group_name_H-M   'P 1'
_cell_length_a   8.94614400
_cell_length_b   8.94614353
_cell_length_c   6.48261400
_cell_angle_alpha   90.00000000
_cell_angle_beta   90.00000000
_cell_angle_gamma   119.99999436
_symmetry_Int_Tables_number   1
_chemical_formula_structural   Tb6Er(LuSn2)3
_chemical_formula_sum   'Tb6 Er1 Lu3 Sn6'
_cell_volume   449.31670465
_cell_formula_units_Z   1
loop_
 _symmetry_equiv_pos_site_id
 _symmetry_equiv_pos_as_xyz
  1  'x, y, z'
loop_
 _atom_site_type_symbol
 _atom_site_label
 _atom_site_symmetry_multiplicity
 _atom_site_fract_x
 _atom_site_fract_y
 _atom_site_fract_z
 _atom_site_occupancy
  Tb  Tb0  1  0.759752  0.759838  0.749926  1
  Tb  Tb1  1  0.240162  0.999914  0.749926  1
  Tb  Tb2  1  0.000086  0.240248  0.749926  1
  Tb  Tb3  1  0.240162  0.240248  0.250074  1
  Tb  Tb4  1  0.759752  0.999914  0.250074  1
  Tb  Tb5  1  0.000086  0.759838  0.250074  1
  Er  Er6  1  0.666667  0.333333  0.000000  1
  Lu  Lu7  1  0.333333  0.666667  0.000000  1
  Lu  Lu8  1  0.333333  0.666667  0.500000  1
  Lu  Lu9  1  0.666667  0.333333  0.500000  1
  Sn  Sn10  1  0.396385  0.396778  0.749718  1
  Sn  Sn11  1  0.603222  0.999607  0.749718  1
  Sn  Sn12  1  0.000393  0.603615  0.749718  1
  Sn  Sn13  1  0.603222  0.603615  0.250282  1
  Sn  Sn14  1  0.396385  0.999607  0.250282  1
  Sn  Sn15  1  0.000393  0.396778  0.250282  1
