# generated using pymatgen
data_Ho4Si4RuRh3
_symmetry_space_group_name_H-M   'P 1'
_cell_length_a   4.28250600
_cell_length_b   6.91531944
_cell_length_c   7.25580250
_cell_angle_alpha   90.04154986
_cell_angle_beta   90.00000000
_cell_angle_gamma   90.00000000
_symmetry_Int_Tables_number   1
_chemical_formula_structural   Ho4Si4RuRh3
_chemical_formula_sum   'Ho4 Si4 Ru1 Rh3'
_cell_volume   214.87978693
_cell_formula_units_Z   1
loop_
 _symmetry_equiv_pos_site_id
 _symmetry_equiv_pos_as_xyz
  1  'x, y, z'
loop_
 _atom_site_type_symbol
 _atom_site_label
 _atom_site_symmetry_multiplicity
 _atom_site_fract_x
 _atom_site_fract_y
 _atom_site_fract_z
 _atom_site_occupancy
  Ho  Ho0  1  0.250000  0.990343  0.811834  1
  Ho  Ho1  1  0.750000  0.007525  0.189209  1
  Ho  Ho2  1  0.250000  0.495239  0.686337  1
  Ho  Ho3  1  0.750000  0.505910  0.313431  1
  Si  Si4  1  0.250000  0.300499  0.104238  1
  Si  Si5  1  0.750000  0.701255  0.900325  1
  Si  Si6  1  0.250000  0.797273  0.387364  1
  Si  Si7  1  0.750000  0.201799  0.607801  1
  Ru  Ru8  1  0.250000  0.653209  0.066422  1
  Rh  Rh9  1  0.750000  0.845174  0.569823  1
  Rh  Rh10  1  0.250000  0.156870  0.431081  1
  Rh  Rh11  1  0.750000  0.344904  0.932135  1
