# generated using pymatgen
data_Tb3Y3(Ho2Si3)2
_symmetry_space_group_name_H-M   'P 1'
_cell_length_a   8.45376024
_cell_length_b   8.44653794
_cell_length_c   6.35386000
_cell_angle_alpha   90.00000000
_cell_angle_beta   90.00000000
_cell_angle_gamma   120.00071310
_symmetry_Int_Tables_number   1
_chemical_formula_structural   Tb3Y3(Ho2Si3)2
_chemical_formula_sum   'Tb3 Y3 Ho4 Si6'
_cell_volume   392.91066397
_cell_formula_units_Z   1
loop_
 _symmetry_equiv_pos_site_id
 _symmetry_equiv_pos_as_xyz
  1  'x, y, z'
loop_
 _atom_site_type_symbol
 _atom_site_label
 _atom_site_symmetry_multiplicity
 _atom_site_fract_x
 _atom_site_fract_y
 _atom_site_fract_z
 _atom_site_occupancy
  Tb  Tb0  1  0.000031  0.756744  0.750000  1
  Tb  Tb1  1  0.999985  0.243185  0.250000  1
  Tb  Tb2  1  0.756629  0.756678  0.250000  1
  Y  Y3  1  0.756580  0.000010  0.750000  1
  Y  Y4  1  0.243310  0.243291  0.750000  1
  Y  Y5  1  0.243408  0.000036  0.250000  1
  Ho  Ho6  1  0.333385  0.666709  0.500027  1
  Ho  Ho7  1  0.666560  0.333238  0.999975  1
  Ho  Ho8  1  0.666560  0.333238  0.500025  1
  Ho  Ho9  1  0.333385  0.666709  0.999973  1
  Si  Si10  1  0.394982  0.000198  0.750000  1
  Si  Si11  1  0.394805  0.394681  0.250000  1
  Si  Si12  1  0.000209  0.605436  0.250000  1
  Si  Si13  1  0.000079  0.394507  0.750000  1
  Si  Si14  1  0.605135  0.605249  0.750000  1
  Si  Si15  1  0.604957  0.000091  0.250000  1
