# generated using pymatgen
data_Bi3Os2PbO11
_symmetry_space_group_name_H-M   'P 1'
_cell_length_a   6.75018363
_cell_length_b   7.54084810
_cell_length_c   10.10830979
_cell_angle_alpha   100.78163763
_cell_angle_beta   92.23716539
_cell_angle_gamma   89.92321149
_symmetry_Int_Tables_number   1
_chemical_formula_structural   Bi3Os2PbO11
_chemical_formula_sum   'Bi6 Os4 Pb2 O22'
_cell_volume   505.05677834
_cell_formula_units_Z   2
loop_
 _symmetry_equiv_pos_site_id
 _symmetry_equiv_pos_as_xyz
  1  'x, y, z'
loop_
 _atom_site_type_symbol
 _atom_site_label
 _atom_site_symmetry_multiplicity
 _atom_site_fract_x
 _atom_site_fract_y
 _atom_site_fract_z
 _atom_site_occupancy
  Bi  Bi0  1  0.746278  0.871965  0.477262  1
  Bi  Bi1  1  0.253722  0.128035  0.522738  1
  Bi  Bi2  1  0.451472  0.954409  0.821751  1
  Bi  Bi3  1  0.548528  0.045591  0.178249  1
  Bi  Bi4  1  0.423713  0.457831  0.825138  1
  Bi  Bi5  1  0.576287  0.542169  0.174862  1
  Os  Os6  1  0.937204  0.705612  0.812206  1
  Os  Os7  1  0.062796  0.294388  0.187794  1
  Os  Os8  1  0.937204  0.204817  0.815171  1
  Os  Os9  1  0.062796  0.795183  0.184829  1
  Pb  Pb10  1  0.751227  0.373032  0.489564  1
  Pb  Pb11  1  0.248773  0.626968  0.510436  1
  O  O12  1  0.229874  0.715692  0.772161  1
  O  O13  1  0.770126  0.284308  0.227839  1
  O  O14  1  0.643389  0.690102  0.833451  1
  O  O15  1  0.356611  0.309898  0.166549  1
  O  O16  1  0.645241  0.231531  0.838688  1
  O  O17  1  0.354759  0.768469  0.161312  1
  O  O18  1  0.900898  0.137693  0.621913  1
  O  O19  1  0.099102  0.862307  0.378087  1
  O  O20  1  0.230325  0.173594  0.774761  1
  O  O21  1  0.769675  0.826406  0.225239  1
  O  O22  1  0.891666  0.674922  0.619801  1
  O  O23  1  0.108334  0.325078  0.380199  1
  O  O24  1  0.041542  0.549281  0.202229  1
  O  O25  1  0.958458  0.450719  0.797771  1
  O  O26  1  0.000183  0.736135  0.998668  1
  O  O27  1  0.999817  0.263865  0.001332  1
  O  O28  1  0.572179  0.607241  0.389764  1
  O  O29  1  0.427821  0.392759  0.610236  1
  O  O30  1  0.085763  0.041670  0.172621  1
  O  O31  1  0.914237  0.958330  0.827379  1
  O  O32  1  0.532658  0.087240  0.392258  1
  O  O33  1  0.467342  0.912760  0.607742  1
