# generated using pymatgen
data_Sr2TlCd2Hg
_symmetry_space_group_name_H-M   'P 1'
_cell_length_a   8.04542400
_cell_length_b   5.06660600
_cell_length_c   8.79089800
_cell_angle_alpha   90.00000000
_cell_angle_beta   90.00000000
_cell_angle_gamma   90.00000000
_symmetry_Int_Tables_number   1
_chemical_formula_structural   Sr2TlCd2Hg
_chemical_formula_sum   'Sr4 Tl2 Cd4 Hg2'
_cell_volume   358.34331813
_cell_formula_units_Z   2
loop_
 _symmetry_equiv_pos_site_id
 _symmetry_equiv_pos_as_xyz
  1  'x, y, z'
loop_
 _atom_site_type_symbol
 _atom_site_label
 _atom_site_symmetry_multiplicity
 _atom_site_fract_x
 _atom_site_fract_y
 _atom_site_fract_z
 _atom_site_occupancy
  Sr  Sr0  1  0.999490  0.750000  0.213917  1
  Sr  Sr1  1  0.499489  0.750000  0.286083  1
  Sr  Sr2  1  0.501153  0.249999  0.707758  1
  Sr  Sr3  1  0.001152  0.249999  0.792243  1
  Tl  Tl4  1  0.199906  0.750000  0.587345  1
  Tl  Tl5  1  0.699906  0.750000  0.912656  1
  Cd  Cd6  1  0.699992  0.249999  0.085767  1
  Cd  Cd7  1  0.199992  0.249999  0.414232  1
  Cd  Cd8  1  0.804241  0.750000  0.581812  1
  Cd  Cd9  1  0.304241  0.750000  0.918189  1
  Hg  Hg10  1  0.295220  0.249999  0.086061  1
  Hg  Hg11  1  0.795219  0.249999  0.413938  1
