# generated using pymatgen
data_Eu2(SbPd3)3
_symmetry_space_group_name_H-M   'P 1'
_cell_length_a   8.11464706
_cell_length_b   8.11464719
_cell_length_c   9.45570400
_cell_angle_alpha   90.00000000
_cell_angle_beta   90.00000000
_cell_angle_gamma   119.33932014
_symmetry_Int_Tables_number   1
_chemical_formula_structural   Eu2(SbPd3)3
_chemical_formula_sum   'Eu4 Sb6 Pd18'
_cell_volume   542.77113423
_cell_formula_units_Z   2
loop_
 _symmetry_equiv_pos_site_id
 _symmetry_equiv_pos_as_xyz
  1  'x, y, z'
loop_
 _atom_site_type_symbol
 _atom_site_label
 _atom_site_symmetry_multiplicity
 _atom_site_fract_x
 _atom_site_fract_y
 _atom_site_fract_z
 _atom_site_occupancy
  Eu  Eu0  1  0.328128  0.018080  0.750000  1
  Eu  Eu1  1  0.671872  0.981920  0.250000  1
  Eu  Eu2  1  0.018080  0.328128  0.750000  1
  Eu  Eu3  1  0.981920  0.671872  0.250000  1
  Sb  Sb4  1  0.000000  0.000000  0.500000  1
  Sb  Sb5  1  0.677881  0.322119  0.000000  1
  Sb  Sb6  1  0.322119  0.677881  0.500000  1
  Sb  Sb7  1  0.322119  0.677881  0.000000  1
  Sb  Sb8  1  0.000000  0.000000  0.000000  1
  Sb  Sb9  1  0.677881  0.322119  0.500000  1
  Pd  Pd10  1  0.333537  0.333537  0.967966  1
  Pd  Pd11  1  0.448163  0.645692  0.750000  1
  Pd  Pd12  1  0.551837  0.354308  0.250000  1
  Pd  Pd13  1  0.645692  0.448163  0.750000  1
  Pd  Pd14  1  0.002556  0.341361  0.083011  1
  Pd  Pd15  1  0.997444  0.658639  0.583011  1
  Pd  Pd16  1  0.341361  0.002556  0.416989  1
  Pd  Pd17  1  0.658639  0.997444  0.916989  1
  Pd  Pd18  1  0.997444  0.658639  0.916989  1
  Pd  Pd19  1  0.002556  0.341361  0.416989  1
  Pd  Pd20  1  0.658639  0.997444  0.583011  1
  Pd  Pd21  1  0.856451  0.856451  0.750000  1
  Pd  Pd22  1  0.333537  0.333537  0.532034  1
  Pd  Pd23  1  0.666463  0.666463  0.032034  1
  Pd  Pd24  1  0.341361  0.002556  0.083011  1
  Pd  Pd25  1  0.666463  0.666463  0.467966  1
  Pd  Pd26  1  0.143549  0.143549  0.250000  1
  Pd  Pd27  1  0.354308  0.551837  0.250000  1
