# generated using pymatgen
data_Dy7Ho3Ga3NiBi2
_symmetry_space_group_name_H-M   'P 1'
_cell_length_a   8.55807927
_cell_length_b   8.55752733
_cell_length_c   8.74889433
_cell_angle_alpha   124.28562096
_cell_angle_beta   124.26777435
_cell_angle_gamma   81.28763989
_symmetry_Int_Tables_number   1
_chemical_formula_structural   Dy7Ho3Ga3NiBi2
_chemical_formula_sum   'Dy7 Ho3 Ga3 Ni1 Bi2'
_cell_volume   424.42501111
_cell_formula_units_Z   1
loop_
 _symmetry_equiv_pos_site_id
 _symmetry_equiv_pos_as_xyz
  1  'x, y, z'
loop_
 _atom_site_type_symbol
 _atom_site_label
 _atom_site_symmetry_multiplicity
 _atom_site_fract_x
 _atom_site_fract_y
 _atom_site_fract_z
 _atom_site_occupancy
  Dy  Dy0  1  0.203757  0.720296  0.204498  1
  Dy  Dy1  1  0.484449  0.001018  0.205309  1
  Dy  Dy2  1  0.303715  0.459205  0.500226  1
  Dy  Dy3  1  0.040551  0.196615  0.500119  1
  Dy  Dy4  1  0.499384  0.015971  0.795165  1
  Dy  Dy5  1  0.705271  0.516190  0.500193  1
  Dy  Dy6  1  0.983642  0.794951  0.500017  1
  Ho  Ho7  1  0.994570  0.997190  0.991509  1
  Ho  Ho8  1  0.503123  0.505115  0.008035  1
  Ho  Ho9  1  0.778284  0.295149  0.794487  1
  Ga  Ga10  1  0.146896  0.644670  0.791540  1
  Ga  Ga11  1  0.855149  0.353034  0.207923  1
  Ga  Ga12  1  0.635095  0.866011  0.500631  1
  Ni  Ni13  1  0.377436  0.123637  0.500432  1
  Bi  Bi14  1  0.244103  0.255685  0.999921  1
  Bi  Bi15  1  0.744574  0.755263  0.999995  1
