# generated using pymatgen
data_Gd3CrRuC6
_symmetry_space_group_name_H-M   'P 1'
_cell_length_a   8.29525600
_cell_length_b   8.29525536
_cell_length_c   5.03381900
_cell_angle_alpha   90.00000000
_cell_angle_beta   90.00000000
_cell_angle_gamma   119.99999136
_symmetry_Int_Tables_number   1
_chemical_formula_structural   Gd3CrRuC6
_chemical_formula_sum   'Gd6 Cr2 Ru2 C12'
_cell_volume   299.97690393
_cell_formula_units_Z   2
loop_
 _symmetry_equiv_pos_site_id
 _symmetry_equiv_pos_as_xyz
  1  'x, y, z'
loop_
 _atom_site_type_symbol
 _atom_site_label
 _atom_site_symmetry_multiplicity
 _atom_site_fract_x
 _atom_site_fract_y
 _atom_site_fract_z
 _atom_site_occupancy
  Gd  Gd0  1  0.625052  0.689336  0.750000  1
  Gd  Gd1  1  0.935717  0.625052  0.250000  1
  Gd  Gd2  1  0.689336  0.064283  0.250000  1
  Gd  Gd3  1  0.310664  0.935717  0.750000  1
  Gd  Gd4  1  0.064283  0.374948  0.750000  1
  Gd  Gd5  1  0.374948  0.310664  0.250000  1
  Cr  Cr6  1  0.000000  0.000000  0.500000  1
  Cr  Cr7  1  0.000000  0.000000  0.000000  1
  Ru  Ru8  1  0.666667  0.333333  0.750000  1
  Ru  Ru9  1  0.333333  0.666667  0.250000  1
  C  C10  1  0.960029  0.775950  0.750000  1
  C  C11  1  0.184080  0.960029  0.250000  1
  C  C12  1  0.775950  0.815920  0.250000  1
  C  C13  1  0.224050  0.184080  0.750000  1
  C  C14  1  0.815920  0.039971  0.750000  1
  C  C15  1  0.039971  0.224050  0.250000  1
  C  C16  1  0.875141  0.587616  0.750000  1
  C  C17  1  0.287524  0.875141  0.250000  1
  C  C18  1  0.587616  0.712476  0.250000  1
  C  C19  1  0.412384  0.287524  0.750000  1
  C  C20  1  0.124859  0.412384  0.250000  1
  C  C21  1  0.712476  0.124859  0.750000  1
