# generated using pymatgen
data_Tm2Sc3SnSb2
_symmetry_space_group_name_H-M   'P 1'
_cell_length_a   8.70243200
_cell_length_b   8.60810923
_cell_length_c   6.07871500
_cell_angle_alpha   90.00000000
_cell_angle_beta   90.00000000
_cell_angle_gamma   120.36313574
_symmetry_Int_Tables_number   1
_chemical_formula_structural   Tm2Sc3SnSb2
_chemical_formula_sum   'Tm4 Sc6 Sn2 Sb4'
_cell_volume   392.90720596
_cell_formula_units_Z   2
loop_
 _symmetry_equiv_pos_site_id
 _symmetry_equiv_pos_as_xyz
  1  'x, y, z'
loop_
 _atom_site_type_symbol
 _atom_site_label
 _atom_site_symmetry_multiplicity
 _atom_site_fract_x
 _atom_site_fract_y
 _atom_site_fract_z
 _atom_site_occupancy
  Tm  Tm0  1  0.996863  0.239242  0.250000  1
  Tm  Tm1  1  0.757621  0.760758  0.250000  1
  Tm  Tm2  1  0.242379  0.239242  0.750000  1
  Tm  Tm3  1  0.003137  0.760758  0.750000  1
  Sc  Sc4  1  0.333058  0.666118  0.000000  1
  Sc  Sc5  1  0.666942  0.333882  0.500000  1
  Sc  Sc6  1  0.666942  0.333882  0.000000  1
  Sc  Sc7  1  0.333058  0.666118  0.500000  1
  Sc  Sc8  1  0.245525  0.000000  0.250000  1
  Sc  Sc9  1  0.754475  0.000000  0.750000  1
  Sn  Sn10  1  0.598614  0.000000  0.250000  1
  Sn  Sn11  1  0.401386  0.000000  0.750000  1
  Sb  Sb12  1  0.003033  0.610422  0.250000  1
  Sb  Sb13  1  0.392610  0.389578  0.250000  1
  Sb  Sb14  1  0.607390  0.610422  0.750000  1
  Sb  Sb15  1  0.996967  0.389578  0.750000  1
