# generated using pymatgen
data_Al2Hg2I3Br5
_symmetry_space_group_name_H-M   'P 1'
_cell_length_a   7.34443865
_cell_length_b   7.33681347
_cell_length_c   10.63912200
_cell_angle_alpha   83.23789706
_cell_angle_beta   77.61877362
_cell_angle_gamma   62.52326373
_symmetry_Int_Tables_number   1
_chemical_formula_structural   Al2Hg2I3Br5
_chemical_formula_sum   'Al2 Hg2 I3 Br5'
_cell_volume   496.67264594
_cell_formula_units_Z   1
loop_
 _symmetry_equiv_pos_site_id
 _symmetry_equiv_pos_as_xyz
  1  'x, y, z'
loop_
 _atom_site_type_symbol
 _atom_site_label
 _atom_site_symmetry_multiplicity
 _atom_site_fract_x
 _atom_site_fract_y
 _atom_site_fract_z
 _atom_site_occupancy
  Al  Al0  1  0.375495  0.860248  0.759488  1
  Al  Al1  1  0.627291  0.139009  0.235131  1
  Hg  Hg2  1  0.919471  0.517844  0.895193  1
  Hg  Hg3  1  0.074810  0.491677  0.103449  1
  I  I4  1  0.750370  0.548489  0.678256  1
  I  I5  1  0.247424  0.438936  0.322271  1
  I  I6  1  0.329838  0.829246  0.003683  1
  Br  Br7  1  0.665548  0.179301  0.014259  1
  Br  Br8  1  0.140462  0.806842  0.676239  1
  Br  Br9  1  0.857412  0.195024  0.321595  1
  Br  Br10  1  0.384903  0.164714  0.687315  1
  Br  Br11  1  0.626977  0.828668  0.303122  1
