# generated using pymatgen
data_Y3ErFe4(CoO5)4
_symmetry_space_group_name_H-M   'P 1'
_cell_length_a   5.77231303
_cell_length_b   7.28625571
_cell_length_c   8.51060086
_cell_angle_alpha   90.05040582
_cell_angle_beta   90.01014072
_cell_angle_gamma   90.00547386
_symmetry_Int_Tables_number   1
_chemical_formula_structural   Y3ErFe4(CoO5)4
_chemical_formula_sum   'Y3 Er1 Fe4 Co4 O20'
_cell_volume   357.94337558
_cell_formula_units_Z   1
loop_
 _symmetry_equiv_pos_site_id
 _symmetry_equiv_pos_as_xyz
  1  'x, y, z'
loop_
 _atom_site_type_symbol
 _atom_site_label
 _atom_site_symmetry_multiplicity
 _atom_site_fract_x
 _atom_site_fract_y
 _atom_site_fract_z
 _atom_site_occupancy
  Y  Y0  1  0.499952  0.365878  0.330100  1
  Y  Y1  1  0.500044  0.634316  0.669721  1
  Y  Y2  1  0.499966  0.133733  0.830805  1
  Er  Er3  1  0.500041  0.865369  0.169613  1
  Fe  Fe4  1  0.000038  0.109296  0.147329  1
  Fe  Fe5  1  0.999995  0.890095  0.853202  1
  Fe  Fe6  1  0.999980  0.390249  0.647222  1
  Fe  Fe7  1  0.999982  0.610104  0.352204  1
  Co  Co8  1  0.250454  0.999787  0.499694  1
  Co  Co9  1  0.749547  0.999834  0.499611  1
  Co  Co10  1  0.749593  0.500538  0.000207  1
  Co  Co11  1  0.250405  0.500555  0.000226  1
  O  O12  1  0.234806  0.998275  0.001318  1
  O  O13  1  0.765203  0.998291  0.001333  1
  O  O14  1  0.766748  0.499957  0.499759  1
  O  O15  1  0.233246  0.499962  0.499736  1
  O  O16  1  0.999923  0.353810  0.069828  1
  O  O17  1  0.000066  0.646217  0.930578  1
  O  O18  1  0.999873  0.146435  0.569384  1
  O  O19  1  0.000135  0.853874  0.430752  1
  O  O20  1  0.260083  0.104696  0.297340  1
  O  O21  1  0.740991  0.894026  0.702003  1
  O  O22  1  0.258961  0.894009  0.701947  1
  O  O23  1  0.740899  0.394196  0.798223  1
  O  O24  1  0.739972  0.104715  0.297384  1
  O  O25  1  0.259991  0.608344  0.201705  1
  O  O26  1  0.739990  0.608319  0.201716  1
  O  O27  1  0.259120  0.394197  0.798204  1
  O  O28  1  0.499925  0.342466  0.056376  1
  O  O29  1  0.500082  0.658963  0.944465  1
  O  O30  1  0.499849  0.157681  0.556218  1
  O  O31  1  0.500142  0.841814  0.441796  1
