# generated using pymatgen
data_Nd15Dy5Si15Ge
_symmetry_space_group_name_H-M   'P 1'
_cell_length_a   7.61737903
_cell_length_b   7.95177443
_cell_length_c   15.03671000
_cell_angle_alpha   89.96923291
_cell_angle_beta   89.92791183
_cell_angle_gamma   89.93393817
_symmetry_Int_Tables_number   1
_chemical_formula_structural   Nd15Dy5Si15Ge
_chemical_formula_sum   'Nd15 Dy5 Si15 Ge1'
_cell_volume   910.79732579
_cell_formula_units_Z   1
loop_
 _symmetry_equiv_pos_site_id
 _symmetry_equiv_pos_as_xyz
  1  'x, y, z'
loop_
 _atom_site_type_symbol
 _atom_site_label
 _atom_site_symmetry_multiplicity
 _atom_site_fract_x
 _atom_site_fract_y
 _atom_site_fract_z
 _atom_site_occupancy
  Nd  Nd0  1  0.464509  0.686538  0.898675  1
  Nd  Nd1  1  0.965351  0.814659  0.899069  1
  Nd  Nd2  1  0.188699  0.678945  0.122943  1
  Nd  Nd3  1  0.692080  0.822317  0.121421  1
  Nd  Nd4  1  0.309941  0.179271  0.876072  1
  Nd  Nd5  1  0.188280  0.678184  0.379304  1
  Nd  Nd6  1  0.034903  0.184329  0.098914  1
  Nd  Nd7  1  0.311119  0.179845  0.622671  1
  Nd  Nd8  1  0.535553  0.311708  0.401626  1
  Nd  Nd9  1  0.810177  0.322029  0.876573  1
  Nd  Nd10  1  0.965120  0.814940  0.599902  1
  Nd  Nd11  1  0.465404  0.686893  0.599533  1
  Nd  Nd12  1  0.032748  0.183606  0.402648  1
  Nd  Nd13  1  0.691354  0.821681  0.378873  1
  Nd  Nd14  1  0.534773  0.311502  0.098811  1
  Dy  Dy15  1  0.140679  0.514637  0.749559  1
  Dy  Dy16  1  0.810829  0.323252  0.623842  1
  Dy  Dy17  1  0.861719  0.483704  0.250542  1
  Dy  Dy18  1  0.358707  0.013893  0.250519  1
  Dy  Dy19  1  0.640967  0.988333  0.749236  1
  Si  Si20  1  0.241047  0.369628  0.250596  1
  Si  Si21  1  0.858103  0.522542  0.461539  1
  Si  Si22  1  0.515640  0.403281  0.747386  1
  Si  Si23  1  0.636352  0.026070  0.957402  1
  Si  Si24  1  0.009680  0.101437  0.747866  1
  Si  Si25  1  0.757067  0.625568  0.747868  1
  Si  Si26  1  0.743091  0.126500  0.250588  1
  Si  Si27  1  0.364475  0.973836  0.459605  1
  Si  Si28  1  0.987277  0.903093  0.250864  1
  Si  Si29  1  0.362458  0.972943  0.040243  1
  Si  Si30  1  0.642366  0.030843  0.542188  1
  Si  Si31  1  0.138330  0.474535  0.958665  1
  Si  Si32  1  0.132002  0.472188  0.543409  1
  Si  Si33  1  0.863175  0.524381  0.041504  1
  Si  Si34  1  0.254887  0.873608  0.748885  1
  Ge  Ge35  1  0.491140  0.599281  0.250662  1
