# generated using pymatgen
data_HfZr9(ReO)3
_symmetry_space_group_name_H-M   'P 1'
_cell_length_a   8.67310400
_cell_length_b   8.67310366
_cell_length_c   8.60311700
_cell_angle_alpha   90.00000000
_cell_angle_beta   90.00000000
_cell_angle_gamma   120.00000130
_symmetry_Int_Tables_number   1
_chemical_formula_structural   HfZr9(ReO)3
_chemical_formula_sum   'Hf2 Zr18 Re6 O6'
_cell_volume   560.44828732
_cell_formula_units_Z   2
loop_
 _symmetry_equiv_pos_site_id
 _symmetry_equiv_pos_as_xyz
  1  'x, y, z'
loop_
 _atom_site_type_symbol
 _atom_site_label
 _atom_site_symmetry_multiplicity
 _atom_site_fract_x
 _atom_site_fract_y
 _atom_site_fract_z
 _atom_site_occupancy
  Hf  Hf0  1  0.000000  0.000000  0.000000  1
  Hf  Hf1  1  0.000000  0.000000  0.500000  1
  Zr  Zr2  1  0.453923  0.907846  0.250000  1
  Zr  Zr3  1  0.546077  0.092154  0.750000  1
  Zr  Zr4  1  0.092154  0.546077  0.250000  1
  Zr  Zr5  1  0.907846  0.453923  0.750000  1
  Zr  Zr6  1  0.453923  0.546077  0.250000  1
  Zr  Zr7  1  0.546077  0.453923  0.750000  1
  Zr  Zr8  1  0.204214  0.408428  0.562597  1
  Zr  Zr9  1  0.795786  0.591572  0.437403  1
  Zr  Zr10  1  0.591572  0.795786  0.562597  1
  Zr  Zr11  1  0.795786  0.591572  0.062597  1
  Zr  Zr12  1  0.408428  0.204214  0.437403  1
  Zr  Zr13  1  0.204214  0.408428  0.937403  1
  Zr  Zr14  1  0.204214  0.795786  0.562597  1
  Zr  Zr15  1  0.408428  0.204214  0.062597  1
  Zr  Zr16  1  0.795786  0.204214  0.437403  1
  Zr  Zr17  1  0.591572  0.795786  0.937403  1
  Zr  Zr18  1  0.795786  0.204214  0.062597  1
  Zr  Zr19  1  0.204214  0.795786  0.937403  1
  Re  Re20  1  0.113362  0.226724  0.250000  1
  Re  Re21  1  0.886638  0.773276  0.750000  1
  Re  Re22  1  0.773276  0.886638  0.250000  1
  Re  Re23  1  0.226724  0.113362  0.750000  1
  Re  Re24  1  0.113362  0.886638  0.250000  1
  Re  Re25  1  0.886638  0.113362  0.750000  1
  O  O26  1  0.500000  0.000000  0.000000  1
  O  O27  1  0.000000  0.500000  0.000000  1
  O  O28  1  0.500000  0.000000  0.500000  1
  O  O29  1  0.500000  0.500000  0.000000  1
  O  O30  1  0.000000  0.500000  0.500000  1
  O  O31  1  0.500000  0.500000  0.500000  1
