# generated using pymatgen
data_Lu5Th15(Ir2Os)4
_symmetry_space_group_name_H-M   'P 1'
_cell_length_a   11.24554819
_cell_length_b   11.22520112
_cell_length_c   6.35696200
_cell_angle_alpha   89.71022258
_cell_angle_beta   90.01066888
_cell_angle_gamma   90.03023515
_symmetry_Int_Tables_number   1
_chemical_formula_structural   Lu5Th15(Ir2Os)4
_chemical_formula_sum   'Lu5 Th15 Ir8 Os4'
_cell_volume   802.45142995
_cell_formula_units_Z   1
loop_
 _symmetry_equiv_pos_site_id
 _symmetry_equiv_pos_as_xyz
  1  'x, y, z'
loop_
 _atom_site_type_symbol
 _atom_site_label
 _atom_site_symmetry_multiplicity
 _atom_site_fract_x
 _atom_site_fract_y
 _atom_site_fract_z
 _atom_site_occupancy
  Lu  Lu0  1  0.087419  0.291354  0.117547  1
  Lu  Lu1  1  0.999658  0.000103  0.501316  1
  Lu  Lu2  1  0.001578  0.005515  0.001947  1
  Lu  Lu3  1  0.501408  0.499017  0.002557  1
  Lu  Lu4  1  0.498801  0.499337  0.502147  1
  Th  Th5  1  0.287925  0.091726  0.378210  1
  Th  Th6  1  0.287417  0.912044  0.878558  1
  Th  Th7  1  0.711435  0.089068  0.880158  1
  Th  Th8  1  0.711031  0.911049  0.381074  1
  Th  Th9  1  0.587764  0.788860  0.880779  1
  Th  Th10  1  0.589352  0.211815  0.379979  1
  Th  Th11  1  0.409975  0.789323  0.379771  1
  Th  Th12  1  0.410496  0.212144  0.880205  1
  Th  Th13  1  0.208616  0.407480  0.618723  1
  Th  Th14  1  0.210417  0.583149  0.119965  1
  Th  Th15  1  0.793966  0.408913  0.118853  1
  Th  Th16  1  0.788010  0.588374  0.619230  1
  Th  Th17  1  0.912177  0.711226  0.117510  1
  Th  Th18  1  0.914543  0.288635  0.619743  1
  Th  Th19  1  0.089413  0.711009  0.619861  1
  Ir  Ir20  1  0.847482  0.150430  0.251816  1
  Ir  Ir21  1  0.847782  0.847819  0.751496  1
  Ir  Ir22  1  0.152526  0.151908  0.746599  1
  Ir  Ir23  1  0.151834  0.847793  0.249763  1
  Ir  Ir24  1  0.652726  0.347408  0.751937  1
  Ir  Ir25  1  0.651389  0.652546  0.250789  1
  Ir  Ir26  1  0.348353  0.346191  0.253467  1
  Ir  Ir27  1  0.348205  0.652125  0.751192  1
  Os  Os28  1  0.498898  0.000163  0.115601  1
  Os  Os29  1  0.500148  0.000327  0.616032  1
  Os  Os30  1  0.000515  0.500727  0.880204  1
  Os  Os31  1  0.998738  0.502424  0.382972  1
