# generated using pymatgen
data_V20Ga9Ni
_symmetry_space_group_name_H-M   'P 1'
_cell_length_a   9.28089308
_cell_length_b   9.28089371
_cell_length_c   4.74415200
_cell_angle_alpha   90.00000000
_cell_angle_beta   90.00000000
_cell_angle_gamma   89.97799128
_symmetry_Int_Tables_number   1
_chemical_formula_structural   V20Ga9Ni
_chemical_formula_sum   'V20 Ga9 Ni1'
_cell_volume   408.63741796
_cell_formula_units_Z   1
loop_
 _symmetry_equiv_pos_site_id
 _symmetry_equiv_pos_as_xyz
  1  'x, y, z'
loop_
 _atom_site_type_symbol
 _atom_site_label
 _atom_site_symmetry_multiplicity
 _atom_site_fract_x
 _atom_site_fract_y
 _atom_site_fract_z
 _atom_site_occupancy
  V  V0  1  0.396290  0.396290  0.000000  1
  V  V1  1  0.901299  0.098701  0.500000  1
  V  V2  1  0.098701  0.901299  0.500000  1
  V  V3  1  0.603710  0.603710  0.000000  1
  V  V4  1  0.126690  0.466938  0.000000  1
  V  V5  1  0.964708  0.371216  0.500000  1
  V  V6  1  0.035292  0.628784  0.500000  1
  V  V7  1  0.873310  0.533062  0.000000  1
  V  V8  1  0.371216  0.964708  0.500000  1
  V  V9  1  0.628784  0.035292  0.500000  1
  V  V10  1  0.466938  0.126690  0.000000  1
  V  V11  1  0.533062  0.873310  0.000000  1
  V  V12  1  0.179917  0.179917  0.254229  1
  V  V13  1  0.682171  0.317829  0.754466  1
  V  V14  1  0.317829  0.682171  0.754466  1
  V  V15  1  0.820083  0.820083  0.254229  1
  V  V16  1  0.317829  0.682171  0.245534  1
  V  V17  1  0.682171  0.317829  0.245534  1
  V  V18  1  0.179917  0.179917  0.745771  1
  V  V19  1  0.820083  0.820083  0.745771  1
  Ga  Ga20  1  0.500000  0.500000  0.500000  1
  Ga  Ga21  1  0.259206  0.937237  0.000000  1
  Ga  Ga22  1  0.433675  0.232951  0.500000  1
  Ga  Ga23  1  0.566325  0.767049  0.500000  1
  Ga  Ga24  1  0.740794  0.062763  0.000000  1
  Ga  Ga25  1  0.232951  0.433675  0.500000  1
  Ga  Ga26  1  0.767049  0.566325  0.500000  1
  Ga  Ga27  1  0.937237  0.259206  0.000000  1
  Ga  Ga28  1  0.062763  0.740794  0.000000  1
  Ni  Ni29  1  0.000000  0.000000  0.000000  1
