# generated using pymatgen
data_CaY(SnRh2)4
_symmetry_space_group_name_H-M   'P 1'
_cell_length_a   4.40480000
_cell_length_b   9.72619700
_cell_length_c   11.87763700
_cell_angle_alpha   90.00000000
_cell_angle_beta   90.00000000
_cell_angle_gamma   90.00000000
_symmetry_Int_Tables_number   1
_chemical_formula_structural   CaY(SnRh2)4
_chemical_formula_sum   'Ca2 Y2 Sn8 Rh16'
_cell_volume   508.86116071
_cell_formula_units_Z   2
loop_
 _symmetry_equiv_pos_site_id
 _symmetry_equiv_pos_as_xyz
  1  'x, y, z'
loop_
 _atom_site_type_symbol
 _atom_site_label
 _atom_site_symmetry_multiplicity
 _atom_site_fract_x
 _atom_site_fract_y
 _atom_site_fract_z
 _atom_site_occupancy
  Ca  Ca0  1  0.250000  0.150070  0.827386  1
  Ca  Ca1  1  0.250000  0.349930  0.327386  1
  Y  Y2  1  0.750000  0.849129  0.173126  1
  Y  Y3  1  0.750000  0.650871  0.673126  1
  Sn  Sn4  1  0.250000  0.413402  0.637716  1
  Sn  Sn5  1  0.250000  0.086598  0.137716  1
  Sn  Sn6  1  0.750000  0.583309  0.362359  1
  Sn  Sn7  1  0.750000  0.916691  0.862359  1
  Sn  Sn8  1  0.250000  0.616562  0.064252  1
  Sn  Sn9  1  0.250000  0.883438  0.564252  1
  Sn  Sn10  1  0.750000  0.382341  0.935564  1
  Sn  Sn11  1  0.750000  0.117659  0.435564  1
  Rh  Rh12  1  0.250000  0.620371  0.497141  1
  Rh  Rh13  1  0.250000  0.879629  0.997141  1
  Rh  Rh14  1  0.750000  0.381401  0.505337  1
  Rh  Rh15  1  0.750000  0.118599  0.005337  1
  Rh  Rh16  1  0.250000  0.711972  0.275946  1
  Rh  Rh17  1  0.250000  0.788028  0.775946  1
  Rh  Rh18  1  0.750000  0.292615  0.724409  1
  Rh  Rh19  1  0.750000  0.207385  0.224409  1
  Rh  Rh20  1  0.250000  0.165406  0.563565  1
  Rh  Rh21  1  0.250000  0.334594  0.063565  1
  Rh  Rh22  1  0.750000  0.832260  0.435158  1
  Rh  Rh23  1  0.750000  0.667740  0.935158  1
  Rh  Rh24  1  0.250000  0.992509  0.343821  1
  Rh  Rh25  1  0.250000  0.507491  0.843821  1
  Rh  Rh26  1  0.750000  0.002569  0.654220  1
  Rh  Rh27  1  0.750000  0.497431  0.154220  1
