# generated using pymatgen
data_Y4Al16Co5Si2Ni
_symmetry_space_group_name_H-M   'P 1'
_cell_length_a   7.37402148
_cell_length_b   7.37402202
_cell_length_c   9.18949100
_cell_angle_alpha   90.00119765
_cell_angle_beta   90.00120109
_cell_angle_gamma   119.27794834
_symmetry_Int_Tables_number   1
_chemical_formula_structural   Y4Al16Co5Si2Ni
_chemical_formula_sum   'Y4 Al16 Co5 Si2 Ni1'
_cell_volume   435.85800449
_cell_formula_units_Z   1
loop_
 _symmetry_equiv_pos_site_id
 _symmetry_equiv_pos_as_xyz
  1  'x, y, z'
loop_
 _atom_site_type_symbol
 _atom_site_label
 _atom_site_symmetry_multiplicity
 _atom_site_fract_x
 _atom_site_fract_y
 _atom_site_fract_z
 _atom_site_occupancy
  Y  Y0  1  0.992850  0.676636  0.250245  1
  Y  Y1  1  0.006192  0.322725  0.749911  1
  Y  Y2  1  0.677275  0.993808  0.250089  1
  Y  Y3  1  0.323364  0.007150  0.749755  1
  Al  Al4  1  0.334246  0.334200  0.545513  1
  Al  Al5  1  0.665223  0.667994  0.047319  1
  Al  Al6  1  0.332006  0.334777  0.952681  1
  Al  Al7  1  0.665800  0.665754  0.454487  1
  Al  Al8  1  0.336886  0.555494  0.250401  1
  Al  Al9  1  0.663528  0.446518  0.747056  1
  Al  Al10  1  0.553482  0.336472  0.252944  1
  Al  Al11  1  0.444506  0.663114  0.749599  1
  Al  Al12  1  0.001997  0.336508  0.073494  1
  Al  Al13  1  0.001362  0.662995  0.572113  1
  Al  Al14  1  0.337005  0.998638  0.427887  1
  Al  Al15  1  0.663492  0.998003  0.926506  1
  Al  Al16  1  0.003826  0.666641  0.926681  1
  Al  Al17  1  0.998737  0.336548  0.427563  1
  Al  Al18  1  0.663452  0.001263  0.572437  1
  Al  Al19  1  0.333359  0.996174  0.073319  1
  Co  Co20  1  0.999869  0.000131  0.000000  1
  Co  Co21  1  0.000207  0.999793  0.500000  1
  Co  Co22  1  0.329228  0.670772  0.500000  1
  Co  Co23  1  0.329176  0.670824  0.000000  1
  Co  Co24  1  0.671147  0.328853  0.500000  1
  Si  Si25  1  0.125020  0.124248  0.250389  1
  Si  Si26  1  0.875752  0.874980  0.749611  1
  Ni  Ni27  1  0.671014  0.328986  0.000000  1
