# generated using pymatgen
data_CeCo4MoP3
_symmetry_space_group_name_H-M   'P 1'
_cell_length_a   3.73527000
_cell_length_b   10.51484300
_cell_length_c   11.92448400
_cell_angle_alpha   90.00000000
_cell_angle_beta   90.00000000
_cell_angle_gamma   90.00000000
_symmetry_Int_Tables_number   1
_chemical_formula_structural   CeCo4MoP3
_chemical_formula_sum   'Ce4 Co16 Mo4 P12'
_cell_volume   468.34338173
_cell_formula_units_Z   4
loop_
 _symmetry_equiv_pos_site_id
 _symmetry_equiv_pos_as_xyz
  1  'x, y, z'
loop_
 _atom_site_type_symbol
 _atom_site_label
 _atom_site_symmetry_multiplicity
 _atom_site_fract_x
 _atom_site_fract_y
 _atom_site_fract_z
 _atom_site_occupancy
  Ce  Ce0  1  0.250000  0.581477  0.703912  1
  Ce  Ce1  1  0.250000  0.918523  0.203912  1
  Ce  Ce2  1  0.750000  0.418523  0.296088  1
  Ce  Ce3  1  0.750000  0.081477  0.796088  1
  Co  Co4  1  0.250000  0.405416  0.486493  1
  Co  Co5  1  0.250000  0.094584  0.986493  1
  Co  Co6  1  0.750000  0.594584  0.513507  1
  Co  Co7  1  0.750000  0.905416  0.013507  1
  Co  Co8  1  0.250000  0.221866  0.174025  1
  Co  Co9  1  0.250000  0.278134  0.674025  1
  Co  Co10  1  0.750000  0.778134  0.825975  1
  Co  Co11  1  0.750000  0.721866  0.325975  1
  Co  Co12  1  0.250000  0.885018  0.702362  1
  Co  Co13  1  0.250000  0.614982  0.202362  1
  Co  Co14  1  0.750000  0.114982  0.297638  1
  Co  Co15  1  0.750000  0.385018  0.797638  1
  Co  Co16  1  0.250000  0.465195  0.932167  1
  Co  Co17  1  0.250000  0.034805  0.432167  1
  Co  Co18  1  0.750000  0.534805  0.067833  1
  Co  Co19  1  0.750000  0.965195  0.567833  1
  Mo  Mo20  1  0.250000  0.706434  0.989372  1
  Mo  Mo21  1  0.250000  0.793566  0.489372  1
  Mo  Mo22  1  0.750000  0.293566  0.010628  1
  Mo  Mo23  1  0.750000  0.206434  0.510628  1
  P  P24  1  0.250000  0.421477  0.112755  1
  P  P25  1  0.250000  0.078523  0.612755  1
  P  P26  1  0.750000  0.578523  0.887245  1
  P  P27  1  0.750000  0.921477  0.387245  1
  P  P28  1  0.250000  0.273365  0.862029  1
  P  P29  1  0.250000  0.226635  0.362029  1
  P  P30  1  0.750000  0.726635  0.137971  1
  P  P31  1  0.750000  0.773365  0.637971  1
  P  P32  1  0.250000  0.600086  0.393297  1
  P  P33  1  0.250000  0.899914  0.893297  1
  P  P34  1  0.750000  0.399914  0.606703  1
  P  P35  1  0.750000  0.100086  0.106703  1
