# generated using pymatgen
data_Ac3Sn4
_symmetry_space_group_name_H-M   'P 1'
_cell_length_a   6.60318465
_cell_length_b   6.60318562
_cell_length_c   16.52287200
_cell_angle_alpha   90.00000000
_cell_angle_beta   90.00000000
_cell_angle_gamma   138.19604252
_symmetry_Int_Tables_number   1
_chemical_formula_structural   Ac3Sn4
_chemical_formula_sum   'Ac6 Sn8'
_cell_volume   480.22785244
_cell_formula_units_Z   2
loop_
 _symmetry_equiv_pos_site_id
 _symmetry_equiv_pos_as_xyz
  1  'x, y, z'
loop_
 _atom_site_type_symbol
 _atom_site_label
 _atom_site_symmetry_multiplicity
 _atom_site_fract_x
 _atom_site_fract_y
 _atom_site_fract_z
 _atom_site_occupancy
  Ac  Ac0  1  0.672282  0.327718  0.097264  1
  Ac  Ac1  1  0.955929  0.044071  0.250000  1
  Ac  Ac2  1  0.672282  0.327718  0.402736  1
  Ac  Ac3  1  0.327718  0.672282  0.597264  1
  Ac  Ac4  1  0.044071  0.955929  0.750000  1
  Ac  Ac5  1  0.327718  0.672282  0.902736  1
  Sn  Sn6  1  0.000000  0.000000  0.000000  1
  Sn  Sn7  1  0.384118  0.615882  0.106906  1
  Sn  Sn8  1  0.229027  0.770973  0.250000  1
  Sn  Sn9  1  0.384118  0.615882  0.393094  1
  Sn  Sn10  1  0.000000  0.000000  0.500000  1
  Sn  Sn11  1  0.615882  0.384118  0.606906  1
  Sn  Sn12  1  0.770973  0.229027  0.750000  1
  Sn  Sn13  1  0.615882  0.384118  0.893094  1
