# generated using pymatgen
data_Nd3Y2Nb3(Ni4As3)4
_symmetry_space_group_name_H-M   'P 1'
_cell_length_a   12.75705179
_cell_length_b   12.75705206
_cell_length_c   3.94992500
_cell_angle_alpha   90.00000000
_cell_angle_beta   90.00000000
_cell_angle_gamma   119.95967685
_symmetry_Int_Tables_number   1
_chemical_formula_structural   Nd3Y2Nb3(Ni4As3)4
_chemical_formula_sum   'Nd3 Y2 Nb3 Ni16 As12'
_cell_volume   556.92465933
_cell_formula_units_Z   1
loop_
 _symmetry_equiv_pos_site_id
 _symmetry_equiv_pos_as_xyz
  1  'x, y, z'
loop_
 _atom_site_type_symbol
 _atom_site_label
 _atom_site_symmetry_multiplicity
 _atom_site_fract_x
 _atom_site_fract_y
 _atom_site_fract_z
 _atom_site_occupancy
  Nd  Nd0  1  0.186237  0.186237  0.500000  1
  Nd  Nd1  1  0.333583  0.666464  0.000000  1
  Nd  Nd2  1  0.666464  0.333583  0.000000  1
  Y  Y3  1  0.812369  0.999582  0.500000  1
  Y  Y4  1  0.999582  0.812369  0.500000  1
  Nb  Nb5  1  0.566186  0.566186  0.000000  1
  Nb  Nb6  1  0.435405  0.999464  0.000000  1
  Nb  Nb7  1  0.999464  0.435405  0.000000  1
  Ni  Ni8  1  0.723105  0.723105  0.500000  1
  Ni  Ni9  1  0.277040  0.997766  0.500000  1
  Ni  Ni10  1  0.997766  0.277040  0.500000  1
  Ni  Ni11  1  0.182485  0.376305  0.000000  1
  Ni  Ni12  1  0.626264  0.808038  0.000000  1
  Ni  Ni13  1  0.192257  0.816749  0.000000  1
  Ni  Ni14  1  0.808038  0.626264  0.000000  1
  Ni  Ni15  1  0.816749  0.192257  0.000000  1
  Ni  Ni16  1  0.376305  0.182485  0.000000  1
  Ni  Ni17  1  0.364175  0.484609  0.500000  1
  Ni  Ni18  1  0.517240  0.880078  0.500000  1
  Ni  Ni19  1  0.120051  0.636644  0.500000  1
  Ni  Ni20  1  0.880078  0.517240  0.500000  1
  Ni  Ni21  1  0.636644  0.120051  0.500000  1
  Ni  Ni22  1  0.484609  0.364175  0.500000  1
  Ni  Ni23  1  0.998924  0.998924  0.000000  1
  As  As24  1  0.821846  0.821846  0.000000  1
  As  As25  1  0.177566  0.997374  0.000000  1
  As  As26  1  0.997374  0.177566  0.000000  1
  As  As27  1  0.167290  0.476095  0.500000  1
  As  As28  1  0.523941  0.691817  0.500000  1
  As  As29  1  0.309318  0.831415  0.500000  1
  As  As30  1  0.691817  0.523941  0.500000  1
  As  As31  1  0.831415  0.309318  0.500000  1
  As  As32  1  0.476095  0.167290  0.500000  1
  As  As33  1  0.365451  0.365451  0.000000  1
  As  As34  1  0.637058  0.999811  0.000000  1
  As  As35  1  0.999811  0.637058  0.000000  1
