# generated using pymatgen
data_Er6Al24OsRu3Pt4
_symmetry_space_group_name_H-M   'P 1'
_cell_length_a   8.81722635
_cell_length_b   8.83825770
_cell_length_c   9.50182453
_cell_angle_alpha   90.24610187
_cell_angle_beta   89.80350046
_cell_angle_gamma   120.05919814
_symmetry_Int_Tables_number   1
_chemical_formula_structural   Er6Al24OsRu3Pt4
_chemical_formula_sum   'Er6 Al24 Os1 Ru3 Pt4'
_cell_volume   640.87367641
_cell_formula_units_Z   1
loop_
 _symmetry_equiv_pos_site_id
 _symmetry_equiv_pos_as_xyz
  1  'x, y, z'
loop_
 _atom_site_type_symbol
 _atom_site_label
 _atom_site_symmetry_multiplicity
 _atom_site_fract_x
 _atom_site_fract_y
 _atom_site_fract_z
 _atom_site_occupancy
  Er  Er0  1  0.196242  0.385608  0.251852  1
  Er  Er1  1  0.803758  0.614392  0.748148  1
  Er  Er2  1  0.613400  0.804615  0.249501  1
  Er  Er3  1  0.386600  0.195385  0.750499  1
  Er  Er4  1  0.194103  0.809100  0.248035  1
  Er  Er5  1  0.805897  0.190900  0.751965  1
  Al  Al6  1  0.335525  0.663752  0.033255  1
  Al  Al7  1  0.664475  0.336248  0.966745  1
  Al  Al8  1  0.663957  0.326683  0.532935  1
  Al  Al9  1  0.336043  0.673317  0.467065  1
  Al  Al10  1  0.160843  0.323769  0.578684  1
  Al  Al11  1  0.839157  0.676231  0.421316  1
  Al  Al12  1  0.673876  0.843272  0.577695  1
  Al  Al13  1  0.832737  0.674911  0.076635  1
  Al  Al14  1  0.326124  0.156728  0.422305  1
  Al  Al15  1  0.167263  0.325089  0.923365  1
  Al  Al16  1  0.167634  0.843359  0.578766  1
  Al  Al17  1  0.325715  0.168056  0.078143  1
  Al  Al18  1  0.832366  0.156641  0.421234  1
  Al  Al19  1  0.674285  0.831944  0.921857  1
  Al  Al20  1  0.839412  0.161889  0.081007  1
  Al  Al21  1  0.160588  0.838111  0.918993  1
  Al  Al22  1  0.562858  0.123960  0.253886  1
  Al  Al23  1  0.437142  0.876040  0.746114  1
  Al  Al24  1  0.873356  0.435687  0.250304  1
  Al  Al25  1  0.126644  0.564313  0.749696  1
  Al  Al26  1  0.563179  0.436447  0.247127  1
  Al  Al27  1  0.436821  0.563553  0.752873  1
  Al  Al28  1  0.001502  0.001025  0.249986  1
  Al  Al29  1  0.998498  0.998975  0.750014  1
  Os  Os30  1  0.500000  0.500000  0.000000  1
  Ru  Ru31  1  0.500000  0.000000  0.500000  1
  Ru  Ru32  1  0.000000  0.000000  0.000000  1
  Ru  Ru33  1  0.000000  0.000000  0.500000  1
  Pt  Pt34  1  0.500000  0.000000  0.000000  1
  Pt  Pt35  1  0.000000  0.500000  0.000000  1
  Pt  Pt36  1  0.000000  0.500000  0.500000  1
  Pt  Pt37  1  0.500000  0.500000  0.500000  1
