# generated using pymatgen
data_NdHoCu2Ni4(BIr)2
_symmetry_space_group_name_H-M   'P 1'
_cell_length_a   5.17310100
_cell_length_b   5.17310151
_cell_length_c   7.10311800
_cell_angle_alpha   90.00000000
_cell_angle_beta   90.00000000
_cell_angle_gamma   122.00208773
_symmetry_Int_Tables_number   1
_chemical_formula_structural   NdHoCu2Ni4(BIr)2
_chemical_formula_sum   'Nd1 Ho1 Cu2 Ni4 B2 Ir2'
_cell_volume   161.19871768
_cell_formula_units_Z   1
loop_
 _symmetry_equiv_pos_site_id
 _symmetry_equiv_pos_as_xyz
  1  'x, y, z'
loop_
 _atom_site_type_symbol
 _atom_site_label
 _atom_site_symmetry_multiplicity
 _atom_site_fract_x
 _atom_site_fract_y
 _atom_site_fract_z
 _atom_site_occupancy
  Nd  Nd0  1  0.000000  0.000000  0.000000  1
  Ho  Ho1  1  0.000000  0.000000  0.500000  1
  Cu  Cu2  1  0.322001  0.677999  0.000000  1
  Cu  Cu3  1  0.677999  0.322001  0.000000  1
  Ni  Ni4  1  0.500000  0.000000  0.297784  1
  Ni  Ni5  1  0.000000  0.500000  0.297784  1
  Ni  Ni6  1  0.500000  0.000000  0.702216  1
  Ni  Ni7  1  0.000000  0.500000  0.702216  1
  B  B8  1  0.668609  0.331391  0.500000  1
  B  B9  1  0.331391  0.668609  0.500000  1
  Ir  Ir10  1  0.500000  0.500000  0.287806  1
  Ir  Ir11  1  0.500000  0.500000  0.712194  1
