# generated using pymatgen
data_Ce(Zn2Pt)2
_symmetry_space_group_name_H-M   'P 1'
_cell_length_a   7.61279500
_cell_length_b   7.61279500
_cell_length_c   4.19866200
_cell_angle_alpha   90.00000000
_cell_angle_beta   90.00000000
_cell_angle_gamma   90.00000000
_symmetry_Int_Tables_number   1
_chemical_formula_structural   Ce(Zn2Pt)2
_chemical_formula_sum   'Ce2 Zn8 Pt4'
_cell_volume   243.33197707
_cell_formula_units_Z   2
loop_
 _symmetry_equiv_pos_site_id
 _symmetry_equiv_pos_as_xyz
  1  'x, y, z'
loop_
 _atom_site_type_symbol
 _atom_site_label
 _atom_site_symmetry_multiplicity
 _atom_site_fract_x
 _atom_site_fract_y
 _atom_site_fract_z
 _atom_site_occupancy
  Ce  Ce0  1  0.500000  0.500000  0.500000  1
  Ce  Ce1  1  0.000000  0.000000  0.000000  1
  Zn  Zn2  1  0.347360  0.090169  0.500000  1
  Zn  Zn3  1  0.652640  0.909831  0.500000  1
  Zn  Zn4  1  0.847360  0.409831  0.000000  1
  Zn  Zn5  1  0.152640  0.590169  0.000000  1
  Zn  Zn6  1  0.090169  0.347360  0.500000  1
  Zn  Zn7  1  0.909831  0.652640  0.500000  1
  Zn  Zn8  1  0.409831  0.847360  0.000000  1
  Zn  Zn9  1  0.590169  0.152640  0.000000  1
  Pt  Pt10  1  0.781735  0.218265  0.500000  1
  Pt  Pt11  1  0.218265  0.781735  0.500000  1
  Pt  Pt12  1  0.281735  0.281735  0.000000  1
  Pt  Pt13  1  0.718265  0.718265  0.000000  1
