# generated using pymatgen
data_K8Sc7VP8(O4F)8
_symmetry_space_group_name_H-M   'P 1'
_cell_length_a   6.49820000
_cell_length_b   10.83800200
_cell_length_c   13.04120400
_cell_angle_alpha   90.00000000
_cell_angle_beta   90.00000000
_cell_angle_gamma   90.00000000
_symmetry_Int_Tables_number   1
_chemical_formula_structural   K8Sc7VP8(O4F)8
_chemical_formula_sum   'K8 Sc7 V1 P8 O32 F8'
_cell_volume   918.45945465
_cell_formula_units_Z   1
loop_
 _symmetry_equiv_pos_site_id
 _symmetry_equiv_pos_as_xyz
  1  'x, y, z'
loop_
 _atom_site_type_symbol
 _atom_site_label
 _atom_site_symmetry_multiplicity
 _atom_site_fract_x
 _atom_site_fract_y
 _atom_site_fract_z
 _atom_site_occupancy
  K  K0  1  0.225821  0.798742  0.619820  1
  K  K1  1  0.725851  0.299342  0.880307  1
  K  K2  1  0.273969  0.798446  0.122767  1
  K  K3  1  0.774001  0.298719  0.380165  1
  K  K4  1  0.699912  0.057339  0.104064  1
  K  K5  1  0.298899  0.558668  0.896532  1
  K  K6  1  0.798246  0.058188  0.603803  1
  K  K7  1  0.198854  0.560734  0.395107  1
  Sc  Sc8  1  0.490752  0.999886  0.386717  1
  Sc  Sc9  1  0.508877  0.501710  0.611315  1
  Sc  Sc10  1  0.008865  0.001948  0.888574  1
  Sc  Sc11  1  0.991299  0.503815  0.113924  1
  Sc  Sc12  1  0.250937  0.251079  0.245532  1
  Sc  Sc13  1  0.749237  0.751086  0.754317  1
  Sc  Sc14  1  0.249082  0.251110  0.745454  1
  V  V15  1  0.750000  0.752002  0.253367  1
  P  P16  1  0.326313  0.252824  0.497755  1
  P  P17  1  0.672902  0.753213  0.499361  1
  P  P18  1  0.173428  0.254924  0.998307  1
  P  P19  1  0.827476  0.754667  0.003864  1
  P  P20  1  0.498072  0.507315  0.183531  1
  P  P21  1  0.505261  0.005033  0.817081  1
  P  P22  1  0.005175  0.505216  0.682690  1
  P  P23  1  0.993006  0.002203  0.316802  1
  O  O24  1  0.479173  0.144083  0.486723  1
  O  O25  1  0.519586  0.644509  0.510503  1
  O  O26  1  0.018661  0.146935  0.987457  1
  O  O27  1  0.981567  0.646338  0.013221  1
  O  O28  1  0.464215  0.369282  0.506620  1
  O  O29  1  0.534943  0.869924  0.492982  1
  O  O30  1  0.037944  0.372231  0.007832  1
  O  O31  1  0.964212  0.871680  0.995294  1
  O  O32  1  0.189533  0.268431  0.402291  1
  O  O33  1  0.810746  0.767468  0.594748  1
  O  O34  1  0.309642  0.269985  0.902667  1
  O  O35  1  0.691555  0.769927  0.100215  1
  O  O36  1  0.187993  0.233483  0.591745  1
  O  O37  1  0.808714  0.734130  0.403856  1
  O  O38  1  0.312206  0.234513  0.092078  1
  O  O39  1  0.688916  0.735929  0.909701  1
  O  O40  1  0.309904  0.535245  0.115026  1
  O  O41  1  0.691169  0.030387  0.887717  1
  O  O42  1  0.191290  0.530826  0.612211  1
  O  O43  1  0.808778  0.030721  0.387511  1
  O  O44  1  0.682548  0.478957  0.113555  1
  O  O45  1  0.317170  0.979501  0.885579  1
  O  O46  1  0.817405  0.479662  0.614064  1
  O  O47  1  0.181676  0.975013  0.384403  1
  O  O48  1  0.535742  0.621550  0.254030  1
  O  O49  1  0.474362  0.118580  0.746221  1
  O  O50  1  0.973952  0.618776  0.753667  1
  O  O51  1  0.029248  0.114170  0.244732  1
  O  O52  1  0.455592  0.397955  0.256953  1
  O  O53  1  0.543418  0.894675  0.744086  1
  O  O54  1  0.043055  0.394931  0.755671  1
  O  O55  1  0.950839  0.890452  0.244692  1
  F  F56  1  0.521355  0.879470  0.265128  1
  F  F57  1  0.480843  0.381236  0.734194  1
  F  F58  1  0.980569  0.881090  0.765562  1
  F  F59  1  0.018449  0.380272  0.234723  1
  F  F60  1  0.490019  0.132547  0.268070  1
  F  F61  1  0.510819  0.632292  0.731527  1
  F  F62  1  0.010546  0.132023  0.768391  1
  F  F63  1  0.985415  0.633296  0.233196  1
