# generated using pymatgen
data_CaSm(Al5Fe)4
_symmetry_space_group_name_H-M   'P 1'
_cell_length_a   6.78849651
_cell_length_b   6.78849539
_cell_length_c   9.00775100
_cell_angle_alpha   90.00000000
_cell_angle_beta   90.00000000
_cell_angle_gamma   97.14828189
_symmetry_Int_Tables_number   1
_chemical_formula_structural   CaSm(Al5Fe)4
_chemical_formula_sum   'Ca1 Sm1 Al20 Fe4'
_cell_volume   411.88381586
_cell_formula_units_Z   1
loop_
 _symmetry_equiv_pos_site_id
 _symmetry_equiv_pos_as_xyz
  1  'x, y, z'
loop_
 _atom_site_type_symbol
 _atom_site_label
 _atom_site_symmetry_multiplicity
 _atom_site_fract_x
 _atom_site_fract_y
 _atom_site_fract_z
 _atom_site_occupancy
  Ca  Ca0  1  0.876572  0.123428  0.750000  1
  Sm  Sm1  1  0.123160  0.876840  0.250000  1
  Al  Al2  1  0.625399  0.374601  0.546264  1
  Al  Al3  1  0.374954  0.625046  0.450324  1
  Al  Al4  1  0.374954  0.625046  0.049676  1
  Al  Al5  1  0.625399  0.374601  0.953736  1
  Al  Al6  1  0.227484  0.228604  0.500716  1
  Al  Al7  1  0.771396  0.772516  0.500716  1
  Al  Al8  1  0.771396  0.772516  0.999284  1
  Al  Al9  1  0.227484  0.228604  0.999284  1
  Al  Al10  1  0.841621  0.158379  0.096375  1
  Al  Al11  1  0.160223  0.839777  0.902248  1
  Al  Al12  1  0.160223  0.839777  0.597752  1
  Al  Al13  1  0.841621  0.158379  0.403625  1
  Al  Al14  1  0.866693  0.585587  0.750000  1
  Al  Al15  1  0.133377  0.413811  0.250000  1
  Al  Al16  1  0.414413  0.133307  0.750000  1
  Al  Al17  1  0.586189  0.866623  0.250000  1
  Al  Al18  1  0.219757  0.476571  0.750000  1
  Al  Al19  1  0.778843  0.520625  0.250000  1
  Al  Al20  1  0.523429  0.780243  0.750000  1
  Al  Al21  1  0.479375  0.221157  0.250000  1
  Fe  Fe22  1  0.999603  0.501583  0.500193  1
  Fe  Fe23  1  0.999603  0.501583  0.999807  1
  Fe  Fe24  1  0.498417  0.000397  0.999807  1
  Fe  Fe25  1  0.498417  0.000397  0.500193  1
