# generated using pymatgen
data_Ba2LaNd3Sc4O14
_symmetry_space_group_name_H-M   'P 1'
_cell_length_a   5.86033341
_cell_length_b   5.86033341
_cell_length_c   20.53470500
_cell_angle_alpha   90.00000000
_cell_angle_beta   90.00000000
_cell_angle_gamma   89.95713815
_symmetry_Int_Tables_number   1
_chemical_formula_structural   Ba2LaNd3Sc4O14
_chemical_formula_sum   'Ba4 La2 Nd6 Sc8 O28'
_cell_volume   705.23360145
_cell_formula_units_Z   2
loop_
 _symmetry_equiv_pos_site_id
 _symmetry_equiv_pos_as_xyz
  1  'x, y, z'
loop_
 _atom_site_type_symbol
 _atom_site_label
 _atom_site_symmetry_multiplicity
 _atom_site_fract_x
 _atom_site_fract_y
 _atom_site_fract_z
 _atom_site_occupancy
  Ba  Ba0  1  0.259971  0.259971  0.999884  1
  Ba  Ba1  1  0.740028  0.740028  0.999884  1
  Ba  Ba2  1  0.760452  0.239548  0.500440  1
  Ba  Ba3  1  0.239548  0.760452  0.500440  1
  La  La4  1  0.272694  0.272694  0.185292  1
  La  La5  1  0.727307  0.727307  0.185292  1
  Nd  Nd6  1  0.776250  0.223750  0.316809  1
  Nd  Nd7  1  0.223750  0.776250  0.316809  1
  Nd  Nd8  1  0.776287  0.223713  0.684622  1
  Nd  Nd9  1  0.223713  0.776287  0.684622  1
  Nd  Nd10  1  0.276235  0.276235  0.815579  1
  Nd  Nd11  1  0.723766  0.723766  0.815579  1
  Sc  Sc12  1  0.757318  0.242683  0.100224  1
  Sc  Sc13  1  0.242683  0.757318  0.100224  1
  Sc  Sc14  1  0.257924  0.257924  0.398729  1
  Sc  Sc15  1  0.742076  0.742076  0.398729  1
  Sc  Sc16  1  0.257933  0.257933  0.601951  1
  Sc  Sc17  1  0.742067  0.742067  0.601951  1
  Sc  Sc18  1  0.757853  0.242148  0.897997  1
  Sc  Sc19  1  0.242148  0.757853  0.897997  1
  O  O20  1  0.784879  0.215120  0.999308  1
  O  O21  1  0.215120  0.784879  0.999308  1
  O  O22  1  0.499999  0.499999  0.094107  1
  O  O23  1  0.499999  0.000000  0.111380  1
  O  O24  1  0.000000  0.499999  0.111380  1
  O  O25  1  0.000000  0.000000  0.127110  1
  O  O26  1  0.691104  0.308895  0.210421  1
  O  O27  1  0.308895  0.691104  0.210421  1
  O  O28  1  0.184342  0.184342  0.291765  1
  O  O29  1  0.815659  0.815659  0.291765  1
  O  O30  1  0.499999  0.499999  0.370630  1
  O  O31  1  0.499999  0.000000  0.386493  1
  O  O32  1  0.000000  0.499999  0.386493  1
  O  O33  1  0.000000  0.000000  0.406648  1
  O  O34  1  0.285136  0.285136  0.500215  1
  O  O35  1  0.714864  0.714864  0.500215  1
  O  O36  1  0.000000  0.000000  0.594297  1
  O  O37  1  0.499999  0.000000  0.614015  1
  O  O38  1  0.000000  0.499999  0.614015  1
  O  O39  1  0.499999  0.499999  0.629476  1
  O  O40  1  0.185236  0.185236  0.709986  1
  O  O41  1  0.814765  0.814765  0.709986  1
  O  O42  1  0.685243  0.314756  0.789946  1
  O  O43  1  0.314756  0.685243  0.789946  1
  O  O44  1  0.000000  0.000000  0.870361  1
  O  O45  1  0.499999  0.000000  0.885852  1
  O  O46  1  0.000000  0.499999  0.885852  1
  O  O47  1  0.499999  0.499999  0.905556  1
