# generated using pymatgen
data_Tb3Tm2Ga3P9Ir19
_symmetry_space_group_name_H-M   'P 1'
_cell_length_a   12.85749600
_cell_length_b   12.85749486
_cell_length_c   3.95770800
_cell_angle_alpha   90.00000000
_cell_angle_beta   90.00000000
_cell_angle_gamma   119.99999265
_symmetry_Int_Tables_number   1
_chemical_formula_structural   Tb3Tm2Ga3P9Ir19
_chemical_formula_sum   'Tb3 Tm2 Ga3 P9 Ir19'
_cell_volume   566.61382890
_cell_formula_units_Z   1
loop_
 _symmetry_equiv_pos_site_id
 _symmetry_equiv_pos_as_xyz
  1  'x, y, z'
loop_
 _atom_site_type_symbol
 _atom_site_label
 _atom_site_symmetry_multiplicity
 _atom_site_fract_x
 _atom_site_fract_y
 _atom_site_fract_z
 _atom_site_occupancy
  Tb  Tb0  1  0.181871  0.181871  0.000000  1
  Tb  Tb1  1  0.818129  0.000000  0.000000  1
  Tb  Tb2  1  0.000000  0.818129  0.000000  1
  Tm  Tm3  1  0.333333  0.666667  0.500000  1
  Tm  Tm4  1  0.666667  0.333333  0.500000  1
  Ga  Ga5  1  0.358039  0.358039  0.500000  1
  Ga  Ga6  1  0.641961  0.000000  0.500000  1
  Ga  Ga7  1  0.000000  0.641961  0.500000  1
  P  P8  1  0.309216  0.825427  0.000000  1
  P  P9  1  0.174573  0.483788  0.000000  1
  P  P10  1  0.516212  0.690784  0.000000  1
  P  P11  1  0.825427  0.309216  0.000000  1
  P  P12  1  0.483788  0.174573  0.000000  1
  P  P13  1  0.690784  0.516212  0.000000  1
  P  P14  1  0.820199  0.820199  0.500000  1
  P  P15  1  0.179801  0.000000  0.500000  1
  P  P16  1  0.000000  0.179801  0.500000  1
  Ir  Ir17  1  0.205907  0.825749  0.500000  1
  Ir  Ir18  1  0.174251  0.380159  0.500000  1
  Ir  Ir19  1  0.619841  0.794093  0.500000  1
  Ir  Ir20  1  0.825749  0.205907  0.500000  1
  Ir  Ir21  1  0.380159  0.174251  0.500000  1
  Ir  Ir22  1  0.794093  0.619841  0.500000  1
  Ir  Ir23  1  0.134117  0.636910  0.000000  1
  Ir  Ir24  1  0.363090  0.497207  0.000000  1
  Ir  Ir25  1  0.502793  0.865883  0.000000  1
  Ir  Ir26  1  0.636910  0.134117  0.000000  1
  Ir  Ir27  1  0.497207  0.363090  0.000000  1
  Ir  Ir28  1  0.865883  0.502793  0.000000  1
  Ir  Ir29  1  0.550111  0.550111  0.500000  1
  Ir  Ir30  1  0.449889  0.000000  0.500000  1
  Ir  Ir31  1  0.000000  0.449889  0.500000  1
  Ir  Ir32  1  0.715826  0.715826  0.000000  1
  Ir  Ir33  1  0.284174  0.000000  0.000000  1
  Ir  Ir34  1  0.000000  0.284174  0.000000  1
  Ir  Ir35  1  0.000000  0.000000  0.500000  1
