# generated using pymatgen
data_Cd22Pt2Rh
_symmetry_space_group_name_H-M   'P 1'
_cell_length_a   8.73038803
_cell_length_b   8.73038761
_cell_length_c   8.72418280
_cell_angle_alpha   71.46172787
_cell_angle_beta   71.46172825
_cell_angle_gamma   58.34390069
_symmetry_Int_Tables_number   1
_chemical_formula_structural   Cd22Pt2Rh
_chemical_formula_sum   'Cd22 Pt2 Rh1'
_cell_volume   527.16142776
_cell_formula_units_Z   1
loop_
 _symmetry_equiv_pos_site_id
 _symmetry_equiv_pos_as_xyz
  1  'x, y, z'
loop_
 _atom_site_type_symbol
 _atom_site_label
 _atom_site_symmetry_multiplicity
 _atom_site_fract_x
 _atom_site_fract_y
 _atom_site_fract_z
 _atom_site_occupancy
  Cd  Cd0  1  0.345253  0.740483  0.310787  1
  Cd  Cd1  1  0.654747  0.259517  0.689213  1
  Cd  Cd2  1  0.259517  0.654747  0.689213  1
  Cd  Cd3  1  0.740483  0.345253  0.310787  1
  Cd  Cd4  1  0.677937  0.322063  0.000000  1
  Cd  Cd5  1  0.322063  0.677937  0.000000  1
  Cd  Cd6  1  0.832747  0.832747  0.780044  1
  Cd  Cd7  1  0.167253  0.167253  0.219956  1
  Cd  Cd8  1  0.977738  0.977738  0.176014  1
  Cd  Cd9  1  0.022262  0.022262  0.823986  1
  Cd  Cd10  1  0.351606  0.351606  0.274018  1
  Cd  Cd11  1  0.648394  0.648394  0.725982  1
  Cd  Cd12  1  0.687089  0.687089  0.375931  1
  Cd  Cd13  1  0.312911  0.312911  0.624069  1
  Cd  Cd14  1  0.663321  0.025211  0.463036  1
  Cd  Cd15  1  0.336679  0.974789  0.536964  1
  Cd  Cd16  1  0.974789  0.336679  0.536964  1
  Cd  Cd17  1  0.025211  0.663321  0.463036  1
  Cd  Cd18  1  0.616383  0.999235  0.098946  1
  Cd  Cd19  1  0.383617  0.000765  0.901054  1
  Cd  Cd20  1  0.000765  0.383617  0.901054  1
  Cd  Cd21  1  0.999235  0.616383  0.098946  1
  Pt  Pt22  1  0.658986  0.658986  0.052444  1
  Pt  Pt23  1  0.341014  0.341014  0.947556  1
  Rh  Rh24  1  0.000000  0.000000  0.500000  1
