# generated using pymatgen
data_La2Pa2Zn4Ir3Rh
_symmetry_space_group_name_H-M   'P 1'
_cell_length_a   3.96545100
_cell_length_b   7.28398745
_cell_length_c   8.42883662
_cell_angle_alpha   91.25205104
_cell_angle_beta   90.00000000
_cell_angle_gamma   90.00000000
_symmetry_Int_Tables_number   1
_chemical_formula_structural   La2Pa2Zn4Ir3Rh
_chemical_formula_sum   'La2 Pa2 Zn4 Ir3 Rh1'
_cell_volume   243.40287881
_cell_formula_units_Z   1
loop_
 _symmetry_equiv_pos_site_id
 _symmetry_equiv_pos_as_xyz
  1  'x, y, z'
loop_
 _atom_site_type_symbol
 _atom_site_label
 _atom_site_symmetry_multiplicity
 _atom_site_fract_x
 _atom_site_fract_y
 _atom_site_fract_z
 _atom_site_occupancy
  La  La0  1  0.250000  0.054910  0.310476  1
  La  La1  1  0.750000  0.946523  0.688139  1
  Pa  Pa2  1  0.250000  0.551780  0.186852  1
  Pa  Pa3  1  0.750000  0.447155  0.812715  1
  Zn  Zn4  1  0.250000  0.125012  0.940767  1
  Zn  Zn5  1  0.750000  0.874798  0.058345  1
  Zn  Zn6  1  0.250000  0.622755  0.557933  1
  Zn  Zn7  1  0.750000  0.378563  0.442542  1
  Ir  Ir8  1  0.750000  0.740032  0.354088  1
  Ir  Ir9  1  0.250000  0.260619  0.646114  1
  Ir  Ir10  1  0.750000  0.285528  0.118470  1
  Rh  Rh11  1  0.250000  0.712326  0.883557  1
