# generated using pymatgen
data_Ca2Ga3FeBr16
_symmetry_space_group_name_H-M   'P 1'
_cell_length_a   7.64957112
_cell_length_b   7.80402594
_cell_length_c   14.35719568
_cell_angle_alpha   87.18819272
_cell_angle_beta   90.31785903
_cell_angle_gamma   90.26503316
_symmetry_Int_Tables_number   1
_chemical_formula_structural   Ca2Ga3FeBr16
_chemical_formula_sum   'Ca2 Ga3 Fe1 Br16'
_cell_volume   856.03479474
_cell_formula_units_Z   1
loop_
 _symmetry_equiv_pos_site_id
 _symmetry_equiv_pos_as_xyz
  1  'x, y, z'
loop_
 _atom_site_type_symbol
 _atom_site_label
 _atom_site_symmetry_multiplicity
 _atom_site_fract_x
 _atom_site_fract_y
 _atom_site_fract_z
 _atom_site_occupancy
  Ca  Ca0  1  0.755887  0.078087  0.813450  1
  Ca  Ca1  1  0.245770  0.074717  0.313536  1
  Ga  Ga2  1  0.066012  0.224165  0.078137  1
  Ga  Ga3  1  0.572932  0.639733  0.776479  1
  Ga  Ga4  1  0.427454  0.639129  0.276151  1
  Fe  Fe5  1  0.933362  0.219167  0.580465  1
  Br  Br6  1  0.421732  0.612982  0.639376  1
  Br  Br7  1  0.578158  0.612522  0.140016  1
  Br  Br8  1  0.869861  0.732526  0.760051  1
  Br  Br9  1  0.130215  0.729049  0.259733  1
  Br  Br10  1  0.936402  0.477833  0.498216  1
  Br  Br11  1  0.061826  0.482396  0.995053  1
  Br  Br12  1  0.917835  0.999763  0.000009  1
  Br  Br13  1  0.082130  0.004835  0.497050  1
  Br  Br14  1  0.641622  0.129863  0.617067  1
  Br  Br15  1  0.355361  0.127023  0.116496  1
  Br  Br16  1  0.565429  0.381075  0.874963  1
  Br  Br17  1  0.434723  0.381556  0.375691  1
  Br  Br18  1  0.450796  0.862118  0.866287  1
  Br  Br19  1  0.552133  0.862818  0.365839  1
  Br  Br20  1  0.931948  0.229510  0.229340  1
  Br  Br21  1  0.068411  0.233935  0.730999  1
