# generated using pymatgen
data_KLiMnTe2
_symmetry_space_group_name_H-M   'P 1'
_cell_length_a   8.15956855
_cell_length_b   8.15956888
_cell_length_c   8.15956784
_cell_angle_alpha   147.85993028
_cell_angle_beta   147.85993298
_cell_angle_gamma   46.09217600
_symmetry_Int_Tables_number   1
_chemical_formula_structural   KLiMnTe2
_chemical_formula_sum   'K1 Li1 Mn1 Te2'
_cell_volume   153.21786589
_cell_formula_units_Z   1
loop_
 _symmetry_equiv_pos_site_id
 _symmetry_equiv_pos_as_xyz
  1  'x, y, z'
loop_
 _atom_site_type_symbol
 _atom_site_label
 _atom_site_symmetry_multiplicity
 _atom_site_fract_x
 _atom_site_fract_y
 _atom_site_fract_z
 _atom_site_occupancy
  K  K0  1  0.000000  0.000000  0.000000  1
  Li  Li1  1  0.750000  0.250000  0.500000  1
  Mn  Mn2  1  0.250000  0.750000  0.500000  1
  Te  Te3  1  0.643099  0.643099  0.000000  1
  Te  Te4  1  0.356901  0.356901  0.000000  1
