# generated using pymatgen
data_Ce6PaAl23Tc8
_symmetry_space_group_name_H-M   'P 1'
_cell_length_a   8.99064100
_cell_length_b   8.99063895
_cell_length_c   9.70520700
_cell_angle_alpha   90.00000000
_cell_angle_beta   90.00000000
_cell_angle_gamma   119.99999651
_symmetry_Int_Tables_number   1
_chemical_formula_structural   Ce6PaAl23Tc8
_chemical_formula_sum   'Ce6 Pa1 Al23 Tc8'
_cell_volume   679.38611014
_cell_formula_units_Z   1
loop_
 _symmetry_equiv_pos_site_id
 _symmetry_equiv_pos_as_xyz
  1  'x, y, z'
loop_
 _atom_site_type_symbol
 _atom_site_label
 _atom_site_symmetry_multiplicity
 _atom_site_fract_x
 _atom_site_fract_y
 _atom_site_fract_z
 _atom_site_occupancy
  Ce  Ce0  1  0.805439  0.610877  0.754855  1
  Ce  Ce1  1  0.188058  0.811942  0.238789  1
  Ce  Ce2  1  0.623884  0.811942  0.238789  1
  Ce  Ce3  1  0.389123  0.194561  0.754855  1
  Ce  Ce4  1  0.805439  0.194561  0.754855  1
  Ce  Ce5  1  0.188058  0.376116  0.238789  1
  Pa  Pa6  1  0.333333  0.666667  0.479601  1
  Al  Al7  1  0.666667  0.333333  0.998711  1
  Al  Al8  1  0.666667  0.333333  0.504709  1
  Al  Al9  1  0.333333  0.666667  0.011596  1
  Al  Al10  1  0.154292  0.308585  0.583220  1
  Al  Al11  1  0.691415  0.845708  0.583220  1
  Al  Al12  1  0.154292  0.845708  0.583220  1
  Al  Al13  1  0.837197  0.162803  0.077356  1
  Al  Al14  1  0.839547  0.160453  0.421387  1
  Al  Al15  1  0.837197  0.674394  0.077356  1
  Al  Al16  1  0.325606  0.162803  0.077356  1
  Al  Al17  1  0.677180  0.838590  0.920737  1
  Al  Al18  1  0.161410  0.322820  0.920737  1
  Al  Al19  1  0.839547  0.679093  0.421387  1
  Al  Al20  1  0.000000  0.000000  0.251787  1
  Al  Al21  1  0.000000  0.000000  0.752560  1
  Al  Al22  1  0.561545  0.123090  0.250268  1
  Al  Al23  1  0.438069  0.561931  0.753919  1
  Al  Al24  1  0.123863  0.561931  0.753919  1
  Al  Al25  1  0.876910  0.438455  0.250268  1
  Al  Al26  1  0.561545  0.438455  0.250268  1
  Al  Al27  1  0.438069  0.876137  0.753919  1
  Al  Al28  1  0.161410  0.838590  0.920737  1
  Al  Al29  1  0.320907  0.160453  0.421387  1
  Tc  Tc30  1  0.000000  0.000000  0.500824  1
  Tc  Tc31  1  0.000000  0.000000  0.002651  1
  Tc  Tc32  1  0.494460  0.988920  0.498485  1
  Tc  Tc33  1  0.500001  0.499999  0.000172  1
  Tc  Tc34  1  0.999997  0.499999  0.000172  1
  Tc  Tc35  1  0.011080  0.505540  0.498485  1
  Tc  Tc36  1  0.494460  0.505540  0.498485  1
  Tc  Tc37  1  0.500001  0.000003  0.000172  1
