# generated using pymatgen
data_SrTbHo5PtI12
_symmetry_space_group_name_H-M   'P 1'
_cell_length_a   9.80605748
_cell_length_b   9.80888236
_cell_length_c   9.81964070
_cell_angle_alpha   106.28830233
_cell_angle_beta   106.33863564
_cell_angle_gamma   106.28797719
_symmetry_Int_Tables_number   1
_chemical_formula_structural   SrTbHo5PtI12
_chemical_formula_sum   'Sr1 Tb1 Ho5 Pt1 I12'
_cell_volume   801.04817998
_cell_formula_units_Z   1
loop_
 _symmetry_equiv_pos_site_id
 _symmetry_equiv_pos_as_xyz
  1  'x, y, z'
loop_
 _atom_site_type_symbol
 _atom_site_label
 _atom_site_symmetry_multiplicity
 _atom_site_fract_x
 _atom_site_fract_y
 _atom_site_fract_z
 _atom_site_occupancy
  Sr  Sr0  1  0.000053  0.000014  0.000080  1
  Tb  Tb1  1  0.404633  0.478393  0.200830  1
  Ho  Ho2  1  0.203231  0.405328  0.478153  1
  Ho  Ho3  1  0.478251  0.203304  0.405826  1
  Ho  Ho4  1  0.594719  0.521810  0.796575  1
  Ho  Ho5  1  0.796904  0.594629  0.522264  1
  Ho  Ho6  1  0.522032  0.796956  0.595243  1
  Pt  Pt7  1  0.499994  0.500050  0.499959  1
  I  I8  1  0.048733  0.363403  0.130594  1
  I  I9  1  0.130331  0.050872  0.364186  1
  I  I10  1  0.364196  0.128654  0.050929  1
  I  I11  1  0.949279  0.635750  0.869700  1
  I  I12  1  0.869644  0.949143  0.635927  1
  I  I13  1  0.635846  0.869632  0.949322  1
  I  I14  1  0.724179  0.574470  0.175831  1
  I  I15  1  0.175361  0.721684  0.573793  1
  I  I16  1  0.573809  0.175276  0.721893  1
  I  I17  1  0.277533  0.425742  0.822962  1
  I  I18  1  0.824592  0.278333  0.426354  1
  I  I19  1  0.426679  0.826557  0.279577  1
