# generated using pymatgen
data_TmLuInGa2
_symmetry_space_group_name_H-M   'P 1'
_cell_length_a   7.14104193
_cell_length_b   7.14104193
_cell_length_c   4.37610500
_cell_angle_alpha   90.00000000
_cell_angle_beta   90.00000000
_cell_angle_gamma   89.79057184
_symmetry_Int_Tables_number   1
_chemical_formula_structural   TmLuInGa2
_chemical_formula_sum   'Tm2 Lu2 In2 Ga4'
_cell_volume   223.15570723
_cell_formula_units_Z   2
loop_
 _symmetry_equiv_pos_site_id
 _symmetry_equiv_pos_as_xyz
  1  'x, y, z'
loop_
 _atom_site_type_symbol
 _atom_site_label
 _atom_site_symmetry_multiplicity
 _atom_site_fract_x
 _atom_site_fract_y
 _atom_site_fract_z
 _atom_site_occupancy
  Tm  Tm0  1  0.671554  0.171554  0.500000  1
  Tm  Tm1  1  0.328446  0.828446  0.500000  1
  Lu  Lu2  1  0.171262  0.328738  0.500000  1
  Lu  Lu3  1  0.828738  0.671262  0.500000  1
  In  In4  1  0.500000  0.500000  0.000000  1
  In  In5  1  0.000000  0.000000  0.000000  1
  Ga  Ga6  1  0.126876  0.626876  0.000000  1
  Ga  Ga7  1  0.873124  0.373124  0.000000  1
  Ga  Ga8  1  0.627325  0.872675  0.000000  1
  Ga  Ga9  1  0.372675  0.127325  0.000000  1
