# generated using pymatgen
data_Er8B24MoIr2Ru
_symmetry_space_group_name_H-M   'P 1'
_cell_length_a   3.64003000
_cell_length_b   9.13162185
_cell_length_c   11.49913605
_cell_angle_alpha   89.85322845
_cell_angle_beta   90.00000000
_cell_angle_gamma   90.00000000
_symmetry_Int_Tables_number   1
_chemical_formula_structural   Er8B24MoIr2Ru
_chemical_formula_sum   'Er8 B24 Mo1 Ir2 Ru1'
_cell_volume   382.22286958
_cell_formula_units_Z   1
loop_
 _symmetry_equiv_pos_site_id
 _symmetry_equiv_pos_as_xyz
  1  'x, y, z'
loop_
 _atom_site_type_symbol
 _atom_site_label
 _atom_site_symmetry_multiplicity
 _atom_site_fract_x
 _atom_site_fract_y
 _atom_site_fract_z
 _atom_site_occupancy
  Er  Er0  1  0.000000  0.323921  0.412834  1
  Er  Er1  1  0.000000  0.680757  0.583390  1
  Er  Er2  1  0.000000  0.817093  0.088510  1
  Er  Er3  1  0.000000  0.176385  0.914811  1
  Er  Er4  1  0.000000  0.943182  0.374712  1
  Er  Er5  1  0.000000  0.055672  0.628072  1
  Er  Er6  1  0.000000  0.445776  0.125990  1
  Er  Er7  1  0.000000  0.558224  0.872354  1
  B  B8  1  0.500000  0.551489  0.435658  1
  B  B9  1  0.500000  0.446201  0.566871  1
  B  B10  1  0.500000  0.052796  0.066062  1
  B  B11  1  0.500000  0.945792  0.933609  1
  B  B12  1  0.500000  0.750311  0.421838  1
  B  B13  1  0.500000  0.251570  0.579549  1
  B  B14  1  0.500000  0.248852  0.078510  1
  B  B15  1  0.500000  0.751294  0.919584  1
  B  B16  1  0.500000  0.794302  0.264115  1
  B  B17  1  0.500000  0.207773  0.735440  1
  B  B18  1  0.500000  0.291466  0.233342  1
  B  B19  1  0.500000  0.709580  0.765256  1
  B  B20  1  0.500000  0.631159  0.183257  1
  B  B21  1  0.500000  0.367749  0.816666  1
  B  B22  1  0.500000  0.132121  0.315630  1
  B  B23  1  0.500000  0.869714  0.685175  1
  B  B24  1  0.500000  0.981436  0.212690  1
  B  B25  1  0.500000  0.017726  0.787687  1
  B  B26  1  0.500000  0.479027  0.286504  1
  B  B27  1  0.500000  0.517998  0.713139  1
  B  B28  1  0.500000  0.606701  0.027736  1
  B  B29  1  0.500000  0.391802  0.969414  1
  B  B30  1  0.500000  0.108466  0.471100  1
  B  B31  1  0.500000  0.894822  0.530747  1
  Mo  Mo32  1  0.000000  0.636931  0.320928  1
  Ir  Ir33  1  0.000000  0.361787  0.679756  1
  Ir  Ir34  1  0.000000  0.137346  0.177898  1
  Ru  Ru35  1  0.000000  0.862779  0.821168  1
