# generated using pymatgen
data_NdDy(OsO4)2
_symmetry_space_group_name_H-M   'P 1'
_cell_length_a   5.43832348
_cell_length_b   7.50998730
_cell_length_c   7.77295606
_cell_angle_alpha   79.19558819
_cell_angle_beta   94.08657551
_cell_angle_gamma   91.04067199
_symmetry_Int_Tables_number   1
_chemical_formula_structural   NdDy(OsO4)2
_chemical_formula_sum   'Nd2 Dy2 Os4 O16'
_cell_volume   311.03679129
_cell_formula_units_Z   2
loop_
 _symmetry_equiv_pos_site_id
 _symmetry_equiv_pos_as_xyz
  1  'x, y, z'
loop_
 _atom_site_type_symbol
 _atom_site_label
 _atom_site_symmetry_multiplicity
 _atom_site_fract_x
 _atom_site_fract_y
 _atom_site_fract_z
 _atom_site_occupancy
  Nd  Nd0  1  0.737745  0.888961  0.377018  1
  Nd  Nd1  1  0.262255  0.111039  0.622982  1
  Dy  Dy2  1  0.809920  0.399021  0.327123  1
  Dy  Dy3  1  0.190080  0.600979  0.672877  1
  Os  Os4  1  0.755673  0.294240  0.840304  1
  Os  Os5  1  0.244327  0.705760  0.159696  1
  Os  Os6  1  0.285038  0.202922  0.162041  1
  Os  Os7  1  0.714962  0.797078  0.837959  1
  O  O8  1  0.948204  0.783596  0.029529  1
  O  O9  1  0.051796  0.216404  0.970471  1
  O  O10  1  0.371350  0.950557  0.169096  1
  O  O11  1  0.628650  0.049443  0.830904  1
  O  O12  1  0.153608  0.447400  0.172990  1
  O  O13  1  0.846392  0.552600  0.827010  1
  O  O14  1  0.591620  0.299412  0.059604  1
  O  O15  1  0.408380  0.700588  0.940396  1
  O  O16  1  0.941612  0.330325  0.613766  1
  O  O17  1  0.058388  0.669675  0.386234  1
  O  O18  1  0.507916  0.183895  0.384201  1
  O  O19  1  0.492084  0.816105  0.615799  1
  O  O20  1  0.545895  0.625225  0.292162  1
  O  O21  1  0.454105  0.374775  0.707838  1
  O  O22  1  0.026549  0.125926  0.334211  1
  O  O23  1  0.973451  0.874074  0.665789  1
