# generated using pymatgen
data_MnAlCrC
_symmetry_space_group_name_H-M   'P 1'
_cell_length_a   2.85769800
_cell_length_b   2.85769744
_cell_length_c   12.62204800
_cell_angle_alpha   90.00000000
_cell_angle_beta   90.00000000
_cell_angle_gamma   119.99998328
_symmetry_Int_Tables_number   1
_chemical_formula_structural   MnAlCrC
_chemical_formula_sum   'Mn2 Al2 Cr2 C2'
_cell_volume   89.26744601
_cell_formula_units_Z   2
loop_
 _symmetry_equiv_pos_site_id
 _symmetry_equiv_pos_as_xyz
  1  'x, y, z'
loop_
 _atom_site_type_symbol
 _atom_site_label
 _atom_site_symmetry_multiplicity
 _atom_site_fract_x
 _atom_site_fract_y
 _atom_site_fract_z
 _atom_site_occupancy
  Mn  Mn0  1  0.666667  0.333333  0.914970  1
  Mn  Mn1  1  0.333333  0.666667  0.085030  1
  Al  Al2  1  0.333333  0.666667  0.749112  1
  Al  Al3  1  0.666667  0.333333  0.250888  1
  Cr  Cr4  1  0.333333  0.666667  0.414853  1
  Cr  Cr5  1  0.666667  0.333333  0.585147  1
  C  C6  1  0.000000  0.000000  0.500000  1
  C  C7  1  0.000000  0.000000  0.000000  1
