# generated using pymatgen
data_Li16Ca6In7
_symmetry_space_group_name_H-M   'P 1'
_cell_length_a   9.85012700
_cell_length_b   9.85012778
_cell_length_c   9.85012700
_cell_angle_alpha   120.00000072
_cell_angle_beta   90.00000000
_cell_angle_gamma   120.00000072
_symmetry_Int_Tables_number   1
_chemical_formula_structural   Li16Ca6In7
_chemical_formula_sum   'Li16 Ca6 In7'
_cell_volume   675.78806465
_cell_formula_units_Z   1
loop_
 _symmetry_equiv_pos_site_id
 _symmetry_equiv_pos_as_xyz
  1  'x, y, z'
loop_
 _atom_site_type_symbol
 _atom_site_label
 _atom_site_symmetry_multiplicity
 _atom_site_fract_x
 _atom_site_fract_y
 _atom_site_fract_z
 _atom_site_occupancy
  Li  Li0  1  0.377377  0.754753  0.132131  1
  Li  Li1  1  0.828949  0.657898  0.171052  1
  Li  Li2  1  0.513154  0.342103  0.171052  1
  Li  Li3  1  0.828949  0.342103  0.171052  1
  Li  Li4  1  0.132131  0.754753  0.377377  1
  Li  Li5  1  0.622623  0.754753  0.377377  1
  Li  Li6  1  0.622623  0.245246  0.377377  1
  Li  Li7  1  0.828949  0.657898  0.486846  1
  Li  Li8  1  0.171052  0.342103  0.513154  1
  Li  Li9  1  0.377377  0.754753  0.622623  1
  Li  Li10  1  0.377377  0.245246  0.622623  1
  Li  Li11  1  0.867869  0.245246  0.622623  1
  Li  Li12  1  0.171052  0.657898  0.828949  1
  Li  Li13  1  0.486846  0.657898  0.828949  1
  Li  Li14  1  0.171052  0.342103  0.828949  1
  Li  Li15  1  0.622623  0.245246  0.867869  1
  Ca  Ca16  1  0.784398  0.000000  0.215601  1
  Ca  Ca17  1  0.215602  0.431205  0.215602  1
  Ca  Ca18  1  0.215602  0.000000  0.215602  1
  Ca  Ca19  1  0.784398  0.000000  0.784398  1
  Ca  Ca20  1  0.215601  0.000000  0.784398  1
  Ca  Ca21  1  0.784398  0.568796  0.784398  1
  In  In22  1  0.500000  0.000000  0.000000  1
  In  In23  1  0.000000  0.500000  0.000000  1
  In  In24  1  0.500000  0.500000  0.000000  1
  In  In25  1  0.500000  0.000000  0.500000  1
  In  In26  1  0.000000  0.000000  0.500000  1
  In  In27  1  0.000000  0.500000  0.500000  1
  In  In28  1  0.500000  0.500000  0.500000  1
