# generated using pymatgen
data_Mn3Nb2B3Mo
_symmetry_space_group_name_H-M   'P 1'
_cell_length_a   6.09579171
_cell_length_b   6.09579152
_cell_length_c   3.05925700
_cell_angle_alpha   90.00000000
_cell_angle_beta   90.00000000
_cell_angle_gamma   119.65346686
_symmetry_Int_Tables_number   1
_chemical_formula_structural   Mn3Nb2B3Mo
_chemical_formula_sum   'Mn3 Nb2 B3 Mo1'
_cell_volume   98.78994971
_cell_formula_units_Z   1
loop_
 _symmetry_equiv_pos_site_id
 _symmetry_equiv_pos_as_xyz
  1  'x, y, z'
loop_
 _atom_site_type_symbol
 _atom_site_label
 _atom_site_symmetry_multiplicity
 _atom_site_fract_x
 _atom_site_fract_y
 _atom_site_fract_z
 _atom_site_occupancy
  Mn  Mn0  1  0.755031  0.755031  0.000000  1
  Mn  Mn1  1  0.245992  0.003297  0.000000  1
  Mn  Mn2  1  0.003297  0.245992  0.000000  1
  Nb  Nb3  1  0.589644  0.997535  0.500000  1
  Nb  Nb4  1  0.997535  0.589644  0.500000  1
  B  B5  1  0.659365  0.334209  0.000000  1
  B  B6  1  0.334209  0.659365  0.000000  1
  B  B7  1  0.004858  0.004858  0.500000  1
  Mo  Mo8  1  0.410070  0.410070  0.500000  1
