# generated using pymatgen
data_TiV4Si2B4W5
_symmetry_space_group_name_H-M   'P 1'
_cell_length_a   6.91477233
_cell_length_b   6.94323219
_cell_length_c   6.93669636
_cell_angle_alpha   129.40013554
_cell_angle_beta   129.26750333
_cell_angle_gamma   74.63422005
_symmetry_Int_Tables_number   1
_chemical_formula_structural   TiV4Si2B4W5
_chemical_formula_sum   'Ti1 V4 Si2 B4 W5'
_cell_volume   193.96238732
_cell_formula_units_Z   1
loop_
 _symmetry_equiv_pos_site_id
 _symmetry_equiv_pos_as_xyz
  1  'x, y, z'
loop_
 _atom_site_type_symbol
 _atom_site_label
 _atom_site_symmetry_multiplicity
 _atom_site_fract_x
 _atom_site_fract_y
 _atom_site_fract_z
 _atom_site_occupancy
  Ti  Ti0  1  0.477306  0.304379  0.499531  1
  V  V1  1  0.804935  0.966887  0.499794  1
  V  V2  1  0.302689  0.803540  0.834231  1
  V  V3  1  0.001908  0.999800  0.998343  1
  V  V4  1  0.500812  0.503885  0.001518  1
  Si  Si5  1  0.243312  0.238333  0.991340  1
  Si  Si6  1  0.740640  0.751208  0.001948  1
  B  B7  1  0.622640  0.120027  0.738706  1
  B  B8  1  0.123976  0.381661  0.503374  1
  B  B9  1  0.881238  0.625611  0.503746  1
  B  B10  1  0.384514  0.881411  0.260030  1
  W  W11  1  0.529198  0.693927  0.498608  1
  W  W12  1  0.029387  0.530945  0.837530  1
  W  W13  1  0.691641  0.193591  0.162656  1
  W  W14  1  0.973635  0.474312  0.170589  1
  W  W15  1  0.192167  0.030481  0.498056  1
