# generated using pymatgen
data_Eu3C3ClF
_symmetry_space_group_name_H-M   'P 1'
_cell_length_a   6.99777274
_cell_length_b   6.99777309
_cell_length_c   11.34842400
_cell_angle_alpha   90.00000000
_cell_angle_beta   90.00000000
_cell_angle_gamma   147.49501320
_symmetry_Int_Tables_number   1
_chemical_formula_structural   Eu3C3ClF
_chemical_formula_sum   'Eu6 C6 Cl2 F2'
_cell_volume   298.62839171
_cell_formula_units_Z   2
loop_
 _symmetry_equiv_pos_site_id
 _symmetry_equiv_pos_as_xyz
  1  'x, y, z'
loop_
 _atom_site_type_symbol
 _atom_site_label
 _atom_site_symmetry_multiplicity
 _atom_site_fract_x
 _atom_site_fract_y
 _atom_site_fract_z
 _atom_site_occupancy
  Eu  Eu0  1  0.657246  0.342754  0.577675  1
  Eu  Eu1  1  0.342754  0.657246  0.422325  1
  Eu  Eu2  1  0.342754  0.657246  0.077675  1
  Eu  Eu3  1  0.657246  0.342754  0.922325  1
  Eu  Eu4  1  0.098047  0.901953  0.250000  1
  Eu  Eu5  1  0.901953  0.098047  0.750000  1
  C  C6  1  0.280392  0.719608  0.632568  1
  C  C7  1  0.719608  0.280392  0.367432  1
  C  C8  1  0.719608  0.280392  0.132568  1
  C  C9  1  0.280392  0.719608  0.867432  1
  C  C10  1  0.730700  0.269300  0.250000  1
  C  C11  1  0.269300  0.730700  0.750000  1
  Cl  Cl12  1  0.000000  0.000000  0.000000  1
  Cl  Cl13  1  0.000000  0.000000  0.500000  1
  F  F14  1  0.533473  0.466527  0.750000  1
  F  F15  1  0.466527  0.533473  0.250000  1
