# generated using pymatgen
data_Ba8Si6Bi
_symmetry_space_group_name_H-M   'P 1'
_cell_length_a   8.82667700
_cell_length_b   8.83476500
_cell_length_c   27.43303700
_cell_angle_alpha   90.00000000
_cell_angle_beta   90.00000000
_cell_angle_gamma   90.00000000
_symmetry_Int_Tables_number   1
_chemical_formula_structural   Ba8Si6Bi
_chemical_formula_sum   'Ba32 Si24 Bi4'
_cell_volume   2139.27258519
_cell_formula_units_Z   4
loop_
 _symmetry_equiv_pos_site_id
 _symmetry_equiv_pos_as_xyz
  1  'x, y, z'
loop_
 _atom_site_type_symbol
 _atom_site_label
 _atom_site_symmetry_multiplicity
 _atom_site_fract_x
 _atom_site_fract_y
 _atom_site_fract_z
 _atom_site_occupancy
  Ba  Ba0  1  0.182505  0.557141  0.418460  1
  Ba  Ba1  1  0.317495  0.942859  0.918460  1
  Ba  Ba2  1  0.317495  0.057141  0.581540  1
  Ba  Ba3  1  0.182505  0.442859  0.081540  1
  Ba  Ba4  1  0.817495  0.442859  0.581540  1
  Ba  Ba5  1  0.682505  0.057141  0.081540  1
  Ba  Ba6  1  0.682505  0.942859  0.418460  1
  Ba  Ba7  1  0.817495  0.557141  0.918460  1
  Ba  Ba8  1  0.494034  0.682853  0.185920  1
  Ba  Ba9  1  0.005966  0.817147  0.685920  1
  Ba  Ba10  1  0.005966  0.182853  0.814080  1
  Ba  Ba11  1  0.494034  0.317147  0.314080  1
  Ba  Ba12  1  0.505966  0.317147  0.814080  1
  Ba  Ba13  1  0.994034  0.182853  0.314080  1
  Ba  Ba14  1  0.994034  0.817147  0.185920  1
  Ba  Ba15  1  0.505966  0.682853  0.685920  1
  Ba  Ba16  1  0.494686  0.711998  0.023192  1
  Ba  Ba17  1  0.005314  0.788002  0.523192  1
  Ba  Ba18  1  0.005314  0.211998  0.976808  1
  Ba  Ba19  1  0.494686  0.288002  0.476808  1
  Ba  Ba20  1  0.505314  0.288002  0.976808  1
  Ba  Ba21  1  0.994686  0.211998  0.476808  1
  Ba  Ba22  1  0.994686  0.788002  0.023192  1
  Ba  Ba23  1  0.505314  0.711998  0.523192  1
  Ba  Ba24  1  0.366484  0.828965  0.324388  1
  Ba  Ba25  1  0.133516  0.671035  0.824388  1
  Ba  Ba26  1  0.133516  0.328965  0.675612  1
  Ba  Ba27  1  0.366484  0.171035  0.175612  1
  Ba  Ba28  1  0.633516  0.171035  0.675612  1
  Ba  Ba29  1  0.866484  0.328965  0.175612  1
  Ba  Ba30  1  0.866484  0.671035  0.324388  1
  Ba  Ba31  1  0.633516  0.828965  0.824388  1
  Si  Si32  1  0.269264  0.868846  0.107777  1
  Si  Si33  1  0.230736  0.631154  0.607777  1
  Si  Si34  1  0.230736  0.368846  0.892223  1
  Si  Si35  1  0.269264  0.131154  0.392223  1
  Si  Si36  1  0.730736  0.131154  0.892223  1
  Si  Si37  1  0.769264  0.368846  0.392223  1
  Si  Si38  1  0.769264  0.631154  0.107777  1
  Si  Si39  1  0.730736  0.868846  0.607777  1
  Si  Si40  1  0.291366  0.060639  0.045854  1
  Si  Si41  1  0.208634  0.439361  0.545854  1
  Si  Si42  1  0.208634  0.560639  0.954146  1
  Si  Si43  1  0.291366  0.939361  0.454146  1
  Si  Si44  1  0.708634  0.939361  0.954146  1
  Si  Si45  1  0.791366  0.560639  0.454146  1
  Si  Si46  1  0.791366  0.439361  0.045854  1
  Si  Si47  1  0.708634  0.060639  0.545854  1
  Si  Si48  1  0.075431  0.069027  0.100889  1
  Si  Si49  1  0.424569  0.430973  0.600889  1
  Si  Si50  1  0.424569  0.569027  0.899111  1
  Si  Si51  1  0.075431  0.930973  0.399111  1
  Si  Si52  1  0.924569  0.930973  0.899111  1
  Si  Si53  1  0.575431  0.569027  0.399111  1
  Si  Si54  1  0.575431  0.430973  0.100889  1
  Si  Si55  1  0.924569  0.069027  0.600889  1
  Bi  Bi56  1  0.177353  0.500000  0.250000  1
  Bi  Bi57  1  0.322647  0.000000  0.750000  1
  Bi  Bi58  1  0.822647  0.500000  0.750000  1
  Bi  Bi59  1  0.677353  0.000000  0.250000  1
