# generated using pymatgen
data_Nd(MoC)4
_symmetry_space_group_name_H-M   'P 1'
_cell_length_a   6.19993404
_cell_length_b   6.19993549
_cell_length_c   6.19993516
_cell_angle_alpha   94.19390261
_cell_angle_beta   94.19390640
_cell_angle_gamma   148.62036541
_symmetry_Int_Tables_number   1
_chemical_formula_structural   Nd(MoC)4
_chemical_formula_sum   'Nd1 Mo4 C4'
_cell_volume   119.47115197
_cell_formula_units_Z   1
loop_
 _symmetry_equiv_pos_site_id
 _symmetry_equiv_pos_as_xyz
  1  'x, y, z'
loop_
 _atom_site_type_symbol
 _atom_site_label
 _atom_site_symmetry_multiplicity
 _atom_site_fract_x
 _atom_site_fract_y
 _atom_site_fract_z
 _atom_site_occupancy
  Nd  Nd0  1  0.000000  0.000000  0.000000  1
  Mo  Mo1  1  0.819328  0.368539  0.187865  1
  Mo  Mo2  1  0.631462  0.819328  0.450789  1
  Mo  Mo3  1  0.368539  0.180673  0.549212  1
  Mo  Mo4  1  0.180673  0.631462  0.812135  1
  C  C5  1  0.399863  0.739728  0.139590  1
  C  C6  1  0.739728  0.600138  0.339865  1
  C  C7  1  0.260273  0.399863  0.660136  1
  C  C8  1  0.600138  0.260273  0.860411  1
