# generated using pymatgen
data_Hf9NbRe3Ni
_symmetry_space_group_name_H-M   'P 1'
_cell_length_a   8.69319500
_cell_length_b   8.69319277
_cell_length_c   8.45158300
_cell_angle_alpha   90.00000000
_cell_angle_beta   90.00000000
_cell_angle_gamma   119.99999707
_symmetry_Int_Tables_number   1
_chemical_formula_structural   Hf9NbRe3Ni
_chemical_formula_sum   'Hf18 Nb2 Re6 Ni2'
_cell_volume   553.13028422
_cell_formula_units_Z   2
loop_
 _symmetry_equiv_pos_site_id
 _symmetry_equiv_pos_as_xyz
  1  'x, y, z'
loop_
 _atom_site_type_symbol
 _atom_site_label
 _atom_site_symmetry_multiplicity
 _atom_site_fract_x
 _atom_site_fract_y
 _atom_site_fract_z
 _atom_site_occupancy
  Hf  Hf0  1  0.199904  0.800096  0.442343  1
  Hf  Hf1  1  0.199904  0.399810  0.442343  1
  Hf  Hf2  1  0.600190  0.800096  0.442343  1
  Hf  Hf3  1  0.800096  0.199904  0.557657  1
  Hf  Hf4  1  0.800096  0.600190  0.557657  1
  Hf  Hf5  1  0.399810  0.199904  0.557657  1
  Hf  Hf6  1  0.800096  0.199904  0.942343  1
  Hf  Hf7  1  0.800096  0.600190  0.942343  1
  Hf  Hf8  1  0.399810  0.199904  0.942343  1
  Hf  Hf9  1  0.199904  0.800096  0.057657  1
  Hf  Hf10  1  0.199904  0.399810  0.057657  1
  Hf  Hf11  1  0.600190  0.800096  0.057657  1
  Hf  Hf12  1  0.541786  0.458214  0.250000  1
  Hf  Hf13  1  0.541786  0.083571  0.250000  1
  Hf  Hf14  1  0.916429  0.458214  0.250000  1
  Hf  Hf15  1  0.458214  0.541786  0.750000  1
  Hf  Hf16  1  0.458214  0.916429  0.750000  1
  Hf  Hf17  1  0.083571  0.541786  0.750000  1
  Nb  Nb18  1  0.000000  0.000000  0.500000  1
  Nb  Nb19  1  0.000000  0.000000  0.000000  1
  Re  Re20  1  0.886016  0.113984  0.250000  1
  Re  Re21  1  0.886016  0.772032  0.250000  1
  Re  Re22  1  0.227968  0.113984  0.250000  1
  Re  Re23  1  0.113984  0.886016  0.750000  1
  Re  Re24  1  0.113984  0.227968  0.750000  1
  Re  Re25  1  0.772032  0.886016  0.750000  1
  Ni  Ni26  1  0.333333  0.666667  0.250000  1
  Ni  Ni27  1  0.666667  0.333333  0.750000  1
