# generated using pymatgen
data_TbTm7Ga3Co
_symmetry_space_group_name_H-M   'P 1'
_cell_length_a   9.87214000
_cell_length_b   9.87213997
_cell_length_c   6.88197900
_cell_angle_alpha   90.00000000
_cell_angle_beta   90.00000000
_cell_angle_gamma   120.00000009
_symmetry_Int_Tables_number   1
_chemical_formula_structural   TbTm7Ga3Co
_chemical_formula_sum   'Tb2 Tm14 Ga6 Co2'
_cell_volume   580.85346504
_cell_formula_units_Z   2
loop_
 _symmetry_equiv_pos_site_id
 _symmetry_equiv_pos_as_xyz
  1  'x, y, z'
loop_
 _atom_site_type_symbol
 _atom_site_label
 _atom_site_symmetry_multiplicity
 _atom_site_fract_x
 _atom_site_fract_y
 _atom_site_fract_z
 _atom_site_occupancy
  Tb  Tb0  1  0.000000  0.000000  0.769305  1
  Tb  Tb1  1  0.000000  0.000000  0.269305  1
  Tm  Tm2  1  0.825795  0.651591  0.489010  1
  Tm  Tm3  1  0.348409  0.174205  0.489010  1
  Tm  Tm4  1  0.825795  0.174205  0.489010  1
  Tm  Tm5  1  0.174205  0.348409  0.989010  1
  Tm  Tm6  1  0.651591  0.825795  0.989010  1
  Tm  Tm7  1  0.174205  0.825795  0.989010  1
  Tm  Tm8  1  0.666667  0.333333  0.172417  1
  Tm  Tm9  1  0.333333  0.666667  0.672417  1
  Tm  Tm10  1  0.536682  0.073364  0.792591  1
  Tm  Tm11  1  0.926636  0.463318  0.792591  1
  Tm  Tm12  1  0.536682  0.463318  0.792591  1
  Tm  Tm13  1  0.463318  0.926636  0.292591  1
  Tm  Tm14  1  0.073364  0.536682  0.292591  1
  Tm  Tm15  1  0.463318  0.536682  0.292591  1
  Ga  Ga16  1  0.835943  0.671887  0.040043  1
  Ga  Ga17  1  0.328113  0.164057  0.040043  1
  Ga  Ga18  1  0.835943  0.164057  0.040043  1
  Ga  Ga19  1  0.164057  0.328113  0.540043  1
  Ga  Ga20  1  0.671887  0.835943  0.540043  1
  Ga  Ga21  1  0.164057  0.835943  0.540043  1
  Co  Co22  1  0.666667  0.333333  0.556381  1
  Co  Co23  1  0.333333  0.666667  0.056381  1
