# generated using pymatgen
data_Y8Al2IrPd
_symmetry_space_group_name_H-M   'P 1'
_cell_length_a   9.61809724
_cell_length_b   9.61809793
_cell_length_c   9.58092500
_cell_angle_alpha   60.12775722
_cell_angle_beta   60.12775486
_cell_angle_gamma   60.41143589
_symmetry_Int_Tables_number   1
_chemical_formula_structural   Y8Al2IrPd
_chemical_formula_sum   'Y16 Al4 Ir2 Pd2'
_cell_volume   629.86026187
_cell_formula_units_Z   2
loop_
 _symmetry_equiv_pos_site_id
 _symmetry_equiv_pos_as_xyz
  1  'x, y, z'
loop_
 _atom_site_type_symbol
 _atom_site_label
 _atom_site_symmetry_multiplicity
 _atom_site_fract_x
 _atom_site_fract_y
 _atom_site_fract_z
 _atom_site_occupancy
  Y  Y0  1  0.354054  0.354054  0.347969  1
  Y  Y1  1  0.354054  0.354054  0.943925  1
  Y  Y2  1  0.360359  0.932181  0.353729  1
  Y  Y3  1  0.932181  0.360359  0.353729  1
  Y  Y4  1  0.802633  0.194604  0.191988  1
  Y  Y5  1  0.194604  0.802633  0.810775  1
  Y  Y6  1  0.194604  0.802633  0.191988  1
  Y  Y7  1  0.802633  0.194604  0.810775  1
  Y  Y8  1  0.193948  0.193948  0.806052  1
  Y  Y9  1  0.808033  0.808033  0.191967  1
  Y  Y10  1  0.938105  0.566192  0.559506  1
  Y  Y11  1  0.566192  0.938105  0.936198  1
  Y  Y12  1  0.566192  0.938105  0.559506  1
  Y  Y13  1  0.938105  0.566192  0.936198  1
  Y  Y14  1  0.564019  0.564019  0.935981  1
  Y  Y15  1  0.937186  0.937186  0.562814  1
  Al  Al16  1  0.577283  0.577283  0.578831  1
  Al  Al17  1  0.577283  0.577283  0.266604  1
  Al  Al18  1  0.576463  0.266962  0.578288  1
  Al  Al19  1  0.266962  0.576463  0.578288  1
  Ir  Ir20  1  0.138900  0.572152  0.144475  1
  Ir  Ir21  1  0.572152  0.138900  0.144475  1
  Pd  Pd22  1  0.142029  0.142029  0.147593  1
  Pd  Pd23  1  0.142029  0.142029  0.568348  1
