# generated using pymatgen
data_Hf6Ga2P
_symmetry_space_group_name_H-M   'P 1'
_cell_length_a   7.38826700
_cell_length_b   7.38826733
_cell_length_c   3.68729200
_cell_angle_alpha   90.00000000
_cell_angle_beta   90.00000000
_cell_angle_gamma   120.00000302
_symmetry_Int_Tables_number   1
_chemical_formula_structural   Hf6Ga2P
_chemical_formula_sum   'Hf6 Ga2 P1'
_cell_volume   174.31041318
_cell_formula_units_Z   1
loop_
 _symmetry_equiv_pos_site_id
 _symmetry_equiv_pos_as_xyz
  1  'x, y, z'
loop_
 _atom_site_type_symbol
 _atom_site_label
 _atom_site_symmetry_multiplicity
 _atom_site_fract_x
 _atom_site_fract_y
 _atom_site_fract_z
 _atom_site_occupancy
  Hf  Hf0  1  0.253632  0.000000  0.000000  1
  Hf  Hf1  1  0.000000  0.253632  0.000000  1
  Hf  Hf2  1  0.746369  0.746369  0.000000  1
  Hf  Hf3  1  0.605455  0.000000  0.500001  1
  Hf  Hf4  1  0.394545  0.394545  0.500001  1
  Hf  Hf5  1  0.000000  0.605455  0.500001  1
  Ga  Ga6  1  0.666667  0.333334  0.000000  1
  Ga  Ga7  1  0.333333  0.666666  0.000000  1
  P  P8  1  0.000000  0.000000  0.500001  1
