# generated using pymatgen
data_Dy5Al2HgC4
_symmetry_space_group_name_H-M   'P 1'
_cell_length_a   10.97586000
_cell_length_b   10.97586000
_cell_length_c   3.51100600
_cell_angle_alpha   90.00000000
_cell_angle_beta   90.00000000
_cell_angle_gamma   90.00000000
_symmetry_Int_Tables_number   1
_chemical_formula_structural   Dy5Al2HgC4
_chemical_formula_sum   'Dy10 Al4 Hg2 C8'
_cell_volume   422.96914694
_cell_formula_units_Z   2
loop_
 _symmetry_equiv_pos_site_id
 _symmetry_equiv_pos_as_xyz
  1  'x, y, z'
loop_
 _atom_site_type_symbol
 _atom_site_label
 _atom_site_symmetry_multiplicity
 _atom_site_fract_x
 _atom_site_fract_y
 _atom_site_fract_z
 _atom_site_occupancy
  Dy  Dy0  1  0.549677  0.732019  0.500000  1
  Dy  Dy1  1  0.450323  0.267981  0.500000  1
  Dy  Dy2  1  0.049677  0.767981  0.500000  1
  Dy  Dy3  1  0.950323  0.232019  0.500000  1
  Dy  Dy4  1  0.267981  0.549677  0.500000  1
  Dy  Dy5  1  0.732019  0.450323  0.500000  1
  Dy  Dy6  1  0.232019  0.049677  0.500000  1
  Dy  Dy7  1  0.767981  0.950323  0.500000  1
  Dy  Dy8  1  0.500000  0.000000  0.000000  1
  Dy  Dy9  1  0.000000  0.500000  0.000000  1
  Al  Al10  1  0.703650  0.203650  0.000000  1
  Al  Al11  1  0.296350  0.796350  0.000000  1
  Al  Al12  1  0.203650  0.296350  0.000000  1
  Al  Al13  1  0.796350  0.703650  0.000000  1
  Hg  Hg14  1  0.500000  0.500000  0.000000  1
  Hg  Hg15  1  0.000000  0.000000  0.000000  1
  C  C16  1  0.632296  0.132296  0.500000  1
  C  C17  1  0.367704  0.867704  0.500000  1
  C  C18  1  0.132296  0.367704  0.500000  1
  C  C19  1  0.867704  0.632296  0.500000  1
  C  C20  1  0.162041  0.662041  0.000000  1
  C  C21  1  0.837959  0.337959  0.000000  1
  C  C22  1  0.662041  0.837959  0.000000  1
  C  C23  1  0.337959  0.162041  0.000000  1
