# generated using pymatgen
data_Sm2B4IrRu3
_symmetry_space_group_name_H-M   'P 1'
_cell_length_a   6.79681721
_cell_length_b   5.99441659
_cell_length_c   5.55865857
_cell_angle_alpha   71.96246306
_cell_angle_beta   56.99262521
_cell_angle_gamma   51.49624841
_symmetry_Int_Tables_number   1
_chemical_formula_structural   Sm2B4IrRu3
_chemical_formula_sum   'Sm2 B4 Ir1 Ru3'
_cell_volume   148.47731607
_cell_formula_units_Z   1
loop_
 _symmetry_equiv_pos_site_id
 _symmetry_equiv_pos_as_xyz
  1  'x, y, z'
loop_
 _atom_site_type_symbol
 _atom_site_label
 _atom_site_symmetry_multiplicity
 _atom_site_fract_x
 _atom_site_fract_y
 _atom_site_fract_z
 _atom_site_occupancy
  Sm  Sm0  1  0.498519  0.498519  0.501481  1
  Sm  Sm1  1  0.749544  0.749544  0.750456  1
  B  B2  1  0.181592  0.816983  0.182848  1
  B  B3  1  0.066818  0.436245  0.062293  1
  B  B4  1  0.816983  0.181592  0.818577  1
  B  B5  1  0.436245  0.066818  0.434645  1
  Ir  Ir6  1  0.114784  0.114784  0.385216  1
  Ru  Ru7  1  0.863999  0.863999  0.136001  1
  Ru  Ru8  1  0.135728  0.135728  0.864272  1
  Ru  Ru9  1  0.385790  0.385790  0.114210  1
