# generated using pymatgen
data_PaCl9
_symmetry_space_group_name_H-M   'P 1'
_cell_length_a   7.95679954
_cell_length_b   7.95742210
_cell_length_c   15.83460366
_cell_angle_alpha   77.94531755
_cell_angle_beta   102.04784097
_cell_angle_gamma   115.64754761
_symmetry_Int_Tables_number   1
_chemical_formula_structural   PaCl9
_chemical_formula_sum   'Pa2 Cl18'
_cell_volume   875.86907204
_cell_formula_units_Z   2
loop_
 _symmetry_equiv_pos_site_id
 _symmetry_equiv_pos_as_xyz
  1  'x, y, z'
loop_
 _atom_site_type_symbol
 _atom_site_label
 _atom_site_symmetry_multiplicity
 _atom_site_fract_x
 _atom_site_fract_y
 _atom_site_fract_z
 _atom_site_occupancy
  Pa  Pa0  1  0.001492  0.973995  0.998641  1
  Pa  Pa1  1  0.526087  0.498503  0.498600  1
  Cl  Cl2  1  0.802477  0.316911  0.245109  1
  Cl  Cl3  1  0.182928  0.697463  0.745096  1
  Cl  Cl4  1  0.254538  0.853175  0.049939  1
  Cl  Cl5  1  0.860830  0.815190  0.137890  1
  Cl  Cl6  1  0.224428  0.302063  0.087035  1
  Cl  Cl7  1  0.473904  0.290837  0.157505  1
  Cl  Cl8  1  0.786469  0.070070  0.316402  1
  Cl  Cl9  1  0.799497  0.727262  0.416822  1
  Cl  Cl10  1  0.339636  0.336261  0.368219  1
  Cl  Cl11  1  0.320726  0.678096  0.472466  1
  Cl  Cl12  1  0.646872  0.245458  0.549905  1
  Cl  Cl13  1  0.684907  0.639147  0.637826  1
  Cl  Cl14  1  0.197980  0.275598  0.587017  1
  Cl  Cl15  1  0.209098  0.026091  0.657484  1
  Cl  Cl16  1  0.429806  0.713500  0.816416  1
  Cl  Cl17  1  0.772683  0.700618  0.916898  1
  Cl  Cl18  1  0.163774  0.160423  0.868238  1
  Cl  Cl19  1  0.821870  0.179332  0.972490  1
