# generated using pymatgen
data_Hf12Ta3Ti(Fe2N)4
_symmetry_space_group_name_H-M   'P 1'
_cell_length_a   8.41327406
_cell_length_b   8.41327382
_cell_length_c   8.41327433
_cell_angle_alpha   59.94731389
_cell_angle_beta   59.94731426
_cell_angle_gamma   59.94731122
_symmetry_Int_Tables_number   1
_chemical_formula_structural   Hf12Ta3Ti(Fe2N)4
_chemical_formula_sum   'Hf12 Ta3 Ti1 Fe8 N4'
_cell_volume   420.59184455
_cell_formula_units_Z   1
loop_
 _symmetry_equiv_pos_site_id
 _symmetry_equiv_pos_as_xyz
  1  'x, y, z'
loop_
 _atom_site_type_symbol
 _atom_site_label
 _atom_site_symmetry_multiplicity
 _atom_site_fract_x
 _atom_site_fract_y
 _atom_site_fract_z
 _atom_site_occupancy
  Hf  Hf0  1  0.811553  0.811553  0.189235  1
  Hf  Hf1  1  0.187724  0.187724  0.812144  1
  Hf  Hf2  1  0.811553  0.189235  0.811553  1
  Hf  Hf3  1  0.187724  0.812144  0.187724  1
  Hf  Hf4  1  0.189235  0.811553  0.811553  1
  Hf  Hf5  1  0.812144  0.187724  0.187724  1
  Hf  Hf6  1  0.438447  0.438447  0.060765  1
  Hf  Hf7  1  0.062276  0.062276  0.437856  1
  Hf  Hf8  1  0.438447  0.060765  0.438447  1
  Hf  Hf9  1  0.062276  0.437856  0.062276  1
  Hf  Hf10  1  0.060765  0.438447  0.438447  1
  Hf  Hf11  1  0.437856  0.062276  0.062276  1
  Ta  Ta12  1  0.125000  0.625000  0.625000  1
  Ta  Ta13  1  0.625000  0.125000  0.625000  1
  Ta  Ta14  1  0.625000  0.625000  0.125000  1
  Ti  Ti15  1  0.625000  0.625000  0.625000  1
  Fe  Fe16  1  0.744009  0.418957  0.418957  1
  Fe  Fe17  1  0.418957  0.744009  0.418957  1
  Fe  Fe18  1  0.418957  0.418957  0.744009  1
  Fe  Fe19  1  0.418530  0.418530  0.418530  1
  Fe  Fe20  1  0.505991  0.831043  0.831043  1
  Fe  Fe21  1  0.831043  0.505991  0.831043  1
  Fe  Fe22  1  0.831043  0.831043  0.505991  1
  Fe  Fe23  1  0.831470  0.831470  0.831470  1
  N  N24  1  0.625000  0.125000  0.125000  1
  N  N25  1  0.125000  0.625000  0.125000  1
  N  N26  1  0.125000  0.125000  0.625000  1
  N  N27  1  0.125000  0.125000  0.125000  1
