# generated using pymatgen
data_DyYAl9Co2Cu
_symmetry_space_group_name_H-M   'P 1'
_cell_length_a   7.43542479
_cell_length_b   7.43577226
_cell_length_c   9.28389703
_cell_angle_alpha   89.99552323
_cell_angle_beta   89.99557222
_cell_angle_gamma   119.41250998
_symmetry_Int_Tables_number   1
_chemical_formula_structural   DyYAl9Co2Cu
_chemical_formula_sum   'Dy2 Y2 Al18 Co4 Cu2'
_cell_volume   447.12966233
_cell_formula_units_Z   2
loop_
 _symmetry_equiv_pos_site_id
 _symmetry_equiv_pos_as_xyz
  1  'x, y, z'
loop_
 _atom_site_type_symbol
 _atom_site_label
 _atom_site_symmetry_multiplicity
 _atom_site_fract_x
 _atom_site_fract_y
 _atom_site_fract_z
 _atom_site_occupancy
  Dy  Dy0  1  0.994140  0.677151  0.249995  1
  Dy  Dy1  1  0.005860  0.322849  0.750005  1
  Y  Y2  1  0.677034  0.993829  0.249996  1
  Y  Y3  1  0.322966  0.006171  0.750004  1
  Al  Al4  1  0.134569  0.134367  0.249980  1
  Al  Al5  1  0.865431  0.865633  0.750020  1
  Al  Al6  1  0.338468  0.338611  0.547743  1
  Al  Al7  1  0.661525  0.661379  0.047707  1
  Al  Al8  1  0.338475  0.338621  0.952293  1
  Al  Al9  1  0.661532  0.661389  0.452257  1
  Al  Al10  1  0.338298  0.556891  0.249909  1
  Al  Al11  1  0.661702  0.443109  0.750091  1
  Al  Al12  1  0.557260  0.338897  0.249906  1
  Al  Al13  1  0.442740  0.661103  0.750094  1
  Al  Al14  1  0.998091  0.343272  0.073361  1
  Al  Al15  1  0.001845  0.656755  0.573392  1
  Al  Al16  1  0.343094  0.998091  0.426477  1
  Al  Al17  1  0.656895  0.001977  0.926497  1
  Al  Al18  1  0.001909  0.656728  0.926639  1
  Al  Al19  1  0.998155  0.343245  0.426608  1
  Al  Al20  1  0.656906  0.001909  0.573523  1
  Al  Al21  1  0.343105  0.998023  0.073503  1
  Co  Co22  1  0.670776  0.329308  0.999995  1
  Co  Co23  1  0.329220  0.670692  0.499997  1
  Co  Co24  1  0.329224  0.670692  0.000005  1
  Co  Co25  1  0.670780  0.329308  0.500003  1
  Cu  Cu26  1  0.000000  0.000000  0.000000  1
  Cu  Cu27  1  0.000000  0.000000  0.500000  1
