# generated using pymatgen
data_Sr13Al6Si8F
_symmetry_space_group_name_H-M   'P 1'
_cell_length_a   11.69159407
_cell_length_b   11.69159437
_cell_length_c   17.52324418
_cell_angle_alpha   55.65510559
_cell_angle_beta   55.65510411
_cell_angle_gamma   24.01622853
_symmetry_Int_Tables_number   1
_chemical_formula_structural   Sr13Al6Si8F
_chemical_formula_sum   'Sr13 Al6 Si8 F1'
_cell_volume   796.36956695
_cell_formula_units_Z   1
loop_
 _symmetry_equiv_pos_site_id
 _symmetry_equiv_pos_as_xyz
  1  'x, y, z'
loop_
 _atom_site_type_symbol
 _atom_site_label
 _atom_site_symmetry_multiplicity
 _atom_site_fract_x
 _atom_site_fract_y
 _atom_site_fract_z
 _atom_site_occupancy
  Sr  Sr0  1  0.192496  0.192496  0.856234  1
  Sr  Sr1  1  0.997251  0.997251  0.352311  1
  Sr  Sr2  1  0.998269  0.998269  0.119610  1
  Sr  Sr3  1  0.191681  0.191681  0.609133  1
  Sr  Sr4  1  0.183867  0.183867  0.109500  1
  Sr  Sr5  1  0.168660  0.168660  0.371936  1
  Sr  Sr6  1  0.500000  0.500000  0.500000  1
  Sr  Sr7  1  0.831340  0.831340  0.628064  1
  Sr  Sr8  1  0.808319  0.808319  0.390867  1
  Sr  Sr9  1  0.816133  0.816133  0.890500  1
  Sr  Sr10  1  0.807504  0.807504  0.143766  1
  Sr  Sr11  1  0.001731  0.001731  0.880390  1
  Sr  Sr12  1  0.002749  0.002749  0.647689  1
  Al  Al13  1  0.434114  0.434114  0.810111  1
  Al  Al14  1  0.569385  0.569385  0.947743  1
  Al  Al15  1  0.427508  0.427508  0.293747  1
  Al  Al16  1  0.565886  0.565886  0.189889  1
  Al  Al17  1  0.572492  0.572492  0.706253  1
  Al  Al18  1  0.430615  0.430615  0.052257  1
  Si  Si19  1  0.640587  0.640587  0.015130  1
  Si  Si20  1  0.646198  0.646198  0.770861  1
  Si  Si21  1  0.353802  0.353802  0.229139  1
  Si  Si22  1  0.371978  0.371978  0.729764  1
  Si  Si23  1  0.368369  0.368369  0.466882  1
  Si  Si24  1  0.631631  0.631631  0.533118  1
  Si  Si25  1  0.628022  0.628022  0.270236  1
  Si  Si26  1  0.359413  0.359413  0.984870  1
  F  F27  1  0.000000  0.000000  0.500000  1
