# generated using pymatgen
data_YHo(Sc4Bi3)2
_symmetry_space_group_name_H-M   'P 1'
_cell_length_a   7.88801500
_cell_length_b   9.06471300
_cell_length_c   11.56474600
_cell_angle_alpha   90.00000000
_cell_angle_beta   90.00000000
_cell_angle_gamma   90.00000000
_symmetry_Int_Tables_number   1
_chemical_formula_structural   YHo(Sc4Bi3)2
_chemical_formula_sum   'Y2 Ho2 Sc16 Bi12'
_cell_volume   826.90931615
_cell_formula_units_Z   2
loop_
 _symmetry_equiv_pos_site_id
 _symmetry_equiv_pos_as_xyz
  1  'x, y, z'
loop_
 _atom_site_type_symbol
 _atom_site_label
 _atom_site_symmetry_multiplicity
 _atom_site_fract_x
 _atom_site_fract_y
 _atom_site_fract_z
 _atom_site_occupancy
  Y  Y0  1  0.316170  0.250000  0.218846  1
  Y  Y1  1  0.816170  0.250000  0.281154  1
  Ho  Ho2  1  0.684016  0.750000  0.781401  1
  Ho  Ho3  1  0.184016  0.750000  0.718599  1
  Sc  Sc4  1  0.349657  0.750000  0.220449  1
  Sc  Sc5  1  0.849657  0.750000  0.279551  1
  Sc  Sc6  1  0.650305  0.250000  0.779437  1
  Sc  Sc7  1  0.150305  0.250000  0.720563  1
  Sc  Sc8  1  0.692935  0.567339  0.061895  1
  Sc  Sc9  1  0.192935  0.932661  0.438105  1
  Sc  Sc10  1  0.307027  0.067257  0.937914  1
  Sc  Sc11  1  0.807027  0.432743  0.562086  1
  Sc  Sc12  1  0.307027  0.432743  0.937914  1
  Sc  Sc13  1  0.807027  0.067257  0.562086  1
  Sc  Sc14  1  0.692935  0.932661  0.061895  1
  Sc  Sc15  1  0.192935  0.567339  0.438105  1
  Sc  Sc16  1  0.481959  0.250000  0.489561  1
  Sc  Sc17  1  0.981959  0.250000  0.010439  1
  Sc  Sc18  1  0.517994  0.750000  0.510948  1
  Sc  Sc19  1  0.017994  0.750000  0.989052  1
  Bi  Bi20  1  0.401937  0.750000  0.966322  1
  Bi  Bi21  1  0.901937  0.750000  0.533678  1
  Bi  Bi22  1  0.598235  0.250000  0.033148  1
  Bi  Bi23  1  0.098235  0.250000  0.466852  1
  Bi  Bi24  1  0.564407  0.989952  0.328606  1
  Bi  Bi25  1  0.064407  0.510048  0.171394  1
  Bi  Bi26  1  0.435495  0.490541  0.671707  1
  Bi  Bi27  1  0.935495  0.009459  0.828293  1
  Bi  Bi28  1  0.435495  0.009459  0.671707  1
  Bi  Bi29  1  0.935495  0.490541  0.828293  1
  Bi  Bi30  1  0.564407  0.510048  0.328606  1
  Bi  Bi31  1  0.064407  0.989952  0.171394  1
