# generated using pymatgen
data_Er4GaFeTc6
_symmetry_space_group_name_H-M   'P 1'
_cell_length_a   5.41765317
_cell_length_b   5.41765367
_cell_length_c   8.73744300
_cell_angle_alpha   90.00000000
_cell_angle_beta   90.00000000
_cell_angle_gamma   122.86773170
_symmetry_Int_Tables_number   1
_chemical_formula_structural   Er4GaFeTc6
_chemical_formula_sum   'Er4 Ga1 Fe1 Tc6'
_cell_volume   215.40095904
_cell_formula_units_Z   1
loop_
 _symmetry_equiv_pos_site_id
 _symmetry_equiv_pos_as_xyz
  1  'x, y, z'
loop_
 _atom_site_type_symbol
 _atom_site_label
 _atom_site_symmetry_multiplicity
 _atom_site_fract_x
 _atom_site_fract_y
 _atom_site_fract_z
 _atom_site_occupancy
  Er  Er0  1  0.335881  0.664119  0.435457  1
  Er  Er1  1  0.664334  0.335666  0.558242  1
  Er  Er2  1  0.664334  0.335666  0.941758  1
  Er  Er3  1  0.335881  0.664119  0.064543  1
  Ga  Ga4  1  0.170663  0.829337  0.750000  1
  Fe  Fe5  1  0.828931  0.171069  0.250000  1
  Tc  Tc6  1  0.997216  0.002784  0.495109  1
  Tc  Tc7  1  0.997216  0.002784  0.004891  1
  Tc  Tc8  1  0.825172  0.657897  0.250000  1
  Tc  Tc9  1  0.342103  0.174828  0.250000  1
  Tc  Tc10  1  0.176992  0.338724  0.750000  1
  Tc  Tc11  1  0.661276  0.823008  0.750000  1
