# generated using pymatgen
data_Zr3Sc5(Si4Ru3)4
_symmetry_space_group_name_H-M   'P 1'
_cell_length_a   9.95857821
_cell_length_b   9.95768740
_cell_length_c   13.34092296
_cell_angle_alpha   53.96567346
_cell_angle_beta   53.94555776
_cell_angle_gamma   31.05979627
_symmetry_Int_Tables_number   1
_chemical_formula_structural   Zr3Sc5(Si4Ru3)4
_chemical_formula_sum   'Zr3 Sc5 Si16 Ru12'
_cell_volume   540.48101769
_cell_formula_units_Z   1
loop_
 _symmetry_equiv_pos_site_id
 _symmetry_equiv_pos_as_xyz
  1  'x, y, z'
loop_
 _atom_site_type_symbol
 _atom_site_label
 _atom_site_symmetry_multiplicity
 _atom_site_fract_x
 _atom_site_fract_y
 _atom_site_fract_z
 _atom_site_occupancy
  Zr  Zr0  1  0.442182  0.708689  0.852044  1
  Zr  Zr1  1  0.706191  0.443336  0.353842  1
  Zr  Zr2  1  0.557455  0.291495  0.147614  1
  Sc  Sc3  1  0.039140  0.292346  0.638510  1
  Sc  Sc4  1  0.708611  0.960578  0.860893  1
  Sc  Sc5  1  0.961246  0.707477  0.361688  1
  Sc  Sc6  1  0.292057  0.039058  0.138908  1
  Sc  Sc7  1  0.290697  0.559853  0.647173  1
  Si  Si8  1  0.974906  0.255098  0.891653  1
  Si  Si9  1  0.744758  0.025954  0.608622  1
  Si  Si10  1  0.024043  0.745819  0.108497  1
  Si  Si11  1  0.252319  0.977310  0.391638  1
  Si  Si12  1  0.144734  0.385994  0.897116  1
  Si  Si13  1  0.617105  0.853955  0.601521  1
  Si  Si14  1  0.855669  0.614786  0.101888  1
  Si  Si15  1  0.384062  0.144396  0.398777  1
  Si  Si16  1  0.080518  0.574567  0.566038  1
  Si  Si17  1  0.424764  0.922309  0.934612  1
  Si  Si18  1  0.920354  0.425972  0.435229  1
  Si  Si19  1  0.574523  0.078760  0.065233  1
  Si  Si20  1  0.618363  0.380907  0.749389  1
  Si  Si21  1  0.383124  0.616766  0.250036  1
  Si  Si22  1  0.125831  0.873556  0.749620  1
  Si  Si23  1  0.873800  0.125911  0.250338  1
  Ru  Ru24  1  0.896685  0.142029  0.584574  1
  Ru  Ru25  1  0.856908  0.105005  0.915320  1
  Ru  Ru26  1  0.105219  0.857139  0.414015  1
  Ru  Ru27  1  0.143907  0.893869  0.084916  1
  Ru  Ru28  1  0.831310  0.646682  0.782355  1
  Ru  Ru29  1  0.352308  0.168396  0.717765  1
  Ru  Ru30  1  0.168534  0.353506  0.217813  1
  Ru  Ru31  1  0.646278  0.831473  0.282344  1
  Ru  Ru32  1  0.248990  0.509786  0.930716  1
  Ru  Ru33  1  0.490448  0.750965  0.569747  1
  Ru  Ru34  1  0.752697  0.488557  0.069379  1
  Ru  Ru35  1  0.510263  0.247702  0.430176  1
