# generated using pymatgen
data_Tb3Al12Os3Pd
_symmetry_space_group_name_H-M   'P 1'
_cell_length_a   8.87131955
_cell_length_b   8.82932943
_cell_length_c   9.58336125
_cell_angle_alpha   89.99999886
_cell_angle_beta   90.19957048
_cell_angle_gamma   119.84353769
_symmetry_Int_Tables_number   1
_chemical_formula_structural   Tb3Al12Os3Pd
_chemical_formula_sum   'Tb6 Al24 Os6 Pd2'
_cell_volume   651.09370064
_cell_formula_units_Z   2
loop_
 _symmetry_equiv_pos_site_id
 _symmetry_equiv_pos_as_xyz
  1  'x, y, z'
loop_
 _atom_site_type_symbol
 _atom_site_label
 _atom_site_symmetry_multiplicity
 _atom_site_fract_x
 _atom_site_fract_y
 _atom_site_fract_z
 _atom_site_occupancy
  Tb  Tb0  1  0.189984  0.386575  0.253461  1
  Tb  Tb1  1  0.810016  0.613425  0.746539  1
  Tb  Tb2  1  0.616430  0.808215  0.252644  1
  Tb  Tb3  1  0.383570  0.191785  0.747356  1
  Tb  Tb4  1  0.189984  0.803409  0.253461  1
  Tb  Tb5  1  0.810016  0.196591  0.746539  1
  Al  Al6  1  0.328816  0.664408  0.024451  1
  Al  Al7  1  0.671184  0.335592  0.975549  1
  Al  Al8  1  0.666113  0.333056  0.521755  1
  Al  Al9  1  0.333887  0.666944  0.478245  1
  Al  Al10  1  0.164951  0.328079  0.575443  1
  Al  Al11  1  0.835049  0.671921  0.424557  1
  Al  Al12  1  0.672488  0.836244  0.574110  1
  Al  Al13  1  0.842473  0.674359  0.078592  1
  Al  Al14  1  0.327512  0.163756  0.425890  1
  Al  Al15  1  0.157527  0.325641  0.921408  1
  Al  Al16  1  0.164951  0.836871  0.575443  1
  Al  Al17  1  0.323139  0.161570  0.079997  1
  Al  Al18  1  0.835049  0.163129  0.424557  1
  Al  Al19  1  0.676861  0.838430  0.920003  1
  Al  Al20  1  0.842473  0.168115  0.078592  1
  Al  Al21  1  0.157527  0.831885  0.921408  1
  Al  Al22  1  0.562171  0.124462  0.251858  1
  Al  Al23  1  0.437829  0.875538  0.748142  1
  Al  Al24  1  0.876174  0.438087  0.249031  1
  Al  Al25  1  0.123826  0.561913  0.750969  1
  Al  Al26  1  0.562171  0.437710  0.251858  1
  Al  Al27  1  0.437829  0.562290  0.748142  1
  Al  Al28  1  0.997589  0.998794  0.250557  1
  Al  Al29  1  0.002411  0.001206  0.749443  1
  Os  Os30  1  0.000000  0.500000  0.000000  1
  Os  Os31  1  0.500000  0.000000  0.500000  1
  Os  Os32  1  0.000000  0.500000  0.500000  1
  Os  Os33  1  0.500000  0.500000  0.500000  1
  Os  Os34  1  0.000000  0.000000  0.000000  1
  Os  Os35  1  0.000000  0.000000  0.500000  1
  Pd  Pd36  1  0.500000  0.000000  0.000000  1
  Pd  Pd37  1  0.500000  0.500000  0.000000  1
