# generated using pymatgen
data_YU7SbS17
_symmetry_space_group_name_H-M   'P 1'
_cell_length_a   7.90545607
_cell_length_b   7.90850237
_cell_length_c   10.67495300
_cell_angle_alpha   79.96077979
_cell_angle_beta   79.42827824
_cell_angle_gamma   64.82399235
_symmetry_Int_Tables_number   1
_chemical_formula_structural   YU7SbS17
_chemical_formula_sum   'Y1 U7 Sb1 S17'
_cell_volume   590.26252184
_cell_formula_units_Z   1
loop_
 _symmetry_equiv_pos_site_id
 _symmetry_equiv_pos_as_xyz
  1  'x, y, z'
loop_
 _atom_site_type_symbol
 _atom_site_label
 _atom_site_symmetry_multiplicity
 _atom_site_fract_x
 _atom_site_fract_y
 _atom_site_fract_z
 _atom_site_occupancy
  Y  Y0  1  0.813991  0.312270  0.303276  1
  U  U1  1  0.306699  0.819615  0.305954  1
  U  U2  1  0.181265  0.694037  0.694165  1
  U  U3  1  0.696114  0.178285  0.695163  1
  U  U4  1  0.204425  0.205074  0.538354  1
  U  U5  1  0.795738  0.789702  0.461018  1
  U  U6  1  0.671663  0.675376  0.980377  1
  U  U7  1  0.323987  0.330369  0.016152  1
  Sb  Sb8  1  0.998515  0.003687  0.003244  1
  S  S9  1  0.824555  0.427875  0.536682  1
  S  S10  1  0.432244  0.820378  0.534777  1
  S  S11  1  0.180308  0.565539  0.464765  1
  S  S12  1  0.572752  0.170551  0.469583  1
  S  S13  1  0.948562  0.338746  0.040355  1
  S  S14  1  0.333281  0.952508  0.043996  1
  S  S15  1  0.049153  0.667386  0.954044  1
  S  S16  1  0.663381  0.054606  0.954474  1
  S  S17  1  0.218371  0.209027  0.282431  1
  S  S18  1  0.785457  0.785004  0.718643  1
  S  S19  1  0.056784  0.055551  0.758424  1
  S  S20  1  0.948948  0.940047  0.246602  1
  S  S21  1  0.302887  0.302744  0.750901  1
  S  S22  1  0.694284  0.703319  0.246936  1
  S  S23  1  0.518020  0.521847  0.828026  1
  S  S24  1  0.473391  0.487613  0.165007  1
  S  S25  1  0.005226  0.988842  0.506651  1
