# generated using pymatgen
data_NaHgSI
_symmetry_space_group_name_H-M   'P 1'
_cell_length_a   10.53960201
_cell_length_b   10.53960284
_cell_length_c   5.85162800
_cell_angle_alpha   90.00000000
_cell_angle_beta   90.00000000
_cell_angle_gamma   126.98543797
_symmetry_Int_Tables_number   1
_chemical_formula_structural   NaHgSI
_chemical_formula_sum   'Na4 Hg4 S4 I4'
_cell_volume   519.22660496
_cell_formula_units_Z   4
loop_
 _symmetry_equiv_pos_site_id
 _symmetry_equiv_pos_as_xyz
  1  'x, y, z'
loop_
 _atom_site_type_symbol
 _atom_site_label
 _atom_site_symmetry_multiplicity
 _atom_site_fract_x
 _atom_site_fract_y
 _atom_site_fract_z
 _atom_site_occupancy
  Na  Na0  1  0.589082  0.858341  0.000000  1
  Na  Na1  1  0.410918  0.141659  0.000000  1
  Na  Na2  1  0.858341  0.589082  0.000000  1
  Na  Na3  1  0.141659  0.410918  0.000000  1
  Hg  Hg4  1  0.743828  0.743828  0.500000  1
  Hg  Hg5  1  0.256172  0.256172  0.500000  1
  Hg  Hg6  1  0.862914  0.137086  0.500000  1
  Hg  Hg7  1  0.137086  0.862914  0.500000  1
  S  S8  1  0.617907  0.871747  0.500000  1
  S  S9  1  0.382093  0.128253  0.500000  1
  S  S10  1  0.871747  0.617907  0.500000  1
  S  S11  1  0.128253  0.382093  0.500000  1
  I  I12  1  0.760643  0.239357  0.000000  1
  I  I13  1  0.239357  0.760643  0.000000  1
  I  I14  1  0.500000  0.500000  0.000000  1
  I  I15  1  0.000000  0.000000  0.000000  1
