# generated using pymatgen
data_DyHo11InGaCo4
_symmetry_space_group_name_H-M   'P 1'
_cell_length_a   8.27936096
_cell_length_b   8.28763568
_cell_length_c   8.28801611
_cell_angle_alpha   106.78284562
_cell_angle_beta   109.56843222
_cell_angle_gamma   112.13623305
_symmetry_Int_Tables_number   1
_chemical_formula_structural   DyHo11InGaCo4
_chemical_formula_sum   'Dy1 Ho11 In1 Ga1 Co4'
_cell_volume   436.66526775
_cell_formula_units_Z   1
loop_
 _symmetry_equiv_pos_site_id
 _symmetry_equiv_pos_as_xyz
  1  'x, y, z'
loop_
 _atom_site_type_symbol
 _atom_site_label
 _atom_site_symmetry_multiplicity
 _atom_site_fract_x
 _atom_site_fract_y
 _atom_site_fract_z
 _atom_site_occupancy
  Dy  Dy0  1  0.601154  0.782735  0.818265  1
  Ho  Ho1  1  0.299717  0.266937  0.567191  1
  Ho  Ho2  1  0.700171  0.732713  0.432427  1
  Ho  Ho3  1  0.299612  0.732528  0.032517  1
  Ho  Ho4  1  0.699884  0.267564  0.967117  1
  Ho  Ho5  1  0.186890  0.511456  0.324025  1
  Ho  Ho6  1  0.187155  0.862872  0.675272  1
  Ho  Ho7  1  0.812553  0.487823  0.675116  1
  Ho  Ho8  1  0.812491  0.137227  0.324511  1
  Ho  Ho9  1  0.398599  0.217139  0.181460  1
  Ho  Ho10  1  0.035532  0.216926  0.818550  1
  Ho  Ho11  1  0.964858  0.783125  0.181605  1
  In  In12  1  0.500566  0.000641  0.500681  1
  Ga  Ga13  1  0.500449  0.500438  0.000842  1
  Co  Co14  1  0.158269  0.499494  0.658696  1
  Co  Co15  1  0.840928  0.499771  0.341001  1
  Co  Co16  1  0.000752  0.114799  0.115050  1
  Co  Co17  1  0.000420  0.885811  0.885675  1
