# generated using pymatgen
data_TmMn2Fe2P3W
_symmetry_space_group_name_H-M   'P 1'
_cell_length_a   3.66793400
_cell_length_b   10.49541100
_cell_length_c   12.15164700
_cell_angle_alpha   90.00000000
_cell_angle_beta   90.00000000
_cell_angle_gamma   90.00000000
_symmetry_Int_Tables_number   1
_chemical_formula_structural   TmMn2Fe2P3W
_chemical_formula_sum   'Tm4 Mn8 Fe8 P12 W4'
_cell_volume   467.79557313
_cell_formula_units_Z   4
loop_
 _symmetry_equiv_pos_site_id
 _symmetry_equiv_pos_as_xyz
  1  'x, y, z'
loop_
 _atom_site_type_symbol
 _atom_site_label
 _atom_site_symmetry_multiplicity
 _atom_site_fract_x
 _atom_site_fract_y
 _atom_site_fract_z
 _atom_site_occupancy
  Tm  Tm0  1  0.250000  0.581991  0.710181  1
  Tm  Tm1  1  0.250000  0.918009  0.210181  1
  Tm  Tm2  1  0.750000  0.418009  0.289819  1
  Tm  Tm3  1  0.750000  0.081991  0.789819  1
  Mn  Mn4  1  0.250000  0.408322  0.492954  1
  Mn  Mn5  1  0.250000  0.091678  0.992954  1
  Mn  Mn6  1  0.750000  0.591678  0.507046  1
  Mn  Mn7  1  0.750000  0.908322  0.007046  1
  Mn  Mn8  1  0.250000  0.217646  0.176440  1
  Mn  Mn9  1  0.250000  0.282354  0.676440  1
  Mn  Mn10  1  0.750000  0.782354  0.823560  1
  Mn  Mn11  1  0.750000  0.717646  0.323560  1
  Fe  Fe12  1  0.250000  0.876781  0.698984  1
  Fe  Fe13  1  0.250000  0.623219  0.198984  1
  Fe  Fe14  1  0.750000  0.123219  0.301016  1
  Fe  Fe15  1  0.750000  0.376781  0.801016  1
  Fe  Fe16  1  0.250000  0.462814  0.934309  1
  Fe  Fe17  1  0.250000  0.037186  0.434309  1
  Fe  Fe18  1  0.750000  0.537186  0.065691  1
  Fe  Fe19  1  0.750000  0.962814  0.565691  1
  P  P20  1  0.250000  0.428424  0.114443  1
  P  P21  1  0.250000  0.071576  0.614443  1
  P  P22  1  0.750000  0.571576  0.885557  1
  P  P23  1  0.750000  0.928424  0.385557  1
  P  P24  1  0.250000  0.265931  0.866338  1
  P  P25  1  0.250000  0.234069  0.366338  1
  P  P26  1  0.750000  0.734069  0.133662  1
  P  P27  1  0.750000  0.765931  0.633662  1
  P  P28  1  0.250000  0.590328  0.383762  1
  P  P29  1  0.250000  0.909672  0.883762  1
  P  P30  1  0.750000  0.409672  0.616238  1
  P  P31  1  0.750000  0.090328  0.116238  1
  W  W32  1  0.250000  0.705419  0.987685  1
  W  W33  1  0.250000  0.794581  0.487685  1
  W  W34  1  0.750000  0.294581  0.012315  1
  W  W35  1  0.750000  0.205419  0.512315  1
