# generated using pymatgen
data_CePRuRhAu
_symmetry_space_group_name_H-M   'P 1'
_cell_length_a   4.02556000
_cell_length_b   4.02556000
_cell_length_c   11.04340600
_cell_angle_alpha   90.00000000
_cell_angle_beta   90.00000000
_cell_angle_gamma   90.00000000
_symmetry_Int_Tables_number   1
_chemical_formula_structural   CePRuRhAu
_chemical_formula_sum   'Ce2 P2 Ru2 Rh2 Au2'
_cell_volume   178.95986647
_cell_formula_units_Z   2
loop_
 _symmetry_equiv_pos_site_id
 _symmetry_equiv_pos_as_xyz
  1  'x, y, z'
loop_
 _atom_site_type_symbol
 _atom_site_label
 _atom_site_symmetry_multiplicity
 _atom_site_fract_x
 _atom_site_fract_y
 _atom_site_fract_z
 _atom_site_occupancy
  Ce  Ce0  1  0.500000  0.000000  0.751632  1
  Ce  Ce1  1  0.000000  0.500000  0.248368  1
  P  P2  1  0.500000  0.000000  0.108122  1
  P  P3  1  0.000000  0.500000  0.891878  1
  Ru  Ru4  1  0.000000  0.000000  0.000000  1
  Ru  Ru5  1  0.500000  0.500000  0.000000  1
  Rh  Rh6  1  0.000000  0.500000  0.685485  1
  Rh  Rh7  1  0.500000  0.000000  0.314515  1
  Au  Au8  1  0.500000  0.500000  0.500000  1
  Au  Au9  1  0.000000  0.000000  0.500000  1
