# generated using pymatgen
data_Tb2ThIn3CuPd2
_symmetry_space_group_name_H-M   'P 1'
_cell_length_a   7.73664200
_cell_length_b   7.63717938
_cell_length_c   3.96633100
_cell_angle_alpha   90.00000000
_cell_angle_beta   90.00000000
_cell_angle_gamma   120.43176511
_symmetry_Int_Tables_number   1
_chemical_formula_structural   Tb2ThIn3CuPd2
_chemical_formula_sum   'Tb2 Th1 In3 Cu1 Pd2'
_cell_volume   202.06871577
_cell_formula_units_Z   1
loop_
 _symmetry_equiv_pos_site_id
 _symmetry_equiv_pos_as_xyz
  1  'x, y, z'
loop_
 _atom_site_type_symbol
 _atom_site_label
 _atom_site_symmetry_multiplicity
 _atom_site_fract_x
 _atom_site_fract_y
 _atom_site_fract_z
 _atom_site_occupancy
  Tb  Tb0  1  0.412652  0.411293  0.500000  1
  Tb  Tb1  1  0.001359  0.588707  0.500000  1
  Th  Th2  1  0.583194  0.000000  0.500000  1
  In  In3  1  0.752598  0.746039  0.000000  1
  In  In4  1  0.239816  0.000000  0.000000  1
  In  In5  1  0.006559  0.253961  0.000000  1
  Cu  Cu6  1  0.996322  0.000000  0.500000  1
  Pd  Pd7  1  0.666831  0.326163  0.000000  1
  Pd  Pd8  1  0.340667  0.673837  0.000000  1
