# generated using pymatgen
data_ErMg7(CoB6)4
_symmetry_space_group_name_H-M   'P 1'
_cell_length_a   8.79742302
_cell_length_b   11.09513702
_cell_length_c   3.29678700
_cell_angle_alpha   90.00000000
_cell_angle_beta   90.00000000
_cell_angle_gamma   89.99252536
_symmetry_Int_Tables_number   1
_chemical_formula_structural   ErMg7(CoB6)4
_chemical_formula_sum   'Er1 Mg7 Co4 B24'
_cell_volume   321.79480648
_cell_formula_units_Z   1
loop_
 _symmetry_equiv_pos_site_id
 _symmetry_equiv_pos_as_xyz
  1  'x, y, z'
loop_
 _atom_site_type_symbol
 _atom_site_label
 _atom_site_symmetry_multiplicity
 _atom_site_fract_x
 _atom_site_fract_y
 _atom_site_fract_z
 _atom_site_occupancy
  Er  Er0  1  0.822582  0.085298  0.000000  1
  Mg  Mg1  1  0.443288  0.127958  0.000000  1
  Mg  Mg2  1  0.944106  0.372537  0.000000  1
  Mg  Mg3  1  0.323904  0.416486  0.000000  1
  Mg  Mg4  1  0.674530  0.585716  0.000000  1
  Mg  Mg5  1  0.057977  0.629583  0.000000  1
  Mg  Mg6  1  0.554318  0.870343  0.000000  1
  Mg  Mg7  1  0.179662  0.913545  0.000000  1
  Co  Co8  1  0.141755  0.182421  0.000000  1
  Co  Co9  1  0.640891  0.319828  0.000000  1
  Co  Co10  1  0.359015  0.680573  0.000000  1
  Co  Co11  1  0.859330  0.816833  0.000000  1
  B  B12  1  0.594809  0.025518  0.499999  1
  B  B13  1  0.057822  0.066592  0.499999  1
  B  B14  1  0.252856  0.080211  0.499999  1
  B  B15  1  0.627896  0.184434  0.499999  1
  B  B16  1  0.985379  0.213762  0.499999  1
  B  B17  1  0.293349  0.237062  0.499999  1
  B  B18  1  0.792123  0.266193  0.499999  1
  B  B19  1  0.481681  0.288611  0.499999  1
  B  B20  1  0.130829  0.318650  0.499999  1
  B  B21  1  0.751912  0.421200  0.499999  1
  B  B22  1  0.555428  0.434157  0.499999  1
  B  B23  1  0.096914  0.474498  0.499999  1
  B  B24  1  0.903686  0.526580  0.499999  1
  B  B25  1  0.444126  0.566042  0.499999  1
  B  B26  1  0.248068  0.580305  0.499999  1
  B  B27  1  0.869894  0.682174  0.499999  1
  B  B28  1  0.516713  0.711097  0.499999  1
  B  B29  1  0.207270  0.736532  0.499999  1
  B  B30  1  0.705698  0.761764  0.499999  1
  B  B31  1  0.018255  0.786898  0.499999  1
  B  B32  1  0.369189  0.817098  0.499999  1
  B  B33  1  0.746910  0.915725  0.499999  1
  B  B34  1  0.945624  0.930494  0.499999  1
  B  B35  1  0.402217  0.973282  0.499999  1
