# generated using pymatgen
data_Sc3Cu3Si2Ge
_symmetry_space_group_name_H-M   'P 1'
_cell_length_a   6.46317000
_cell_length_b   6.46317051
_cell_length_c   3.94708700
_cell_angle_alpha   90.00000000
_cell_angle_beta   90.00000000
_cell_angle_gamma   119.99999738
_symmetry_Int_Tables_number   1
_chemical_formula_structural   Sc3Cu3Si2Ge
_chemical_formula_sum   'Sc3 Cu3 Si2 Ge1'
_cell_volume   142.79024381
_cell_formula_units_Z   1
loop_
 _symmetry_equiv_pos_site_id
 _symmetry_equiv_pos_as_xyz
  1  'x, y, z'
loop_
 _atom_site_type_symbol
 _atom_site_label
 _atom_site_symmetry_multiplicity
 _atom_site_fract_x
 _atom_site_fract_y
 _atom_site_fract_z
 _atom_site_occupancy
  Sc  Sc0  1  0.427124  0.429648  0.500000  1
  Sc  Sc1  1  0.570352  0.997476  0.500000  1
  Sc  Sc2  1  0.002524  0.572876  0.500000  1
  Cu  Cu3  1  0.006620  0.242776  0.000000  1
  Cu  Cu4  1  0.236157  0.993380  0.000000  1
  Cu  Cu5  1  0.757224  0.763843  0.000000  1
  Si  Si6  1  0.333333  0.666667  0.000000  1
  Si  Si7  1  0.000000  0.000000  0.500000  1
  Ge  Ge8  1  0.666667  0.333333  0.000000  1
