# generated using pymatgen
data_HoThTiCo16
_symmetry_space_group_name_H-M   'P 1'
_cell_length_a   6.32619494
_cell_length_b   6.32619480
_cell_length_c   6.32619481
_cell_angle_alpha   82.86614296
_cell_angle_beta   82.86614383
_cell_angle_gamma   82.86614613
_symmetry_Int_Tables_number   1
_chemical_formula_structural   HoThTiCo16
_chemical_formula_sum   'Ho1 Th1 Ti1 Co16'
_cell_volume   247.74866111
_cell_formula_units_Z   1
loop_
 _symmetry_equiv_pos_site_id
 _symmetry_equiv_pos_as_xyz
  1  'x, y, z'
loop_
 _atom_site_type_symbol
 _atom_site_label
 _atom_site_symmetry_multiplicity
 _atom_site_fract_x
 _atom_site_fract_y
 _atom_site_fract_z
 _atom_site_occupancy
  Ho  Ho0  1  0.349952  0.349952  0.349952  1
  Th  Th1  1  0.654708  0.654708  0.654708  1
  Ti  Ti2  1  0.092531  0.092531  0.092531  1
  Co  Co3  1  0.290906  0.708874  0.998895  1
  Co  Co4  1  0.708874  0.998895  0.290906  1
  Co  Co5  1  0.998895  0.290906  0.708874  1
  Co  Co6  1  0.290906  0.998895  0.708874  1
  Co  Co7  1  0.998895  0.708874  0.290906  1
  Co  Co8  1  0.708874  0.290906  0.998895  1
  Co  Co9  1  0.001853  0.001853  0.503516  1
  Co  Co10  1  0.001853  0.503516  0.001853  1
  Co  Co11  1  0.503516  0.001853  0.001853  1
  Co  Co12  1  0.346429  0.346429  0.847840  1
  Co  Co13  1  0.346429  0.847840  0.346429  1
  Co  Co14  1  0.847840  0.346429  0.346429  1
  Co  Co15  1  0.655006  0.655006  0.147178  1
  Co  Co16  1  0.655006  0.147178  0.655006  1
  Co  Co17  1  0.147178  0.655006  0.655006  1
  Co  Co18  1  0.900342  0.900342  0.900342  1
