# generated using pymatgen
data_Nd6IrPd6Au
_symmetry_space_group_name_H-M   'P 1'
_cell_length_a   8.15381090
_cell_length_b   8.15640927
_cell_length_c   8.18828833
_cell_angle_alpha   114.57808927
_cell_angle_beta   114.50604629
_cell_angle_gamma   114.13231248
_symmetry_Int_Tables_number   1
_chemical_formula_structural   Nd6IrPd6Au
_chemical_formula_sum   'Nd6 Ir1 Pd6 Au1'
_cell_volume   320.65971201
_cell_formula_units_Z   1
loop_
 _symmetry_equiv_pos_site_id
 _symmetry_equiv_pos_as_xyz
  1  'x, y, z'
loop_
 _atom_site_type_symbol
 _atom_site_label
 _atom_site_symmetry_multiplicity
 _atom_site_fract_x
 _atom_site_fract_y
 _atom_site_fract_z
 _atom_site_occupancy
  Nd  Nd0  1  0.975394  0.601542  0.729141  1
  Nd  Nd1  1  0.724669  0.978468  0.607359  1
  Nd  Nd2  1  0.602900  0.724398  0.972652  1
  Nd  Nd3  1  0.026100  0.395281  0.273567  1
  Nd  Nd4  1  0.278853  0.029626  0.393083  1
  Nd  Nd5  1  0.389395  0.269603  0.023636  1
  Ir  Ir6  1  0.997268  0.997718  0.997781  1
  Pd  Pd7  1  0.501025  0.501698  0.501302  1
  Pd  Pd8  1  0.443538  0.940846  0.776196  1
  Pd  Pd9  1  0.774477  0.440736  0.938286  1
  Pd  Pd10  1  0.058885  0.225014  0.557200  1
  Pd  Pd11  1  0.558975  0.061034  0.225637  1
  Pd  Pd12  1  0.226812  0.558555  0.061977  1
  Au  Au13  1  0.941710  0.775480  0.442183  1
