# generated using pymatgen
data_Ho7ErRe3B24Ru
_symmetry_space_group_name_H-M   'P 1'
_cell_length_a   3.66576700
_cell_length_b   9.14416927
_cell_length_c   11.52591100
_cell_angle_alpha   90.10692235
_cell_angle_beta   90.00000000
_cell_angle_gamma   90.00000000
_symmetry_Int_Tables_number   1
_chemical_formula_structural   Ho7ErRe3B24Ru
_chemical_formula_sum   'Ho7 Er1 Re3 B24 Ru1'
_cell_volume   386.35240475
_cell_formula_units_Z   1
loop_
 _symmetry_equiv_pos_site_id
 _symmetry_equiv_pos_as_xyz
  1  'x, y, z'
loop_
 _atom_site_type_symbol
 _atom_site_label
 _atom_site_symmetry_multiplicity
 _atom_site_fract_x
 _atom_site_fract_y
 _atom_site_fract_z
 _atom_site_occupancy
  Ho  Ho0  1  0.000000  0.321621  0.414223  1
  Ho  Ho1  1  0.000000  0.677455  0.587730  1
  Ho  Ho2  1  0.000000  0.824701  0.084024  1
  Ho  Ho3  1  0.000000  0.176864  0.913688  1
  Ho  Ho4  1  0.000000  0.941596  0.369740  1
  Ho  Ho5  1  0.000000  0.056471  0.629231  1
  Ho  Ho6  1  0.000000  0.443127  0.130382  1
  Er  Er7  1  0.000000  0.557026  0.870992  1
  Re  Re8  1  0.000000  0.362407  0.678357  1
  Re  Re9  1  0.000000  0.138188  0.179598  1
  Re  Re10  1  0.000000  0.861626  0.820871  1
  B  B11  1  0.500000  0.553914  0.432784  1
  B  B12  1  0.500000  0.447184  0.566617  1
  B  B13  1  0.500000  0.053183  0.066691  1
  B  B14  1  0.500000  0.947097  0.932985  1
  B  B15  1  0.500000  0.748373  0.418593  1
  B  B16  1  0.500000  0.250616  0.580970  1
  B  B17  1  0.500000  0.249436  0.081305  1
  B  B18  1  0.500000  0.751051  0.918913  1
  B  B19  1  0.500000  0.790767  0.265254  1
  B  B20  1  0.500000  0.208111  0.734408  1
  B  B21  1  0.500000  0.291798  0.235248  1
  B  B22  1  0.500000  0.707767  0.765712  1
  B  B23  1  0.500000  0.631443  0.185665  1
  B  B24  1  0.500000  0.369709  0.814339  1
  B  B25  1  0.500000  0.130815  0.315077  1
  B  B26  1  0.500000  0.868780  0.685419  1
  B  B27  1  0.500000  0.982056  0.211764  1
  B  B28  1  0.500000  0.017959  0.787713  1
  B  B29  1  0.500000  0.483328  0.288354  1
  B  B30  1  0.500000  0.518568  0.712107  1
  B  B31  1  0.500000  0.601863  0.028651  1
  B  B32  1  0.500000  0.398984  0.972092  1
  B  B33  1  0.500000  0.100390  0.471455  1
  B  B34  1  0.500000  0.897434  0.528082  1
  Ru  Ru35  1  0.000000  0.638292  0.320967  1
