# generated using pymatgen
data_Hf2Zr14Ni3Ir5N4
_symmetry_space_group_name_H-M   'P 1'
_cell_length_a   8.72094582
_cell_length_b   8.76807713
_cell_length_c   8.76099500
_cell_angle_alpha   60.02671171
_cell_angle_beta   59.84796759
_cell_angle_gamma   59.87927400
_symmetry_Int_Tables_number   1
_chemical_formula_structural   Hf2Zr14Ni3Ir5N4
_chemical_formula_sum   'Hf2 Zr14 Ni3 Ir5 N4'
_cell_volume   472.81933462
_cell_formula_units_Z   1
loop_
 _symmetry_equiv_pos_site_id
 _symmetry_equiv_pos_as_xyz
  1  'x, y, z'
loop_
 _atom_site_type_symbol
 _atom_site_label
 _atom_site_symmetry_multiplicity
 _atom_site_fract_x
 _atom_site_fract_y
 _atom_site_fract_z
 _atom_site_occupancy
  Hf  Hf0  1  0.085891  0.638218  0.637946  1
  Hf  Hf1  1  0.637825  0.101612  0.630282  1
  Zr  Zr2  1  0.639504  0.630734  0.098655  1
  Zr  Zr3  1  0.639504  0.630734  0.631108  1
  Zr  Zr4  1  0.814563  0.814293  0.185572  1
  Zr  Zr5  1  0.186708  0.189318  0.811987  1
  Zr  Zr6  1  0.814366  0.185460  0.813842  1
  Zr  Zr7  1  0.186447  0.812447  0.189014  1
  Zr  Zr8  1  0.186447  0.812447  0.812091  1
  Zr  Zr9  1  0.814366  0.185460  0.186333  1
  Zr  Zr10  1  0.434769  0.433236  0.065997  1
  Zr  Zr11  1  0.068401  0.065987  0.432805  1
  Zr  Zr12  1  0.434715  0.065854  0.434154  1
  Zr  Zr13  1  0.068976  0.432350  0.065756  1
  Zr  Zr14  1  0.068976  0.432350  0.432917  1
  Zr  Zr15  1  0.434715  0.065854  0.065277  1
  Ni  Ni16  1  0.846617  0.450277  0.851554  1
  Ni  Ni17  1  0.844567  0.853027  0.452582  1
  Ni  Ni18  1  0.844567  0.853027  0.849825  1
  Ir  Ir19  1  0.753667  0.413177  0.416578  1
  Ir  Ir20  1  0.410603  0.750419  0.419488  1
  Ir  Ir21  1  0.411494  0.417548  0.750828  1
  Ir  Ir22  1  0.411494  0.417548  0.420128  1
  Ir  Ir23  1  0.461818  0.848429  0.844877  1
  N  N24  1  0.623592  0.125342  0.125533  1
  N  N25  1  0.125075  0.625025  0.124949  1
  N  N26  1  0.125166  0.124913  0.624848  1
  N  N27  1  0.125166  0.124913  0.125073  1
