# generated using pymatgen
data_Y3Ni6B2Ru
_symmetry_space_group_name_H-M   'P 1'
_cell_length_a   5.10253000
_cell_length_b   5.10252948
_cell_length_c   14.63136200
_cell_angle_alpha   90.00000000
_cell_angle_beta   90.00000000
_cell_angle_gamma   120.00000339
_symmetry_Int_Tables_number   1
_chemical_formula_structural   Y3Ni6B2Ru
_chemical_formula_sum   'Y6 Ni12 B4 Ru2'
_cell_volume   329.90314935
_cell_formula_units_Z   2
loop_
 _symmetry_equiv_pos_site_id
 _symmetry_equiv_pos_as_xyz
  1  'x, y, z'
loop_
 _atom_site_type_symbol
 _atom_site_label
 _atom_site_symmetry_multiplicity
 _atom_site_fract_x
 _atom_site_fract_y
 _atom_site_fract_z
 _atom_site_occupancy
  Y  Y0  1  0.333333  0.666667  0.470115  1
  Y  Y1  1  0.666667  0.333333  0.970115  1
  Y  Y2  1  0.666667  0.333333  0.529885  1
  Y  Y3  1  0.333333  0.666667  0.029885  1
  Y  Y4  1  0.666667  0.333333  0.750000  1
  Y  Y5  1  0.333333  0.666667  0.250000  1
  Ni  Ni6  1  0.835458  0.164542  0.346373  1
  Ni  Ni7  1  0.835458  0.670916  0.346373  1
  Ni  Ni8  1  0.835458  0.670916  0.153627  1
  Ni  Ni9  1  0.164542  0.835458  0.653627  1
  Ni  Ni10  1  0.670916  0.835458  0.653627  1
  Ni  Ni11  1  0.329084  0.164542  0.153627  1
  Ni  Ni12  1  0.835458  0.164542  0.153627  1
  Ni  Ni13  1  0.164542  0.329084  0.846373  1
  Ni  Ni14  1  0.164542  0.835458  0.846373  1
  Ni  Ni15  1  0.164542  0.329084  0.653627  1
  Ni  Ni16  1  0.670916  0.835458  0.846373  1
  Ni  Ni17  1  0.329084  0.164542  0.346373  1
  B  B18  1  0.666667  0.333333  0.250000  1
  B  B19  1  0.333333  0.666667  0.750000  1
  B  B20  1  0.000000  0.000000  0.750000  1
  B  B21  1  0.000000  0.000000  0.250000  1
  Ru  Ru22  1  0.000000  0.000000  0.000000  1
  Ru  Ru23  1  0.000000  0.000000  0.500000  1
