# generated using pymatgen
data_Ca9YPb6F2
_symmetry_space_group_name_H-M   'P 1'
_cell_length_a   9.55934845
_cell_length_b   9.55934895
_cell_length_c   9.55934855
_cell_angle_alpha   128.63327113
_cell_angle_beta   128.63327585
_cell_angle_gamma   75.60137509
_symmetry_Int_Tables_number   1
_chemical_formula_structural   Ca9YPb6F2
_chemical_formula_sum   'Ca9 Y1 Pb6 F2'
_cell_volume   518.59198986
_cell_formula_units_Z   1
loop_
 _symmetry_equiv_pos_site_id
 _symmetry_equiv_pos_as_xyz
  1  'x, y, z'
loop_
 _atom_site_type_symbol
 _atom_site_label
 _atom_site_symmetry_multiplicity
 _atom_site_fract_x
 _atom_site_fract_y
 _atom_site_fract_z
 _atom_site_occupancy
  Ca  Ca0  1  0.000000  0.000000  0.000000  1
  Ca  Ca1  1  0.505674  0.005807  0.815844  1
  Ca  Ca2  1  0.189963  0.689830  0.184156  1
  Ca  Ca3  1  0.005807  0.189963  0.500133  1
  Ca  Ca4  1  0.689830  0.505674  0.499867  1
  Ca  Ca5  1  0.494326  0.994193  0.184156  1
  Ca  Ca6  1  0.810037  0.310170  0.815844  1
  Ca  Ca7  1  0.994193  0.810037  0.499867  1
  Ca  Ca8  1  0.310170  0.494326  0.500133  1
  Y  Y9  1  0.500000  0.500000  0.000000  1
  Pb  Pb10  1  0.251609  0.251609  0.000000  1
  Pb  Pb11  1  0.748391  0.748391  0.000000  1
  Pb  Pb12  1  0.861415  0.367721  0.229137  1
  Pb  Pb13  1  0.138585  0.632279  0.770864  1
  Pb  Pb14  1  0.367721  0.138585  0.506306  1
  Pb  Pb15  1  0.632279  0.861415  0.493694  1
  F  F16  1  0.250000  0.750000  0.500000  1
  F  F17  1  0.750000  0.250000  0.500000  1
