# generated using pymatgen
data_Dy2Tc2C3
_symmetry_space_group_name_H-M   'P 1'
_cell_length_a   6.05251406
_cell_length_b   6.05251390
_cell_length_c   5.67790742
_cell_angle_alpha   67.13777092
_cell_angle_beta   67.13776975
_cell_angle_gamma   31.97594445
_symmetry_Int_Tables_number   1
_chemical_formula_structural   Dy2Tc2C3
_chemical_formula_sum   'Dy2 Tc2 C3'
_cell_volume   100.75185546
_cell_formula_units_Z   1
loop_
 _symmetry_equiv_pos_site_id
 _symmetry_equiv_pos_as_xyz
  1  'x, y, z'
loop_
 _atom_site_type_symbol
 _atom_site_label
 _atom_site_symmetry_multiplicity
 _atom_site_fract_x
 _atom_site_fract_y
 _atom_site_fract_z
 _atom_site_occupancy
  Dy  Dy0  1  0.609019  0.609019  0.178322  1
  Dy  Dy1  1  0.390981  0.390981  0.821678  1
  Tc  Tc2  1  0.842001  0.842001  0.320747  1
  Tc  Tc3  1  0.157999  0.157999  0.679253  1
  C  C4  1  0.752907  0.752907  0.729220  1
  C  C5  1  0.247093  0.247093  0.270780  1
  C  C6  1  0.000000  0.000000  0.000000  1
