# generated using pymatgen
data_TbDy7(TmIr2)2
_symmetry_space_group_name_H-M   'P 1'
_cell_length_a   6.47939311
_cell_length_b   7.19438455
_cell_length_c   8.51441398
_cell_angle_alpha   96.53744057
_cell_angle_beta   112.36027136
_cell_angle_gamma   89.98520709
_symmetry_Int_Tables_number   1
_chemical_formula_structural   TbDy7(TmIr2)2
_chemical_formula_sum   'Tb1 Dy7 Tm2 Ir4'
_cell_volume   364.27115706
_cell_formula_units_Z   1
loop_
 _symmetry_equiv_pos_site_id
 _symmetry_equiv_pos_as_xyz
  1  'x, y, z'
loop_
 _atom_site_type_symbol
 _atom_site_label
 _atom_site_symmetry_multiplicity
 _atom_site_fract_x
 _atom_site_fract_y
 _atom_site_fract_z
 _atom_site_occupancy
  Tb  Tb0  1  0.970986  0.918679  0.181744  1
  Dy  Dy1  1  0.789349  0.581385  0.818202  1
  Dy  Dy2  1  0.028943  0.081477  0.818215  1
  Dy  Dy3  1  0.210652  0.418585  0.181651  1
  Dy  Dy4  1  0.652899  0.816610  0.440081  1
  Dy  Dy5  1  0.213102  0.683279  0.560127  1
  Dy  Dy6  1  0.347119  0.183417  0.560177  1
  Dy  Dy7  1  0.786968  0.316716  0.439994  1
  Tm  Tm8  1  0.429272  0.749924  0.999912  1
  Tm  Tm9  1  0.570511  0.250060  0.999953  1
  Ir  Ir10  1  0.821677  0.572164  0.217192  1
  Ir  Ir11  1  0.604571  0.927467  0.782715  1
  Ir  Ir12  1  0.178203  0.427502  0.782861  1
  Ir  Ir13  1  0.395748  0.072735  0.217177  1
