# generated using pymatgen
data_TaMn4Nb2P4W
_symmetry_space_group_name_H-M   'P 1'
_cell_length_a   3.57831300
_cell_length_b   6.15706206
_cell_length_c   7.10035707
_cell_angle_alpha   91.07012645
_cell_angle_beta   90.00000000
_cell_angle_gamma   90.00000000
_symmetry_Int_Tables_number   1
_chemical_formula_structural   TaMn4Nb2P4W
_chemical_formula_sum   'Ta1 Mn4 Nb2 P4 W1'
_cell_volume   156.40703864
_cell_formula_units_Z   1
loop_
 _symmetry_equiv_pos_site_id
 _symmetry_equiv_pos_as_xyz
  1  'x, y, z'
loop_
 _atom_site_type_symbol
 _atom_site_label
 _atom_site_symmetry_multiplicity
 _atom_site_fract_x
 _atom_site_fract_y
 _atom_site_fract_z
 _atom_site_occupancy
  Ta  Ta0  1  0.250000  0.025988  0.170029  1
  Mn  Mn1  1  0.750000  0.351025  0.056324  1
  Mn  Mn2  1  0.250000  0.645465  0.940010  1
  Mn  Mn3  1  0.750000  0.861042  0.439449  1
  Mn  Mn4  1  0.250000  0.139657  0.563369  1
  Nb  Nb5  1  0.250000  0.528900  0.323290  1
  Nb  Nb6  1  0.750000  0.473618  0.676902  1
  P  P7  1  0.250000  0.774647  0.635248  1
  P  P8  1  0.750000  0.229815  0.368008  1
  P  P9  1  0.250000  0.276423  0.878389  1
  P  P10  1  0.750000  0.720593  0.116194  1
  W  W11  1  0.750000  0.972824  0.832788  1
