# generated using pymatgen
data_NdTh2Ga3Ir2Rh
_symmetry_space_group_name_H-M   'P 1'
_cell_length_a   7.37290331
_cell_length_b   7.35112671
_cell_length_c   3.99156500
_cell_angle_alpha   90.00000000
_cell_angle_beta   90.00000000
_cell_angle_gamma   119.90234003
_symmetry_Int_Tables_number   1
_chemical_formula_structural   NdTh2Ga3Ir2Rh
_chemical_formula_sum   'Nd1 Th2 Ga3 Ir2 Rh1'
_cell_volume   187.53953189
_cell_formula_units_Z   1
loop_
 _symmetry_equiv_pos_site_id
 _symmetry_equiv_pos_as_xyz
  1  'x, y, z'
loop_
 _atom_site_type_symbol
 _atom_site_label
 _atom_site_symmetry_multiplicity
 _atom_site_fract_x
 _atom_site_fract_y
 _atom_site_fract_z
 _atom_site_occupancy
  Nd  Nd0  1  0.000000  0.413294  0.500000  1
  Th  Th1  1  0.585010  0.587162  0.500000  1
  Th  Th2  1  0.414990  0.002152  0.500000  1
  Ga  Ga3  1  0.000000  0.748727  0.000000  1
  Ga  Ga4  1  0.229490  0.238417  0.000000  1
  Ga  Ga5  1  0.770510  0.008927  0.000000  1
  Ir  Ir6  1  0.356196  0.686825  0.000000  1
  Ir  Ir7  1  0.643804  0.330629  0.000000  1
  Rh  Rh8  1  0.000000  0.983865  0.500000  1
