# generated using pymatgen
data_Sm4Ga10(PdAu)3
_symmetry_space_group_name_H-M   'P 1'
_cell_length_a   8.63651560
_cell_length_b   8.61998801
_cell_length_c   8.61998825
_cell_angle_alpha   138.09749569
_cell_angle_beta   104.57764920
_cell_angle_gamma   90.20262573
_symmetry_Int_Tables_number   1
_chemical_formula_structural   Sm4Ga10(PdAu)3
_chemical_formula_sum   'Sm4 Ga10 Pd3 Au3'
_cell_volume   396.29450403
_cell_formula_units_Z   1
loop_
 _symmetry_equiv_pos_site_id
 _symmetry_equiv_pos_as_xyz
  1  'x, y, z'
loop_
 _atom_site_type_symbol
 _atom_site_label
 _atom_site_symmetry_multiplicity
 _atom_site_fract_x
 _atom_site_fract_y
 _atom_site_fract_z
 _atom_site_occupancy
  Sm  Sm0  1  0.638277  0.870625  0.767652  1
  Sm  Sm1  1  0.365082  0.129860  0.235222  1
  Sm  Sm2  1  0.101609  0.370116  0.731494  1
  Sm  Sm3  1  0.898254  0.630451  0.267803  1
  Ga  Ga4  1  0.275563  0.026402  0.749509  1
  Ga  Ga5  1  0.729520  0.969974  0.247270  1
  Ga  Ga6  1  0.729520  0.482250  0.759546  1
  Ga  Ga7  1  0.275563  0.526054  0.249161  1
  Ga  Ga8  1  0.461599  0.607070  0.854529  1
  Ga  Ga9  1  0.540762  0.394429  0.146333  1
  Ga  Ga10  1  0.749838  0.106041  0.643797  1
  Ga  Ga11  1  0.238937  0.892190  0.346747  1
  Ga  Ga12  1  0.002368  0.753774  0.759525  1
  Ga  Ga13  1  0.002368  0.242842  0.248594  1
  Pd  Pd14  1  0.979135  0.862025  0.117110  1
  Pd  Pd15  1  0.496521  0.750437  0.249796  1
  Pd  Pd16  1  0.496521  0.246725  0.746084  1
  Au  Au17  1  0.258232  0.638452  0.619781  1
  Au  Au18  1  0.743804  0.362287  0.381516  1
  Au  Au19  1  0.016525  0.137995  0.878530  1
