# generated using pymatgen
data_Zr6TaNb2Al13Ir7
_symmetry_space_group_name_H-M   'P 1'
_cell_length_a   8.84066042
_cell_length_b   8.83779733
_cell_length_c   8.83779651
_cell_angle_alpha   59.87268148
_cell_angle_beta   59.88162708
_cell_angle_gamma   59.88162825
_symmetry_Int_Tables_number   1
_chemical_formula_structural   Zr6TaNb2Al13Ir7
_chemical_formula_sum   'Zr6 Ta1 Nb2 Al13 Ir7'
_cell_volume   486.92296789
_cell_formula_units_Z   1
loop_
 _symmetry_equiv_pos_site_id
 _symmetry_equiv_pos_as_xyz
  1  'x, y, z'
loop_
 _atom_site_type_symbol
 _atom_site_label
 _atom_site_symmetry_multiplicity
 _atom_site_fract_x
 _atom_site_fract_y
 _atom_site_fract_z
 _atom_site_occupancy
  Zr  Zr0  1  0.690131  0.690157  0.307110  1
  Zr  Zr1  1  0.312445  0.686148  0.312491  1
  Zr  Zr2  1  0.686079  0.312545  0.312545  1
  Zr  Zr3  1  0.312445  0.312491  0.686148  1
  Zr  Zr4  1  0.690131  0.307110  0.690157  1
  Zr  Zr5  1  0.307028  0.690270  0.690270  1
  Ta  Ta6  1  0.362483  0.878312  0.878312  1
  Nb  Nb7  1  0.878433  0.878213  0.362300  1
  Nb  Nb8  1  0.878433  0.362300  0.878213  1
  Al  Al9  1  0.880854  0.880815  0.880815  1
  Al  Al10  1  0.119379  0.119371  0.636403  1
  Al  Al11  1  0.119379  0.636403  0.119371  1
  Al  Al12  1  0.636236  0.119416  0.119416  1
  Al  Al13  1  0.122444  0.122383  0.122383  1
  Al  Al14  1  0.664606  0.664144  0.015346  1
  Al  Al15  1  0.664606  0.015346  0.664144  1
  Al  Al16  1  0.014967  0.664482  0.664482  1
  Al  Al17  1  0.658002  0.657669  0.657669  1
  Al  Al18  1  0.338361  0.338384  0.987045  1
  Al  Al19  1  0.338361  0.987045  0.338384  1
  Al  Al20  1  0.986989  0.338396  0.338396  1
  Al  Al21  1  0.337165  0.337158  0.337158  1
  Ir  Ir22  1  0.003491  0.001358  0.001358  1
  Ir  Ir23  1  0.999616  0.999432  0.496631  1
  Ir  Ir24  1  0.502085  0.997515  0.504728  1
  Ir  Ir25  1  0.998148  0.502873  0.502873  1
  Ir  Ir26  1  0.502085  0.504728  0.997515  1
  Ir  Ir27  1  0.999616  0.496631  0.999432  1
  Ir  Ir28  1  0.496004  0.998908  0.998908  1
