# generated using pymatgen
data_Tb3Ge2B4Ir9
_symmetry_space_group_name_H-M   'P 1'
_cell_length_a   5.56861206
_cell_length_b   5.56754502
_cell_length_c   10.01243801
_cell_angle_alpha   90.00086526
_cell_angle_beta   89.99901019
_cell_angle_gamma   119.98443898
_symmetry_Int_Tables_number   1
_chemical_formula_structural   Tb3Ge2B4Ir9
_chemical_formula_sum   'Tb3 Ge2 B4 Ir9'
_cell_volume   268.87427390
_cell_formula_units_Z   1
loop_
 _symmetry_equiv_pos_site_id
 _symmetry_equiv_pos_as_xyz
  1  'x, y, z'
loop_
 _atom_site_type_symbol
 _atom_site_label
 _atom_site_symmetry_multiplicity
 _atom_site_fract_x
 _atom_site_fract_y
 _atom_site_fract_z
 _atom_site_occupancy
  Tb  Tb0  1  0.999962  0.000002  0.000020  1
  Tb  Tb1  1  0.000012  0.000003  0.340103  1
  Tb  Tb2  1  0.999987  0.999976  0.659899  1
  Ge  Ge3  1  0.333346  0.666595  0.999998  1
  Ge  Ge4  1  0.666603  0.333401  0.999999  1
  B  B5  1  0.333397  0.666640  0.346691  1
  B  B6  1  0.666593  0.333341  0.346689  1
  B  B7  1  0.666584  0.333312  0.653309  1
  B  B8  1  0.333393  0.666682  0.653308  1
  Ir  Ir9  1  0.499991  0.000000  0.499990  1
  Ir  Ir10  1  0.500003  0.500015  0.500007  1
  Ir  Ir11  1  0.999998  0.500002  0.499998  1
  Ir  Ir12  1  0.500032  0.999989  0.201719  1
  Ir  Ir13  1  0.500006  0.499982  0.201703  1
  Ir  Ir14  1  0.000011  0.500002  0.201763  1
  Ir  Ir15  1  0.499996  0.000014  0.798283  1
  Ir  Ir16  1  0.499992  0.500023  0.798292  1
  Ir  Ir17  1  0.999994  0.500018  0.798230  1
