# generated using pymatgen
data_Sc12Ru2PbI16
_symmetry_space_group_name_H-M   'P 1'
_cell_length_a   9.41828382
_cell_length_b   12.16438359
_cell_length_c   12.84123234
_cell_angle_alpha   117.07457580
_cell_angle_beta   101.34367511
_cell_angle_gamma   100.74565721
_symmetry_Int_Tables_number   1
_chemical_formula_structural   Sc12Ru2PbI16
_chemical_formula_sum   'Sc12 Ru2 Pb1 I16'
_cell_volume   1218.51699476
_cell_formula_units_Z   1
loop_
 _symmetry_equiv_pos_site_id
 _symmetry_equiv_pos_as_xyz
  1  'x, y, z'
loop_
 _atom_site_type_symbol
 _atom_site_label
 _atom_site_symmetry_multiplicity
 _atom_site_fract_x
 _atom_site_fract_y
 _atom_site_fract_z
 _atom_site_occupancy
  Sc  Sc0  1  0.110398  0.266309  0.356754  1
  Sc  Sc1  1  0.889602  0.733691  0.643246  1
  Sc  Sc2  1  0.757111  0.536569  0.326955  1
  Sc  Sc3  1  0.242889  0.463431  0.673045  1
  Sc  Sc4  1  0.299990  0.734069  0.643017  1
  Sc  Sc5  1  0.700010  0.265931  0.356983  1
  Sc  Sc6  1  0.167568  0.536629  0.326881  1
  Sc  Sc7  1  0.832432  0.463371  0.673119  1
  Sc  Sc8  1  0.411908  0.368339  0.288881  1
  Sc  Sc9  1  0.588092  0.631661  0.711119  1
  Sc  Sc10  1  0.461663  0.319774  0.520000  1
  Sc  Sc11  1  0.538337  0.680226  0.480000  1
  Ru  Ru12  1  0.342411  0.500140  0.499788  1
  Ru  Ru13  1  0.657590  0.499860  0.500212  1
  Pb  Pb14  1  0.000000  0.500000  0.500000  1
  I  I15  1  0.392689  0.736398  0.878454  1
  I  I16  1  0.607311  0.263602  0.121546  1
  I  I17  1  0.180609  0.947139  0.772471  1
  I  I18  1  0.819391  0.052861  0.227529  1
  I  I19  1  0.338731  0.100173  0.254881  1
  I  I20  1  0.661269  0.899827  0.745119  1
  I  I21  1  0.562048  0.437810  0.796062  1
  I  I22  1  0.437952  0.562190  0.203938  1
  I  I23  1  0.305298  0.823604  0.463183  1
  I  I24  1  0.694702  0.176396  0.536817  1
  I  I25  1  0.167628  0.176318  0.535455  1
  I  I26  1  0.832372  0.823682  0.464545  1
  I  I27  1  0.928553  0.572070  0.170757  1
  I  I28  1  0.071447  0.427930  0.829243  1
  I  I29  1  0.922891  0.735553  0.878642  1
  I  I30  1  0.077109  0.264447  0.121358  1
