# generated using pymatgen
data_K2ScNiF7
_symmetry_space_group_name_H-M   'P 1'
_cell_length_a   7.80078093
_cell_length_b   7.80078081
_cell_length_c   7.80078089
_cell_angle_alpha   120.86350518
_cell_angle_beta   117.11275017
_cell_angle_gamma   91.79149254
_symmetry_Int_Tables_number   1
_chemical_formula_structural   K2ScNiF7
_chemical_formula_sum   'K4 Sc2 Ni2 F14'
_cell_volume   340.17408516
_cell_formula_units_Z   2
loop_
 _symmetry_equiv_pos_site_id
 _symmetry_equiv_pos_as_xyz
  1  'x, y, z'
loop_
 _atom_site_type_symbol
 _atom_site_label
 _atom_site_symmetry_multiplicity
 _atom_site_fract_x
 _atom_site_fract_y
 _atom_site_fract_z
 _atom_site_occupancy
  K  K0  1  0.491027  0.748705  0.239731  1
  K  K1  1  0.995562  0.246823  0.748738  1
  K  K2  1  0.491027  0.251295  0.742322  1
  K  K3  1  0.501915  0.753177  0.748738  1
  Sc  Sc4  1  0.997438  0.749580  0.247858  1
  Sc  Sc5  1  0.498279  0.250420  0.247858  1
  Ni  Ni6  1  0.998438  0.749718  0.748156  1
  Ni  Ni7  1  0.998438  0.250282  0.248720  1
  F  F8  1  0.304550  0.939022  0.979054  1
  F  F9  1  0.621333  0.158822  0.462513  1
  F  F10  1  0.085710  0.500000  0.585710  1
  F  F11  1  0.955939  0.824316  0.516708  1
  F  F12  1  0.372952  0.340696  0.032255  1
  F  F13  1  0.040031  0.674503  0.979054  1
  F  F14  1  0.955939  0.439231  0.131624  1
  F  F15  1  0.040031  0.060978  0.365528  1
  F  F16  1  0.304550  0.325497  0.365528  1
  F  F17  1  0.303691  0.841178  0.462513  1
  F  F18  1  0.691559  0.659304  0.032255  1
  F  F19  1  0.912205  0.000000  0.912205  1
  F  F20  1  0.692393  0.175684  0.131624  1
  F  F21  1  0.692393  0.560769  0.516708  1
