# generated using pymatgen
data_Pr3Ho2In3Br
_symmetry_space_group_name_H-M   'P 1'
_cell_length_a   9.51505300
_cell_length_b   9.51505272
_cell_length_c   6.77021300
_cell_angle_alpha   90.00000000
_cell_angle_beta   90.00000000
_cell_angle_gamma   120.00000446
_symmetry_Int_Tables_number   1
_chemical_formula_structural   Pr3Ho2In3Br
_chemical_formula_sum   'Pr6 Ho4 In6 Br2'
_cell_volume   530.82987270
_cell_formula_units_Z   2
loop_
 _symmetry_equiv_pos_site_id
 _symmetry_equiv_pos_as_xyz
  1  'x, y, z'
loop_
 _atom_site_type_symbol
 _atom_site_label
 _atom_site_symmetry_multiplicity
 _atom_site_fract_x
 _atom_site_fract_y
 _atom_site_fract_z
 _atom_site_occupancy
  Pr  Pr0  1  0.731179  0.731179  0.250000  1
  Pr  Pr1  1  0.000000  0.731179  0.750000  1
  Pr  Pr2  1  0.731179  0.000000  0.750000  1
  Pr  Pr3  1  0.268821  0.268821  0.750000  1
  Pr  Pr4  1  0.000000  0.268821  0.250000  1
  Pr  Pr5  1  0.268821  0.000000  0.250000  1
  Ho  Ho6  1  0.333333  0.666667  0.500000  1
  Ho  Ho7  1  0.666667  0.333333  0.500000  1
  Ho  Ho8  1  0.333333  0.666667  0.000000  1
  Ho  Ho9  1  0.666667  0.333333  0.000000  1
  In  In10  1  0.395181  0.000000  0.750000  1
  In  In11  1  0.000000  0.604819  0.250000  1
  In  In12  1  0.604819  0.000000  0.250000  1
  In  In13  1  0.000000  0.395181  0.750000  1
  In  In14  1  0.395181  0.395181  0.250000  1
  In  In15  1  0.604819  0.604819  0.750000  1
  Br  Br16  1  0.000000  0.000000  0.500000  1
  Br  Br17  1  0.000000  0.000000  0.000000  1
