# generated using pymatgen
data_Er11LuZn(InFe)2
_symmetry_space_group_name_H-M   'P 1'
_cell_length_a   8.31988354
_cell_length_b   8.31988266
_cell_length_c   8.31718044
_cell_angle_alpha   109.75451170
_cell_angle_beta   109.75451507
_cell_angle_gamma   108.91941358
_symmetry_Int_Tables_number   1
_chemical_formula_structural   Er11LuZn(InFe)2
_chemical_formula_sum   'Er11 Lu1 Zn1 In2 Fe2'
_cell_volume   443.08437453
_cell_formula_units_Z   1
loop_
 _symmetry_equiv_pos_site_id
 _symmetry_equiv_pos_as_xyz
  1  'x, y, z'
loop_
 _atom_site_type_symbol
 _atom_site_label
 _atom_site_symmetry_multiplicity
 _atom_site_fract_x
 _atom_site_fract_y
 _atom_site_fract_z
 _atom_site_occupancy
  Er  Er0  1  0.694428  0.694428  0.388857  1
  Er  Er1  1  0.305388  0.694245  0.999633  1
  Er  Er2  1  0.694245  0.305388  0.999633  1
  Er  Er3  1  0.445945  0.202776  0.243748  1
  Er  Er4  1  0.553404  0.796382  0.756415  1
  Er  Er5  1  0.960033  0.203011  0.756415  1
  Er  Er6  1  0.203011  0.960033  0.756415  1
  Er  Er7  1  0.040971  0.797802  0.243748  1
  Er  Er8  1  0.797802  0.040971  0.243748  1
  Er  Er9  1  0.202776  0.445945  0.243748  1
  Er  Er10  1  0.796382  0.553404  0.756415  1
  Lu  Lu11  1  0.306158  0.306158  0.612314  1
  Zn  Zn12  1  0.999975  0.999975  0.999949  1
  In  In13  1  0.500091  0.000032  0.500122  1
  In  In14  1  0.000032  0.500091  0.500122  1
  Fe  Fe15  1  0.386740  0.386740  0.999359  1
  Fe  Fe16  1  0.612619  0.612619  0.999359  1
