# generated using pymatgen
data_Sr2CrPbF9
_symmetry_space_group_name_H-M   'P 1'
_cell_length_a   5.74873859
_cell_length_b   5.74617208
_cell_length_c   12.90416298
_cell_angle_alpha   91.49166039
_cell_angle_beta   100.83564987
_cell_angle_gamma   92.56706279
_symmetry_Int_Tables_number   1
_chemical_formula_structural   Sr2CrPbF9
_chemical_formula_sum   'Sr4 Cr2 Pb2 F18'
_cell_volume   417.98816300
_cell_formula_units_Z   2
loop_
 _symmetry_equiv_pos_site_id
 _symmetry_equiv_pos_as_xyz
  1  'x, y, z'
loop_
 _atom_site_type_symbol
 _atom_site_label
 _atom_site_symmetry_multiplicity
 _atom_site_fract_x
 _atom_site_fract_y
 _atom_site_fract_z
 _atom_site_occupancy
  Sr  Sr0  1  0.956555  0.241340  0.383688  1
  Sr  Sr1  1  0.043445  0.758660  0.616312  1
  Sr  Sr2  1  0.551256  0.264832  0.616654  1
  Sr  Sr3  1  0.448744  0.735168  0.383346  1
  Cr  Cr4  1  0.796652  0.792320  0.179203  1
  Cr  Cr5  1  0.203348  0.207680  0.820797  1
  Pb  Pb6  1  0.750906  0.697102  0.898356  1
  Pb  Pb7  1  0.249094  0.302898  0.101644  1
  F  F8  1  0.134100  0.953867  0.908204  1
  F  F9  1  0.865900  0.046133  0.091796  1
  F  F10  1  0.261468  0.450397  0.723917  1
  F  F11  1  0.738532  0.549603  0.276083  1
  F  F12  1  0.628797  0.999337  0.260192  1
  F  F13  1  0.371203  0.000663  0.739808  1
  F  F14  1  0.960707  0.589061  0.094412  1
  F  F15  1  0.039293  0.410939  0.905588  1
  F  F16  1  0.084496  0.893648  0.279555  1
  F  F17  1  0.915504  0.106352  0.720445  1
  F  F18  1  0.501113  0.684923  0.088598  1
  F  F19  1  0.498887  0.315077  0.911402  1
  F  F20  1  0.748011  0.995119  0.499410  1
  F  F21  1  0.251989  0.004881  0.500590  1
  F  F22  1  0.749391  0.492696  0.496151  1
  F  F23  1  0.250609  0.507304  0.503849  1
  F  F24  1  0.750165  0.612472  0.720231  1
  F  F25  1  0.249835  0.387528  0.279769  1
