# generated using pymatgen
data_Ho3Tm9Os3Rh
_symmetry_space_group_name_H-M   'P 1'
_cell_length_a   7.30759156
_cell_length_b   8.93802800
_cell_length_c   6.27678609
_cell_angle_alpha   90.00000000
_cell_angle_beta   89.92749170
_cell_angle_gamma   90.00000000
_symmetry_Int_Tables_number   1
_chemical_formula_structural   Ho3Tm9Os3Rh
_chemical_formula_sum   'Ho3 Tm9 Os3 Rh1'
_cell_volume   409.97083001
_cell_formula_units_Z   1
loop_
 _symmetry_equiv_pos_site_id
 _symmetry_equiv_pos_as_xyz
  1  'x, y, z'
loop_
 _atom_site_type_symbol
 _atom_site_label
 _atom_site_symmetry_multiplicity
 _atom_site_fract_x
 _atom_site_fract_y
 _atom_site_fract_z
 _atom_site_occupancy
  Ho  Ho0  1  0.038896  0.250000  0.628361  1
  Ho  Ho1  1  0.961801  0.750000  0.373320  1
  Ho  Ho2  1  0.539077  0.250000  0.870209  1
  Tm  Tm3  1  0.462296  0.750000  0.129450  1
  Tm  Tm4  1  0.172799  0.060449  0.165466  1
  Tm  Tm5  1  0.824284  0.936889  0.831222  1
  Tm  Tm6  1  0.323335  0.933138  0.672467  1
  Tm  Tm7  1  0.824284  0.563111  0.831222  1
  Tm  Tm8  1  0.678065  0.061168  0.331572  1
  Tm  Tm9  1  0.172799  0.439551  0.165466  1
  Tm  Tm10  1  0.678065  0.438832  0.331572  1
  Tm  Tm11  1  0.323335  0.566862  0.672467  1
  Os  Os12  1  0.615056  0.750000  0.538072  1
  Os  Os13  1  0.117383  0.750000  0.962672  1
  Os  Os14  1  0.883627  0.250000  0.039563  1
  Rh  Rh15  1  0.384896  0.250000  0.456900  1
