# generated using pymatgen
data_Y3Lu2InSb2
_symmetry_space_group_name_H-M   'P 1'
_cell_length_a   6.40452900
_cell_length_b   8.90786477
_cell_length_c   8.91385702
_cell_angle_alpha   120.02397838
_cell_angle_beta   90.00077930
_cell_angle_gamma   89.99972348
_symmetry_Int_Tables_number   1
_chemical_formula_structural   Y3Lu2InSb2
_chemical_formula_sum   'Y6 Lu4 In2 Sb4'
_cell_volume   440.30348339
_cell_formula_units_Z   2
loop_
 _symmetry_equiv_pos_site_id
 _symmetry_equiv_pos_as_xyz
  1  'x, y, z'
loop_
 _atom_site_type_symbol
 _atom_site_label
 _atom_site_symmetry_multiplicity
 _atom_site_fract_x
 _atom_site_fract_y
 _atom_site_fract_z
 _atom_site_occupancy
  Y  Y0  1  0.749992  0.243534  0.004164  1
  Y  Y1  1  0.750005  0.756497  0.760647  1
  Y  Y2  1  0.749981  0.000011  0.240948  1
  Y  Y3  1  0.250009  0.757916  0.997513  1
  Y  Y4  1  0.249995  0.242054  0.239576  1
  Y  Y5  1  0.250022  0.999987  0.756208  1
  Lu  Lu6  1  0.500284  0.335802  0.667766  1
  Lu  Lu7  1  0.500288  0.664179  0.331985  1
  Lu  Lu8  1  0.999700  0.664194  0.331982  1
  Lu  Lu9  1  0.999702  0.335807  0.667754  1
  In  In10  1  0.750034  0.604560  0.001252  1
  In  In11  1  0.750006  0.395488  0.396706  1
  Sb  Sb12  1  0.749997  0.000011  0.607461  1
  Sb  Sb13  1  0.249992  0.394877  0.999027  1
  Sb  Sb14  1  0.249997  0.605094  0.604133  1
  Sb  Sb15  1  0.249992  0.999990  0.392878  1
