# generated using pymatgen
data_K8Li4HoSc3As8
_symmetry_space_group_name_H-M   'P 1'
_cell_length_a   10.14570287
_cell_length_b   10.14570258
_cell_length_c   6.61019804
_cell_angle_alpha   90.00959237
_cell_angle_beta   89.99040125
_cell_angle_gamma   98.77885419
_symmetry_Int_Tables_number   1
_chemical_formula_structural   K8Li4HoSc3As8
_chemical_formula_sum   'K8 Li4 Ho1 Sc3 As8'
_cell_volume   672.45129189
_cell_formula_units_Z   1
loop_
 _symmetry_equiv_pos_site_id
 _symmetry_equiv_pos_as_xyz
  1  'x, y, z'
loop_
 _atom_site_type_symbol
 _atom_site_label
 _atom_site_symmetry_multiplicity
 _atom_site_fract_x
 _atom_site_fract_y
 _atom_site_fract_z
 _atom_site_occupancy
  K  K0  1  0.570943  0.929897  0.750605  1
  K  K1  1  0.929897  0.570943  0.249395  1
  K  K2  1  0.430919  0.065613  0.247957  1
  K  K3  1  0.065613  0.430919  0.752043  1
  K  K4  1  0.680302  0.322523  0.790566  1
  K  K5  1  0.822752  0.176554  0.288687  1
  K  K6  1  0.322523  0.680302  0.209434  1
  K  K7  1  0.176554  0.822752  0.711313  1
  Li  Li8  1  0.621183  0.621183  0.000000  1
  Li  Li9  1  0.880029  0.880029  0.500000  1
  Li  Li10  1  0.380399  0.380399  0.000000  1
  Li  Li11  1  0.116659  0.116659  0.500000  1
  Ho  Ho12  1  0.368238  0.368238  0.500000  1
  Sc  Sc13  1  0.869320  0.869320  0.000000  1
  Sc  Sc14  1  0.632990  0.632990  0.500000  1
  Sc  Sc15  1  0.129096  0.129096  0.000000  1
  As  As16  1  0.342073  0.150134  0.759100  1
  As  As17  1  0.150134  0.342073  0.240900  1
  As  As18  1  0.659615  0.841700  0.250323  1
  As  As19  1  0.841700  0.659615  0.749677  1
  As  As20  1  0.907745  0.090602  0.774225  1
  As  As21  1  0.599949  0.410765  0.269521  1
  As  As22  1  0.090602  0.907745  0.225775  1
  As  As23  1  0.410765  0.599949  0.730479  1
