# generated using pymatgen
data_MnNb6Fe5N2
_symmetry_space_group_name_H-M   'P 1'
_cell_length_a   7.99084033
_cell_length_b   7.99084017
_cell_length_c   7.98346600
_cell_angle_alpha   60.03052219
_cell_angle_beta   60.03052288
_cell_angle_gamma   60.11036859
_symmetry_Int_Tables_number   1
_chemical_formula_structural   MnNb6Fe5N2
_chemical_formula_sum   'Mn2 Nb12 Fe10 N4'
_cell_volume   360.92990003
_cell_formula_units_Z   2
loop_
 _symmetry_equiv_pos_site_id
 _symmetry_equiv_pos_as_xyz
  1  'x, y, z'
loop_
 _atom_site_type_symbol
 _atom_site_label
 _atom_site_symmetry_multiplicity
 _atom_site_fract_x
 _atom_site_fract_y
 _atom_site_fract_z
 _atom_site_occupancy
  Mn  Mn0  1  0.625000  0.625000  0.125000  1
  Mn  Mn1  1  0.625000  0.625000  0.625000  1
  Nb  Nb2  1  0.802798  0.802798  0.197202  1
  Nb  Nb3  1  0.200160  0.200160  0.799840  1
  Nb  Nb4  1  0.801704  0.197851  0.801087  1
  Nb  Nb5  1  0.197851  0.801704  0.199358  1
  Nb  Nb6  1  0.197851  0.801704  0.801087  1
  Nb  Nb7  1  0.801704  0.197851  0.199358  1
  Nb  Nb8  1  0.447202  0.447202  0.052798  1
  Nb  Nb9  1  0.049840  0.049840  0.450160  1
  Nb  Nb10  1  0.448296  0.052149  0.448913  1
  Nb  Nb11  1  0.052149  0.448296  0.050642  1
  Nb  Nb12  1  0.052149  0.448296  0.448913  1
  Nb  Nb13  1  0.448296  0.052149  0.050642  1
  Fe  Fe14  1  0.125000  0.625000  0.625000  1
  Fe  Fe15  1  0.625000  0.125000  0.625000  1
  Fe  Fe16  1  0.727343  0.424716  0.423971  1
  Fe  Fe17  1  0.424716  0.727343  0.423971  1
  Fe  Fe18  1  0.425204  0.425204  0.725314  1
  Fe  Fe19  1  0.425204  0.425204  0.424278  1
  Fe  Fe20  1  0.522657  0.825284  0.826029  1
  Fe  Fe21  1  0.825284  0.522657  0.826029  1
  Fe  Fe22  1  0.824796  0.824796  0.524686  1
  Fe  Fe23  1  0.824796  0.824796  0.825722  1
  N  N24  1  0.625000  0.125000  0.125000  1
  N  N25  1  0.125000  0.625000  0.125000  1
  N  N26  1  0.125000  0.125000  0.625000  1
  N  N27  1  0.125000  0.125000  0.125000  1
