# generated using pymatgen
data_Dy4MgB4Ir9
_symmetry_space_group_name_H-M   'P 1'
_cell_length_a   10.92932310
_cell_length_b   10.92932215
_cell_length_c   10.92932146
_cell_angle_alpha   29.28304371
_cell_angle_beta   29.28304312
_cell_angle_gamma   29.28305052
_symmetry_Int_Tables_number   1
_chemical_formula_structural   Dy4MgB4Ir9
_chemical_formula_sum   'Dy4 Mg1 B4 Ir9'
_cell_volume   276.36862645
_cell_formula_units_Z   1
loop_
 _symmetry_equiv_pos_site_id
 _symmetry_equiv_pos_as_xyz
  1  'x, y, z'
loop_
 _atom_site_type_symbol
 _atom_site_label
 _atom_site_symmetry_multiplicity
 _atom_site_fract_x
 _atom_site_fract_y
 _atom_site_fract_z
 _atom_site_occupancy
  Dy  Dy0  1  0.149460  0.149460  0.149460  1
  Dy  Dy1  1  0.950428  0.950428  0.950428  1
  Dy  Dy2  1  0.850540  0.850540  0.850540  1
  Dy  Dy3  1  0.049572  0.049572  0.049572  1
  Mg  Mg4  1  0.500000  0.500000  0.500000  1
  B  B5  1  0.615893  0.615893  0.615893  1
  B  B6  1  0.717301  0.717301  0.717301  1
  B  B7  1  0.384107  0.384107  0.384107  1
  B  B8  1  0.282699  0.282699  0.282699  1
  Ir  Ir9  1  0.401873  0.905265  0.401873  1
  Ir  Ir10  1  0.905265  0.401873  0.401873  1
  Ir  Ir11  1  0.500000  0.500000  0.000000  1
  Ir  Ir12  1  0.500000  0.000000  0.500000  1
  Ir  Ir13  1  0.000000  0.500000  0.500000  1
  Ir  Ir14  1  0.598127  0.094735  0.598127  1
  Ir  Ir15  1  0.598127  0.598127  0.094735  1
  Ir  Ir16  1  0.094735  0.598127  0.598127  1
  Ir  Ir17  1  0.401873  0.401873  0.905265  1
