# generated using pymatgen
data_La10Ir2I15
_symmetry_space_group_name_H-M   'P 1'
_cell_length_a   10.18787877
_cell_length_b   11.17777360
_cell_length_c   11.99476915
_cell_angle_alpha   92.37008319
_cell_angle_beta   113.91975286
_cell_angle_gamma   110.25032685
_symmetry_Int_Tables_number   1
_chemical_formula_structural   La10Ir2I15
_chemical_formula_sum   'La10 Ir2 I15'
_cell_volume   1144.85395838
_cell_formula_units_Z   1
loop_
 _symmetry_equiv_pos_site_id
 _symmetry_equiv_pos_as_xyz
  1  'x, y, z'
loop_
 _atom_site_type_symbol
 _atom_site_label
 _atom_site_symmetry_multiplicity
 _atom_site_fract_x
 _atom_site_fract_y
 _atom_site_fract_z
 _atom_site_occupancy
  La  La0  1  0.224425  0.580514  0.052455  1
  La  La1  1  0.775575  0.419486  0.947545  1
  La  La2  1  0.300355  0.905318  0.275712  1
  La  La3  1  0.699645  0.094682  0.724288  1
  La  La4  1  0.088037  0.543967  0.332215  1
  La  La5  1  0.911963  0.456033  0.667785  1
  La  La6  1  0.833217  0.749629  0.176308  1
  La  La7  1  0.166783  0.250371  0.823692  1
  La  La8  1  0.974100  0.794500  0.901422  1
  La  La9  1  0.025900  0.205500  0.098578  1
  Ir  Ir10  1  0.032959  0.674437  0.120054  1
  Ir  Ir11  1  0.967041  0.325563  0.879946  1
  I  I12  1  0.340108  0.443569  0.301431  1
  I  I13  1  0.659892  0.556431  0.698569  1
  I  I14  1  0.213442  0.737422  0.816810  1
  I  I15  1  0.786558  0.262578  0.183190  1
  I  I16  1  0.144945  0.386435  0.582704  1
  I  I17  1  0.855055  0.613565  0.417296  1
  I  I18  1  0.389537  0.801340  0.533278  1
  I  I19  1  0.610463  0.198660  0.466722  1
  I  I20  1  0.264848  0.087530  0.055241  1
  I  I21  1  0.735152  0.912470  0.944759  1
  I  I22  1  0.566352  0.845161  0.227917  1
  I  I23  1  0.433648  0.154839  0.772083  1
  I  I24  1  0.092083  0.040191  0.338498  1
  I  I25  1  0.907917  0.959809  0.661502  1
  I  I26  1  0.500000  0.500000  0.000000  1
