# generated using pymatgen
data_DyTm4Nb3(Co4P3)4
_symmetry_space_group_name_H-M   'P 1'
_cell_length_a   12.16289800
_cell_length_b   12.16289780
_cell_length_c   3.68945000
_cell_angle_alpha   90.00000000
_cell_angle_beta   90.00000000
_cell_angle_gamma   119.99999510
_symmetry_Int_Tables_number   1
_chemical_formula_structural   DyTm4Nb3(Co4P3)4
_chemical_formula_sum   'Dy1 Tm4 Nb3 Co16 P12'
_cell_volume   472.67910501
_cell_formula_units_Z   1
loop_
 _symmetry_equiv_pos_site_id
 _symmetry_equiv_pos_as_xyz
  1  'x, y, z'
loop_
 _atom_site_type_symbol
 _atom_site_label
 _atom_site_symmetry_multiplicity
 _atom_site_fract_x
 _atom_site_fract_y
 _atom_site_fract_z
 _atom_site_occupancy
  Dy  Dy0  1  0.666667  0.333333  0.000000  1
  Tm  Tm1  1  0.816718  0.000219  0.500000  1
  Tm  Tm2  1  0.999781  0.816498  0.500000  1
  Tm  Tm3  1  0.183502  0.183282  0.500000  1
  Tm  Tm4  1  0.333333  0.666667  0.000000  1
  Nb  Nb5  1  0.444463  0.999590  0.000000  1
  Nb  Nb6  1  0.000410  0.444873  0.000000  1
  Nb  Nb7  1  0.555127  0.555537  0.000000  1
  Co  Co8  1  0.277869  0.999432  0.500000  1
  Co  Co9  1  0.000568  0.278437  0.500000  1
  Co  Co10  1  0.721563  0.722131  0.500000  1
  Co  Co11  1  0.626647  0.803927  0.000000  1
  Co  Co12  1  0.196073  0.822720  0.000000  1
  Co  Co13  1  0.177280  0.373353  0.000000  1
  Co  Co14  1  0.372441  0.176424  0.000000  1
  Co  Co15  1  0.803984  0.627559  0.000000  1
  Co  Co16  1  0.823576  0.196016  0.000000  1
  Co  Co17  1  0.518684  0.872219  0.500000  1
  Co  Co18  1  0.127781  0.646465  0.500000  1
  Co  Co19  1  0.353535  0.481316  0.500000  1
  Co  Co20  1  0.479452  0.353202  0.500000  1
  Co  Co21  1  0.873749  0.520548  0.500000  1
  Co  Co22  1  0.646798  0.126251  0.500000  1
  Co  Co23  1  0.000000  0.000000  0.000000  1
  P  P24  1  0.177217  0.999577  0.000000  1
  P  P25  1  0.000423  0.177640  0.000000  1
  P  P26  1  0.822360  0.822783  0.000000  1
  P  P27  1  0.519764  0.688425  0.500000  1
  P  P28  1  0.311575  0.831340  0.500000  1
  P  P29  1  0.168660  0.480236  0.500000  1
  P  P30  1  0.478757  0.167357  0.500000  1
  P  P31  1  0.688600  0.521243  0.500000  1
  P  P32  1  0.832643  0.311400  0.500000  1
  P  P33  1  0.645019  0.000075  0.000000  1
  P  P34  1  0.999925  0.644944  0.000000  1
  P  P35  1  0.355056  0.354981  0.000000  1
