# generated using pymatgen
data_LiPr4Nd4Er8Sc3Si16
_symmetry_space_group_name_H-M   'P 1'
_cell_length_a   7.33120826
_cell_length_b   7.73142127
_cell_length_c   14.67916453
_cell_angle_alpha   89.99652901
_cell_angle_beta   90.03045058
_cell_angle_gamma   90.04172543
_symmetry_Int_Tables_number   1
_chemical_formula_structural   LiPr4Nd4Er8Sc3Si16
_chemical_formula_sum   'Li1 Pr4 Nd4 Er8 Sc3 Si16'
_cell_volume   832.02438613
_cell_formula_units_Z   1
loop_
 _symmetry_equiv_pos_site_id
 _symmetry_equiv_pos_as_xyz
  1  'x, y, z'
loop_
 _atom_site_type_symbol
 _atom_site_label
 _atom_site_symmetry_multiplicity
 _atom_site_fract_x
 _atom_site_fract_y
 _atom_site_fract_z
 _atom_site_occupancy
  Li  Li0  1  0.654606  0.989062  0.749945  1
  Pr  Pr1  1  0.974501  0.822994  0.600728  1
  Pr  Pr2  1  0.974347  0.823221  0.898848  1
  Pr  Pr3  1  0.517437  0.322318  0.098596  1
  Pr  Pr4  1  0.017997  0.178282  0.098254  1
  Nd  Nd5  1  0.018061  0.178449  0.401639  1
  Nd  Nd6  1  0.517951  0.321744  0.401348  1
  Nd  Nd7  1  0.481772  0.687088  0.898084  1
  Nd  Nd8  1  0.481281  0.687462  0.601295  1
  Er  Er9  1  0.329872  0.174987  0.625429  1
  Er  Er10  1  0.678091  0.819722  0.373965  1
  Er  Er11  1  0.178332  0.676538  0.375834  1
  Er  Er12  1  0.820088  0.316447  0.874206  1
  Er  Er13  1  0.820204  0.316498  0.625600  1
  Er  Er14  1  0.330042  0.174779  0.874341  1
  Er  Er15  1  0.178307  0.676682  0.124748  1
  Er  Er16  1  0.678054  0.819854  0.126632  1
  Sc  Sc17  1  0.846582  0.490610  0.250297  1
  Sc  Sc18  1  0.344854  0.009207  0.250619  1
  Sc  Sc19  1  0.152096  0.507670  0.749776  1
  Si  Si20  1  0.269253  0.876117  0.749793  1
  Si  Si21  1  0.477952  0.605475  0.250517  1
  Si  Si22  1  0.032132  0.109940  0.749898  1
  Si  Si23  1  0.520005  0.404107  0.749787  1
  Si  Si24  1  0.149730  0.468440  0.541491  1
  Si  Si25  1  0.978669  0.889861  0.250491  1
  Si  Si26  1  0.718329  0.126220  0.250762  1
  Si  Si27  1  0.852427  0.532586  0.037571  1
  Si  Si28  1  0.352731  0.966393  0.040241  1
  Si  Si29  1  0.149945  0.469312  0.958143  1
  Si  Si30  1  0.650905  0.037147  0.531759  1
  Si  Si31  1  0.352193  0.968152  0.459089  1
  Si  Si32  1  0.852056  0.530912  0.461787  1
  Si  Si33  1  0.779406  0.611922  0.749822  1
  Si  Si34  1  0.218909  0.373859  0.250830  1
  Si  Si35  1  0.650885  0.035942  0.967835  1
