# generated using pymatgen
data_Tm19Mg(IrPt)6
_symmetry_space_group_name_H-M   'P 1'
_cell_length_a   10.85319704
_cell_length_b   10.85045911
_cell_length_c   6.25763108
_cell_angle_alpha   90.01575967
_cell_angle_beta   90.00933124
_cell_angle_gamma   90.00324644
_symmetry_Int_Tables_number   1
_chemical_formula_structural   Tm19Mg(IrPt)6
_chemical_formula_sum   'Tm19 Mg1 Ir6 Pt6'
_cell_volume   736.91218037
_cell_formula_units_Z   1
loop_
 _symmetry_equiv_pos_site_id
 _symmetry_equiv_pos_as_xyz
  1  'x, y, z'
loop_
 _atom_site_type_symbol
 _atom_site_label
 _atom_site_symmetry_multiplicity
 _atom_site_fract_x
 _atom_site_fract_y
 _atom_site_fract_z
 _atom_site_occupancy
  Tm  Tm0  1  0.289587  0.085983  0.375518  1
  Tm  Tm1  1  0.295262  0.909370  0.876022  1
  Tm  Tm2  1  0.704745  0.087281  0.876087  1
  Tm  Tm3  1  0.710712  0.917241  0.375487  1
  Tm  Tm4  1  0.584988  0.792996  0.875373  1
  Tm  Tm5  1  0.581779  0.206981  0.373743  1
  Tm  Tm6  1  0.413538  0.793427  0.378197  1
  Tm  Tm7  1  0.410343  0.206728  0.880117  1
  Tm  Tm8  1  0.208426  0.416592  0.623423  1
  Tm  Tm9  1  0.208575  0.586828  0.121479  1
  Tm  Tm10  1  0.795133  0.411939  0.122912  1
  Tm  Tm11  1  0.795129  0.585061  0.624606  1
  Tm  Tm12  1  0.913345  0.704947  0.123770  1
  Tm  Tm13  1  0.917747  0.289175  0.624262  1
  Tm  Tm14  1  0.086468  0.710405  0.624690  1
  Tm  Tm15  1  0.091228  0.295339  0.124029  1
  Tm  Tm16  1  0.000176  0.000112  0.999948  1
  Tm  Tm17  1  0.496984  0.499443  0.999966  1
  Tm  Tm18  1  0.496931  0.500463  0.499969  1
  Mg  Mg19  1  0.000041  0.999790  0.500007  1
  Ir  Ir20  1  0.345820  0.344835  0.252965  1
  Ir  Ir21  1  0.345719  0.654939  0.747396  1
  Ir  Ir22  1  0.500427  0.999864  0.124154  1
  Ir  Ir23  1  0.500467  0.000107  0.621629  1
  Ir  Ir24  1  0.999297  0.500097  0.875934  1
  Ir  Ir25  1  0.999312  0.499864  0.378397  1
  Pt  Pt26  1  0.846948  0.154840  0.248072  1
  Pt  Pt27  1  0.845007  0.847210  0.752257  1
  Pt  Pt28  1  0.154038  0.152083  0.751639  1
  Pt  Pt29  1  0.151842  0.845784  0.248020  1
  Pt  Pt30  1  0.655176  0.345749  0.747496  1
  Pt  Pt31  1  0.654809  0.654524  0.252441  1
