# generated using pymatgen
data_PrNd3Y2CoBr10
_symmetry_space_group_name_H-M   'P 1'
_cell_length_a   7.48963466
_cell_length_b   9.37910861
_cell_length_c   9.50350616
_cell_angle_alpha   108.80589129
_cell_angle_beta   95.84096397
_cell_angle_gamma   105.15371025
_symmetry_Int_Tables_number   1
_chemical_formula_structural   PrNd3Y2CoBr10
_chemical_formula_sum   'Pr1 Nd3 Y2 Co1 Br10'
_cell_volume   597.19461896
_cell_formula_units_Z   1
loop_
 _symmetry_equiv_pos_site_id
 _symmetry_equiv_pos_as_xyz
  1  'x, y, z'
loop_
 _atom_site_type_symbol
 _atom_site_label
 _atom_site_symmetry_multiplicity
 _atom_site_fract_x
 _atom_site_fract_y
 _atom_site_fract_z
 _atom_site_occupancy
  Pr  Pr0  1  0.470637  0.789629  0.592385  1
  Nd  Nd1  1  0.529933  0.212984  0.408425  1
  Nd  Nd2  1  0.372068  0.454555  0.748156  1
  Nd  Nd3  1  0.627035  0.545858  0.251641  1
  Y  Y4  1  0.854358  0.629438  0.672489  1
  Y  Y5  1  0.145549  0.369398  0.327312  1
  Co  Co6  1  0.499715  0.500424  0.500043  1
  Br  Br7  1  0.413287  0.133563  0.673292  1
  Br  Br8  1  0.587830  0.868499  0.324062  1
  Br  Br9  1  0.046534  0.673174  0.418266  1
  Br  Br10  1  0.950935  0.324736  0.580127  1
  Br  Br11  1  0.264288  0.751259  0.845624  1
  Br  Br12  1  0.733370  0.246999  0.156829  1
  Br  Br13  1  0.244031  0.414659  0.053117  1
  Br  Br14  1  0.755159  0.584948  0.946896  1
  Br  Br15  1  0.861168  0.945046  0.770573  1
  Br  Br16  1  0.144103  0.054831  0.230761  1
