# generated using pymatgen
data_Sm3Bi5(Ru2O11)2
_symmetry_space_group_name_H-M   'P 1'
_cell_length_a   6.56515357
_cell_length_b   7.57832655
_cell_length_c   9.84660297
_cell_angle_alpha   101.19141366
_cell_angle_beta   91.30662687
_cell_angle_gamma   90.11050299
_symmetry_Int_Tables_number   1
_chemical_formula_structural   Sm3Bi5(Ru2O11)2
_chemical_formula_sum   'Sm3 Bi5 Ru4 O22'
_cell_volume   480.44603168
_cell_formula_units_Z   1
loop_
 _symmetry_equiv_pos_site_id
 _symmetry_equiv_pos_as_xyz
  1  'x, y, z'
loop_
 _atom_site_type_symbol
 _atom_site_label
 _atom_site_symmetry_multiplicity
 _atom_site_fract_x
 _atom_site_fract_y
 _atom_site_fract_z
 _atom_site_occupancy
  Sm  Sm0  1  0.752654  0.370533  0.480205  1
  Sm  Sm1  1  0.254336  0.631906  0.520330  1
  Sm  Sm2  1  0.762956  0.873310  0.488202  1
  Bi  Bi3  1  0.248475  0.127977  0.513770  1
  Bi  Bi4  1  0.472152  0.954753  0.820747  1
  Bi  Bi5  1  0.527026  0.045038  0.180500  1
  Bi  Bi6  1  0.398447  0.454639  0.827827  1
  Bi  Bi7  1  0.603321  0.545707  0.175639  1
  Ru  Ru8  1  0.932403  0.702384  0.810058  1
  Ru  Ru9  1  0.067620  0.296346  0.188676  1
  Ru  Ru10  1  0.930746  0.202560  0.811633  1
  Ru  Ru11  1  0.066612  0.797722  0.187666  1
  O  O12  1  0.229043  0.721437  0.765484  1
  O  O13  1  0.770954  0.277489  0.235145  1
  O  O14  1  0.636762  0.673848  0.831832  1
  O  O15  1  0.361573  0.324897  0.165388  1
  O  O16  1  0.636509  0.243528  0.844545  1
  O  O17  1  0.360389  0.756687  0.159478  1
  O  O18  1  0.887892  0.164395  0.603135  1
  O  O19  1  0.103320  0.829191  0.396866  1
  O  O20  1  0.225113  0.158823  0.764039  1
  O  O21  1  0.772761  0.842114  0.238295  1
  O  O22  1  0.903252  0.638932  0.600239  1
  O  O23  1  0.099277  0.367495  0.395781  1
  O  O24  1  0.003479  0.544424  0.177135  1
  O  O25  1  0.989796  0.454272  0.817843  1
  O  O26  1  0.995959  0.779407  0.999342  1
  O  O27  1  0.001790  0.220517  0.999481  1
  O  O28  1  0.572567  0.601976  0.395481  1
  O  O29  1  0.430243  0.396629  0.607189  1
  O  O30  1  0.153936  0.053821  0.215846  1
  O  O31  1  0.843658  0.944977  0.780622  1
  O  O32  1  0.549032  0.099441  0.400296  1
  O  O33  1  0.455947  0.902825  0.601285  1
