# generated using pymatgen
data_Er6Zn22RhO
_symmetry_space_group_name_H-M   'P 1'
_cell_length_a   8.95593275
_cell_length_b   8.95629388
_cell_length_c   8.95628800
_cell_angle_alpha   59.99660888
_cell_angle_beta   60.00081536
_cell_angle_gamma   59.99964043
_symmetry_Int_Tables_number   1
_chemical_formula_structural   Er6Zn22RhO
_chemical_formula_sum   'Er6 Zn22 Rh1 O1'
_cell_volume   507.97527715
_cell_formula_units_Z   1
loop_
 _symmetry_equiv_pos_site_id
 _symmetry_equiv_pos_as_xyz
  1  'x, y, z'
loop_
 _atom_site_type_symbol
 _atom_site_label
 _atom_site_symmetry_multiplicity
 _atom_site_fract_x
 _atom_site_fract_y
 _atom_site_fract_z
 _atom_site_occupancy
  Er  Er0  1  0.697934  0.302230  0.302042  1
  Er  Er1  1  0.302079  0.697770  0.697946  1
  Er  Er2  1  0.302157  0.697764  0.302196  1
  Er  Er3  1  0.697865  0.302233  0.697788  1
  Er  Er4  1  0.302020  0.302273  0.697901  1
  Er  Er5  1  0.697994  0.697729  0.302081  1
  Zn  Zn6  1  0.119125  0.119134  0.119119  1
  Zn  Zn7  1  0.880899  0.880863  0.880863  1
  Zn  Zn8  1  0.119152  0.119129  0.642579  1
  Zn  Zn9  1  0.119142  0.642608  0.119107  1
  Zn  Zn10  1  0.880875  0.880860  0.357411  1
  Zn  Zn11  1  0.880885  0.357368  0.880875  1
  Zn  Zn12  1  0.642603  0.119142  0.119127  1
  Zn  Zn13  1  0.357430  0.880847  0.880855  1
  Zn  Zn14  1  0.500014  0.999993  0.999994  1
  Zn  Zn15  1  0.000007  0.499997  0.500000  1
  Zn  Zn16  1  0.000003  0.499992  0.000009  1
  Zn  Zn17  1  0.500006  0.000004  0.499982  1
  Zn  Zn18  1  0.000005  0.999995  0.500000  1
  Zn  Zn19  1  0.500013  0.499988  0.999996  1
  Zn  Zn20  1  0.329824  0.329739  0.329826  1
  Zn  Zn21  1  0.670202  0.670235  0.670171  1
  Zn  Zn22  1  0.329816  0.329786  0.010584  1
  Zn  Zn23  1  0.329829  0.010604  0.329811  1
  Zn  Zn24  1  0.670193  0.670217  0.989396  1
  Zn  Zn25  1  0.670191  0.989394  0.670188  1
  Zn  Zn26  1  0.010621  0.329790  0.329796  1
  Zn  Zn27  1  0.989395  0.670209  0.670185  1
  Rh  Rh28  1  0.999708  0.000113  0.000188  1
  O  O29  1  0.500014  0.499996  0.499984  1
