# generated using pymatgen
data_NdEu(NiH4)2
_symmetry_space_group_name_H-M   'P 1'
_cell_length_a   6.19481057
_cell_length_b   6.19481081
_cell_length_c   4.83250900
_cell_angle_alpha   90.00000000
_cell_angle_beta   90.00000000
_cell_angle_gamma   144.47831064
_symmetry_Int_Tables_number   1
_chemical_formula_structural   NdEu(NiH4)2
_chemical_formula_sum   'Nd1 Eu1 Ni2 H8'
_cell_volume   107.74898255
_cell_formula_units_Z   1
loop_
 _symmetry_equiv_pos_site_id
 _symmetry_equiv_pos_as_xyz
  1  'x, y, z'
loop_
 _atom_site_type_symbol
 _atom_site_label
 _atom_site_symmetry_multiplicity
 _atom_site_fract_x
 _atom_site_fract_y
 _atom_site_fract_z
 _atom_site_occupancy
  Nd  Nd0  1  0.868791  0.131211  0.249999  1
  Eu  Eu1  1  0.132460  0.867542  0.750000  1
  Ni  Ni2  1  0.593717  0.406285  0.249999  1
  Ni  Ni3  1  0.405085  0.594917  0.750000  1
  H  H4  1  0.499950  0.500052  0.000166  1
  H  H5  1  0.689941  0.310061  0.013095  1
  H  H6  1  0.082636  0.917366  0.249999  1
  H  H7  1  0.689941  0.310061  0.486903  1
  H  H8  1  0.499950  0.500052  0.499835  1
  H  H9  1  0.311445  0.688557  0.504858  1
  H  H10  1  0.914651  0.085351  0.750000  1
  H  H11  1  0.311445  0.688557  0.995142  1
