# generated using pymatgen
data_Ho4LuBiPd2
_symmetry_space_group_name_H-M   'P 1'
_cell_length_a   8.77882021
_cell_length_b   8.77882098
_cell_length_c   8.77882056
_cell_angle_alpha   127.64694501
_cell_angle_beta   127.64694931
_cell_angle_gamma   77.19766061
_symmetry_Int_Tables_number   1
_chemical_formula_structural   Ho4LuBiPd2
_chemical_formula_sum   'Ho8 Lu2 Bi2 Pd4'
_cell_volume   411.59047389
_cell_formula_units_Z   2
loop_
 _symmetry_equiv_pos_site_id
 _symmetry_equiv_pos_as_xyz
  1  'x, y, z'
loop_
 _atom_site_type_symbol
 _atom_site_label
 _atom_site_symmetry_multiplicity
 _atom_site_fract_x
 _atom_site_fract_y
 _atom_site_fract_z
 _atom_site_occupancy
  Ho  Ho0  1  0.796320  0.296320  0.811735  1
  Ho  Ho1  1  0.203680  0.703680  0.188265  1
  Ho  Ho2  1  0.484585  0.984585  0.188265  1
  Ho  Ho3  1  0.296320  0.484585  0.500000  1
  Ho  Ho4  1  0.015415  0.203680  0.500000  1
  Ho  Ho5  1  0.515415  0.015415  0.811735  1
  Ho  Ho6  1  0.703680  0.515415  0.500000  1
  Ho  Ho7  1  0.984585  0.796320  0.500000  1
  Lu  Lu8  1  0.000000  0.000000  0.000000  1
  Lu  Lu9  1  0.500000  0.500000  0.000000  1
  Bi  Bi10  1  0.250000  0.250000  0.000000  1
  Bi  Bi11  1  0.750000  0.750000  0.000000  1
  Pd  Pd12  1  0.136869  0.636869  0.773737  1
  Pd  Pd13  1  0.863131  0.363131  0.226263  1
  Pd  Pd14  1  0.636869  0.863131  0.500000  1
  Pd  Pd15  1  0.363131  0.136869  0.500000  1
