# generated using pymatgen
data_Lu10OsRh3
_symmetry_space_group_name_H-M   'P 1'
_cell_length_a   6.29684561
_cell_length_b   7.14391751
_cell_length_c   8.28203175
_cell_angle_alpha   96.75303764
_cell_angle_beta   112.10389894
_cell_angle_gamma   89.93298085
_symmetry_Int_Tables_number   1
_chemical_formula_structural   Lu10OsRh3
_chemical_formula_sum   'Lu10 Os1 Rh3'
_cell_volume   342.40739667
_cell_formula_units_Z   1
loop_
 _symmetry_equiv_pos_site_id
 _symmetry_equiv_pos_as_xyz
  1  'x, y, z'
loop_
 _atom_site_type_symbol
 _atom_site_label
 _atom_site_symmetry_multiplicity
 _atom_site_fract_x
 _atom_site_fract_y
 _atom_site_fract_z
 _atom_site_occupancy
  Lu  Lu0  1  0.521757  0.082514  0.813228  1
  Lu  Lu1  1  0.476748  0.918625  0.188936  1
  Lu  Lu2  1  0.710912  0.418262  0.188008  1
  Lu  Lu3  1  0.292326  0.582336  0.821022  1
  Lu  Lu4  1  0.292367  0.318488  0.437562  1
  Lu  Lu5  1  0.702733  0.683433  0.557592  1
  Lu  Lu6  1  0.855216  0.184487  0.562253  1
  Lu  Lu7  1  0.148626  0.812171  0.436314  1
  Lu  Lu8  1  0.078872  0.251092  0.000966  1
  Lu  Lu9  1  0.922714  0.748829  0.000393  1
  Os  Os10  1  0.322705  0.575657  0.214497  1
  Rh  Rh11  1  0.677611  0.423836  0.781112  1
  Rh  Rh12  1  0.101381  0.925416  0.778562  1
  Rh  Rh13  1  0.896030  0.074852  0.219553  1
