# generated using pymatgen
data_Hf10ZnSn3Sb4
_symmetry_space_group_name_H-M   'P 1'
_cell_length_a   5.86379501
_cell_length_b   8.67956450
_cell_length_c   8.67940000
_cell_angle_alpha   119.99776013
_cell_angle_beta   90.00175569
_cell_angle_gamma   89.99711617
_symmetry_Int_Tables_number   1
_chemical_formula_structural   Hf10ZnSn3Sb4
_chemical_formula_sum   'Hf10 Zn1 Sn3 Sb4'
_cell_volume   382.56642359
_cell_formula_units_Z   1
loop_
 _symmetry_equiv_pos_site_id
 _symmetry_equiv_pos_as_xyz
  1  'x, y, z'
loop_
 _atom_site_type_symbol
 _atom_site_label
 _atom_site_symmetry_multiplicity
 _atom_site_fract_x
 _atom_site_fract_y
 _atom_site_fract_z
 _atom_site_occupancy
  Hf  Hf0  1  0.498017  0.333336  0.666665  1
  Hf  Hf1  1  0.498025  0.666669  0.333329  1
  Hf  Hf2  1  0.001553  0.666674  0.333342  1
  Hf  Hf3  1  0.001546  0.333328  0.666666  1
  Hf  Hf4  1  0.735031  0.274030  0.999999  1
  Hf  Hf5  1  0.735043  0.725966  0.725954  1
  Hf  Hf6  1  0.735040  0.000008  0.274038  1
  Hf  Hf7  1  0.265999  0.722130  0.999996  1
  Hf  Hf8  1  0.265990  0.277865  0.277875  1
  Hf  Hf9  1  0.265985  0.999993  0.722126  1
  Zn  Zn10  1  0.496356  0.000001  0.000003  1
  Sn  Sn11  1  0.245089  0.385354  0.000000  1
  Sn  Sn12  1  0.245074  0.614643  0.614641  1
  Sn  Sn13  1  0.245076  0.999991  0.385358  1
  Sb  Sb14  1  0.754104  0.610222  0.000002  1
  Sb  Sb15  1  0.754122  0.389782  0.389784  1
  Sb  Sb16  1  0.754124  0.000007  0.610221  1
  Sb  Sb17  1  0.003829  0.000000  0.999999  1
