# generated using pymatgen
data_Y3HoSc6(GaSi3)2
_symmetry_space_group_name_H-M   'P 1'
_cell_length_a   7.13629744
_cell_length_b   7.41537267
_cell_length_c   14.14979522
_cell_angle_alpha   89.98711934
_cell_angle_beta   89.86544761
_cell_angle_gamma   90.15029182
_symmetry_Int_Tables_number   1
_chemical_formula_structural   Y3HoSc6(GaSi3)2
_chemical_formula_sum   'Y6 Ho2 Sc12 Ga4 Si12'
_cell_volume   748.77851850
_cell_formula_units_Z   2
loop_
 _symmetry_equiv_pos_site_id
 _symmetry_equiv_pos_as_xyz
  1  'x, y, z'
loop_
 _atom_site_type_symbol
 _atom_site_label
 _atom_site_symmetry_multiplicity
 _atom_site_fract_x
 _atom_site_fract_y
 _atom_site_fract_z
 _atom_site_occupancy
  Y  Y0  1  0.013535  0.174474  0.097187  1
  Y  Y1  1  0.988112  0.825144  0.901717  1
  Y  Y2  1  0.487080  0.676664  0.901444  1
  Y  Y3  1  0.987677  0.827614  0.600227  1
  Y  Y4  1  0.510740  0.321719  0.097321  1
  Y  Y5  1  0.009821  0.174516  0.400666  1
  Ho  Ho6  1  0.511257  0.324613  0.400442  1
  Ho  Ho7  1  0.490120  0.675821  0.600654  1
  Sc  Sc8  1  0.162560  0.500824  0.751203  1
  Sc  Sc9  1  0.836827  0.498406  0.250162  1
  Sc  Sc10  1  0.336664  0.001949  0.248582  1
  Sc  Sc11  1  0.662922  0.998534  0.749912  1
  Sc  Sc12  1  0.333245  0.175056  0.627614  1
  Sc  Sc13  1  0.669251  0.825805  0.373786  1
  Sc  Sc14  1  0.170334  0.674107  0.373064  1
  Sc  Sc15  1  0.668800  0.825787  0.125580  1
  Sc  Sc16  1  0.828757  0.324373  0.626690  1
  Sc  Sc17  1  0.330467  0.175835  0.874522  1
  Sc  Sc18  1  0.829185  0.323173  0.874125  1
  Sc  Sc19  1  0.172988  0.675696  0.124664  1
  Ga  Ga20  1  0.161719  0.461648  0.539846  1
  Ga  Ga21  1  0.839183  0.537890  0.461194  1
  Ga  Ga22  1  0.340172  0.961869  0.461384  1
  Ga  Ga23  1  0.840210  0.538093  0.038812  1
  Si  Si24  1  0.033113  0.116881  0.751148  1
  Si  Si25  1  0.966866  0.883479  0.249286  1
  Si  Si26  1  0.467285  0.614865  0.248647  1
  Si  Si27  1  0.532999  0.384838  0.750983  1
  Si  Si28  1  0.286151  0.872179  0.750842  1
  Si  Si29  1  0.714817  0.127398  0.248901  1
  Si  Si30  1  0.214413  0.372686  0.248991  1
  Si  Si31  1  0.786379  0.628189  0.751258  1
  Si  Si32  1  0.657578  0.036332  0.539358  1
  Si  Si33  1  0.157837  0.463461  0.960693  1
  Si  Si34  1  0.656437  0.036055  0.961157  1
  Si  Si35  1  0.344497  0.964025  0.037941  1
