# generated using pymatgen
data_TbDy3(WO6)2
_symmetry_space_group_name_H-M   'P 1'
_cell_length_a   5.40090700
_cell_length_b   7.70893301
_cell_length_c   11.49150873
_cell_angle_alpha   75.50578141
_cell_angle_beta   90.00000000
_cell_angle_gamma   90.00000000
_symmetry_Int_Tables_number   1
_chemical_formula_structural   TbDy3(WO6)2
_chemical_formula_sum   'Tb2 Dy6 W4 O24'
_cell_volume   463.22388472
_cell_formula_units_Z   2
loop_
 _symmetry_equiv_pos_site_id
 _symmetry_equiv_pos_as_xyz
  1  'x, y, z'
loop_
 _atom_site_type_symbol
 _atom_site_label
 _atom_site_symmetry_multiplicity
 _atom_site_fract_x
 _atom_site_fract_y
 _atom_site_fract_z
 _atom_site_occupancy
  Tb  Tb0  1  0.683885  0.500000  0.750000  1
  Tb  Tb1  1  0.316115  0.500000  0.250000  1
  Dy  Dy2  1  0.738588  0.000000  0.750000  1
  Dy  Dy3  1  0.261412  0.000000  0.250000  1
  Dy  Dy4  1  0.187164  0.796228  0.577653  1
  Dy  Dy5  1  0.812836  0.796228  0.077653  1
  Dy  Dy6  1  0.187164  0.203772  0.922347  1
  Dy  Dy7  1  0.812836  0.203772  0.422347  1
  W  W8  1  0.253950  0.723065  0.885621  1
  W  W9  1  0.746050  0.723065  0.385621  1
  W  W10  1  0.253950  0.276935  0.614379  1
  W  W11  1  0.746050  0.276935  0.114379  1
  O  O12  1  0.041113  0.939337  0.895309  1
  O  O13  1  0.529024  0.849483  0.930769  1
  O  O14  1  0.958887  0.939337  0.395309  1
  O  O15  1  0.459709  0.789061  0.728230  1
  O  O16  1  0.470976  0.849483  0.430769  1
  O  O17  1  0.983107  0.710208  0.771283  1
  O  O18  1  0.540291  0.789061  0.228230  1
  O  O19  1  0.851643  0.635555  0.547929  1
  O  O20  1  0.361704  0.490047  0.887090  1
  O  O21  1  0.016893  0.710208  0.271283  1
  O  O22  1  0.361704  0.509953  0.612910  1
  O  O23  1  0.851643  0.364445  0.952071  1
  O  O24  1  0.148357  0.635555  0.047929  1
  O  O25  1  0.638296  0.490047  0.387090  1
  O  O26  1  0.983107  0.289792  0.728717  1
  O  O27  1  0.638296  0.509953  0.112910  1
  O  O28  1  0.148357  0.364445  0.452071  1
  O  O29  1  0.459709  0.210939  0.771770  1
  O  O30  1  0.016893  0.289792  0.228717  1
  O  O31  1  0.529024  0.150517  0.569231  1
  O  O32  1  0.540291  0.210939  0.271770  1
  O  O33  1  0.041113  0.060663  0.604691  1
  O  O34  1  0.470976  0.150517  0.069231  1
  O  O35  1  0.958887  0.060663  0.104691  1
