# generated using pymatgen
data_Ho8Mg2Sc10Si15Hg
_symmetry_space_group_name_H-M   'P 1'
_cell_length_a   7.05588601
_cell_length_b   7.37725817
_cell_length_c   14.10187790
_cell_angle_alpha   89.88863708
_cell_angle_beta   89.50642055
_cell_angle_gamma   90.06993030
_symmetry_Int_Tables_number   1
_chemical_formula_structural   Ho8Mg2Sc10Si15Hg
_chemical_formula_sum   'Ho8 Mg2 Sc10 Si15 Hg1'
_cell_volume   734.01717318
_cell_formula_units_Z   1
loop_
 _symmetry_equiv_pos_site_id
 _symmetry_equiv_pos_as_xyz
  1  'x, y, z'
loop_
 _atom_site_type_symbol
 _atom_site_label
 _atom_site_symmetry_multiplicity
 _atom_site_fract_x
 _atom_site_fract_y
 _atom_site_fract_z
 _atom_site_occupancy
  Ho  Ho0  1  0.011150  0.180092  0.097006  1
  Ho  Ho1  1  0.989387  0.820799  0.903777  1
  Ho  Ho2  1  0.486371  0.674607  0.904200  1
  Ho  Ho3  1  0.990752  0.828440  0.597861  1
  Ho  Ho4  1  0.511724  0.325750  0.095667  1
  Ho  Ho5  1  0.006083  0.174686  0.398803  1
  Ho  Ho6  1  0.513686  0.323080  0.399525  1
  Ho  Ho7  1  0.495283  0.680831  0.599851  1
  Mg  Mg8  1  0.160844  0.503205  0.752606  1
  Mg  Mg9  1  0.837848  0.496533  0.249585  1
  Sc  Sc10  1  0.338406  0.001405  0.249119  1
  Sc  Sc11  1  0.663961  0.996907  0.751646  1
  Sc  Sc12  1  0.341709  0.170733  0.628452  1
  Sc  Sc13  1  0.665565  0.820792  0.373031  1
  Sc  Sc14  1  0.162722  0.677259  0.370897  1
  Sc  Sc15  1  0.671433  0.820249  0.123979  1
  Sc  Sc16  1  0.827352  0.324717  0.625766  1
  Sc  Sc17  1  0.327605  0.178932  0.876645  1
  Sc  Sc18  1  0.832492  0.322732  0.876404  1
  Sc  Sc19  1  0.166913  0.676110  0.124444  1
  Si  Si20  1  0.033867  0.107843  0.751951  1
  Si  Si21  1  0.965912  0.896088  0.247210  1
  Si  Si22  1  0.459558  0.616479  0.247922  1
  Si  Si23  1  0.539459  0.385151  0.752512  1
  Si  Si24  1  0.288940  0.880197  0.752033  1
  Si  Si25  1  0.709179  0.119535  0.247952  1
  Si  Si26  1  0.220780  0.370533  0.248741  1
  Si  Si27  1  0.781391  0.629070  0.752498  1
  Si  Si28  1  0.829886  0.541310  0.463824  1
  Si  Si29  1  0.338272  0.963563  0.460335  1
  Si  Si30  1  0.840627  0.538250  0.033942  1
  Si  Si31  1  0.660512  0.035518  0.536808  1
  Si  Si32  1  0.159261  0.461285  0.966800  1
  Si  Si33  1  0.656617  0.032282  0.960503  1
  Si  Si34  1  0.343687  0.967070  0.040014  1
  Hg  Hg35  1  0.170770  0.457962  0.537692  1
