# generated using pymatgen
data_Dy3Ni2Ir5Rh2
_symmetry_space_group_name_H-M   'P 1'
_cell_length_a   5.26707096
_cell_length_b   5.28596066
_cell_length_c   8.99105018
_cell_angle_alpha   72.85010417
_cell_angle_beta   72.96795711
_cell_angle_gamma   60.11814315
_symmetry_Int_Tables_number   1
_chemical_formula_structural   Dy3Ni2Ir5Rh2
_chemical_formula_sum   'Dy3 Ni2 Ir5 Rh2'
_cell_volume   204.14902904
_cell_formula_units_Z   1
loop_
 _symmetry_equiv_pos_site_id
 _symmetry_equiv_pos_as_xyz
  1  'x, y, z'
loop_
 _atom_site_type_symbol
 _atom_site_label
 _atom_site_symmetry_multiplicity
 _atom_site_fract_x
 _atom_site_fract_y
 _atom_site_fract_z
 _atom_site_occupancy
  Dy  Dy0  1  0.139840  0.139723  0.580597  1
  Dy  Dy1  1  0.861130  0.858987  0.418753  1
  Dy  Dy2  1  0.000453  0.999854  0.999240  1
  Ni  Ni3  1  0.332759  0.334239  0.000243  1
  Ni  Ni4  1  0.667221  0.665714  0.999844  1
  Ir  Ir5  1  0.077861  0.580571  0.760746  1
  Ir  Ir6  1  0.580821  0.580571  0.760746  1
  Ir  Ir7  1  0.579592  0.078720  0.762095  1
  Ir  Ir8  1  0.921109  0.421456  0.239105  1
  Ir  Ir9  1  0.418330  0.421456  0.239105  1
  Rh  Rh10  1  0.418857  0.922683  0.239602  1
  Rh  Rh11  1  0.502025  0.496025  0.499925  1
