# generated using pymatgen
data_PRu2Cl13
_symmetry_space_group_name_H-M   'P 1'
_cell_length_a   10.97876300
_cell_length_b   9.22090635
_cell_length_c   9.85917333
_cell_angle_alpha   79.35525678
_cell_angle_beta   90.00000000
_cell_angle_gamma   90.00000000
_symmetry_Int_Tables_number   1
_chemical_formula_structural   PRu2Cl13
_chemical_formula_sum   'P2 Ru4 Cl26'
_cell_volume   980.90934072
_cell_formula_units_Z   2
loop_
 _symmetry_equiv_pos_site_id
 _symmetry_equiv_pos_as_xyz
  1  'x, y, z'
loop_
 _atom_site_type_symbol
 _atom_site_label
 _atom_site_symmetry_multiplicity
 _atom_site_fract_x
 _atom_site_fract_y
 _atom_site_fract_z
 _atom_site_occupancy
  P  P0  1  0.250000  0.262781  0.509649  1
  P  P1  1  0.750000  0.737219  0.490351  1
  Ru  Ru2  1  0.250000  0.835697  0.100018  1
  Ru  Ru3  1  0.750000  0.164303  0.899982  1
  Ru  Ru4  1  0.250000  0.674944  0.856375  1
  Ru  Ru5  1  0.750000  0.325056  0.143625  1
  Cl  Cl6  1  0.604609  0.805193  0.576084  1
  Cl  Cl7  1  0.104609  0.194807  0.423916  1
  Cl  Cl8  1  0.750000  0.427189  0.900114  1
  Cl  Cl9  1  0.250000  0.572811  0.099886  1
  Cl  Cl10  1  0.898717  0.154442  0.081780  1
  Cl  Cl11  1  0.398717  0.845558  0.918220  1
  Cl  Cl12  1  0.101283  0.845558  0.918220  1
  Cl  Cl13  1  0.601283  0.154442  0.081780  1
  Cl  Cl14  1  0.750000  0.204713  0.370844  1
  Cl  Cl15  1  0.250000  0.795287  0.629156  1
  Cl  Cl16  1  0.901286  0.481151  0.183983  1
  Cl  Cl17  1  0.401286  0.518849  0.816017  1
  Cl  Cl18  1  0.098714  0.518849  0.816017  1
  Cl  Cl19  1  0.598714  0.481151  0.183983  1
  Cl  Cl20  1  0.750000  0.912924  0.926150  1
  Cl  Cl21  1  0.250000  0.087076  0.073850  1
  Cl  Cl22  1  0.899411  0.189680  0.734634  1
  Cl  Cl23  1  0.399411  0.810320  0.265366  1
  Cl  Cl24  1  0.100589  0.810320  0.265366  1
  Cl  Cl25  1  0.600589  0.189680  0.734634  1
  Cl  Cl26  1  0.750000  0.815070  0.292530  1
  Cl  Cl27  1  0.250000  0.184930  0.707470  1
  Cl  Cl28  1  0.750000  0.521304  0.522249  1
  Cl  Cl29  1  0.250000  0.478696  0.477751  1
  Cl  Cl30  1  0.895391  0.805193  0.576084  1
  Cl  Cl31  1  0.395391  0.194807  0.423916  1
