# generated using pymatgen
data_Er4Co3SiI2
_symmetry_space_group_name_H-M   'P 1'
_cell_length_a   3.97421900
_cell_length_b   3.97422045
_cell_length_c   16.72270000
_cell_angle_alpha   90.00000000
_cell_angle_beta   90.00000000
_cell_angle_gamma   119.99999625
_symmetry_Int_Tables_number   1
_chemical_formula_structural   Er4Co3SiI2
_chemical_formula_sum   'Er4 Co3 Si1 I2'
_cell_volume   228.73930430
_cell_formula_units_Z   1
loop_
 _symmetry_equiv_pos_site_id
 _symmetry_equiv_pos_as_xyz
  1  'x, y, z'
loop_
 _atom_site_type_symbol
 _atom_site_label
 _atom_site_symmetry_multiplicity
 _atom_site_fract_x
 _atom_site_fract_y
 _atom_site_fract_z
 _atom_site_occupancy
  Er  Er0  1  0.000000  0.000000  0.102201  1
  Er  Er1  1  0.000000  0.000000  0.897540  1
  Er  Er2  1  0.000000  0.000000  0.605126  1
  Er  Er3  1  0.000000  0.000000  0.397839  1
  Co  Co4  1  0.666667  0.333333  0.494453  1
  Co  Co5  1  0.666667  0.333333  0.001479  1
  Co  Co6  1  0.333333  0.666667  0.998037  1
  Si  Si7  1  0.333333  0.666667  0.504588  1
  I  I8  1  0.333333  0.666667  0.250479  1
  I  I9  1  0.666667  0.333333  0.748258  1
