# generated using pymatgen
data_TmNb6TlCl18
_symmetry_space_group_name_H-M   'P 1'
_cell_length_a   10.20422722
_cell_length_b   10.20422834
_cell_length_c   10.20422800
_cell_angle_alpha   55.41156984
_cell_angle_beta   55.41156548
_cell_angle_gamma   55.41157041
_symmetry_Int_Tables_number   1
_chemical_formula_structural   TmNb6TlCl18
_chemical_formula_sum   'Tm1 Nb6 Tl1 Cl18'
_cell_volume   671.24845207
_cell_formula_units_Z   1
loop_
 _symmetry_equiv_pos_site_id
 _symmetry_equiv_pos_as_xyz
  1  'x, y, z'
loop_
 _atom_site_type_symbol
 _atom_site_label
 _atom_site_symmetry_multiplicity
 _atom_site_fract_x
 _atom_site_fract_y
 _atom_site_fract_z
 _atom_site_occupancy
  Tm  Tm0  1  0.498520  0.498520  0.498520  1
  Nb  Nb1  1  0.800889  0.149905  0.910459  1
  Nb  Nb2  1  0.910459  0.800889  0.149905  1
  Nb  Nb3  1  0.149905  0.910459  0.800889  1
  Nb  Nb4  1  0.200264  0.850443  0.088386  1
  Nb  Nb5  1  0.088386  0.200264  0.850443  1
  Nb  Nb6  1  0.850443  0.088386  0.200264  1
  Tl  Tl7  1  0.221898  0.221898  0.221898  1
  Cl  Cl8  1  0.865553  0.413219  0.724546  1
  Cl  Cl9  1  0.724546  0.865553  0.413219  1
  Cl  Cl10  1  0.413219  0.724546  0.865553  1
  Cl  Cl11  1  0.133797  0.586474  0.277243  1
  Cl  Cl12  1  0.277243  0.133797  0.586474  1
  Cl  Cl13  1  0.586474  0.277243  0.133797  1
  Cl  Cl14  1  0.535386  0.343221  0.798026  1
  Cl  Cl15  1  0.798026  0.535386  0.343221  1
  Cl  Cl16  1  0.343221  0.798026  0.535386  1
  Cl  Cl17  1  0.460971  0.658386  0.204626  1
  Cl  Cl18  1  0.204626  0.460971  0.658386  1
  Cl  Cl19  1  0.658386  0.204626  0.460971  1
  Cl  Cl20  1  0.660468  0.940591  0.070619  1
  Cl  Cl21  1  0.070619  0.660468  0.940591  1
  Cl  Cl22  1  0.940591  0.070619  0.660468  1
  Cl  Cl23  1  0.341041  0.059175  0.927036  1
  Cl  Cl24  1  0.927036  0.341041  0.059175  1
  Cl  Cl25  1  0.059175  0.927036  0.341041  1
