# generated using pymatgen
data_Li4Nd4SiBi3
_symmetry_space_group_name_H-M   'P 1'
_cell_length_a   4.63756800
_cell_length_b   7.70558119
_cell_length_c   8.20211500
_cell_angle_alpha   88.95598107
_cell_angle_beta   90.00000000
_cell_angle_gamma   90.00000000
_symmetry_Int_Tables_number   1
_chemical_formula_structural   Li4Nd4SiBi3
_chemical_formula_sum   'Li4 Nd4 Si1 Bi3'
_cell_volume   293.05520753
_cell_formula_units_Z   1
loop_
 _symmetry_equiv_pos_site_id
 _symmetry_equiv_pos_as_xyz
  1  'x, y, z'
loop_
 _atom_site_type_symbol
 _atom_site_label
 _atom_site_symmetry_multiplicity
 _atom_site_fract_x
 _atom_site_fract_y
 _atom_site_fract_z
 _atom_site_occupancy
  Li  Li0  1  0.250000  0.189680  0.906948  1
  Li  Li1  1  0.250000  0.669777  0.581657  1
  Li  Li2  1  0.750000  0.824333  0.078114  1
  Li  Li3  1  0.750000  0.307508  0.432358  1
  Nd  Nd4  1  0.250000  0.016484  0.301148  1
  Nd  Nd5  1  0.250000  0.501044  0.229937  1
  Nd  Nd6  1  0.750000  0.008987  0.705024  1
  Nd  Nd7  1  0.750000  0.484476  0.767785  1
  Si  Si8  1  0.250000  0.269155  0.587538  1
  Bi  Bi9  1  0.250000  0.767290  0.908204  1
  Bi  Bi10  1  0.750000  0.731102  0.411077  1
  Bi  Bi11  1  0.750000  0.230163  0.090209  1
