# generated using pymatgen
data_Ca3Nd(ZnGa)4
_symmetry_space_group_name_H-M   'P 1'
_cell_length_a   4.52763400
_cell_length_b   7.31714234
_cell_length_c   7.77191075
_cell_angle_alpha   90.12543842
_cell_angle_beta   90.00000000
_cell_angle_gamma   90.00000000
_symmetry_Int_Tables_number   1
_chemical_formula_structural   Ca3Nd(ZnGa)4
_chemical_formula_sum   'Ca3 Nd1 Zn4 Ga4'
_cell_volume   257.47767570
_cell_formula_units_Z   1
loop_
 _symmetry_equiv_pos_site_id
 _symmetry_equiv_pos_as_xyz
  1  'x, y, z'
loop_
 _atom_site_type_symbol
 _atom_site_label
 _atom_site_symmetry_multiplicity
 _atom_site_fract_x
 _atom_site_fract_y
 _atom_site_fract_z
 _atom_site_occupancy
  Ca  Ca0  1  0.250000  0.999785  0.791265  1
  Ca  Ca1  1  0.250000  0.501519  0.711394  1
  Ca  Ca2  1  0.750000  0.997960  0.211813  1
  Nd  Nd3  1  0.750000  0.499339  0.290950  1
  Zn  Zn4  1  0.250000  0.811313  0.416170  1
  Zn  Zn5  1  0.250000  0.306600  0.081381  1
  Zn  Zn6  1  0.750000  0.190028  0.584290  1
  Zn  Zn7  1  0.750000  0.696034  0.914973  1
  Ga  Ga8  1  0.250000  0.202972  0.409919  1
  Ga  Ga9  1  0.250000  0.695727  0.088040  1
  Ga  Ga10  1  0.750000  0.798627  0.586255  1
  Ga  Ga11  1  0.750000  0.300095  0.913548  1
