# generated using pymatgen
data_Ho2Er3(CoO6)2
_symmetry_space_group_name_H-M   'P 1'
_cell_length_a   6.70880440
_cell_length_b   6.70880559
_cell_length_c   7.13460904
_cell_angle_alpha   74.53189338
_cell_angle_beta   74.53189128
_cell_angle_gamma   50.60078188
_symmetry_Int_Tables_number   1
_chemical_formula_structural   Ho2Er3(CoO6)2
_chemical_formula_sum   'Ho2 Er3 Co2 O12'
_cell_volume   237.09633906
_cell_formula_units_Z   1
loop_
 _symmetry_equiv_pos_site_id
 _symmetry_equiv_pos_as_xyz
  1  'x, y, z'
loop_
 _atom_site_type_symbol
 _atom_site_label
 _atom_site_symmetry_multiplicity
 _atom_site_fract_x
 _atom_site_fract_y
 _atom_site_fract_z
 _atom_site_occupancy
  Ho  Ho0  1  0.305107  0.305107  0.356177  1
  Ho  Ho1  1  0.999952  0.999952  0.500288  1
  Er  Er2  1  0.694660  0.694660  0.644034  1
  Er  Er3  1  0.308335  0.308335  0.834765  1
  Er  Er4  1  0.691811  0.691811  0.165191  1
  Co  Co5  1  0.756220  0.243806  0.999861  1
  Co  Co6  1  0.243806  0.756220  0.999861  1
  O  O7  1  0.901535  0.418963  0.920700  1
  O  O8  1  0.418963  0.901535  0.920700  1
  O  O9  1  0.097918  0.581825  0.078559  1
  O  O10  1  0.581825  0.097918  0.078559  1
  O  O11  1  0.096947  0.598278  0.576385  1
  O  O12  1  0.598278  0.096947  0.576385  1
  O  O13  1  0.901099  0.402944  0.424461  1
  O  O14  1  0.402944  0.901099  0.424461  1
  O  O15  1  0.000644  0.000644  0.827799  1
  O  O16  1  0.999397  0.999397  0.172920  1
  O  O17  1  0.500318  0.500318  0.822338  1
  O  O18  1  0.500241  0.500241  0.176553  1
