# generated using pymatgen
data_GdY(ThH5)6
_symmetry_space_group_name_H-M   'P 1'
_cell_length_a   7.86383538
_cell_length_b   7.86173430
_cell_length_c   7.83110879
_cell_angle_alpha   109.44026095
_cell_angle_beta   109.44972727
_cell_angle_gamma   109.64510417
_symmetry_Int_Tables_number   1
_chemical_formula_structural   GdY(ThH5)6
_chemical_formula_sum   'Gd1 Y1 Th6 H30'
_cell_volume   372.13478195
_cell_formula_units_Z   1
loop_
 _symmetry_equiv_pos_site_id
 _symmetry_equiv_pos_as_xyz
  1  'x, y, z'
loop_
 _atom_site_type_symbol
 _atom_site_label
 _atom_site_symmetry_multiplicity
 _atom_site_fract_x
 _atom_site_fract_y
 _atom_site_fract_z
 _atom_site_occupancy
  Gd  Gd0  1  0.915397  0.916101  0.916704  1
  Y  Y1  1  0.498628  0.999399  0.083943  1
  Th  Th2  1  0.994229  0.079932  0.495261  1
  Th  Th3  1  0.085174  0.504495  0.000828  1
  Th  Th4  1  0.999104  0.584525  0.504401  1
  Th  Th5  1  0.584164  0.503292  0.999316  1
  Th  Th6  1  0.503639  0.998891  0.587443  1
  Th  Th7  1  0.416657  0.411407  0.412632  1
  H  H8  1  0.651279  0.965413  0.370935  1
  H  H9  1  0.218071  0.315998  0.846163  1
  H  H10  1  0.186328  0.403811  0.533995  1
  H  H11  1  0.096166  0.281366  0.126817  1
  H  H12  1  0.282618  0.123932  0.093780  1
  H  H13  1  0.126159  0.094201  0.278475  1
  H  H14  1  0.469527  0.154326  0.873799  1
  H  H15  1  0.719340  0.349931  0.814160  1
  H  H16  1  0.627848  0.380551  0.251542  1
  H  H17  1  0.250088  0.624627  0.375658  1
  H  H18  1  0.750465  0.872465  0.127372  1
  H  H19  1  0.123193  0.745207  0.872462  1
  H  H20  1  0.374416  0.248934  0.624384  1
  H  H21  1  0.876087  0.129023  0.748428  1
  H  H22  1  0.780191  0.594121  0.628767  1
  H  H23  1  0.317230  0.848180  0.221218  1
  H  H24  1  0.373798  0.657592  0.967730  1
  H  H25  1  0.965083  0.369430  0.651262  1
  H  H26  1  0.535623  0.185553  0.406051  1
  H  H27  1  0.405190  0.535835  0.185863  1
  H  H28  1  0.841398  0.217635  0.312503  1
  H  H29  1  0.905838  0.689038  0.032583  1
  H  H30  1  0.813811  0.718152  0.348686  1
  H  H31  1  0.152260  0.869828  0.465959  1
  H  H32  1  0.687419  0.030229  0.906361  1
  H  H33  1  0.347804  0.816177  0.722374  1
  H  H34  1  0.871943  0.469833  0.153737  1
  H  H35  1  0.629138  0.779239  0.593531  1
  H  H36  1  0.595599  0.626490  0.778455  1
  H  H37  1  0.029097  0.904840  0.686420  1
