# generated using pymatgen
data_TbPdPt4
_symmetry_space_group_name_H-M   'P 1'
_cell_length_a   5.33628716
_cell_length_b   5.33628736
_cell_length_c   5.33628700
_cell_angle_alpha   59.99999602
_cell_angle_beta   59.99999479
_cell_angle_gamma   59.99999060
_symmetry_Int_Tables_number   1
_chemical_formula_structural   TbPdPt4
_chemical_formula_sum   'Tb1 Pd1 Pt4'
_cell_volume   107.44903529
_cell_formula_units_Z   1
loop_
 _symmetry_equiv_pos_site_id
 _symmetry_equiv_pos_as_xyz
  1  'x, y, z'
loop_
 _atom_site_type_symbol
 _atom_site_label
 _atom_site_symmetry_multiplicity
 _atom_site_fract_x
 _atom_site_fract_y
 _atom_site_fract_z
 _atom_site_occupancy
  Tb  Tb0  1  0.250000  0.250000  0.250000  1
  Pd  Pd1  1  0.000000  0.000000  0.000000  1
  Pt  Pt2  1  0.625319  0.625319  0.124042  1
  Pt  Pt3  1  0.625319  0.124042  0.625319  1
  Pt  Pt4  1  0.124042  0.625319  0.625319  1
  Pt  Pt5  1  0.625319  0.625319  0.625319  1
