# generated using pymatgen
data_Pr7Pu(WO6)4
_symmetry_space_group_name_H-M   'P 1'
_cell_length_a   5.46982957
_cell_length_b   9.46120685
_cell_length_c   10.34052600
_cell_angle_alpha   90.15886368
_cell_angle_beta   89.94449363
_cell_angle_gamma   90.07218839
_symmetry_Int_Tables_number   1
_chemical_formula_structural   Pr7Pu(WO6)4
_chemical_formula_sum   'Pr7 Pu1 W4 O24'
_cell_volume   535.13178372
_cell_formula_units_Z   1
loop_
 _symmetry_equiv_pos_site_id
 _symmetry_equiv_pos_as_xyz
  1  'x, y, z'
loop_
 _atom_site_type_symbol
 _atom_site_label
 _atom_site_symmetry_multiplicity
 _atom_site_fract_x
 _atom_site_fract_y
 _atom_site_fract_z
 _atom_site_occupancy
  Pr  Pr0  1  0.476717  0.603067  0.537714  1
  Pr  Pr1  1  0.976429  0.896076  0.462486  1
  Pr  Pr2  1  0.523442  0.104171  0.962312  1
  Pr  Pr3  1  0.022342  0.396295  0.037866  1
  Pr  Pr4  1  0.967615  0.782698  0.867538  1
  Pr  Pr5  1  0.465735  0.718729  0.132794  1
  Pr  Pr6  1  0.034959  0.280900  0.631304  1
  Pu  Pu7  1  0.532424  0.218999  0.366169  1
  W  W8  1  0.461005  0.997401  0.646573  1
  W  W9  1  0.957664  0.501863  0.352857  1
  W  W10  1  0.541471  0.496682  0.852330  1
  W  W11  1  0.039919  0.004618  0.149139  1
  O  O12  1  0.257133  0.089488  0.506368  1
  O  O13  1  0.752119  0.409936  0.490769  1
  O  O14  1  0.749051  0.588939  0.990611  1
  O  O15  1  0.249501  0.912475  0.010613  1
  O  O16  1  0.724082  0.111421  0.564937  1
  O  O17  1  0.226419  0.386126  0.432425  1
  O  O18  1  0.278231  0.612185  0.934730  1
  O  O19  1  0.777579  0.889031  0.066055  1
  O  O20  1  0.572696  0.848498  0.526938  1
  O  O21  1  0.071715  0.648793  0.473851  1
  O  O22  1  0.426717  0.349709  0.972970  1
  O  O23  1  0.929556  0.150784  0.027290  1
  O  O24  1  0.178871  0.862199  0.259456  1
  O  O25  1  0.683371  0.637667  0.741075  1
  O  O26  1  0.811472  0.359751  0.242357  1
  O  O27  1  0.317363  0.137808  0.758329  1
  O  O28  1  0.827081  0.053020  0.288493  1
  O  O29  1  0.330876  0.450315  0.712500  1
  O  O30  1  0.166544  0.548580  0.212425  1
  O  O31  1  0.669844  0.951146  0.787036  1
  O  O32  1  0.310089  0.134728  0.181842  1
  O  O33  1  0.808044  0.365465  0.821109  1
  O  O34  1  0.691470  0.633054  0.321321  1
  O  O35  1  0.190454  0.867381  0.677415  1
