# generated using pymatgen
data_Sr3Pr(PPt3)8
_symmetry_space_group_name_H-M   'P 1'
_cell_length_a   8.56755200
_cell_length_b   8.56755201
_cell_length_c   8.56755200
_cell_angle_alpha   90.00177888
_cell_angle_beta   90.00177888
_cell_angle_gamma   90.00177883
_symmetry_Int_Tables_number   1
_chemical_formula_structural   Sr3Pr(PPt3)8
_chemical_formula_sum   'Sr3 Pr1 P8 Pt24'
_cell_volume   628.88356771
_cell_formula_units_Z   1
loop_
 _symmetry_equiv_pos_site_id
 _symmetry_equiv_pos_as_xyz
  1  'x, y, z'
loop_
 _atom_site_type_symbol
 _atom_site_label
 _atom_site_symmetry_multiplicity
 _atom_site_fract_x
 _atom_site_fract_y
 _atom_site_fract_z
 _atom_site_occupancy
  Sr  Sr0  1  0.500000  0.500000  0.000000  1
  Sr  Sr1  1  0.500000  0.000000  0.500000  1
  Sr  Sr2  1  0.000000  0.500000  0.500000  1
  Pr  Pr3  1  0.000000  0.000000  0.000000  1
  P  P4  1  0.805995  0.306498  0.195405  1
  P  P5  1  0.195405  0.805995  0.306498  1
  P  P6  1  0.694074  0.694074  0.694074  1
  P  P7  1  0.306498  0.195405  0.805995  1
  P  P8  1  0.194005  0.693502  0.804595  1
  P  P9  1  0.804595  0.194005  0.693502  1
  P  P10  1  0.305926  0.305926  0.305926  1
  P  P11  1  0.693502  0.804595  0.194005  1
  Pt  Pt12  1  0.422724  0.842677  0.156888  1
  Pt  Pt13  1  0.577362  0.342267  0.343025  1
  Pt  Pt14  1  0.077961  0.155160  0.660320  1
  Pt  Pt15  1  0.921977  0.659656  0.844741  1
  Pt  Pt16  1  0.156888  0.422724  0.842677  1
  Pt  Pt17  1  0.343025  0.577362  0.342267  1
  Pt  Pt18  1  0.660320  0.077961  0.155160  1
  Pt  Pt19  1  0.844741  0.921977  0.659656  1
  Pt  Pt20  1  0.842677  0.156888  0.422724  1
  Pt  Pt21  1  0.342267  0.343025  0.577362  1
  Pt  Pt22  1  0.155160  0.660320  0.077961  1
  Pt  Pt23  1  0.659656  0.844741  0.921977  1
  Pt  Pt24  1  0.577276  0.157323  0.843112  1
  Pt  Pt25  1  0.422638  0.657733  0.656975  1
  Pt  Pt26  1  0.922039  0.844840  0.339680  1
  Pt  Pt27  1  0.078023  0.340344  0.155259  1
  Pt  Pt28  1  0.843112  0.577276  0.157323  1
  Pt  Pt29  1  0.656975  0.422638  0.657733  1
  Pt  Pt30  1  0.339680  0.922039  0.844840  1
  Pt  Pt31  1  0.155259  0.078023  0.340344  1
  Pt  Pt32  1  0.157323  0.843112  0.577276  1
  Pt  Pt33  1  0.657733  0.656975  0.422638  1
  Pt  Pt34  1  0.844840  0.339680  0.922039  1
  Pt  Pt35  1  0.340344  0.155259  0.078023  1
