# generated using pymatgen
data_CePr2Co3Si7
_symmetry_space_group_name_H-M   'P 1'
_cell_length_a   13.07817597
_cell_length_b   13.07817550
_cell_length_c   4.14384300
_cell_angle_alpha   90.00000000
_cell_angle_beta   90.00000000
_cell_angle_gamma   161.86486609
_symmetry_Int_Tables_number   1
_chemical_formula_structural   CePr2Co3Si7
_chemical_formula_sum   'Ce1 Pr2 Co3 Si7'
_cell_volume   220.60729469
_cell_formula_units_Z   1
loop_
 _symmetry_equiv_pos_site_id
 _symmetry_equiv_pos_as_xyz
  1  'x, y, z'
loop_
 _atom_site_type_symbol
 _atom_site_label
 _atom_site_symmetry_multiplicity
 _atom_site_fract_x
 _atom_site_fract_y
 _atom_site_fract_z
 _atom_site_occupancy
  Ce  Ce0  1  0.002538  0.997462  0.000000  1
  Pr  Pr1  1  0.686228  0.313772  0.500000  1
  Pr  Pr2  1  0.318268  0.681732  0.500000  1
  Co  Co3  1  0.866429  0.133571  0.000000  1
  Co  Co4  1  0.132448  0.867552  0.000000  1
  Co  Co5  1  0.451201  0.548799  0.500000  1
  Si  Si6  1  0.593363  0.406637  0.000000  1
  Si  Si7  1  0.409841  0.590159  0.000000  1
  Si  Si8  1  0.776438  0.223562  0.000000  1
  Si  Si9  1  0.225005  0.774995  0.000000  1
  Si  Si10  1  0.909041  0.090959  0.500000  1
  Si  Si11  1  0.092962  0.907038  0.500000  1
  Si  Si12  1  0.536240  0.463760  0.500000  1
