# generated using pymatgen
data_Dy16CdIn(AgIr2)2
_symmetry_space_group_name_H-M   'P 1'
_cell_length_a   9.60040084
_cell_length_b   9.59063590
_cell_length_c   9.60063700
_cell_angle_alpha   59.96550196
_cell_angle_beta   59.99918973
_cell_angle_gamma   60.06814442
_symmetry_Int_Tables_number   1
_chemical_formula_structural   Dy16CdIn(AgIr2)2
_chemical_formula_sum   'Dy16 Cd1 In1 Ag2 Ir4'
_cell_volume   625.21422488
_cell_formula_units_Z   1
loop_
 _symmetry_equiv_pos_site_id
 _symmetry_equiv_pos_as_xyz
  1  'x, y, z'
loop_
 _atom_site_type_symbol
 _atom_site_label
 _atom_site_symmetry_multiplicity
 _atom_site_fract_x
 _atom_site_fract_y
 _atom_site_fract_z
 _atom_site_occupancy
  Dy  Dy0  1  0.599797  0.599431  0.599164  1
  Dy  Dy1  1  0.599797  0.599431  0.201607  1
  Dy  Dy2  1  0.600502  0.200360  0.599569  1
  Dy  Dy3  1  0.199130  0.600331  0.600270  1
  Dy  Dy4  1  0.058651  0.440054  0.441795  1
  Dy  Dy5  1  0.438227  0.060939  0.061191  1
  Dy  Dy6  1  0.438227  0.060939  0.439643  1
  Dy  Dy7  1  0.058651  0.440054  0.059500  1
  Dy  Dy8  1  0.441201  0.439979  0.059410  1
  Dy  Dy9  1  0.060510  0.061287  0.439102  1
  Dy  Dy10  1  0.186232  0.810480  0.813052  1
  Dy  Dy11  1  0.812379  0.184018  0.190528  1
  Dy  Dy12  1  0.812379  0.184018  0.813077  1
  Dy  Dy13  1  0.186232  0.810480  0.190236  1
  Dy  Dy14  1  0.812038  0.810329  0.188817  1
  Dy  Dy15  1  0.188092  0.185508  0.813200  1
  Cd  Cd16  1  0.509554  0.832683  0.828882  1
  In  In17  1  0.832044  0.508877  0.829540  1
  Ag  Ag18  1  0.832823  0.833928  0.832475  1
  Ag  Ag19  1  0.832823  0.833928  0.500775  1
  Ir  Ir20  1  0.391676  0.392864  0.390316  1
  Ir  Ir21  1  0.391676  0.392864  0.825143  1
  Ir  Ir22  1  0.392086  0.824502  0.391705  1
  Ir  Ir23  1  0.825270  0.392718  0.391006  1
