# generated using pymatgen
data_Cs6Tm(TlCl6)3
_symmetry_space_group_name_H-M   'P 1'
_cell_length_a   9.88937733
_cell_length_b   9.88937930
_cell_length_c   9.88937900
_cell_angle_alpha   83.17140178
_cell_angle_beta   83.17140625
_cell_angle_gamma   83.17139424
_symmetry_Int_Tables_number   1
_chemical_formula_structural   Cs6Tm(TlCl6)3
_chemical_formula_sum   'Cs6 Tm1 Tl3 Cl18'
_cell_volume   948.10732392
_cell_formula_units_Z   1
loop_
 _symmetry_equiv_pos_site_id
 _symmetry_equiv_pos_as_xyz
  1  'x, y, z'
loop_
 _atom_site_type_symbol
 _atom_site_label
 _atom_site_symmetry_multiplicity
 _atom_site_fract_x
 _atom_site_fract_y
 _atom_site_fract_z
 _atom_site_occupancy
  Cs  Cs0  1  0.588818  0.910585  0.249791  1
  Cs  Cs1  1  0.249791  0.588818  0.910585  1
  Cs  Cs2  1  0.910585  0.249791  0.588818  1
  Cs  Cs3  1  0.749893  0.410650  0.090437  1
  Cs  Cs4  1  0.090437  0.749893  0.410650  1
  Cs  Cs5  1  0.410650  0.090437  0.749893  1
  Tm  Tm6  1  0.654131  0.654131  0.654131  1
  Tl  Tl7  1  0.850084  0.850084  0.850084  1
  Tl  Tl8  1  0.348830  0.348830  0.348830  1
  Tl  Tl9  1  0.151360  0.151360  0.151360  1
  Cl  Cl10  1  0.095222  0.404923  0.249942  1
  Cl  Cl11  1  0.249942  0.095222  0.404923  1
  Cl  Cl12  1  0.404923  0.249942  0.095222  1
  Cl  Cl13  1  0.748704  0.902904  0.594981  1
  Cl  Cl14  1  0.594981  0.748704  0.902904  1
  Cl  Cl15  1  0.902904  0.594981  0.748704  1
  Cl  Cl16  1  0.233461  0.413510  0.579334  1
  Cl  Cl17  1  0.579334  0.233461  0.413510  1
  Cl  Cl18  1  0.413510  0.579334  0.233461  1
  Cl  Cl19  1  0.079044  0.913176  0.732942  1
  Cl  Cl20  1  0.732942  0.079044  0.913176  1
  Cl  Cl21  1  0.913176  0.732942  0.079044  1
  Cl  Cl22  1  0.763689  0.586439  0.423468  1
  Cl  Cl23  1  0.423468  0.763689  0.586439  1
  Cl  Cl24  1  0.586439  0.423468  0.763689  1
  Cl  Cl25  1  0.920672  0.086504  0.266508  1
  Cl  Cl26  1  0.266508  0.920672  0.086504  1
  Cl  Cl27  1  0.086504  0.266508  0.920672  1
