# generated using pymatgen
data_Ho5P12Ir16Os3
_symmetry_space_group_name_H-M   'P 1'
_cell_length_a   12.66909300
_cell_length_b   12.66909205
_cell_length_c   3.98333700
_cell_angle_alpha   90.00000000
_cell_angle_beta   90.00000000
_cell_angle_gamma   120.00000508
_symmetry_Int_Tables_number   1
_chemical_formula_structural   Ho5P12Ir16Os3
_chemical_formula_sum   'Ho5 P12 Ir16 Os3'
_cell_volume   553.69254447
_cell_formula_units_Z   1
loop_
 _symmetry_equiv_pos_site_id
 _symmetry_equiv_pos_as_xyz
  1  'x, y, z'
loop_
 _atom_site_type_symbol
 _atom_site_label
 _atom_site_symmetry_multiplicity
 _atom_site_fract_x
 _atom_site_fract_y
 _atom_site_fract_z
 _atom_site_occupancy
  Ho  Ho0  1  0.666667  0.333333  0.000000  1
  Ho  Ho1  1  0.333333  0.666667  0.000000  1
  Ho  Ho2  1  0.817455  0.817455  0.500000  1
  Ho  Ho3  1  0.182545  0.000000  0.500000  1
  Ho  Ho4  1  0.000000  0.182545  0.500000  1
  P  P5  1  0.690062  0.170937  0.500000  1
  P  P6  1  0.829063  0.519125  0.500000  1
  P  P7  1  0.480875  0.309938  0.500000  1
  P  P8  1  0.170937  0.690062  0.500000  1
  P  P9  1  0.519125  0.829063  0.500000  1
  P  P10  1  0.309938  0.480875  0.500000  1
  P  P11  1  0.642444  0.642444  0.000000  1
  P  P12  1  0.357556  0.000000  0.000000  1
  P  P13  1  0.000000  0.357556  0.000000  1
  P  P14  1  0.180770  0.180770  0.000000  1
  P  P15  1  0.819230  0.000000  0.000000  1
  P  P16  1  0.000000  0.819230  0.000000  1
  Ir  Ir17  1  0.805548  0.182909  0.000000  1
  Ir  Ir18  1  0.817091  0.622640  0.000000  1
  Ir  Ir19  1  0.377360  0.194452  0.000000  1
  Ir  Ir20  1  0.182909  0.805548  0.000000  1
  Ir  Ir21  1  0.622640  0.817091  0.000000  1
  Ir  Ir22  1  0.194452  0.377360  0.000000  1
  Ir  Ir23  1  0.460521  0.460521  0.000000  1
  Ir  Ir24  1  0.539479  0.000000  0.000000  1
  Ir  Ir25  1  0.000000  0.539479  0.000000  1
  Ir  Ir26  1  0.868226  0.362793  0.500000  1
  Ir  Ir27  1  0.637207  0.505433  0.500000  1
  Ir  Ir28  1  0.494567  0.131774  0.500000  1
  Ir  Ir29  1  0.362793  0.868226  0.500000  1
  Ir  Ir30  1  0.505433  0.637207  0.500000  1
  Ir  Ir31  1  0.131774  0.494567  0.500000  1
  Ir  Ir32  1  0.000000  0.000000  0.000000  1
  Os  Os33  1  0.285495  0.285495  0.500000  1
  Os  Os34  1  0.714505  0.000000  0.500000  1
  Os  Os35  1  0.000000  0.714505  0.500000  1
