# generated using pymatgen
data_Dy2PaMn(Co4P3)2
_symmetry_space_group_name_H-M   'P 1'
_cell_length_a   3.69912300
_cell_length_b   10.55636200
_cell_length_c   12.16081000
_cell_angle_alpha   90.00000000
_cell_angle_beta   90.00000000
_cell_angle_gamma   90.00000000
_symmetry_Int_Tables_number   1
_chemical_formula_structural   Dy2PaMn(Co4P3)2
_chemical_formula_sum   'Dy4 Pa2 Mn2 Co16 P12'
_cell_volume   474.87089260
_cell_formula_units_Z   2
loop_
 _symmetry_equiv_pos_site_id
 _symmetry_equiv_pos_as_xyz
  1  'x, y, z'
loop_
 _atom_site_type_symbol
 _atom_site_label
 _atom_site_symmetry_multiplicity
 _atom_site_fract_x
 _atom_site_fract_y
 _atom_site_fract_z
 _atom_site_occupancy
  Dy  Dy0  1  0.500000  0.815800  0.204296  1
  Dy  Dy1  1  0.500000  0.184200  0.204296  1
  Dy  Dy2  1  0.000000  0.684200  0.795704  1
  Dy  Dy3  1  0.000000  0.315800  0.795704  1
  Pa  Pa4  1  0.000000  0.500000  0.529224  1
  Pa  Pa5  1  0.500000  0.000000  0.470776  1
  Mn  Mn6  1  0.500000  0.500000  0.153238  1
  Mn  Mn7  1  0.000000  0.000000  0.846762  1
  Co  Co8  1  0.500000  0.500000  0.694960  1
  Co  Co9  1  0.000000  0.000000  0.305040  1
  Co  Co10  1  0.000000  0.500000  0.984394  1
  Co  Co11  1  0.500000  0.000000  0.015606  1
  Co  Co12  1  0.500000  0.333332  0.993682  1
  Co  Co13  1  0.500000  0.666668  0.993682  1
  Co  Co14  1  0.000000  0.166668  0.006318  1
  Co  Co15  1  0.000000  0.833332  0.006318  1
  Co  Co16  1  0.500000  0.300921  0.432497  1
  Co  Co17  1  0.500000  0.699079  0.432497  1
  Co  Co18  1  0.000000  0.199079  0.567503  1
  Co  Co19  1  0.000000  0.800921  0.567503  1
  Co  Co20  1  0.500000  0.879658  0.709000  1
  Co  Co21  1  0.500000  0.120342  0.709000  1
  Co  Co22  1  0.000000  0.620342  0.291000  1
  Co  Co23  1  0.000000  0.379658  0.291000  1
  P  P24  1  0.500000  0.500000  0.879265  1
  P  P25  1  0.000000  0.000000  0.120735  1
  P  P26  1  0.500000  0.500000  0.345882  1
  P  P27  1  0.000000  0.000000  0.654118  1
  P  P28  1  0.500000  0.306318  0.616909  1
  P  P29  1  0.500000  0.693682  0.616909  1
  P  P30  1  0.000000  0.193682  0.383091  1
  P  P31  1  0.000000  0.806318  0.383091  1
  P  P32  1  0.500000  0.846460  0.894472  1
  P  P33  1  0.500000  0.153540  0.894472  1
  P  P34  1  0.000000  0.653540  0.105528  1
  P  P35  1  0.000000  0.346460  0.105528  1
