# generated using pymatgen
data_SmTh7(WC2)4
_symmetry_space_group_name_H-M   'P 1'
_cell_length_a   5.37144400
_cell_length_b   6.79070521
_cell_length_c   10.22491995
_cell_angle_alpha   89.97314242
_cell_angle_beta   90.00000000
_cell_angle_gamma   90.00000000
_symmetry_Int_Tables_number   1
_chemical_formula_structural   SmTh7(WC2)4
_chemical_formula_sum   'Sm1 Th7 W4 C8'
_cell_volume   372.96304230
_cell_formula_units_Z   1
loop_
 _symmetry_equiv_pos_site_id
 _symmetry_equiv_pos_as_xyz
  1  'x, y, z'
loop_
 _atom_site_type_symbol
 _atom_site_label
 _atom_site_symmetry_multiplicity
 _atom_site_fract_x
 _atom_site_fract_y
 _atom_site_fract_z
 _atom_site_occupancy
  Sm  Sm0  1  0.750000  0.184756  0.947892  1
  Th  Th1  1  0.250000  0.465360  0.782380  1
  Th  Th2  1  0.750000  0.032187  0.276799  1
  Th  Th3  1  0.250000  0.968566  0.722693  1
  Th  Th4  1  0.750000  0.531294  0.220174  1
  Th  Th5  1  0.250000  0.816658  0.049643  1
  Th  Th6  1  0.750000  0.686700  0.550188  1
  Th  Th7  1  0.250000  0.313015  0.449514  1
  W  W8  1  0.250000  0.276485  0.133609  1
  W  W9  1  0.750000  0.224460  0.635949  1
  W  W10  1  0.250000  0.776378  0.365294  1
  W  W11  1  0.750000  0.725211  0.865425  1
  C  C12  1  0.250000  0.668165  0.553629  1
  C  C13  1  0.750000  0.826691  0.053677  1
  C  C14  1  0.250000  0.170929  0.947269  1
  C  C15  1  0.750000  0.332625  0.446898  1
  C  C16  1  0.250000  0.039515  0.257430  1
  C  C17  1  0.750000  0.460319  0.758984  1
  C  C18  1  0.250000  0.539719  0.241149  1
  C  C19  1  0.750000  0.960966  0.741405  1
