# generated using pymatgen
data_Li4NdBi2
_symmetry_space_group_name_H-M   'P 1'
_cell_length_a   8.75970187
_cell_length_b   8.75970247
_cell_length_c   8.75970178
_cell_angle_alpha   31.11681806
_cell_angle_beta   31.11681300
_cell_angle_gamma   31.11681752
_symmetry_Int_Tables_number   1
_chemical_formula_structural   Li4NdBi2
_chemical_formula_sum   'Li4 Nd1 Bi2'
_cell_volume   159.27422685
_cell_formula_units_Z   1
loop_
 _symmetry_equiv_pos_site_id
 _symmetry_equiv_pos_as_xyz
  1  'x, y, z'
loop_
 _atom_site_type_symbol
 _atom_site_label
 _atom_site_symmetry_multiplicity
 _atom_site_fract_x
 _atom_site_fract_y
 _atom_site_fract_z
 _atom_site_occupancy
  Li  Li0  1  0.861889  0.861889  0.861889  1
  Li  Li1  1  0.138111  0.138111  0.138111  1
  Li  Li2  1  0.567937  0.567937  0.567937  1
  Li  Li3  1  0.432063  0.432063  0.432063  1
  Nd  Nd4  1  0.000000  0.000000  0.000000  1
  Bi  Bi5  1  0.746226  0.746226  0.746226  1
  Bi  Bi6  1  0.253774  0.253774  0.253774  1
