# generated using pymatgen
data_LaYb3Al8
_symmetry_space_group_name_H-M   'P 1'
_cell_length_a   9.73690829
_cell_length_b   9.73690838
_cell_length_c   9.73690954
_cell_angle_alpha   33.96700707
_cell_angle_beta   33.96700773
_cell_angle_gamma   33.96700643
_symmetry_Int_Tables_number   1
_chemical_formula_structural   LaYb3Al8
_chemical_formula_sum   'La1 Yb3 Al8'
_cell_volume   256.85130746
_cell_formula_units_Z   1
loop_
 _symmetry_equiv_pos_site_id
 _symmetry_equiv_pos_as_xyz
  1  'x, y, z'
loop_
 _atom_site_type_symbol
 _atom_site_label
 _atom_site_symmetry_multiplicity
 _atom_site_fract_x
 _atom_site_fract_y
 _atom_site_fract_z
 _atom_site_occupancy
  La  La0  1  0.687205  0.687205  0.687205  1
  Yb  Yb1  1  0.188751  0.188751  0.188751  1
  Yb  Yb2  1  0.812800  0.812800  0.812800  1
  Yb  Yb3  1  0.310713  0.310713  0.310713  1
  Al  Al4  1  0.999190  0.999190  0.999190  1
  Al  Al5  1  0.500630  0.500630  0.500630  1
  Al  Al6  1  0.749458  0.250680  0.250680  1
  Al  Al7  1  0.251701  0.749095  0.749095  1
  Al  Al8  1  0.250680  0.749458  0.250680  1
  Al  Al9  1  0.749095  0.251701  0.749095  1
  Al  Al10  1  0.250680  0.250680  0.749458  1
  Al  Al11  1  0.749095  0.749095  0.251701  1
