# generated using pymatgen
data_Pr(Al3Pt)3
_symmetry_space_group_name_H-M   'P 1'
_cell_length_a   10.49945045
_cell_length_b   10.49950740
_cell_length_c   10.49937644
_cell_angle_alpha   42.18419279
_cell_angle_beta   42.18518610
_cell_angle_gamma   42.18399723
_symmetry_Int_Tables_number   1
_chemical_formula_structural   Pr(Al3Pt)3
_chemical_formula_sum   'Pr2 Al18 Pt6'
_cell_volume   472.30171117
_cell_formula_units_Z   2
loop_
 _symmetry_equiv_pos_site_id
 _symmetry_equiv_pos_as_xyz
  1  'x, y, z'
loop_
 _atom_site_type_symbol
 _atom_site_label
 _atom_site_symmetry_multiplicity
 _atom_site_fract_x
 _atom_site_fract_y
 _atom_site_fract_z
 _atom_site_occupancy
  Pr  Pr0  1  0.166823  0.166838  0.166782  1
  Pr  Pr1  1  0.833208  0.833155  0.833193  1
  Al  Al2  1  0.049681  0.049687  0.049676  1
  Al  Al3  1  0.701300  0.500001  0.298699  1
  Al  Al4  1  0.665718  0.334327  0.999960  1
  Al  Al5  1  0.106390  0.433231  0.760413  1
  Al  Al6  1  0.433245  0.760465  0.106375  1
  Al  Al7  1  0.384292  0.384252  0.384270  1
  Al  Al8  1  0.334129  0.999980  0.665886  1
  Al  Al9  1  0.615733  0.615747  0.615711  1
  Al  Al10  1  0.239585  0.566771  0.893619  1
  Al  Al11  1  0.566760  0.893598  0.239538  1
  Al  Al12  1  0.499975  0.298685  0.701337  1
  Al  Al13  1  0.760474  0.106399  0.433239  1
  Al  Al14  1  0.950307  0.950324  0.950324  1
  Al  Al15  1  0.298668  0.701311  0.500022  1
  Al  Al16  1  0.000081  0.665708  0.334210  1
  Al  Al17  1  0.715915  0.715926  0.715886  1
  Al  Al18  1  0.284096  0.284072  0.284101  1
  Al  Al19  1  0.893611  0.239530  0.566756  1
  Pt  Pt20  1  0.241880  0.922496  0.582048  1
  Pt  Pt21  1  0.922442  0.582043  0.241935  1
  Pt  Pt22  1  0.758085  0.417934  0.077560  1
  Pt  Pt23  1  0.077538  0.758147  0.417912  1
  Pt  Pt24  1  0.417977  0.077510  0.758092  1
  Pt  Pt25  1  0.582088  0.241862  0.922455  1
