# generated using pymatgen
data_Rb2SbAs3S8
_symmetry_space_group_name_H-M   'P 1'
_cell_length_a   6.27729310
_cell_length_b   6.98273106
_cell_length_c   9.50066900
_cell_angle_alpha   93.75210950
_cell_angle_beta   98.07545554
_cell_angle_gamma   103.83335939
_symmetry_Int_Tables_number   1
_chemical_formula_structural   Rb2SbAs3S8
_chemical_formula_sum   'Rb2 Sb1 As3 S8'
_cell_volume   398.22146607
_cell_formula_units_Z   1
loop_
 _symmetry_equiv_pos_site_id
 _symmetry_equiv_pos_as_xyz
  1  'x, y, z'
loop_
 _atom_site_type_symbol
 _atom_site_label
 _atom_site_symmetry_multiplicity
 _atom_site_fract_x
 _atom_site_fract_y
 _atom_site_fract_z
 _atom_site_occupancy
  Rb  Rb0  1  0.850822  0.708031  0.088993  1
  Rb  Rb1  1  0.153387  0.288002  0.911079  1
  Sb  Sb2  1  0.804773  0.648988  0.549702  1
  As  As3  1  0.589659  0.137056  0.304164  1
  As  As4  1  0.410110  0.862654  0.702325  1
  As  As5  1  0.165024  0.363819  0.439254  1
  S  S6  1  0.480579  0.415811  0.265158  1
  S  S7  1  0.518106  0.581004  0.740683  1
  S  S8  1  0.930715  0.203127  0.229844  1
  S  S9  1  0.074922  0.796476  0.778512  1
  S  S10  1  0.432404  0.933033  0.082980  1
  S  S11  1  0.580006  0.068325  0.918426  1
  S  S12  1  0.843443  0.313006  0.578329  1
  S  S13  1  0.166053  0.680667  0.410553  1
