# generated using pymatgen
data_BaV2PbO8
_symmetry_space_group_name_H-M   'P 1'
_cell_length_a   5.33213108
_cell_length_b   5.33213177
_cell_length_c   8.00993625
_cell_angle_alpha   92.33948790
_cell_angle_beta   92.33948750
_cell_angle_gamma   66.87717250
_symmetry_Int_Tables_number   1
_chemical_formula_structural   BaV2PbO8
_chemical_formula_sum   'Ba1 V2 Pb1 O8'
_cell_volume   209.18966514
_cell_formula_units_Z   1
loop_
 _symmetry_equiv_pos_site_id
 _symmetry_equiv_pos_as_xyz
  1  'x, y, z'
loop_
 _atom_site_type_symbol
 _atom_site_label
 _atom_site_symmetry_multiplicity
 _atom_site_fract_x
 _atom_site_fract_y
 _atom_site_fract_z
 _atom_site_occupancy
  Ba  Ba0  1  0.000000  0.000000  0.000000  1
  V  V1  1  0.626730  0.626730  0.286348  1
  V  V2  1  0.373270  0.373270  0.713653  1
  Pb  Pb3  1  0.000000  0.000000  0.500000  1
  O  O4  1  0.701802  0.701802  0.097050  1
  O  O5  1  0.768277  0.262796  0.295458  1
  O  O6  1  0.262796  0.768277  0.295458  1
  O  O7  1  0.757416  0.757416  0.453071  1
  O  O8  1  0.242585  0.242585  0.546930  1
  O  O9  1  0.737205  0.231724  0.704541  1
  O  O10  1  0.231724  0.737205  0.704541  1
  O  O11  1  0.298197  0.298197  0.902950  1
