# generated using pymatgen
data_LiBe9Cu2
_symmetry_space_group_name_H-M   'P 1'
_cell_length_a   7.30001556
_cell_length_b   7.30001549
_cell_length_c   7.30001531
_cell_angle_alpha   33.57452985
_cell_angle_beta   33.57453003
_cell_angle_gamma   33.57453043
_symmetry_Int_Tables_number   1
_chemical_formula_structural   LiBe9Cu2
_chemical_formula_sum   'Li1 Be9 Cu2'
_cell_volume   105.97664926
_cell_formula_units_Z   1
loop_
 _symmetry_equiv_pos_site_id
 _symmetry_equiv_pos_as_xyz
  1  'x, y, z'
loop_
 _atom_site_type_symbol
 _atom_site_label
 _atom_site_symmetry_multiplicity
 _atom_site_fract_x
 _atom_site_fract_y
 _atom_site_fract_z
 _atom_site_occupancy
  Li  Li0  1  0.625446  0.625446  0.625446  1
  Be  Be1  1  0.066004  0.562743  0.562743  1
  Be  Be2  1  0.561334  0.060809  0.060809  1
  Be  Be3  1  0.562743  0.562743  0.066004  1
  Be  Be4  1  0.060809  0.060809  0.561334  1
  Be  Be5  1  0.812475  0.812475  0.812475  1
  Be  Be6  1  0.313003  0.313003  0.313003  1
  Be  Be7  1  0.562743  0.066004  0.562743  1
  Be  Be8  1  0.060809  0.561334  0.060809  1
  Be  Be9  1  0.123821  0.123821  0.123821  1
  Cu  Cu10  1  0.001967  0.001967  0.001967  1
  Cu  Cu11  1  0.498845  0.498845  0.498845  1
