# generated using pymatgen
data_Ho2MgB2Ir5
_symmetry_space_group_name_H-M   'P 1'
_cell_length_a   9.72639300
_cell_length_b   9.72639300
_cell_length_c   3.13195100
_cell_angle_alpha   90.00000000
_cell_angle_beta   90.00000000
_cell_angle_gamma   90.00000000
_symmetry_Int_Tables_number   1
_chemical_formula_structural   Ho2MgB2Ir5
_chemical_formula_sum   'Ho4 Mg2 B4 Ir10'
_cell_volume   296.29108598
_cell_formula_units_Z   2
loop_
 _symmetry_equiv_pos_site_id
 _symmetry_equiv_pos_as_xyz
  1  'x, y, z'
loop_
 _atom_site_type_symbol
 _atom_site_label
 _atom_site_symmetry_multiplicity
 _atom_site_fract_x
 _atom_site_fract_y
 _atom_site_fract_z
 _atom_site_occupancy
  Ho  Ho0  1  0.177507  0.677507  0.000000  1
  Ho  Ho1  1  0.322493  0.177507  0.000000  1
  Ho  Ho2  1  0.677507  0.822493  0.000000  1
  Ho  Ho3  1  0.822493  0.322493  0.000000  1
  Mg  Mg4  1  0.000000  0.000000  0.000000  1
  Mg  Mg5  1  0.500000  0.500000  0.000000  1
  B  B6  1  0.123612  0.376388  0.000000  1
  B  B7  1  0.376388  0.876388  0.000000  1
  B  B8  1  0.623612  0.123612  0.000000  1
  B  B9  1  0.876388  0.623612  0.000000  1
  Ir  Ir10  1  0.000000  0.500000  0.500000  1
  Ir  Ir11  1  0.069218  0.223860  0.500000  1
  Ir  Ir12  1  0.223860  0.930782  0.500000  1
  Ir  Ir13  1  0.276140  0.430782  0.500000  1
  Ir  Ir14  1  0.430782  0.723860  0.500000  1
  Ir  Ir15  1  0.500000  0.000000  0.500000  1
  Ir  Ir16  1  0.569218  0.276140  0.500000  1
  Ir  Ir17  1  0.723860  0.569218  0.500000  1
  Ir  Ir18  1  0.776140  0.069218  0.500000  1
  Ir  Ir19  1  0.930782  0.776140  0.500000  1
