# generated using pymatgen
data_Na(Zn2Ir)4
_symmetry_space_group_name_H-M   'P 1'
_cell_length_a   6.72313444
_cell_length_b   6.72313487
_cell_length_c   6.72313408
_cell_angle_alpha   100.17557414
_cell_angle_beta   100.17557040
_cell_angle_gamma   130.29097856
_symmetry_Int_Tables_number   1
_chemical_formula_structural   Na(Zn2Ir)4
_chemical_formula_sum   'Na1 Zn8 Ir4'
_cell_volume   210.32812690
_cell_formula_units_Z   1
loop_
 _symmetry_equiv_pos_site_id
 _symmetry_equiv_pos_as_xyz
  1  'x, y, z'
loop_
 _atom_site_type_symbol
 _atom_site_label
 _atom_site_symmetry_multiplicity
 _atom_site_fract_x
 _atom_site_fract_y
 _atom_site_fract_z
 _atom_site_occupancy
  Na  Na0  1  0.000000  0.000000  0.000000  1
  Zn  Zn1  1  0.733514  0.500000  0.233514  1
  Zn  Zn2  1  0.500000  0.733514  0.233514  1
  Zn  Zn3  1  0.000000  0.311697  0.311697  1
  Zn  Zn4  1  0.311697  0.000000  0.311697  1
  Zn  Zn5  1  0.000000  0.688303  0.688303  1
  Zn  Zn6  1  0.688303  0.000000  0.688303  1
  Zn  Zn7  1  0.500000  0.266486  0.766486  1
  Zn  Zn8  1  0.266486  0.500000  0.766486  1
  Ir  Ir9  1  0.500000  0.000000  0.000000  1
  Ir  Ir10  1  0.000000  0.500000  0.000000  1
  Ir  Ir11  1  0.000000  0.000000  0.500000  1
  Ir  Ir12  1  0.500000  0.500000  0.500000  1
