# generated using pymatgen
data_Er6Hf4Al12IrRh6
_symmetry_space_group_name_H-M   'P 1'
_cell_length_a   9.07814905
_cell_length_b   9.07814828
_cell_length_c   9.07815000
_cell_angle_alpha   60.00000101
_cell_angle_beta   60.00000383
_cell_angle_gamma   59.99999974
_symmetry_Int_Tables_number   1
_chemical_formula_structural   Er6Hf4Al12IrRh6
_chemical_formula_sum   'Er6 Hf4 Al12 Ir1 Rh6'
_cell_volume   529.02592170
_cell_formula_units_Z   1
loop_
 _symmetry_equiv_pos_site_id
 _symmetry_equiv_pos_as_xyz
  1  'x, y, z'
loop_
 _atom_site_type_symbol
 _atom_site_label
 _atom_site_symmetry_multiplicity
 _atom_site_fract_x
 _atom_site_fract_y
 _atom_site_fract_z
 _atom_site_occupancy
  Er  Er0  1  0.699037  0.300963  0.300963  1
  Er  Er1  1  0.699037  0.300963  0.699037  1
  Er  Er2  1  0.699037  0.699037  0.300963  1
  Er  Er3  1  0.300963  0.699037  0.699037  1
  Er  Er4  1  0.300963  0.699037  0.300963  1
  Er  Er5  1  0.300963  0.300963  0.699037  1
  Hf  Hf6  1  0.641335  0.119555  0.119555  1
  Hf  Hf7  1  0.119555  0.641335  0.119555  1
  Hf  Hf8  1  0.119555  0.119555  0.641335  1
  Hf  Hf9  1  0.119555  0.119555  0.119555  1
  Al  Al10  1  0.361869  0.879377  0.879377  1
  Al  Al11  1  0.879377  0.361869  0.879377  1
  Al  Al12  1  0.879377  0.879377  0.361869  1
  Al  Al13  1  0.879377  0.879377  0.879377  1
  Al  Al14  1  0.002974  0.332342  0.332342  1
  Al  Al15  1  0.332342  0.002974  0.332342  1
  Al  Al16  1  0.332342  0.332342  0.002974  1
  Al  Al17  1  0.332342  0.332342  0.332342  1
  Al  Al18  1  0.986518  0.671161  0.671161  1
  Al  Al19  1  0.671161  0.986518  0.671161  1
  Al  Al20  1  0.671161  0.671161  0.986518  1
  Al  Al21  1  0.671161  0.671161  0.671161  1
  Ir  Ir22  1  0.000000  0.000000  0.000000  1
  Rh  Rh23  1  0.499311  0.000689  0.000689  1
  Rh  Rh24  1  0.499311  0.000689  0.499311  1
  Rh  Rh25  1  0.499311  0.499311  0.000689  1
  Rh  Rh26  1  0.000689  0.499311  0.499311  1
  Rh  Rh27  1  0.000689  0.499311  0.000689  1
  Rh  Rh28  1  0.000689  0.000689  0.499311  1
