# generated using pymatgen
data_U2(PO4)3
_symmetry_space_group_name_H-M   'P 1'
_cell_length_a   9.32356013
_cell_length_b   9.28296040
_cell_length_c   9.68370285
_cell_angle_alpha   90.00284105
_cell_angle_beta   119.30045027
_cell_angle_gamma   119.73746185
_symmetry_Int_Tables_number   1
_chemical_formula_structural   U2(PO4)3
_chemical_formula_sum   'U4 P6 O24'
_cell_volume   601.13720374
_cell_formula_units_Z   2
loop_
 _symmetry_equiv_pos_site_id
 _symmetry_equiv_pos_as_xyz
  1  'x, y, z'
loop_
 _atom_site_type_symbol
 _atom_site_label
 _atom_site_symmetry_multiplicity
 _atom_site_fract_x
 _atom_site_fract_y
 _atom_site_fract_z
 _atom_site_occupancy
  U  U0  1  0.212842  0.857285  0.069597  1
  U  U1  1  0.787795  0.643436  0.431140  1
  U  U2  1  0.212205  0.356564  0.568860  1
  U  U3  1  0.787158  0.142715  0.930403  1
  P  P4  1  0.999327  0.965172  0.249742  1
  P  P5  1  0.283006  0.532946  0.252596  1
  P  P6  1  0.283245  0.750202  0.749937  1
  P  P7  1  0.716755  0.249798  0.250063  1
  P  P8  1  0.716994  0.467054  0.747404  1
  P  P9  1  0.000673  0.034828  0.750258  1
  O  O10  1  0.288093  0.697991  0.220754  1
  O  O11  1  0.867401  0.993256  0.090986  1
  O  O12  1  0.866177  0.868758  0.597370  1
  O  O13  1  0.862400  0.805982  0.279683  1
  O  O14  1  0.132404  0.931911  0.223346  1
  O  O15  1  0.473706  0.554425  0.285954  1
  O  O16  1  0.099499  0.729752  0.593140  1
  O  O17  1  0.902496  0.629691  0.903633  1
  O  O18  1  0.276277  0.777650  0.903974  1
  O  O19  1  0.475792  0.910756  0.777665  1
  O  O20  1  0.728461  0.492545  0.594232  1
  O  O21  1  0.721230  0.416502  0.276088  1
  O  O22  1  0.278770  0.583498  0.723912  1
  O  O23  1  0.271539  0.507455  0.405768  1
  O  O24  1  0.524208  0.089244  0.222335  1
  O  O25  1  0.723723  0.222350  0.096026  1
  O  O26  1  0.097504  0.370309  0.096367  1
  O  O27  1  0.900501  0.270248  0.406860  1
  O  O28  1  0.526294  0.445575  0.714046  1
  O  O29  1  0.867596  0.068089  0.776654  1
  O  O30  1  0.137600  0.194018  0.720317  1
  O  O31  1  0.133823  0.131242  0.402630  1
  O  O32  1  0.132599  0.006744  0.909014  1
  O  O33  1  0.711907  0.302009  0.779246  1
