# generated using pymatgen
data_Nd10In8Pd3Pt
_symmetry_space_group_name_H-M   'P 1'
_cell_length_a   3.79645000
_cell_length_b   8.32163812
_cell_length_c   18.77013250
_cell_angle_alpha   90.05933564
_cell_angle_beta   90.00000000
_cell_angle_gamma   90.00000000
_symmetry_Int_Tables_number   1
_chemical_formula_structural   Nd10In8Pd3Pt
_chemical_formula_sum   'Nd10 In8 Pd3 Pt1'
_cell_volume   592.99852892
_cell_formula_units_Z   1
loop_
 _symmetry_equiv_pos_site_id
 _symmetry_equiv_pos_as_xyz
  1  'x, y, z'
loop_
 _atom_site_type_symbol
 _atom_site_label
 _atom_site_symmetry_multiplicity
 _atom_site_fract_x
 _atom_site_fract_y
 _atom_site_fract_z
 _atom_site_occupancy
  Nd  Nd0  1  0.000000  0.119996  0.415939  1
  Nd  Nd1  1  0.000000  0.879385  0.583755  1
  Nd  Nd2  1  0.000000  0.379960  0.916251  1
  Nd  Nd3  1  0.000000  0.619528  0.084846  1
  Nd  Nd4  1  0.000000  0.246530  0.218760  1
  Nd  Nd5  1  0.000000  0.757072  0.781214  1
  Nd  Nd6  1  0.000000  0.257651  0.718844  1
  Nd  Nd7  1  0.000000  0.738725  0.280454  1
  Nd  Nd8  1  0.000000  0.000129  0.000188  1
  Nd  Nd9  1  0.000000  0.500814  0.499900  1
  In  In10  1  0.500000  0.423888  0.349892  1
  In  In11  1  0.500000  0.575100  0.650866  1
  In  In12  1  0.500000  0.075271  0.849076  1
  In  In13  1  0.500000  0.926558  0.150928  1
  In  In14  1  0.500000  0.292970  0.068228  1
  In  In15  1  0.500000  0.707029  0.930789  1
  In  In16  1  0.500000  0.206754  0.568910  1
  In  In17  1  0.500000  0.793437  0.431018  1
  Pd  Pd18  1  0.500000  0.022529  0.303335  1
  Pd  Pd19  1  0.500000  0.976734  0.696598  1
  Pd  Pd20  1  0.500000  0.476686  0.803364  1
  Pt  Pt21  1  0.500000  0.523253  0.196844  1
