# generated using pymatgen
data_Tb3DyLuSn3
_symmetry_space_group_name_H-M   'P 1'
_cell_length_a   8.97040700
_cell_length_b   8.97040782
_cell_length_c   6.52488500
_cell_angle_alpha   90.00000000
_cell_angle_beta   90.00000000
_cell_angle_gamma   120.00000067
_symmetry_Int_Tables_number   1
_chemical_formula_structural   Tb3DyLuSn3
_chemical_formula_sum   'Tb6 Dy2 Lu2 Sn6'
_cell_volume   454.70300689
_cell_formula_units_Z   2
loop_
 _symmetry_equiv_pos_site_id
 _symmetry_equiv_pos_as_xyz
  1  'x, y, z'
loop_
 _atom_site_type_symbol
 _atom_site_label
 _atom_site_symmetry_multiplicity
 _atom_site_fract_x
 _atom_site_fract_y
 _atom_site_fract_z
 _atom_site_occupancy
  Tb  Tb0  1  0.760097  0.760097  0.749131  1
  Tb  Tb1  1  0.239903  0.000000  0.749131  1
  Tb  Tb2  1  0.000000  0.239903  0.749131  1
  Tb  Tb3  1  0.239903  0.239903  0.250869  1
  Tb  Tb4  1  0.760097  0.000000  0.250869  1
  Tb  Tb5  1  0.000000  0.760097  0.250869  1
  Dy  Dy6  1  0.666667  0.333333  0.000000  1
  Dy  Dy7  1  0.333333  0.666667  0.000000  1
  Lu  Lu8  1  0.333333  0.666667  0.500000  1
  Lu  Lu9  1  0.666667  0.333333  0.500000  1
  Sn  Sn10  1  0.395643  0.395643  0.746565  1
  Sn  Sn11  1  0.604357  0.000000  0.746565  1
  Sn  Sn12  1  0.000000  0.604357  0.746565  1
  Sn  Sn13  1  0.604357  0.604357  0.253435  1
  Sn  Sn14  1  0.395643  0.000000  0.253435  1
  Sn  Sn15  1  0.000000  0.395643  0.253435  1
