# generated using pymatgen
data_La17Hg3Ru4
_symmetry_space_group_name_H-M   'P 1'
_cell_length_a   10.09527902
_cell_length_b   10.13401466
_cell_length_c   10.13335356
_cell_angle_alpha   59.94903415
_cell_angle_beta   59.85728322
_cell_angle_gamma   59.86172509
_symmetry_Int_Tables_number   1
_chemical_formula_structural   La17Hg3Ru4
_chemical_formula_sum   'La17 Hg3 Ru4'
_cell_volume   731.21597387
_cell_formula_units_Z   1
loop_
 _symmetry_equiv_pos_site_id
 _symmetry_equiv_pos_as_xyz
  1  'x, y, z'
loop_
 _atom_site_type_symbol
 _atom_site_label
 _atom_site_symmetry_multiplicity
 _atom_site_fract_x
 _atom_site_fract_y
 _atom_site_fract_z
 _atom_site_occupancy
  La  La0  1  0.344170  0.343876  0.343691  1
  La  La1  1  0.345359  0.344284  0.967051  1
  La  La2  1  0.345309  0.967126  0.344397  1
  La  La3  1  0.956170  0.347189  0.347227  1
  La  La4  1  0.804021  0.194016  0.194093  1
  La  La5  1  0.179743  0.819157  0.819080  1
  La  La6  1  0.180764  0.817832  0.182717  1
  La  La7  1  0.802944  0.195287  0.807291  1
  La  La8  1  0.180800  0.182744  0.817733  1
  La  La9  1  0.802957  0.807208  0.195354  1
  La  La10  1  0.950067  0.560382  0.560448  1
  La  La11  1  0.554216  0.942458  0.942589  1
  La  La12  1  0.555495  0.942432  0.561482  1
  La  La13  1  0.951391  0.559649  0.928616  1
  La  La14  1  0.555431  0.561462  0.942419  1
  La  La15  1  0.951409  0.928581  0.559607  1
  La  La16  1  0.279728  0.573018  0.572912  1
  Hg  Hg17  1  0.590896  0.586165  0.586206  1
  Hg  Hg18  1  0.592665  0.584149  0.236941  1
  Hg  Hg19  1  0.592609  0.236934  0.584292  1
  Ru  Ru20  1  0.135047  0.136923  0.137164  1
  Ru  Ru21  1  0.133996  0.137023  0.591146  1
  Ru  Ru22  1  0.134014  0.591195  0.136576  1
  Ru  Ru23  1  0.580798  0.140909  0.140968  1
