# generated using pymatgen
data_ScCr(GaSe3)2
_symmetry_space_group_name_H-M   'P 1'
_cell_length_a   3.84974100
_cell_length_b   10.56549794
_cell_length_c   12.80460886
_cell_angle_alpha   90.09938508
_cell_angle_beta   90.00000000
_cell_angle_gamma   90.00000000
_symmetry_Int_Tables_number   1
_chemical_formula_structural   ScCr(GaSe3)2
_chemical_formula_sum   'Sc2 Cr2 Ga4 Se12'
_cell_volume   520.81939085
_cell_formula_units_Z   2
loop_
 _symmetry_equiv_pos_site_id
 _symmetry_equiv_pos_as_xyz
  1  'x, y, z'
loop_
 _atom_site_type_symbol
 _atom_site_label
 _atom_site_symmetry_multiplicity
 _atom_site_fract_x
 _atom_site_fract_y
 _atom_site_fract_z
 _atom_site_occupancy
  Sc  Sc0  1  0.250000  0.397199  0.614419  1
  Sc  Sc1  1  0.750000  0.602801  0.385581  1
  Cr  Cr2  1  0.250000  0.907287  0.890892  1
  Cr  Cr3  1  0.750000  0.092713  0.109108  1
  Ga  Ga4  1  0.750000  0.264062  0.796605  1
  Ga  Ga5  1  0.250000  0.735938  0.203395  1
  Ga  Ga6  1  0.750000  0.772645  0.709888  1
  Ga  Ga7  1  0.250000  0.227355  0.290112  1
  Se  Se8  1  0.250000  0.929364  0.093389  1
  Se  Se9  1  0.750000  0.070636  0.906611  1
  Se  Se10  1  0.250000  0.417659  0.399186  1
  Se  Se11  1  0.750000  0.582341  0.600814  1
  Se  Se12  1  0.750000  0.086886  0.311971  1
  Se  Se13  1  0.250000  0.913114  0.688029  1
  Se  Se14  1  0.750000  0.596403  0.170460  1
  Se  Se15  1  0.250000  0.403597  0.829540  1
  Se  Se16  1  0.250000  0.254036  0.103383  1
  Se  Se17  1  0.750000  0.745964  0.896617  1
  Se  Se18  1  0.250000  0.777692  0.389828  1
  Se  Se19  1  0.750000  0.222308  0.610172  1
