# generated using pymatgen
data_HgMo(PbO3)2
_symmetry_space_group_name_H-M   'P 1'
_cell_length_a   6.68021591
_cell_length_b   7.66285429
_cell_length_c   8.38637288
_cell_angle_alpha   92.93296909
_cell_angle_beta   92.50071994
_cell_angle_gamma   109.49791896
_symmetry_Int_Tables_number   1
_chemical_formula_structural   HgMo(PbO3)2
_chemical_formula_sum   'Hg2 Mo2 Pb4 O12'
_cell_volume   403.30459713
_cell_formula_units_Z   2
loop_
 _symmetry_equiv_pos_site_id
 _symmetry_equiv_pos_as_xyz
  1  'x, y, z'
loop_
 _atom_site_type_symbol
 _atom_site_label
 _atom_site_symmetry_multiplicity
 _atom_site_fract_x
 _atom_site_fract_y
 _atom_site_fract_z
 _atom_site_occupancy
  Hg  Hg0  1  0.322573  0.313590  0.365195  1
  Hg  Hg1  1  0.677427  0.686410  0.634804  1
  Mo  Mo2  1  0.696930  0.763654  0.147818  1
  Mo  Mo3  1  0.303071  0.236346  0.852183  1
  Pb  Pb4  1  0.785488  0.266982  0.158842  1
  Pb  Pb5  1  0.173412  0.722484  0.400861  1
  Pb  Pb6  1  0.826589  0.277516  0.599140  1
  Pb  Pb7  1  0.214513  0.733018  0.841159  1
  O  O8  1  0.352412  0.172537  0.048478  1
  O  O9  1  0.849379  0.606265  0.144927  1
  O  O10  1  0.444112  0.656444  0.231324  1
  O  O11  1  0.843203  0.970195  0.269644  1
  O  O12  1  0.058148  0.392686  0.371666  1
  O  O13  1  0.598941  0.258523  0.379062  1
  O  O14  1  0.401060  0.741477  0.620938  1
  O  O15  1  0.941852  0.607314  0.628334  1
  O  O16  1  0.156797  0.029805  0.730357  1
  O  O17  1  0.555887  0.343557  0.768677  1
  O  O18  1  0.150620  0.393735  0.855074  1
  O  O19  1  0.647587  0.827462  0.951522  1
