# generated using pymatgen
data_Th11(Tc2C3)6
_symmetry_space_group_name_H-M   'P 1'
_cell_length_a   9.37502901
_cell_length_b   9.37502898
_cell_length_c   9.37502900
_cell_angle_alpha   109.47122283
_cell_angle_beta   109.47122277
_cell_angle_gamma   109.47121855
_symmetry_Int_Tables_number   1
_chemical_formula_structural   Th11(Tc2C3)6
_chemical_formula_sum   'Th11 Tc12 C18'
_cell_volume   634.30181837
_cell_formula_units_Z   1
loop_
 _symmetry_equiv_pos_site_id
 _symmetry_equiv_pos_as_xyz
  1  'x, y, z'
loop_
 _atom_site_type_symbol
 _atom_site_label
 _atom_site_symmetry_multiplicity
 _atom_site_fract_x
 _atom_site_fract_y
 _atom_site_fract_z
 _atom_site_occupancy
  Th  Th0  1  0.585142  0.585142  0.585142  1
  Th  Th1  1  0.000000  0.414858  0.000000  1
  Th  Th2  1  0.414858  0.000000  0.000000  1
  Th  Th3  1  0.000000  0.000000  0.414858  1
  Th  Th4  1  0.750000  0.500000  0.250000  1
  Th  Th5  1  0.250000  0.750000  0.500000  1
  Th  Th6  1  0.750000  0.250000  0.500000  1
  Th  Th7  1  0.500000  0.250000  0.750000  1
  Th  Th8  1  0.500000  0.750000  0.250000  1
  Th  Th9  1  0.250000  0.500000  0.750000  1
  Th  Th10  1  0.000000  0.000000  0.000000  1
  Tc  Tc11  1  0.836585  0.182077  0.182077  1
  Tc  Tc12  1  0.182077  0.836585  0.182077  1
  Tc  Tc13  1  0.817923  0.000000  0.654508  1
  Tc  Tc14  1  0.000000  0.817923  0.654508  1
  Tc  Tc15  1  0.345492  0.345492  0.163415  1
  Tc  Tc16  1  0.000000  0.654508  0.817923  1
  Tc  Tc17  1  0.654508  0.000000  0.817923  1
  Tc  Tc18  1  0.817923  0.654508  0.000000  1
  Tc  Tc19  1  0.654508  0.817923  0.000000  1
  Tc  Tc20  1  0.182077  0.182077  0.836585  1
  Tc  Tc21  1  0.345492  0.163415  0.345492  1
  Tc  Tc22  1  0.163415  0.345492  0.345492  1
  C  C23  1  0.000000  0.436427  0.436427  1
  C  C24  1  0.000000  0.563573  0.563573  1
  C  C25  1  0.563573  0.000000  0.563573  1
  C  C26  1  0.436427  0.000000  0.436427  1
  C  C27  1  0.563573  0.563573  0.000000  1
  C  C28  1  0.436427  0.436427  0.000000  1
  C  C29  1  0.299555  0.299555  0.529037  1
  C  C30  1  0.000000  0.229482  0.700445  1
  C  C31  1  0.229482  0.000000  0.700445  1
  C  C32  1  0.770518  0.470963  0.770518  1
  C  C33  1  0.470963  0.770518  0.770518  1
  C  C34  1  0.700445  0.000000  0.229482  1
  C  C35  1  0.299555  0.529037  0.299555  1
  C  C36  1  0.229482  0.700445  0.000000  1
  C  C37  1  0.000000  0.700445  0.229482  1
  C  C38  1  0.700445  0.229482  0.000000  1
  C  C39  1  0.770518  0.770518  0.470963  1
  C  C40  1  0.529037  0.299555  0.299555  1
