# generated using pymatgen
data_Nb3Tc2Ge3Pt
_symmetry_space_group_name_H-M   'P 1'
_cell_length_a   6.75210847
_cell_length_b   7.43334038
_cell_length_c   7.65292450
_cell_angle_alpha   119.05529901
_cell_angle_beta   116.17700315
_cell_angle_gamma   89.99999774
_symmetry_Int_Tables_number   1
_chemical_formula_structural   Nb3Tc2Ge3Pt
_chemical_formula_sum   'Nb6 Tc4 Ge6 Pt2'
_cell_volume   289.87422428
_cell_formula_units_Z   2
loop_
 _symmetry_equiv_pos_site_id
 _symmetry_equiv_pos_as_xyz
  1  'x, y, z'
loop_
 _atom_site_type_symbol
 _atom_site_label
 _atom_site_symmetry_multiplicity
 _atom_site_fract_x
 _atom_site_fract_y
 _atom_site_fract_z
 _atom_site_occupancy
  Nb  Nb0  1  0.902291  0.953430  0.406858  1
  Nb  Nb1  1  0.495433  0.046570  0.593142  1
  Nb  Nb2  1  0.496955  0.523037  0.546074  1
  Nb  Nb3  1  0.950881  0.476963  0.453926  1
  Nb  Nb4  1  0.103244  0.749286  0.998572  1
  Nb  Nb5  1  0.104670  0.250714  0.001428  1
  Tc  Tc6  1  0.247546  0.919003  0.752429  1
  Tc  Tc7  1  0.495118  0.080997  0.247571  1
  Tc  Tc8  1  0.247546  0.333425  0.752429  1
  Tc  Tc9  1  0.495118  0.666575  0.247571  1
  Ge  Ge10  1  0.168910  0.669032  0.335400  1
  Ge  Ge11  1  0.833510  0.330968  0.664600  1
  Ge  Ge12  1  0.168910  0.166367  0.335400  1
  Ge  Ge13  1  0.833510  0.833633  0.664600  1
  Ge  Ge14  1  0.465071  0.712557  0.925116  1
  Ge  Ge15  1  0.539956  0.287443  0.074884  1
  Pt  Pt16  1  0.754664  0.500000  0.000000  1
  Pt  Pt17  1  0.754664  0.000000  0.000000  1
