# generated using pymatgen
data_RbCr(RhS2)2
_symmetry_space_group_name_H-M   'P 1'
_cell_length_a   9.48182100
_cell_length_b   9.48182184
_cell_length_c   7.34304000
_cell_angle_alpha   90.00000000
_cell_angle_beta   90.00000000
_cell_angle_gamma   146.62498447
_symmetry_Int_Tables_number   1
_chemical_formula_structural   RbCr(RhS2)2
_chemical_formula_sum   'Rb2 Cr2 Rh4 S8'
_cell_volume   363.17355835
_cell_formula_units_Z   2
loop_
 _symmetry_equiv_pos_site_id
 _symmetry_equiv_pos_as_xyz
  1  'x, y, z'
loop_
 _atom_site_type_symbol
 _atom_site_label
 _atom_site_symmetry_multiplicity
 _atom_site_fract_x
 _atom_site_fract_y
 _atom_site_fract_z
 _atom_site_occupancy
  Rb  Rb0  1  0.150329  0.520969  0.750000  1
  Rb  Rb1  1  0.520969  0.150329  0.250000  1
  Cr  Cr2  1  0.705575  0.482091  0.750000  1
  Cr  Cr3  1  0.482091  0.705575  0.250000  1
  Rh  Rh4  1  0.685317  0.685317  0.500000  1
  Rh  Rh5  1  0.997761  0.183256  0.250000  1
  Rh  Rh6  1  0.183256  0.997761  0.750000  1
  Rh  Rh7  1  0.685317  0.685317  0.000000  1
  S  S8  1  0.705562  0.944137  0.010620  1
  S  S9  1  0.413780  0.401906  0.750000  1
  S  S10  1  0.401906  0.413780  0.250000  1
  S  S11  1  0.944137  0.705562  0.510620  1
  S  S12  1  0.533197  0.132909  0.750000  1
  S  S13  1  0.944137  0.705562  0.989380  1
  S  S14  1  0.132909  0.533197  0.250000  1
  S  S15  1  0.705562  0.944137  0.489380  1
