# generated using pymatgen
data_Dy2Ho2LuPt4
_symmetry_space_group_name_H-M   'P 1'
_cell_length_a   7.44674800
_cell_length_b   7.54739200
_cell_length_c   14.72395800
_cell_angle_alpha   90.00000000
_cell_angle_beta   90.00000000
_cell_angle_gamma   90.00000000
_symmetry_Int_Tables_number   1
_chemical_formula_structural   Dy2Ho2LuPt4
_chemical_formula_sum   'Dy8 Ho8 Lu4 Pt16'
_cell_volume   827.53836042
_cell_formula_units_Z   4
loop_
 _symmetry_equiv_pos_site_id
 _symmetry_equiv_pos_as_xyz
  1  'x, y, z'
loop_
 _atom_site_type_symbol
 _atom_site_label
 _atom_site_symmetry_multiplicity
 _atom_site_fract_x
 _atom_site_fract_y
 _atom_site_fract_z
 _atom_site_occupancy
  Dy  Dy0  1  0.502031  0.679655  0.593433  1
  Dy  Dy1  1  0.002031  0.820345  0.906567  1
  Dy  Dy2  1  0.497969  0.320345  0.093433  1
  Dy  Dy3  1  0.997969  0.179655  0.406567  1
  Dy  Dy4  1  0.497969  0.320345  0.406567  1
  Dy  Dy5  1  0.997969  0.179655  0.093433  1
  Dy  Dy6  1  0.502031  0.679655  0.906567  1
  Dy  Dy7  1  0.002031  0.820345  0.593433  1
  Ho  Ho8  1  0.656583  0.168180  0.622748  1
  Ho  Ho9  1  0.156583  0.331820  0.877252  1
  Ho  Ho10  1  0.343417  0.831820  0.122748  1
  Ho  Ho11  1  0.843417  0.668180  0.377252  1
  Ho  Ho12  1  0.343417  0.831820  0.377252  1
  Ho  Ho13  1  0.843417  0.668180  0.122748  1
  Ho  Ho14  1  0.656583  0.168180  0.877252  1
  Ho  Ho15  1  0.156583  0.331820  0.622748  1
  Lu  Lu16  1  0.818984  0.512149  0.750000  1
  Lu  Lu17  1  0.318984  0.987851  0.750000  1
  Lu  Lu18  1  0.181016  0.487851  0.250000  1
  Lu  Lu19  1  0.681016  0.012149  0.250000  1
  Pt  Pt20  1  0.683527  0.968044  0.457505  1
  Pt  Pt21  1  0.183527  0.531956  0.042495  1
  Pt  Pt22  1  0.316473  0.031956  0.957505  1
  Pt  Pt23  1  0.816473  0.468044  0.542495  1
  Pt  Pt24  1  0.316473  0.031956  0.542495  1
  Pt  Pt25  1  0.816473  0.468044  0.957505  1
  Pt  Pt26  1  0.683527  0.968044  0.042495  1
  Pt  Pt27  1  0.183527  0.531956  0.457505  1
  Pt  Pt28  1  0.455304  0.387572  0.750000  1
  Pt  Pt29  1  0.955304  0.112428  0.750000  1
  Pt  Pt30  1  0.544696  0.612428  0.250000  1
  Pt  Pt31  1  0.044696  0.887572  0.250000  1
  Pt  Pt32  1  0.680727  0.855077  0.750000  1
  Pt  Pt33  1  0.180727  0.644923  0.750000  1
  Pt  Pt34  1  0.319273  0.144923  0.250000  1
  Pt  Pt35  1  0.819273  0.355077  0.250000  1
