# generated using pymatgen
data_Tb11Ho5Cd4Co3Os
_symmetry_space_group_name_H-M   'P 1'
_cell_length_a   9.58444323
_cell_length_b   9.58239291
_cell_length_c   9.57916059
_cell_angle_alpha   59.41576354
_cell_angle_beta   59.41184557
_cell_angle_gamma   59.44338503
_symmetry_Int_Tables_number   1
_chemical_formula_structural   Tb11Ho5Cd4Co3Os
_chemical_formula_sum   'Tb11 Ho5 Cd4 Co3 Os1'
_cell_volume   613.93227295
_cell_formula_units_Z   1
loop_
 _symmetry_equiv_pos_site_id
 _symmetry_equiv_pos_as_xyz
  1  'x, y, z'
loop_
 _atom_site_type_symbol
 _atom_site_label
 _atom_site_symmetry_multiplicity
 _atom_site_fract_x
 _atom_site_fract_y
 _atom_site_fract_z
 _atom_site_occupancy
  Tb  Tb0  1  0.812754  0.187279  0.812902  1
  Tb  Tb1  1  0.437259  0.057158  0.437232  1
  Tb  Tb2  1  0.600331  0.211425  0.600400  1
  Tb  Tb3  1  0.812786  0.812836  0.187355  1
  Tb  Tb4  1  0.211379  0.600834  0.599801  1
  Tb  Tb5  1  0.805372  0.190691  0.190730  1
  Tb  Tb6  1  0.057371  0.437376  0.437389  1
  Tb  Tb7  1  0.190842  0.805746  0.189995  1
  Tb  Tb8  1  0.599489  0.600580  0.211366  1
  Tb  Tb9  1  0.190896  0.190031  0.805641  1
  Tb  Tb10  1  0.062143  0.435194  0.061167  1
  Ho  Ho11  1  0.437660  0.437710  0.057034  1
  Ho  Ho12  1  0.595317  0.595688  0.596279  1
  Ho  Ho13  1  0.187920  0.812547  0.812628  1
  Ho  Ho14  1  0.061687  0.060643  0.435647  1
  Ho  Ho15  1  0.435292  0.061547  0.061687  1
  Cd  Cd16  1  0.829446  0.829519  0.508061  1
  Cd  Cd17  1  0.830140  0.830094  0.829619  1
  Cd  Cd18  1  0.507692  0.829247  0.829624  1
  Cd  Cd19  1  0.829095  0.507992  0.829562  1
  Co  Co20  1  0.829828  0.392199  0.392517  1
  Co  Co21  1  0.391910  0.829977  0.392716  1
  Co  Co22  1  0.392209  0.392668  0.829932  1
  Os  Os23  1  0.391184  0.391020  0.390720  1
