# generated using pymatgen
data_Ce8Co3Si12Ge
_symmetry_space_group_name_H-M   'P 1'
_cell_length_a   8.07579405
_cell_length_b   8.07603348
_cell_length_c   8.24789902
_cell_angle_alpha   89.99924186
_cell_angle_beta   90.00253864
_cell_angle_gamma   120.00928187
_symmetry_Int_Tables_number   1
_chemical_formula_structural   Ce8Co3Si12Ge
_chemical_formula_sum   'Ce8 Co3 Si12 Ge1'
_cell_volume   465.81844885
_cell_formula_units_Z   1
loop_
 _symmetry_equiv_pos_site_id
 _symmetry_equiv_pos_as_xyz
  1  'x, y, z'
loop_
 _atom_site_type_symbol
 _atom_site_label
 _atom_site_symmetry_multiplicity
 _atom_site_fract_x
 _atom_site_fract_y
 _atom_site_fract_z
 _atom_site_occupancy
  Ce  Ce0  1  0.999996  0.000003  0.250634  1
  Ce  Ce1  1  0.999993  0.999996  0.749725  1
  Ce  Ce2  1  0.501253  0.498747  0.252392  1
  Ce  Ce3  1  0.501265  0.002516  0.252393  1
  Ce  Ce4  1  0.997443  0.498710  0.252379  1
  Ce  Ce5  1  0.501979  0.498012  0.748704  1
  Ce  Ce6  1  0.502025  0.004049  0.748648  1
  Ce  Ce7  1  0.995978  0.497985  0.748639  1
  Co  Co8  1  0.333293  0.666694  0.493269  1
  Co  Co9  1  0.666715  0.333286  0.504069  1
  Co  Co10  1  0.666730  0.333314  0.993636  1
  Si  Si11  1  0.170773  0.829209  0.501131  1
  Si  Si12  1  0.170729  0.341560  0.501101  1
  Si  Si13  1  0.658429  0.829259  0.501034  1
  Si  Si14  1  0.830136  0.169859  0.499628  1
  Si  Si15  1  0.830172  0.660259  0.499626  1
  Si  Si16  1  0.339744  0.169827  0.499532  1
  Si  Si17  1  0.826886  0.173120  0.001223  1
  Si  Si18  1  0.826941  0.653764  0.001227  1
  Si  Si19  1  0.346295  0.173095  0.001336  1
  Si  Si20  1  0.160742  0.839270  0.999916  1
  Si  Si21  1  0.160690  0.321460  0.999943  1
  Si  Si22  1  0.678517  0.839302  0.000028  1
  Ge  Ge23  1  0.333274  0.666706  0.999788  1
