# generated using pymatgen
data_ScBeB14
_symmetry_space_group_name_H-M   'P 1'
_cell_length_a   7.12799786
_cell_length_b   7.12799713
_cell_length_c   7.12799766
_cell_angle_alpha   132.36734634
_cell_angle_beta   110.64276292
_cell_angle_gamma   88.48597042
_symmetry_Int_Tables_number   1
_chemical_formula_structural   ScBeB14
_chemical_formula_sum   'Sc2 Be2 B28'
_cell_volume   238.43758852
_cell_formula_units_Z   2
loop_
 _symmetry_equiv_pos_site_id
 _symmetry_equiv_pos_as_xyz
  1  'x, y, z'
loop_
 _atom_site_type_symbol
 _atom_site_label
 _atom_site_symmetry_multiplicity
 _atom_site_fract_x
 _atom_site_fract_y
 _atom_site_fract_z
 _atom_site_occupancy
  Sc  Sc0  1  0.106137  0.750000  0.356137  1
  Sc  Sc1  1  0.893863  0.250000  0.643863  1
  Be  Be2  1  0.500000  0.500000  0.500000  1
  Be  Be3  1  0.500000  0.000000  0.000000  1
  B  B4  1  0.132470  0.166721  0.965748  1
  B  B5  1  0.867530  0.833279  0.034252  1
  B  B6  1  0.700974  0.666721  0.034252  1
  B  B7  1  0.299026  0.333279  0.965748  1
  B  B8  1  0.286797  0.657139  0.629659  1
  B  B9  1  0.713203  0.342861  0.370341  1
  B  B10  1  0.527480  0.157139  0.370341  1
  B  B11  1  0.472520  0.842861  0.629659  1
  B  B12  1  0.422610  0.592323  0.830287  1
  B  B13  1  0.577390  0.407677  0.169713  1
  B  B14  1  0.262035  0.092323  0.169713  1
  B  B15  1  0.737965  0.907677  0.830287  1
  B  B16  1  0.898799  0.898739  0.675817  1
  B  B17  1  0.101201  0.777017  0.999940  1
  B  B18  1  0.722923  0.398739  0.999940  1
  B  B19  1  0.277077  0.277017  0.675817  1
  B  B20  1  0.101201  0.101261  0.324183  1
  B  B21  1  0.898799  0.222983  0.000060  1
  B  B22  1  0.277077  0.601261  0.000060  1
  B  B23  1  0.722923  0.722983  0.324183  1
  B  B24  1  0.535234  0.329334  0.700344  1
  B  B25  1  0.464766  0.165111  0.794101  1
  B  B26  1  0.128991  0.829334  0.794101  1
  B  B27  1  0.871009  0.665111  0.700344  1
  B  B28  1  0.464766  0.670666  0.299656  1
  B  B29  1  0.535234  0.834889  0.205899  1
  B  B30  1  0.871009  0.170666  0.205899  1
  B  B31  1  0.128991  0.334889  0.299656  1
