# generated using pymatgen
data_Zr10ZnGeBi5Pb
_symmetry_space_group_name_H-M   'P 1'
_cell_length_a   8.85960026
_cell_length_b   8.86149998
_cell_length_c   5.96553418
_cell_angle_alpha   89.98610703
_cell_angle_beta   90.02779191
_cell_angle_gamma   119.99290118
_symmetry_Int_Tables_number   1
_chemical_formula_structural   Zr10ZnGeBi5Pb
_chemical_formula_sum   'Zr10 Zn1 Ge1 Bi5 Pb1'
_cell_volume   405.63213039
_cell_formula_units_Z   1
loop_
 _symmetry_equiv_pos_site_id
 _symmetry_equiv_pos_as_xyz
  1  'x, y, z'
loop_
 _atom_site_type_symbol
 _atom_site_label
 _atom_site_symmetry_multiplicity
 _atom_site_fract_x
 _atom_site_fract_y
 _atom_site_fract_z
 _atom_site_occupancy
  Zr  Zr0  1  0.333582  0.667249  0.999119  1
  Zr  Zr1  1  0.666731  0.333395  0.500841  1
  Zr  Zr2  1  0.666334  0.332751  0.999119  1
  Zr  Zr3  1  0.333335  0.666605  0.500841  1
  Zr  Zr4  1  0.262682  0.000000  0.247173  1
  Zr  Zr5  1  0.263323  0.262971  0.752687  1
  Zr  Zr6  1  0.000352  0.737029  0.752687  1
  Zr  Zr7  1  0.000142  0.262794  0.247377  1
  Zr  Zr8  1  0.737348  0.737206  0.247377  1
  Zr  Zr9  1  0.737202  0.000000  0.752791  1
  Zn  Zn10  1  0.000240  0.000000  0.499960  1
  Ge  Ge11  1  0.000129  0.000000  0.000160  1
  Bi  Bi12  1  0.609883  0.000000  0.251194  1
  Bi  Bi13  1  0.611140  0.611060  0.748801  1
  Bi  Bi14  1  0.000080  0.388940  0.748801  1
  Bi  Bi15  1  0.000447  0.611269  0.251104  1
  Bi  Bi16  1  0.389178  0.388731  0.251104  1
  Pb  Pb17  1  0.387872  0.000000  0.748866  1
