# generated using pymatgen
data_Y3HoAl3(Ga5Ir2)3
_symmetry_space_group_name_H-M   'P 1'
_cell_length_a   7.57718506
_cell_length_b   7.57805009
_cell_length_c   9.52014103
_cell_angle_alpha   89.99262130
_cell_angle_beta   89.99180761
_cell_angle_gamma   119.67893459
_symmetry_Int_Tables_number   1
_chemical_formula_structural   Y3HoAl3(Ga5Ir2)3
_chemical_formula_sum   'Y3 Ho1 Al3 Ga15 Ir6'
_cell_volume   474.93628455
_cell_formula_units_Z   1
loop_
 _symmetry_equiv_pos_site_id
 _symmetry_equiv_pos_as_xyz
  1  'x, y, z'
loop_
 _atom_site_type_symbol
 _atom_site_label
 _atom_site_symmetry_multiplicity
 _atom_site_fract_x
 _atom_site_fract_y
 _atom_site_fract_z
 _atom_site_occupancy
  Y  Y0  1  0.000526  0.671469  0.250054  1
  Y  Y1  1  0.999507  0.329937  0.749335  1
  Y  Y2  1  0.671500  0.000549  0.250054  1
  Ho  Ho3  1  0.329918  0.999384  0.749296  1
  Al  Al4  1  0.663823  0.663822  0.448837  1
  Al  Al5  1  0.668431  0.668437  0.051288  1
  Al  Al6  1  0.331705  0.331539  0.948069  1
  Ga  Ga7  1  0.128672  0.128676  0.249079  1
  Ga  Ga8  1  0.872775  0.872613  0.749154  1
  Ga  Ga9  1  0.000197  0.336035  0.079749  1
  Ga  Ga10  1  0.000351  0.664963  0.920254  1
  Ga  Ga11  1  0.999404  0.664550  0.579761  1
  Ga  Ga12  1  0.336240  0.001860  0.418378  1
  Ga  Ga13  1  0.001854  0.336246  0.418234  1
  Ga  Ga14  1  0.664134  0.999210  0.579768  1
  Ga  Ga15  1  0.664541  0.000140  0.920250  1
  Ga  Ga16  1  0.336026  0.000201  0.079600  1
  Ga  Ga17  1  0.327834  0.327642  0.565472  1
  Ga  Ga18  1  0.348341  0.551224  0.249817  1
  Ga  Ga19  1  0.655992  0.450593  0.750094  1
  Ga  Ga20  1  0.551218  0.348329  0.249818  1
  Ga  Ga21  1  0.450812  0.656359  0.750096  1
  Ir  Ir22  1  0.668875  0.330221  0.999406  1
  Ir  Ir23  1  0.330279  0.669033  0.999397  1
  Ir  Ir24  1  0.329806  0.671892  0.499350  1
  Ir  Ir25  1  0.671746  0.329761  0.499321  1
  Ir  Ir26  1  0.000348  0.000242  0.998990  1
  Ir  Ir27  1  0.995141  0.995070  0.497081  1
