# generated using pymatgen
data_TiNb11Al8Fe2(CoC2)2
_symmetry_space_group_name_H-M   'P 1'
_cell_length_a   8.25804060
_cell_length_b   8.24750317
_cell_length_c   8.24750500
_cell_angle_alpha   59.93530416
_cell_angle_beta   59.95773262
_cell_angle_gamma   59.95772702
_symmetry_Int_Tables_number   1
_chemical_formula_structural   TiNb11Al8Fe2(CoC2)2
_chemical_formula_sum   'Ti1 Nb11 Al8 Fe2 Co2 C4'
_cell_volume   396.74987651
_cell_formula_units_Z   1
loop_
 _symmetry_equiv_pos_site_id
 _symmetry_equiv_pos_as_xyz
  1  'x, y, z'
loop_
 _atom_site_type_symbol
 _atom_site_label
 _atom_site_symmetry_multiplicity
 _atom_site_fract_x
 _atom_site_fract_y
 _atom_site_fract_z
 _atom_site_occupancy
  Ti  Ti0  1  0.687820  0.308669  0.693776  1
  Nb  Nb1  1  0.939501  0.558780  0.560345  1
  Nb  Nb2  1  0.555676  0.945987  0.943277  1
  Nb  Nb3  1  0.942704  0.552868  0.943617  1
  Nb  Nb4  1  0.561792  0.553397  0.941678  1
  Nb  Nb5  1  0.940886  0.944053  0.554430  1
  Nb  Nb6  1  0.687580  0.696287  0.308328  1
  Nb  Nb7  1  0.309910  0.692287  0.689115  1
  Nb  Nb8  1  0.694124  0.304665  0.306283  1
  Nb  Nb9  1  0.308124  0.305612  0.695562  1
  Nb  Nb10  1  0.561341  0.942378  0.555070  1
  Nb  Nb11  1  0.308087  0.696294  0.307185  1
  Al  Al12  1  0.330687  0.333581  0.333282  1
  Al  Al13  1  0.248059  0.916234  0.916565  1
  Al  Al14  1  0.919115  0.243696  0.916448  1
  Al  Al15  1  0.919613  0.916368  0.244402  1
  Al  Al16  1  0.330300  0.006325  0.333162  1
  Al  Al17  1  0.332487  0.333317  0.004225  1
  Al  Al18  1  0.001377  0.333384  0.334842  1
  Al  Al19  1  0.918645  0.917306  0.916315  1
  Fe  Fe20  1  0.124772  0.125926  0.124606  1
  Fe  Fe21  1  0.625304  0.124766  0.125260  1
  Co  Co22  1  0.124974  0.624799  0.124812  1
  Co  Co23  1  0.125145  0.124757  0.625280  1
  C  C24  1  0.625807  0.619797  0.626053  1
  C  C25  1  0.124716  0.624816  0.625662  1
  C  C26  1  0.625806  0.128665  0.625897  1
  C  C27  1  0.625648  0.624987  0.124522  1
