# generated using pymatgen
data_Tm4GaTc4Os3
_symmetry_space_group_name_H-M   'P 1'
_cell_length_a   5.24107691
_cell_length_b   5.29745672
_cell_length_c   8.89515300
_cell_angle_alpha   90.00000000
_cell_angle_beta   90.00000000
_cell_angle_gamma   118.96733832
_symmetry_Int_Tables_number   1
_chemical_formula_structural   Tm4GaTc4Os3
_chemical_formula_sum   'Tm4 Ga1 Tc4 Os3'
_cell_volume   216.07164077
_cell_formula_units_Z   1
loop_
 _symmetry_equiv_pos_site_id
 _symmetry_equiv_pos_as_xyz
  1  'x, y, z'
loop_
 _atom_site_type_symbol
 _atom_site_label
 _atom_site_symmetry_multiplicity
 _atom_site_fract_x
 _atom_site_fract_y
 _atom_site_fract_z
 _atom_site_occupancy
  Tm  Tm0  1  0.664866  0.328704  0.558907  1
  Tm  Tm1  1  0.333111  0.668992  0.434987  1
  Tm  Tm2  1  0.333111  0.668992  0.065013  1
  Tm  Tm3  1  0.664866  0.328704  0.941093  1
  Ga  Ga4  1  0.172905  0.343581  0.750000  1
  Tc  Tc5  1  0.181832  0.839202  0.750000  1
  Tc  Tc6  1  0.660162  0.838426  0.750000  1
  Tc  Tc7  1  0.831616  0.664792  0.250000  1
  Tc  Tc8  1  0.833011  0.176971  0.250000  1
  Os  Os9  1  0.989849  0.982723  0.501892  1
  Os  Os10  1  0.989849  0.982723  0.998108  1
  Os  Os11  1  0.344821  0.176187  0.250000  1
