# generated using pymatgen
data_Eu9ErSn6F2
_symmetry_space_group_name_H-M   'P 1'
_cell_length_a   9.69525184
_cell_length_b   9.69525293
_cell_length_c   9.69525400
_cell_angle_alpha   128.98009951
_cell_angle_beta   128.98010473
_cell_angle_gamma   75.04259642
_symmetry_Int_Tables_number   1
_chemical_formula_structural   Eu9ErSn6F2
_chemical_formula_sum   'Eu9 Er1 Sn6 F2'
_cell_volume   536.24714063
_cell_formula_units_Z   1
loop_
 _symmetry_equiv_pos_site_id
 _symmetry_equiv_pos_as_xyz
  1  'x, y, z'
loop_
 _atom_site_type_symbol
 _atom_site_label
 _atom_site_symmetry_multiplicity
 _atom_site_fract_x
 _atom_site_fract_y
 _atom_site_fract_z
 _atom_site_occupancy
  Eu  Eu0  1  0.000000  0.000000  0.000000  1
  Eu  Eu1  1  0.511518  0.014328  0.825526  1
  Eu  Eu2  1  0.188803  0.685993  0.174474  1
  Eu  Eu3  1  0.014328  0.188803  0.502811  1
  Eu  Eu4  1  0.685993  0.511518  0.497189  1
  Eu  Eu5  1  0.488482  0.985672  0.174474  1
  Eu  Eu6  1  0.811197  0.314007  0.825526  1
  Eu  Eu7  1  0.985672  0.811197  0.497189  1
  Eu  Eu8  1  0.314007  0.488482  0.502811  1
  Er  Er9  1  0.500000  0.500000  0.000000  1
  Sn  Sn10  1  0.253361  0.253361  0.000000  1
  Sn  Sn11  1  0.746639  0.746639  0.000000  1
  Sn  Sn12  1  0.862305  0.377195  0.239501  1
  Sn  Sn13  1  0.137695  0.622805  0.760499  1
  Sn  Sn14  1  0.377195  0.137695  0.514890  1
  Sn  Sn15  1  0.622805  0.862305  0.485110  1
  F  F16  1  0.250000  0.750000  0.500000  1
  F  F17  1  0.750000  0.250000  0.500000  1
