# generated using pymatgen
data_Nd5Y2Er13Pt16
_symmetry_space_group_name_H-M   'P 1'
_cell_length_a   7.51462484
_cell_length_b   7.60709898
_cell_length_c   14.74561654
_cell_angle_alpha   90.00952207
_cell_angle_beta   90.05206189
_cell_angle_gamma   89.91552693
_symmetry_Int_Tables_number   1
_chemical_formula_structural   Nd5Y2Er13Pt16
_chemical_formula_sum   'Nd5 Y2 Er13 Pt16'
_cell_volume   842.92444655
_cell_formula_units_Z   1
loop_
 _symmetry_equiv_pos_site_id
 _symmetry_equiv_pos_as_xyz
  1  'x, y, z'
loop_
 _atom_site_type_symbol
 _atom_site_label
 _atom_site_symmetry_multiplicity
 _atom_site_fract_x
 _atom_site_fract_y
 _atom_site_fract_z
 _atom_site_occupancy
  Nd  Nd0  1  0.500641  0.678263  0.093770  1
  Nd  Nd1  1  0.499502  0.324143  0.592793  1
  Nd  Nd2  1  0.999605  0.176000  0.907390  1
  Nd  Nd3  1  0.998845  0.175237  0.592327  1
  Nd  Nd4  1  0.499788  0.322982  0.906511  1
  Y  Y5  1  0.498329  0.680302  0.405982  1
  Y  Y6  1  0.998776  0.820860  0.094320  1
  Er  Er7  1  0.681639  0.989983  0.250989  1
  Er  Er8  1  0.180654  0.510679  0.251233  1
  Er  Er9  1  0.819988  0.490593  0.749615  1
  Er  Er10  1  0.319711  0.009367  0.749781  1
  Er  Er11  1  0.655352  0.831552  0.622190  1
  Er  Er12  1  0.155118  0.668587  0.877098  1
  Er  Er13  1  0.843052  0.332496  0.376987  1
  Er  Er14  1  0.342294  0.167050  0.123844  1
  Er  Er15  1  0.342170  0.166428  0.377203  1
  Er  Er16  1  0.844478  0.331601  0.124130  1
  Er  Er17  1  0.154937  0.668908  0.622083  1
  Er  Er18  1  0.656854  0.832334  0.876768  1
  Er  Er19  1  0.997762  0.818796  0.405759  1
  Pt  Pt20  1  0.818827  0.642560  0.251874  1
  Pt  Pt21  1  0.314490  0.859721  0.251932  1
  Pt  Pt22  1  0.684484  0.138837  0.749734  1
  Pt  Pt23  1  0.184490  0.361483  0.749670  1
  Pt  Pt24  1  0.547814  0.382720  0.251010  1
  Pt  Pt25  1  0.046363  0.115784  0.250658  1
  Pt  Pt26  1  0.952969  0.880082  0.749793  1
  Pt  Pt27  1  0.452917  0.620085  0.749742  1
  Pt  Pt28  1  0.820090  0.539702  0.540084  1
  Pt  Pt29  1  0.319453  0.963031  0.958563  1
  Pt  Pt30  1  0.684978  0.028978  0.455696  1
  Pt  Pt31  1  0.178573  0.467194  0.043422  1
  Pt  Pt32  1  0.181506  0.471442  0.455431  1
  Pt  Pt33  1  0.683111  0.033793  0.043077  1
  Pt  Pt34  1  0.319828  0.960932  0.540242  1
  Pt  Pt35  1  0.820611  0.537496  0.958300  1
