# generated using pymatgen
data_Er4B4Ir9Pt
_symmetry_space_group_name_H-M   'P 1'
_cell_length_a   10.95873716
_cell_length_b   10.95873706
_cell_length_c   10.95873707
_cell_angle_alpha   28.98847572
_cell_angle_beta   28.98847549
_cell_angle_gamma   28.98848013
_symmetry_Int_Tables_number   1
_chemical_formula_structural   Er4B4Ir9Pt
_chemical_formula_sum   'Er4 B4 Ir9 Pt1'
_cell_volume   273.39759344
_cell_formula_units_Z   1
loop_
 _symmetry_equiv_pos_site_id
 _symmetry_equiv_pos_as_xyz
  1  'x, y, z'
loop_
 _atom_site_type_symbol
 _atom_site_label
 _atom_site_symmetry_multiplicity
 _atom_site_fract_x
 _atom_site_fract_y
 _atom_site_fract_z
 _atom_site_occupancy
  Er  Er0  1  0.151704  0.151704  0.151704  1
  Er  Er1  1  0.950266  0.950266  0.950266  1
  Er  Er2  1  0.848296  0.848296  0.848296  1
  Er  Er3  1  0.049734  0.049734  0.049734  1
  B  B4  1  0.617647  0.617647  0.617647  1
  B  B5  1  0.716549  0.716549  0.716549  1
  B  B6  1  0.382353  0.382353  0.382353  1
  B  B7  1  0.283451  0.283451  0.283451  1
  Ir  Ir8  1  0.406208  0.900597  0.406208  1
  Ir  Ir9  1  0.900597  0.406208  0.406208  1
  Ir  Ir10  1  0.500000  0.500000  0.000000  1
  Ir  Ir11  1  0.500000  0.000000  0.500000  1
  Ir  Ir12  1  0.000000  0.500000  0.500000  1
  Ir  Ir13  1  0.593792  0.099403  0.593792  1
  Ir  Ir14  1  0.593792  0.593792  0.099403  1
  Ir  Ir15  1  0.099403  0.593792  0.593792  1
  Ir  Ir16  1  0.406208  0.406208  0.900597  1
  Pt  Pt17  1  0.500000  0.500000  0.500000  1
