# generated using pymatgen
data_LiEr(CuO2)4
_symmetry_space_group_name_H-M   'P 1'
_cell_length_a   6.15882292
_cell_length_b   6.15882180
_cell_length_c   6.15882299
_cell_angle_alpha   125.60960221
_cell_angle_beta   125.60959366
_cell_angle_gamma   80.53074490
_symmetry_Int_Tables_number   1
_chemical_formula_structural   LiEr(CuO2)4
_chemical_formula_sum   'Li1 Er1 Cu4 O8'
_cell_volume   148.93205042
_cell_formula_units_Z   1
loop_
 _symmetry_equiv_pos_site_id
 _symmetry_equiv_pos_as_xyz
  1  'x, y, z'
loop_
 _atom_site_type_symbol
 _atom_site_label
 _atom_site_symmetry_multiplicity
 _atom_site_fract_x
 _atom_site_fract_y
 _atom_site_fract_z
 _atom_site_occupancy
  Li  Li0  1  0.500000  0.500000  0.000000  1
  Er  Er1  1  0.250000  0.750000  0.500000  1
  Cu  Cu2  1  0.376739  0.119766  0.248731  1
  Cu  Cu3  1  0.871035  0.128008  0.751269  1
  Cu  Cu4  1  0.871992  0.623261  0.743028  1
  Cu  Cu5  1  0.880234  0.128965  0.256972  1
  O  O6  1  0.909713  0.340952  0.146588  1
  O  O7  1  0.194364  0.763124  0.853412  1
  O  O8  1  0.849044  0.916142  0.365948  1
  O  O9  1  0.550195  0.483097  0.634052  1
  O  O10  1  0.516903  0.150956  0.067098  1
  O  O11  1  0.083858  0.449805  0.932902  1
  O  O12  1  0.659048  0.805636  0.568760  1
  O  O13  1  0.236876  0.090287  0.431240  1
