# generated using pymatgen
data_YbEr3B16Os3Ru
_symmetry_space_group_name_H-M   'P 1'
_cell_length_a   3.54734400
_cell_length_b   5.95367568
_cell_length_c   11.50371201
_cell_angle_alpha   89.93833020
_cell_angle_beta   90.00000000
_cell_angle_gamma   90.00000000
_symmetry_Int_Tables_number   1
_chemical_formula_structural   YbEr3B16Os3Ru
_chemical_formula_sum   'Yb1 Er3 B16 Os3 Ru1'
_cell_volume   242.95521665
_cell_formula_units_Z   1
loop_
 _symmetry_equiv_pos_site_id
 _symmetry_equiv_pos_as_xyz
  1  'x, y, z'
loop_
 _atom_site_type_symbol
 _atom_site_label
 _atom_site_symmetry_multiplicity
 _atom_site_fract_x
 _atom_site_fract_y
 _atom_site_fract_z
 _atom_site_occupancy
  Yb  Yb0  1  0.500000  0.869898  0.649942  1
  Er  Er1  1  0.500000  0.627760  0.149842  1
  Er  Er2  1  0.500000  0.371664  0.849283  1
  Er  Er3  1  0.500000  0.128369  0.350511  1
  B  B4  1  0.000000  0.975394  0.191907  1
  B  B5  1  0.000000  0.025116  0.808196  1
  B  B6  1  0.000000  0.474723  0.308199  1
  B  B7  1  0.000000  0.525423  0.691518  1
  B  B8  1  0.000000  0.789834  0.314312  1
  B  B9  1  0.000000  0.210574  0.685591  1
  B  B10  1  0.000000  0.289736  0.186041  1
  B  B11  1  0.000000  0.711477  0.814197  1
  B  B12  1  0.000000  0.863968  0.470177  1
  B  B13  1  0.000000  0.135664  0.529908  1
  B  B14  1  0.000000  0.364217  0.030121  1
  B  B15  1  0.000000  0.635640  0.969904  1
  B  B16  1  0.000000  0.886959  0.047097  1
  B  B17  1  0.000000  0.112364  0.952831  1
  B  B18  1  0.000000  0.387500  0.453464  1
  B  B19  1  0.000000  0.613992  0.547272  1
  Os  Os20  1  0.500000  0.640709  0.406576  1
  Os  Os21  1  0.500000  0.359391  0.591793  1
  Os  Os22  1  0.500000  0.141025  0.093039  1
  Ru  Ru23  1  0.500000  0.858600  0.908281  1
