# generated using pymatgen
data_Lu17(ScIr4)3
_symmetry_space_group_name_H-M   'P 1'
_cell_length_a   10.53612200
_cell_length_b   10.53612200
_cell_length_c   6.20057100
_cell_angle_alpha   90.00000000
_cell_angle_beta   90.00000000
_cell_angle_gamma   90.00000000
_symmetry_Int_Tables_number   1
_chemical_formula_structural   Lu17(ScIr4)3
_chemical_formula_sum   'Lu17 Sc3 Ir12'
_cell_volume   688.32456079
_cell_formula_units_Z   1
loop_
 _symmetry_equiv_pos_site_id
 _symmetry_equiv_pos_as_xyz
  1  'x, y, z'
loop_
 _atom_site_type_symbol
 _atom_site_label
 _atom_site_symmetry_multiplicity
 _atom_site_fract_x
 _atom_site_fract_y
 _atom_site_fract_z
 _atom_site_occupancy
  Lu  Lu0  1  0.288182  0.086277  0.376371  1
  Lu  Lu1  1  0.287834  0.914857  0.876559  1
  Lu  Lu2  1  0.712166  0.085143  0.876559  1
  Lu  Lu3  1  0.711818  0.913723  0.376371  1
  Lu  Lu4  1  0.585663  0.788792  0.875368  1
  Lu  Lu5  1  0.586936  0.208643  0.375977  1
  Lu  Lu6  1  0.413064  0.791357  0.375977  1
  Lu  Lu7  1  0.414337  0.211208  0.875368  1
  Lu  Lu8  1  0.208643  0.413064  0.624023  1
  Lu  Lu9  1  0.211208  0.585663  0.124632  1
  Lu  Lu10  1  0.788792  0.414337  0.124632  1
  Lu  Lu11  1  0.791357  0.586936  0.624023  1
  Lu  Lu12  1  0.914857  0.712166  0.123441  1
  Lu  Lu13  1  0.913723  0.288182  0.623629  1
  Lu  Lu14  1  0.086277  0.711818  0.623629  1
  Lu  Lu15  1  0.085143  0.287834  0.123441  1
  Lu  Lu16  1  0.500000  0.500000  0.500000  1
  Sc  Sc17  1  0.000000  0.000000  0.500000  1
  Sc  Sc18  1  0.000000  0.000000  0.000000  1
  Sc  Sc19  1  0.500000  0.500000  0.000000  1
  Ir  Ir20  1  0.849835  0.149931  0.250616  1
  Ir  Ir21  1  0.850069  0.849835  0.749384  1
  Ir  Ir22  1  0.149931  0.150165  0.749384  1
  Ir  Ir23  1  0.150165  0.850069  0.250616  1
  Ir  Ir24  1  0.653033  0.347384  0.752752  1
  Ir  Ir25  1  0.652616  0.653033  0.247248  1
  Ir  Ir26  1  0.347384  0.346967  0.247248  1
  Ir  Ir27  1  0.346967  0.652616  0.752752  1
  Ir  Ir28  1  0.500000  0.000000  0.122618  1
  Ir  Ir29  1  0.500000  0.000000  0.624021  1
  Ir  Ir30  1  0.000000  0.500000  0.877382  1
  Ir  Ir31  1  0.000000  0.500000  0.375979  1
