# generated using pymatgen
data_Ta16Ga3CuTe16
_symmetry_space_group_name_H-M   'P 1'
_cell_length_a   4.84941200
_cell_length_b   11.12906500
_cell_length_c   19.32105300
_cell_angle_alpha   90.00052352
_cell_angle_beta   90.00000000
_cell_angle_gamma   90.00000000
_symmetry_Int_Tables_number   1
_chemical_formula_structural   Ta16Ga3CuTe16
_chemical_formula_sum   'Ta16 Ga3 Cu1 Te16'
_cell_volume   1042.74605045
_cell_formula_units_Z   1
loop_
 _symmetry_equiv_pos_site_id
 _symmetry_equiv_pos_as_xyz
  1  'x, y, z'
loop_
 _atom_site_type_symbol
 _atom_site_label
 _atom_site_symmetry_multiplicity
 _atom_site_fract_x
 _atom_site_fract_y
 _atom_site_fract_z
 _atom_site_occupancy
  Ta  Ta0  1  0.501053  0.564206  0.383203  1
  Ta  Ta1  1  0.501053  0.435794  0.616797  1
  Ta  Ta2  1  0.499973  0.064907  0.117921  1
  Ta  Ta3  1  0.499973  0.935093  0.882079  1
  Ta  Ta4  1  0.502310  0.703677  0.535937  1
  Ta  Ta5  1  0.502310  0.296323  0.464063  1
  Ta  Ta6  1  0.500080  0.205526  0.963783  1
  Ta  Ta7  1  0.500080  0.794474  0.036217  1
  Ta  Ta8  1  0.998397  0.688661  0.442607  1
  Ta  Ta9  1  0.998397  0.311339  0.557393  1
  Ta  Ta10  1  0.999979  0.190513  0.057840  1
  Ta  Ta11  1  0.999979  0.809487  0.942160  1
  Ta  Ta12  1  0.998284  0.401612  0.391565  1
  Ta  Ta13  1  0.998284  0.598388  0.608435  1
  Ta  Ta14  1  0.000081  0.900608  0.109392  1
  Ta  Ta15  1  0.000081  0.099392  0.890608  1
  Ga  Ga16  1  0.750046  0.000000  0.000000  1
  Ga  Ga17  1  0.750015  0.500000  0.500000  1
  Ga  Ga18  1  0.249992  0.000000  0.000000  1
  Cu  Cu19  1  0.249858  0.500000  0.500000  1
  Te  Te20  1  0.005603  0.841923  0.561332  1
  Te  Te21  1  0.005603  0.158077  0.438668  1
  Te  Te22  1  0.000150  0.343253  0.938386  1
  Te  Te23  1  0.000150  0.656747  0.061614  1
  Te  Te24  1  0.494548  0.334546  0.317878  1
  Te  Te25  1  0.494548  0.665454  0.682122  1
  Te  Te26  1  0.500069  0.833836  0.182776  1
  Te  Te27  1  0.500069  0.166164  0.817224  1
  Te  Te28  1  0.494066  0.818418  0.403625  1
  Te  Te29  1  0.494066  0.181582  0.596375  1
  Te  Te30  1  0.500004  0.319699  0.096759  1
  Te  Te31  1  0.500004  0.680301  0.903241  1
  Te  Te32  1  0.005477  0.606307  0.302719  1
  Te  Te33  1  0.005477  0.393693  0.697281  1
  Te  Te34  1  0.999973  0.106698  0.197956  1
  Te  Te35  1  0.999973  0.893302  0.802044  1
