# generated using pymatgen
data_Tb9Dy11(Ir3Rh)3
_symmetry_space_group_name_H-M   'P 1'
_cell_length_a   10.90165800
_cell_length_b   10.90184201
_cell_length_c   6.40180301
_cell_angle_alpha   89.99497288
_cell_angle_beta   90.00281367
_cell_angle_gamma   90.00028387
_symmetry_Int_Tables_number   1
_chemical_formula_structural   Tb9Dy11(Ir3Rh)3
_chemical_formula_sum   'Tb9 Dy11 Ir9 Rh3'
_cell_volume   760.84246084
_cell_formula_units_Z   1
loop_
 _symmetry_equiv_pos_site_id
 _symmetry_equiv_pos_as_xyz
  1  'x, y, z'
loop_
 _atom_site_type_symbol
 _atom_site_label
 _atom_site_symmetry_multiplicity
 _atom_site_fract_x
 _atom_site_fract_y
 _atom_site_fract_z
 _atom_site_occupancy
  Tb  Tb0  1  0.290299  0.088878  0.379906  1
  Tb  Tb1  1  0.290139  0.910589  0.879728  1
  Tb  Tb2  1  0.709865  0.089399  0.879745  1
  Tb  Tb3  1  0.709716  0.911078  0.379970  1
  Tb  Tb4  1  0.589413  0.790140  0.879734  1
  Tb  Tb5  1  0.588941  0.209724  0.379952  1
  Tb  Tb6  1  0.411088  0.790291  0.379941  1
  Tb  Tb7  1  0.410705  0.209774  0.879842  1
  Tb  Tb8  1  0.208704  0.411337  0.618889  1
  Dy  Dy9  1  0.208896  0.589062  0.121075  1
  Dy  Dy10  1  0.791098  0.411032  0.121050  1
  Dy  Dy11  1  0.791509  0.588638  0.618600  1
  Dy  Dy12  1  0.911027  0.708921  0.121073  1
  Dy  Dy13  1  0.911213  0.291461  0.618625  1
  Dy  Dy14  1  0.088581  0.708615  0.618598  1
  Dy  Dy15  1  0.088860  0.291029  0.121083  1
  Dy  Dy16  1  0.999973  0.999990  0.500499  1
  Dy  Dy17  1  0.999992  0.999996  0.000323  1
  Dy  Dy18  1  0.500025  0.500007  0.000312  1
  Dy  Dy19  1  0.500157  0.500062  0.500442  1
  Ir  Ir20  1  0.846079  0.153296  0.250034  1
  Ir  Ir21  1  0.846343  0.846227  0.749994  1
  Ir  Ir22  1  0.153609  0.153516  0.750106  1
  Ir  Ir23  1  0.153930  0.846697  0.250049  1
  Ir  Ir24  1  0.653762  0.346332  0.749973  1
  Ir  Ir25  1  0.653300  0.653915  0.250048  1
  Ir  Ir26  1  0.346836  0.345989  0.249602  1
  Ir  Ir27  1  0.346321  0.653844  0.750105  1
  Ir  Ir28  1  0.999773  0.500088  0.374846  1
  Rh  Rh29  1  0.500008  0.000008  0.124609  1
  Rh  Rh30  1  0.500014  0.999983  0.624977  1
  Rh  Rh31  1  0.999824  0.500083  0.876271  1
