# generated using pymatgen
data_Sm3FeCo7MoP6
_symmetry_space_group_name_H-M   'P 1'
_cell_length_a   3.76953400
_cell_length_b   10.68080600
_cell_length_c   12.33632600
_cell_angle_alpha   90.00000000
_cell_angle_beta   90.00000000
_cell_angle_gamma   90.00000000
_symmetry_Int_Tables_number   1
_chemical_formula_structural   Sm3FeCo7MoP6
_chemical_formula_sum   'Sm6 Fe2 Co14 Mo2 P12'
_cell_volume   496.68097989
_cell_formula_units_Z   2
loop_
 _symmetry_equiv_pos_site_id
 _symmetry_equiv_pos_as_xyz
  1  'x, y, z'
loop_
 _atom_site_type_symbol
 _atom_site_label
 _atom_site_symmetry_multiplicity
 _atom_site_fract_x
 _atom_site_fract_y
 _atom_site_fract_z
 _atom_site_occupancy
  Sm  Sm0  1  0.000000  0.500000  0.524079  1
  Sm  Sm1  1  0.500000  0.000000  0.475921  1
  Sm  Sm2  1  0.500000  0.818790  0.203679  1
  Sm  Sm3  1  0.500000  0.181210  0.203679  1
  Sm  Sm4  1  0.000000  0.681210  0.796321  1
  Sm  Sm5  1  0.000000  0.318790  0.796321  1
  Fe  Fe6  1  0.000000  0.500000  0.987269  1
  Fe  Fe7  1  0.500000  0.000000  0.012731  1
  Co  Co8  1  0.500000  0.500000  0.699435  1
  Co  Co9  1  0.000000  0.000000  0.300565  1
  Co  Co10  1  0.500000  0.331413  0.991928  1
  Co  Co11  1  0.500000  0.668587  0.991928  1
  Co  Co12  1  0.000000  0.168587  0.008072  1
  Co  Co13  1  0.000000  0.831413  0.008072  1
  Co  Co14  1  0.500000  0.294947  0.431256  1
  Co  Co15  1  0.500000  0.705053  0.431256  1
  Co  Co16  1  0.000000  0.205053  0.568744  1
  Co  Co17  1  0.000000  0.794947  0.568744  1
  Co  Co18  1  0.500000  0.879841  0.707493  1
  Co  Co19  1  0.500000  0.120159  0.707493  1
  Co  Co20  1  0.000000  0.620159  0.292507  1
  Co  Co21  1  0.000000  0.379841  0.292507  1
  Mo  Mo22  1  0.500000  0.500000  0.154407  1
  Mo  Mo23  1  0.000000  0.000000  0.845593  1
  P  P24  1  0.500000  0.500000  0.884886  1
  P  P25  1  0.000000  0.000000  0.115114  1
  P  P26  1  0.500000  0.500000  0.345655  1
  P  P27  1  0.000000  0.000000  0.654345  1
  P  P28  1  0.500000  0.307648  0.615506  1
  P  P29  1  0.500000  0.692352  0.615506  1
  P  P30  1  0.000000  0.192352  0.384494  1
  P  P31  1  0.000000  0.807648  0.384494  1
  P  P32  1  0.500000  0.846639  0.896109  1
  P  P33  1  0.500000  0.153361  0.896109  1
  P  P34  1  0.000000  0.653361  0.103891  1
  P  P35  1  0.000000  0.346639  0.103891  1
