# generated using pymatgen
data_Dy3Lu2ScFeSb2
_symmetry_space_group_name_H-M   'P 1'
_cell_length_a   8.02431300
_cell_length_b   8.03263641
_cell_length_c   4.13879400
_cell_angle_alpha   90.00000000
_cell_angle_beta   90.00000000
_cell_angle_gamma   119.96573286
_symmetry_Int_Tables_number   1
_chemical_formula_structural   Dy3Lu2ScFeSb2
_chemical_formula_sum   'Dy3 Lu2 Sc1 Fe1 Sb2'
_cell_volume   231.11081552
_cell_formula_units_Z   1
loop_
 _symmetry_equiv_pos_site_id
 _symmetry_equiv_pos_as_xyz
  1  'x, y, z'
loop_
 _atom_site_type_symbol
 _atom_site_label
 _atom_site_symmetry_multiplicity
 _atom_site_fract_x
 _atom_site_fract_y
 _atom_site_fract_z
 _atom_site_occupancy
  Dy  Dy0  1  0.001498  0.608840  0.500000  1
  Dy  Dy1  1  0.392657  0.391160  0.500000  1
  Dy  Dy2  1  0.603762  0.000000  0.500000  1
  Lu  Lu3  1  0.769671  0.768485  0.000000  1
  Lu  Lu4  1  0.001186  0.231515  0.000000  1
  Sc  Sc5  1  0.229330  0.000000  0.000000  1
  Fe  Fe6  1  0.005293  0.000000  0.500000  1
  Sb  Sb7  1  0.332795  0.668988  0.000000  1
  Sb  Sb8  1  0.663808  0.331012  0.000000  1
