# generated using pymatgen
data_TbEr3Al18CrPd5
_symmetry_space_group_name_H-M   'P 1'
_cell_length_a   7.60184643
_cell_length_b   7.59911378
_cell_length_c   9.48435351
_cell_angle_alpha   89.76552655
_cell_angle_beta   89.79536362
_cell_angle_gamma   119.13079073
_symmetry_Int_Tables_number   1
_chemical_formula_structural   TbEr3Al18CrPd5
_chemical_formula_sum   'Tb1 Er3 Al18 Cr1 Pd5'
_cell_volume   478.57011455
_cell_formula_units_Z   1
loop_
 _symmetry_equiv_pos_site_id
 _symmetry_equiv_pos_as_xyz
  1  'x, y, z'
loop_
 _atom_site_type_symbol
 _atom_site_label
 _atom_site_symmetry_multiplicity
 _atom_site_fract_x
 _atom_site_fract_y
 _atom_site_fract_z
 _atom_site_occupancy
  Tb  Tb0  1  0.326313  0.005302  0.752088  1
  Er  Er1  1  0.994439  0.674314  0.247529  1
  Er  Er2  1  0.005133  0.325706  0.752574  1
  Er  Er3  1  0.674608  0.994793  0.247337  1
  Al  Al4  1  0.126885  0.127110  0.243741  1
  Al  Al5  1  0.872211  0.872671  0.756425  1
  Al  Al6  1  0.000222  0.327767  0.073716  1
  Al  Al7  1  0.998809  0.671459  0.927077  1
  Al  Al8  1  0.998278  0.662597  0.577767  1
  Al  Al9  1  0.336965  0.001199  0.420953  1
  Al  Al10  1  0.001128  0.336822  0.421561  1
  Al  Al11  1  0.663907  0.998841  0.577687  1
  Al  Al12  1  0.672984  0.999708  0.926994  1
  Al  Al13  1  0.327620  0.000270  0.074512  1
  Al  Al14  1  0.333219  0.333769  0.555484  1
  Al  Al15  1  0.666766  0.666793  0.443515  1
  Al  Al16  1  0.673815  0.673836  0.051765  1
  Al  Al17  1  0.326008  0.326736  0.949295  1
  Al  Al18  1  0.340933  0.548451  0.249334  1
  Al  Al19  1  0.659650  0.452358  0.750682  1
  Al  Al20  1  0.548544  0.341198  0.249295  1
  Al  Al21  1  0.451795  0.658523  0.750702  1
  Cr  Cr22  1  0.999704  0.999866  0.000357  1
  Pd  Pd23  1  0.672712  0.327401  0.000154  1
  Pd  Pd24  1  0.327357  0.672569  0.000149  1
  Pd  Pd25  1  0.327686  0.672161  0.499826  1
  Pd  Pd26  1  0.672528  0.327832  0.499786  1
  Pd  Pd27  1  0.999783  0.999947  0.499694  1
