# generated using pymatgen
data_SrSmBO4
_symmetry_space_group_name_H-M   'P 1'
_cell_length_a   3.76787500
_cell_length_b   9.89601500
_cell_length_c   11.02387000
_cell_angle_alpha   90.00000000
_cell_angle_beta   90.00000000
_cell_angle_gamma   90.00000000
_symmetry_Int_Tables_number   1
_chemical_formula_structural   SrSmBO4
_chemical_formula_sum   'Sr4 Sm4 B4 O16'
_cell_volume   411.04646214
_cell_formula_units_Z   4
loop_
 _symmetry_equiv_pos_site_id
 _symmetry_equiv_pos_as_xyz
  1  'x, y, z'
loop_
 _atom_site_type_symbol
 _atom_site_label
 _atom_site_symmetry_multiplicity
 _atom_site_fract_x
 _atom_site_fract_y
 _atom_site_fract_z
 _atom_site_occupancy
  Sr  Sr0  1  0.250000  0.663617  0.081759  1
  Sr  Sr1  1  0.750000  0.336383  0.918241  1
  Sr  Sr2  1  0.750000  0.163617  0.418241  1
  Sr  Sr3  1  0.250000  0.836383  0.581759  1
  Sm  Sm4  1  0.250000  0.084610  0.112953  1
  Sm  Sm5  1  0.750000  0.915390  0.887047  1
  Sm  Sm6  1  0.750000  0.584610  0.387047  1
  Sm  Sm7  1  0.250000  0.415390  0.612953  1
  B  B8  1  0.250000  0.365393  0.203798  1
  B  B9  1  0.750000  0.634607  0.796202  1
  B  B10  1  0.750000  0.865393  0.296202  1
  B  B11  1  0.250000  0.134607  0.703798  1
  O  O12  1  0.250000  0.493210  0.255714  1
  O  O13  1  0.750000  0.506790  0.744286  1
  O  O14  1  0.750000  0.993210  0.244286  1
  O  O15  1  0.250000  0.006790  0.755714  1
  O  O16  1  0.250000  0.248374  0.274935  1
  O  O17  1  0.750000  0.751626  0.725065  1
  O  O18  1  0.750000  0.748374  0.225065  1
  O  O19  1  0.250000  0.251626  0.774935  1
  O  O20  1  0.250000  0.351635  0.076720  1
  O  O21  1  0.750000  0.648365  0.923280  1
  O  O22  1  0.750000  0.851635  0.423280  1
  O  O23  1  0.250000  0.148365  0.576720  1
  O  O24  1  0.250000  0.612422  0.500708  1
  O  O25  1  0.750000  0.387578  0.499292  1
  O  O26  1  0.750000  0.112422  0.999292  1
  O  O27  1  0.250000  0.887578  0.000708  1
