# generated using pymatgen
data_CaNd9(GaSi2)2
_symmetry_space_group_name_H-M   'P 1'
_cell_length_a   9.03907364
_cell_length_b   9.03907405
_cell_length_c   9.03907371
_cell_angle_alpha   128.89964212
_cell_angle_beta   128.89964765
_cell_angle_gamma   75.17209955
_symmetry_Int_Tables_number   1
_chemical_formula_structural   CaNd9(GaSi2)2
_chemical_formula_sum   'Ca1 Nd9 Ga2 Si4'
_cell_volume   435.47063985
_cell_formula_units_Z   1
loop_
 _symmetry_equiv_pos_site_id
 _symmetry_equiv_pos_as_xyz
  1  'x, y, z'
loop_
 _atom_site_type_symbol
 _atom_site_label
 _atom_site_symmetry_multiplicity
 _atom_site_fract_x
 _atom_site_fract_y
 _atom_site_fract_z
 _atom_site_occupancy
  Ca  Ca0  1  0.500000  0.500000  0.000000  1
  Nd  Nd1  1  0.533362  0.035409  0.855502  1
  Nd  Nd2  1  0.179906  0.677859  0.144498  1
  Nd  Nd3  1  0.035409  0.179906  0.502047  1
  Nd  Nd4  1  0.677859  0.533362  0.497953  1
  Nd  Nd5  1  0.466638  0.964591  0.144498  1
  Nd  Nd6  1  0.820094  0.322141  0.855502  1
  Nd  Nd7  1  0.964591  0.820094  0.497953  1
  Nd  Nd8  1  0.322141  0.466638  0.502047  1
  Nd  Nd9  1  0.000000  0.000000  0.000000  1
  Ga  Ga10  1  0.247306  0.247306  0.000000  1
  Ga  Ga11  1  0.752694  0.752694  0.000000  1
  Si  Si12  1  0.887712  0.384361  0.272073  1
  Si  Si13  1  0.112288  0.615639  0.727927  1
  Si  Si14  1  0.384361  0.112288  0.496649  1
  Si  Si15  1  0.615639  0.887712  0.503351  1
