# generated using pymatgen
data_TbPaCdNi2
_symmetry_space_group_name_H-M   'P 1'
_cell_length_a   7.47461089
_cell_length_b   7.47461089
_cell_length_c   3.56783300
_cell_angle_alpha   90.00000000
_cell_angle_beta   90.00000000
_cell_angle_gamma   94.13375081
_symmetry_Int_Tables_number   1
_chemical_formula_structural   TbPaCdNi2
_chemical_formula_sum   'Tb2 Pa2 Cd2 Ni4'
_cell_volume   198.81557567
_cell_formula_units_Z   2
loop_
 _symmetry_equiv_pos_site_id
 _symmetry_equiv_pos_as_xyz
  1  'x, y, z'
loop_
 _atom_site_type_symbol
 _atom_site_label
 _atom_site_symmetry_multiplicity
 _atom_site_fract_x
 _atom_site_fract_y
 _atom_site_fract_z
 _atom_site_occupancy
  Tb  Tb0  1  0.171702  0.328298  0.500000  1
  Tb  Tb1  1  0.828298  0.671702  0.500000  1
  Pa  Pa2  1  0.672189  0.172189  0.500000  1
  Pa  Pa3  1  0.327811  0.827811  0.500000  1
  Cd  Cd4  1  0.000000  0.000000  0.000000  1
  Cd  Cd5  1  0.500000  0.500000  0.000000  1
  Ni  Ni6  1  0.136396  0.636396  0.000000  1
  Ni  Ni7  1  0.863604  0.363604  0.000000  1
  Ni  Ni8  1  0.615054  0.884946  0.000000  1
  Ni  Ni9  1  0.384946  0.115054  0.000000  1
