# generated using pymatgen
data_YHoAl6(GaIr)3
_symmetry_space_group_name_H-M   'P 1'
_cell_length_a   7.52434400
_cell_length_b   7.52561085
_cell_length_c   9.57328900
_cell_angle_alpha   90.00012050
_cell_angle_beta   90.00018115
_cell_angle_gamma   119.66194413
_symmetry_Int_Tables_number   1
_chemical_formula_structural   YHoAl6(GaIr)3
_chemical_formula_sum   'Y2 Ho2 Al12 Ga6 Ir6'
_cell_volume   471.05493526
_cell_formula_units_Z   2
loop_
 _symmetry_equiv_pos_site_id
 _symmetry_equiv_pos_as_xyz
  1  'x, y, z'
loop_
 _atom_site_type_symbol
 _atom_site_label
 _atom_site_symmetry_multiplicity
 _atom_site_fract_x
 _atom_site_fract_y
 _atom_site_fract_z
 _atom_site_occupancy
  Y  Y0  1  0.996126  0.669308  0.250000  1
  Y  Y1  1  0.003874  0.330692  0.750000  1
  Ho  Ho2  1  0.669425  0.996230  0.250000  1
  Ho  Ho3  1  0.330575  0.003770  0.750000  1
  Al  Al4  1  0.001451  0.334158  0.072848  1
  Al  Al5  1  0.998549  0.665842  0.927152  1
  Al  Al6  1  0.998549  0.665842  0.572848  1
  Al  Al7  1  0.334564  0.001655  0.427347  1
  Al  Al8  1  0.001451  0.334158  0.427152  1
  Al  Al9  1  0.665436  0.998345  0.572653  1
  Al  Al10  1  0.665436  0.998345  0.927347  1
  Al  Al11  1  0.334564  0.001655  0.072653  1
  Al  Al12  1  0.334111  0.333920  0.555326  1
  Al  Al13  1  0.665889  0.666080  0.444674  1
  Al  Al14  1  0.665889  0.666080  0.055325  1
  Al  Al15  1  0.334111  0.333920  0.944675  1
  Ga  Ga16  1  0.127517  0.127883  0.249998  1
  Ga  Ga17  1  0.872483  0.872117  0.750002  1
  Ga  Ga18  1  0.338813  0.546984  0.250000  1
  Ga  Ga19  1  0.661187  0.453016  0.750000  1
  Ga  Ga20  1  0.546479  0.337891  0.249998  1
  Ga  Ga21  1  0.453521  0.662109  0.750002  1
  Ir  Ir22  1  0.671508  0.328145  0.000030  1
  Ir  Ir23  1  0.328492  0.671855  0.999970  1
  Ir  Ir24  1  0.328489  0.671855  0.500029  1
  Ir  Ir25  1  0.671511  0.328145  0.499971  1
  Ir  Ir26  1  0.000000  0.000000  0.000000  1
  Ir  Ir27  1  0.000000  0.000000  0.500000  1
