# generated using pymatgen
data_Mn11AlCr9(WC3)2
_symmetry_space_group_name_H-M   'P 1'
_cell_length_a   7.46503650
_cell_length_b   7.46707540
_cell_length_c   7.48916770
_cell_angle_alpha   60.11376644
_cell_angle_beta   60.11136984
_cell_angle_gamma   60.00945800
_symmetry_Int_Tables_number   1
_chemical_formula_structural   Mn11AlCr9(WC3)2
_chemical_formula_sum   'Mn11 Al1 Cr9 W2 C6'
_cell_volume   295.71204449
_cell_formula_units_Z   1
loop_
 _symmetry_equiv_pos_site_id
 _symmetry_equiv_pos_as_xyz
  1  'x, y, z'
loop_
 _atom_site_type_symbol
 _atom_site_label
 _atom_site_symmetry_multiplicity
 _atom_site_fract_x
 _atom_site_fract_y
 _atom_site_fract_z
 _atom_site_occupancy
  Mn  Mn0  1  0.615835  0.615805  0.152564  1
  Mn  Mn1  1  0.615923  0.152390  0.615739  1
  Mn  Mn2  1  0.152501  0.615912  0.615754  1
  Mn  Mn3  1  0.615838  0.615942  0.615729  1
  Mn  Mn4  1  0.383995  0.383543  0.848583  1
  Mn  Mn5  1  0.384366  0.848510  0.382926  1
  Mn  Mn6  1  0.848329  0.384069  0.383107  1
  Mn  Mn7  1  0.384551  0.384008  0.383058  1
  Mn  Mn8  1  0.998834  0.999287  0.343306  1
  Mn  Mn9  1  0.658559  0.999297  0.343203  1
  Mn  Mn10  1  0.998922  0.658641  0.343315  1
  Al  Al11  1  0.998311  0.998381  0.004986  1
  Cr  Cr12  1  0.657213  0.342971  0.000504  1
  Cr  Cr13  1  0.999282  0.343042  0.000490  1
  Cr  Cr14  1  0.001030  0.342134  0.655757  1
  Cr  Cr15  1  0.343283  0.657065  0.000342  1
  Cr  Cr16  1  0.342531  0.001169  0.655278  1
  Cr  Cr17  1  0.343199  0.999420  0.000368  1
  Cr  Cr18  1  0.001000  0.001195  0.655385  1
  Cr  Cr19  1  0.999275  0.657066  0.000412  1
  Cr  Cr20  1  0.657017  0.999444  0.000441  1
  W  W21  1  0.750850  0.751174  0.747073  1
  W  W22  1  0.249863  0.249843  0.250411  1
  C  C23  1  0.722210  0.722296  0.279960  1
  C  C24  1  0.275550  0.722254  0.279997  1
  C  C25  1  0.722291  0.275492  0.279917  1
  C  C26  1  0.280154  0.280187  0.720465  1
  C  C27  1  0.719161  0.280199  0.720460  1
  C  C28  1  0.280127  0.719263  0.720471  1
