# generated using pymatgen
data_La2YEr17(Si3Pt)4
_symmetry_space_group_name_H-M   'P 1'
_cell_length_a   7.27280511
_cell_length_b   7.89783661
_cell_length_c   14.54286715
_cell_angle_alpha   89.90839970
_cell_angle_beta   90.01585246
_cell_angle_gamma   90.01236243
_symmetry_Int_Tables_number   1
_chemical_formula_structural   La2YEr17(Si3Pt)4
_chemical_formula_sum   'La2 Y1 Er17 Si12 Pt4'
_cell_volume   835.33283005
_cell_formula_units_Z   1
loop_
 _symmetry_equiv_pos_site_id
 _symmetry_equiv_pos_as_xyz
  1  'x, y, z'
loop_
 _atom_site_type_symbol
 _atom_site_label
 _atom_site_symmetry_multiplicity
 _atom_site_fract_x
 _atom_site_fract_y
 _atom_site_fract_z
 _atom_site_occupancy
  La  La0  1  0.511033  0.574540  0.337157  1
  La  La1  1  0.010773  0.425817  0.663131  1
  Y  Y2  1  0.014578  0.431456  0.340762  1
  Er  Er3  1  0.813249  0.578214  0.878015  1
  Er  Er4  1  0.313898  0.421701  0.121930  1
  Er  Er5  1  0.183553  0.926201  0.376790  1
  Er  Er6  1  0.683409  0.073754  0.623515  1
  Er  Er7  1  0.184766  0.924445  0.625074  1
  Er  Er8  1  0.684092  0.075061  0.375444  1
  Er  Er9  1  0.816927  0.575799  0.122329  1
  Er  Er10  1  0.317251  0.424655  0.877374  1
  Er  Er11  1  0.664523  0.233964  0.999629  1
  Er  Er12  1  0.164341  0.766114  0.000109  1
  Er  Er13  1  0.337698  0.266731  0.499564  1
  Er  Er14  1  0.837661  0.733017  0.500867  1
  Er  Er15  1  0.485317  0.934370  0.843691  1
  Er  Er16  1  0.985248  0.065612  0.155693  1
  Er  Er17  1  0.482079  0.937392  0.153436  1
  Er  Er18  1  0.981669  0.062370  0.846400  1
  Er  Er19  1  0.514934  0.568356  0.657947  1
  Si  Si20  1  0.652165  0.275084  0.791146  1
  Si  Si21  1  0.152280  0.725738  0.208591  1
  Si  Si22  1  0.347375  0.215453  0.286047  1
  Si  Si23  1  0.845522  0.783611  0.713960  1
  Si  Si24  1  0.356661  0.219909  0.712518  1
  Si  Si25  1  0.856144  0.781507  0.287116  1
  Si  Si26  1  0.653376  0.272618  0.208062  1
  Si  Si27  1  0.152605  0.727411  0.792100  1
  Si  Si28  1  0.770214  0.883091  0.000174  1
  Si  Si29  1  0.270554  0.117027  0.999558  1
  Si  Si30  1  0.227651  0.620130  0.502995  1
  Si  Si31  1  0.727239  0.379627  0.497924  1
  Pt  Pt32  1  0.520079  0.654312  0.001330  1
  Pt  Pt33  1  0.020662  0.345811  0.998625  1
  Pt  Pt34  1  0.479936  0.847928  0.502757  1
  Pt  Pt35  1  0.980540  0.151175  0.498242  1
