# generated using pymatgen
data_Nb8VPdSe16
_symmetry_space_group_name_H-M   'P 1'
_cell_length_a   6.99574500
_cell_length_b   6.99574535
_cell_length_c   12.95960600
_cell_angle_alpha   90.00000000
_cell_angle_beta   90.00000000
_cell_angle_gamma   120.00000309
_symmetry_Int_Tables_number   1
_chemical_formula_structural   Nb8VPdSe16
_chemical_formula_sum   'Nb8 V1 Pd1 Se16'
_cell_volume   549.27569141
_cell_formula_units_Z   1
loop_
 _symmetry_equiv_pos_site_id
 _symmetry_equiv_pos_as_xyz
  1  'x, y, z'
loop_
 _atom_site_type_symbol
 _atom_site_label
 _atom_site_symmetry_multiplicity
 _atom_site_fract_x
 _atom_site_fract_y
 _atom_site_fract_z
 _atom_site_occupancy
  Nb  Nb0  1  0.000000  0.000000  0.249824  1
  Nb  Nb1  1  0.000000  0.000000  0.750176  1
  Nb  Nb2  1  0.509037  0.018074  0.251137  1
  Nb  Nb3  1  0.490963  0.981926  0.748863  1
  Nb  Nb4  1  0.981926  0.490963  0.251137  1
  Nb  Nb5  1  0.018074  0.509037  0.748863  1
  Nb  Nb6  1  0.509037  0.490963  0.251137  1
  Nb  Nb7  1  0.490963  0.509037  0.748863  1
  V  V8  1  0.000000  0.000000  0.500000  1
  Pd  Pd9  1  0.000000  0.000000  0.000000  1
  Se  Se10  1  0.333333  0.666667  0.613231  1
  Se  Se11  1  0.666667  0.333333  0.386769  1
  Se  Se12  1  0.666667  0.333333  0.116040  1
  Se  Se13  1  0.333333  0.666667  0.883960  1
  Se  Se14  1  0.170830  0.341661  0.123744  1
  Se  Se15  1  0.829170  0.658339  0.876256  1
  Se  Se16  1  0.658339  0.829170  0.123744  1
  Se  Se17  1  0.833569  0.667138  0.621214  1
  Se  Se18  1  0.341661  0.170830  0.876256  1
  Se  Se19  1  0.166431  0.332862  0.378786  1
  Se  Se20  1  0.170830  0.829170  0.123744  1
  Se  Se21  1  0.332862  0.166431  0.621214  1
  Se  Se22  1  0.829170  0.170830  0.876256  1
  Se  Se23  1  0.667138  0.833569  0.378786  1
  Se  Se24  1  0.833569  0.166431  0.621214  1
  Se  Se25  1  0.166431  0.833569  0.378786  1
