# generated using pymatgen
data_Pr3Eu(Co5P3)4
_symmetry_space_group_name_H-M   'P 1'
_cell_length_a   3.70307000
_cell_length_b   10.43553928
_cell_length_c   11.89685231
_cell_angle_alpha   89.97365865
_cell_angle_beta   90.00000000
_cell_angle_gamma   90.00000000
_symmetry_Int_Tables_number   1
_chemical_formula_structural   Pr3Eu(Co5P3)4
_chemical_formula_sum   'Pr3 Eu1 Co20 P12'
_cell_volume   459.73634959
_cell_formula_units_Z   1
loop_
 _symmetry_equiv_pos_site_id
 _symmetry_equiv_pos_as_xyz
  1  'x, y, z'
loop_
 _atom_site_type_symbol
 _atom_site_label
 _atom_site_symmetry_multiplicity
 _atom_site_fract_x
 _atom_site_fract_y
 _atom_site_fract_z
 _atom_site_occupancy
  Pr  Pr0  1  0.250000  0.916675  0.201869  1
  Pr  Pr1  1  0.750000  0.416817  0.297800  1
  Pr  Pr2  1  0.750000  0.083391  0.798217  1
  Eu  Eu3  1  0.250000  0.583892  0.702132  1
  Co  Co4  1  0.250000  0.712388  0.990162  1
  Co  Co5  1  0.250000  0.787472  0.490635  1
  Co  Co6  1  0.750000  0.287519  0.010227  1
  Co  Co7  1  0.750000  0.213492  0.510583  1
  Co  Co8  1  0.250000  0.405070  0.490427  1
  Co  Co9  1  0.250000  0.095104  0.990339  1
  Co  Co10  1  0.750000  0.594592  0.509828  1
  Co  Co11  1  0.750000  0.905062  0.009790  1
  Co  Co12  1  0.250000  0.221134  0.175538  1
  Co  Co13  1  0.250000  0.279609  0.675192  1
  Co  Co14  1  0.750000  0.779350  0.824815  1
  Co  Co15  1  0.750000  0.721007  0.324486  1
  Co  Co16  1  0.250000  0.881464  0.697232  1
  Co  Co17  1  0.250000  0.617570  0.196797  1
  Co  Co18  1  0.750000  0.117786  0.303179  1
  Co  Co19  1  0.750000  0.382098  0.802561  1
  Co  Co20  1  0.250000  0.469405  0.932312  1
  Co  Co21  1  0.250000  0.031088  0.433383  1
  Co  Co22  1  0.750000  0.531654  0.065545  1
  Co  Co23  1  0.750000  0.967250  0.567317  1
  P  P24  1  0.250000  0.418600  0.108781  1
  P  P25  1  0.250000  0.081386  0.609666  1
  P  P26  1  0.750000  0.581183  0.887548  1
  P  P27  1  0.750000  0.918131  0.390746  1
  P  P28  1  0.250000  0.276720  0.869629  1
  P  P29  1  0.250000  0.223949  0.370335  1
  P  P30  1  0.750000  0.723620  0.129908  1
  P  P31  1  0.750000  0.773085  0.631272  1
  P  P32  1  0.250000  0.606343  0.394068  1
  P  P33  1  0.250000  0.893268  0.893438  1
  P  P34  1  0.750000  0.396487  0.607630  1
  P  P35  1  0.750000  0.106338  0.106615  1
