# generated using pymatgen
data_Yb3Pr16ErSn16
_symmetry_space_group_name_H-M   'P 1'
_cell_length_a   8.15711777
_cell_length_b   8.51446932
_cell_length_c   16.16733100
_cell_angle_alpha   90.00000000
_cell_angle_beta   90.00000000
_cell_angle_gamma   89.79725284
_symmetry_Int_Tables_number   1
_chemical_formula_structural   Yb3Pr16ErSn16
_chemical_formula_sum   'Yb3 Pr16 Er1 Sn16'
_cell_volume   1122.87116275
_cell_formula_units_Z   1
loop_
 _symmetry_equiv_pos_site_id
 _symmetry_equiv_pos_as_xyz
  1  'x, y, z'
loop_
 _atom_site_type_symbol
 _atom_site_label
 _atom_site_symmetry_multiplicity
 _atom_site_fract_x
 _atom_site_fract_y
 _atom_site_fract_z
 _atom_site_occupancy
  Yb  Yb0  1  0.325082  0.996152  0.750000  1
  Yb  Yb1  1  0.176367  0.496918  0.250000  1
  Yb  Yb2  1  0.674447  0.003057  0.250000  1
  Pr  Pr3  1  0.654163  0.170403  0.625040  1
  Pr  Pr4  1  0.155756  0.329695  0.875929  1
  Pr  Pr5  1  0.345716  0.828697  0.124784  1
  Pr  Pr6  1  0.845982  0.668266  0.377597  1
  Pr  Pr7  1  0.345716  0.828697  0.375216  1
  Pr  Pr8  1  0.845982  0.668266  0.122403  1
  Pr  Pr9  1  0.654163  0.170403  0.874960  1
  Pr  Pr10  1  0.155756  0.329695  0.624071  1
  Pr  Pr11  1  0.497425  0.681230  0.597809  1
  Pr  Pr12  1  0.001197  0.817923  0.903366  1
  Pr  Pr13  1  0.500362  0.318027  0.096362  1
  Pr  Pr14  1  0.998958  0.185138  0.404224  1
  Pr  Pr15  1  0.500362  0.318027  0.403638  1
  Pr  Pr16  1  0.998958  0.185138  0.095776  1
  Pr  Pr17  1  0.497425  0.681230  0.902191  1
  Pr  Pr18  1  0.001197  0.817923  0.596634  1
  Er  Er19  1  0.824320  0.504052  0.750000  1
  Sn  Sn20  1  0.680672  0.961822  0.462789  1
  Sn  Sn21  1  0.188033  0.537382  0.038032  1
  Sn  Sn22  1  0.317910  0.037226  0.962479  1
  Sn  Sn23  1  0.814204  0.464893  0.542861  1
  Sn  Sn24  1  0.317910  0.037226  0.537521  1
  Sn  Sn25  1  0.814204  0.464893  0.957139  1
  Sn  Sn26  1  0.680672  0.961822  0.037211  1
  Sn  Sn27  1  0.188033  0.537382  0.461968  1
  Sn  Sn28  1  0.459637  0.396601  0.750000  1
  Sn  Sn29  1  0.957487  0.109242  0.750000  1
  Sn  Sn30  1  0.545444  0.604277  0.250000  1
  Sn  Sn31  1  0.041751  0.895183  0.250000  1
  Sn  Sn32  1  0.699825  0.851852  0.750000  1
  Sn  Sn33  1  0.189550  0.641446  0.750000  1
  Sn  Sn34  1  0.301329  0.141691  0.250000  1
  Sn  Sn35  1  0.804004  0.358128  0.250000  1
