# generated using pymatgen
data_KCr(NiS2)2
_symmetry_space_group_name_H-M   'P 1'
_cell_length_a   9.24093086
_cell_length_b   9.24093069
_cell_length_c   7.06729600
_cell_angle_alpha   90.00000000
_cell_angle_beta   90.00000000
_cell_angle_gamma   147.12805535
_symmetry_Int_Tables_number   1
_chemical_formula_structural   KCr(NiS2)2
_chemical_formula_sum   'K2 Cr2 Ni4 S8'
_cell_volume   327.56323835
_cell_formula_units_Z   2
loop_
 _symmetry_equiv_pos_site_id
 _symmetry_equiv_pos_as_xyz
  1  'x, y, z'
loop_
 _atom_site_type_symbol
 _atom_site_label
 _atom_site_symmetry_multiplicity
 _atom_site_fract_x
 _atom_site_fract_y
 _atom_site_fract_z
 _atom_site_occupancy
  K  K0  1  0.916208  0.548442  0.250000  1
  K  K1  1  0.548442  0.916208  0.750000  1
  Cr  Cr2  1  0.869835  0.086965  0.250000  1
  Cr  Cr3  1  0.086965  0.869835  0.750000  1
  Ni  Ni4  1  0.992810  0.992810  0.500000  1
  Ni  Ni5  1  0.992810  0.992810  0.000000  1
  Ni  Ni6  1  0.372452  0.584373  0.250000  1
  Ni  Ni7  1  0.584373  0.372452  0.750000  1
  S  S8  1  0.324636  0.113946  0.503443  1
  S  S9  1  0.113946  0.324636  0.496557  1
  S  S10  1  0.530389  0.941214  0.250000  1
  S  S11  1  0.941214  0.530389  0.750000  1
  S  S12  1  0.731926  0.746849  0.250000  1
  S  S13  1  0.746849  0.731926  0.750000  1
  S  S14  1  0.324636  0.113946  0.996557  1
  S  S15  1  0.113946  0.324636  0.003443  1
