# generated using pymatgen
data_Ca4ScSn3
_symmetry_space_group_name_H-M   'P 1'
_cell_length_a   9.18708859
_cell_length_b   9.18717903
_cell_length_c   9.18708908
_cell_angle_alpha   96.85781748
_cell_angle_beta   96.85568899
_cell_angle_gamma   139.57154602
_symmetry_Int_Tables_number   1
_chemical_formula_structural   Ca4ScSn3
_chemical_formula_sum   'Ca8 Sc2 Sn6'
_cell_volume   471.88933670
_cell_formula_units_Z   2
loop_
 _symmetry_equiv_pos_site_id
 _symmetry_equiv_pos_as_xyz
  1  'x, y, z'
loop_
 _atom_site_type_symbol
 _atom_site_label
 _atom_site_symmetry_multiplicity
 _atom_site_fract_x
 _atom_site_fract_y
 _atom_site_fract_z
 _atom_site_occupancy
  Ca  Ca0  1  0.083519  0.213968  0.297488  1
  Ca  Ca1  1  0.916481  0.786032  0.702512  1
  Ca  Ca2  1  0.786033  0.083516  0.869551  1
  Ca  Ca3  1  0.416480  0.713968  0.130449  1
  Ca  Ca4  1  0.213967  0.916484  0.130449  1
  Ca  Ca5  1  0.583520  0.286032  0.869551  1
  Ca  Ca6  1  0.713965  0.583516  0.297483  1
  Ca  Ca7  1  0.286035  0.416484  0.702517  1
  Sc  Sc8  1  0.249985  0.750000  0.499985  1
  Sc  Sc9  1  0.750015  0.250000  0.500015  1
  Sn  Sn10  1  0.146940  0.646940  0.793881  1
  Sn  Sn11  1  0.853060  0.353060  0.206119  1
  Sn  Sn12  1  0.353059  0.146940  0.500000  1
  Sn  Sn13  1  0.646941  0.853060  0.500000  1
  Sn  Sn14  1  0.249999  0.250000  0.999999  1
  Sn  Sn15  1  0.750001  0.750000  0.000001  1
